MODEL 1
REMARK VINA RESULT:    -5.723      0.000      0.000
REMARK INTER + INTRA:         -17.036
REMARK INTER:                 -14.422
REMARK INTRA:                  -2.614
REMARK UNBOUND:                -2.614
REMARK SMILES CCCCCCCCCCCCCCCCCCCCCCCCCCCC(=O)[O-]
REMARK SMILES IDX 15 1 16 2 17 3 18 4 19 5 20 6 21 7 22 8 23 9 24 10 25 11
REMARK SMILES IDX 26 12 27 13 28 14 29 15 30 16 14 17 13 18 12 19 11 20 10 21
REMARK SMILES IDX 9 22 8 23 7 24 6 25 5 26 4 27 3 28 2 29 1 30
REMARK H PARENT
REMARK Flexibility Score: inf
ROOT
ATOM      1  C   UNL     1       9.188  54.937  25.255  1.00  0.00     0.000 C 
ENDROOT
BRANCH   1   2
ATOM      2  C   UNL     1      10.360  54.048  24.799  1.00  0.00     0.000 C 
BRANCH   2   3
ATOM      3  C   UNL     1      10.594  54.007  23.277  1.00  0.00     0.000 C 
BRANCH   3   4
ATOM      4  C   UNL     1      10.413  52.601  22.680  1.00  0.00     0.000 C 
BRANCH   4   5
ATOM      5  C   UNL     1       9.988  51.562  23.729  1.00  0.00     0.000 C 
BRANCH   5   6
ATOM      6  C   UNL     1      10.451  50.137  23.383  1.00  0.00     0.000 C 
BRANCH   6   7
ATOM      7  C   UNL     1      10.480  49.253  24.639  1.00  0.00     0.000 C 
BRANCH   7   8
ATOM      8  C   UNL     1      10.487  47.751  24.307  1.00  0.00     0.000 C 
BRANCH   8   9
ATOM      9  C   UNL     1      11.910  47.197  24.116  1.00  0.00     0.000 C 
BRANCH   9  10
ATOM     10  C   UNL     1      12.828  47.511  25.309  1.00  0.00     0.000 C 
BRANCH  10  11
ATOM     11  C   UNL     1      12.376  46.815  26.605  1.00  0.00     0.000 C 
BRANCH  11  12
ATOM     12  C   UNL     1      12.023  47.813  27.724  1.00  0.00     0.006 C 
BRANCH  12  13
ATOM     13  C   UNL     1      12.672  47.494  29.080  1.00  0.00     0.053 C 
BRANCH  13  14
ATOM     14  C   UNL     1      14.160  47.661  29.042  1.00  0.00     0.041 C 
ATOM     15  O   UNL     1      14.908  46.799  29.574  1.00  0.00    -0.550 OA
ATOM     16  O   UNL     1      14.719  48.783  28.446  1.00  0.00    -0.550 OA
ENDBRANCH  13  14
ENDBRANCH  12  13
ENDBRANCH  11  12
ENDBRANCH  10  11
ENDBRANCH   9  10
ENDBRANCH   8   9
ENDBRANCH   7   8
ENDBRANCH   6   7
ENDBRANCH   5   6
ENDBRANCH   4   5
ENDBRANCH   3   4
ENDBRANCH   2   3
ENDBRANCH   1   2
BRANCH   1  17
ATOM     17  C   UNL     1       8.002  54.127  25.808  1.00  0.00     0.000 C 
BRANCH  17  18
ATOM     18  C   UNL     1       7.279  53.322  24.718  1.00  0.00     0.000 C 
BRANCH  18  19
ATOM     19  C   UNL     1       6.562  54.224  23.697  1.00  0.00     0.000 C 
BRANCH  19  20
ATOM     20  C   UNL     1       6.864  53.826  22.243  1.00  0.00     0.000 C 
BRANCH  20  21
ATOM     21  C   UNL     1       7.561  54.946  21.456  1.00  0.00     0.000 C 
BRANCH  21  22
ATOM     22  C   UNL     1       7.507  56.270  22.228  1.00  0.00    -0.000 C 
BRANCH  22  23
ATOM     23  C   UNL     1       6.438  57.205  21.647  1.00  0.00    -0.000 C 
BRANCH  23  24
ATOM     24  C   UNL     1       5.222  57.293  22.577  1.00  0.00    -0.000 C 
BRANCH  24  25
ATOM     25  C   UNL     1       4.162  58.248  22.007  1.00  0.00    -0.000 C 
BRANCH  25  26
ATOM     26  C   UNL     1       3.424  59.036  23.103  1.00  0.00    -0.000 C 
BRANCH  26  27
ATOM     27  C   UNL     1       2.685  60.266  22.548  1.00  0.00    -0.000 C 
BRANCH  27  28
ATOM     28  C   UNL     1       1.164  60.199  22.772  1.00  0.00    -0.000 C 
BRANCH  28  29
ATOM     29  C   UNL     1       0.728  60.070  24.243  1.00  0.00    -0.003 C 
ATOM     30  C   UNL     1      -0.334  61.093  24.644  1.00  0.00     0.004 C 
ENDBRANCH  28  29
ENDBRANCH  27  28
ENDBRANCH  26  27
ENDBRANCH  25  26
ENDBRANCH  24  25
ENDBRANCH  23  24
ENDBRANCH  22  23
ENDBRANCH  21  22
ENDBRANCH  20  21
ENDBRANCH  19  20
ENDBRANCH  18  19
ENDBRANCH  17  18
ENDBRANCH   1  17
TORSDOF 26
ENDMDL
MODEL 2
REMARK VINA RESULT:    -5.632      3.123      5.013
REMARK INTER + INTRA:         -16.807
REMARK INTER:                 -13.074
REMARK INTRA:                  -3.732
REMARK UNBOUND:                -2.614
REMARK SMILES CCCCCCCCCCCCCCCCCCCCCCCCCCCC(=O)[O-]
REMARK SMILES IDX 15 1 16 2 17 3 18 4 19 5 20 6 21 7 22 8 23 9 24 10 25 11
REMARK SMILES IDX 26 12 27 13 28 14 29 15 30 16 14 17 13 18 12 19 11 20 10 21
REMARK SMILES IDX 9 22 8 23 7 24 6 25 5 26 4 27 3 28 2 29 1 30
REMARK H PARENT
REMARK Flexibility Score: inf
ROOT
ATOM      1  C   UNL     1       9.884  51.557  23.764  1.00  0.00     0.000 C 
ENDROOT
BRANCH   1   2
ATOM      2  C   UNL     1      10.506  50.193  23.410  1.00  0.00     0.000 C 
BRANCH   2   3
ATOM      3  C   UNL     1      10.603  49.196  24.580  1.00  0.00     0.000 C 
BRANCH   3   4
ATOM      4  C   UNL     1      10.120  47.785  24.207  1.00  0.00     0.000 C 
BRANCH   4   5
ATOM      5  C   UNL     1      11.267  46.764  24.143  1.00  0.00     0.000 C 
BRANCH   5   6
ATOM      6  C   UNL     1      10.838  45.353  24.578  1.00  0.00     0.000 C 
BRANCH   6   7
ATOM      7  C   UNL     1       9.369  45.345  25.029  1.00  0.00     0.000 C 
BRANCH   7   8
ATOM      8  C   UNL     1       9.211  45.063  26.533  1.00  0.00     0.000 C 
BRANCH   8   9
ATOM      9  C   UNL     1      10.400  44.276  27.111  1.00  0.00     0.000 C 
BRANCH   9  10
ATOM     10  C   UNL     1      11.050  44.986  28.310  1.00  0.00     0.000 C 
BRANCH  10  11
ATOM     11  C   UNL     1      12.282  45.818  27.911  1.00  0.00     0.000 C 
BRANCH  11  12
ATOM     12  C   UNL     1      11.945  47.300  27.665  1.00  0.00     0.006 C 
BRANCH  12  13
ATOM     13  C   UNL     1      13.171  48.190  27.410  1.00  0.00     0.053 C 
BRANCH  13  14
ATOM     14  C   UNL     1      13.814  48.636  28.687  1.00  0.00     0.041 C 
ATOM     15  O   UNL     1      13.119  48.798  29.725  1.00  0.00    -0.550 OA
ATOM     16  O   UNL     1      15.176  48.904  28.724  1.00  0.00    -0.550 OA
ENDBRANCH  13  14
ENDBRANCH  12  13
ENDBRANCH  11  12
ENDBRANCH  10  11
ENDBRANCH   9  10
ENDBRANCH   8   9
ENDBRANCH   7   8
ENDBRANCH   6   7
ENDBRANCH   5   6
ENDBRANCH   4   5
ENDBRANCH   3   4
ENDBRANCH   2   3
ENDBRANCH   1   2
BRANCH   1  17
ATOM     17  C   UNL     1      10.027  52.592  22.634  1.00  0.00     0.000 C 
BRANCH  17  18
ATOM     18  C   UNL     1      10.378  53.992  23.157  1.00  0.00     0.000 C 
BRANCH  18  19
ATOM     19  C   UNL     1      10.734  53.991  24.655  1.00  0.00     0.000 C 
BRANCH  19  20
ATOM     20  C   UNL     1      10.125  55.184  25.409  1.00  0.00     0.000 C 
BRANCH  20  21
ATOM     21  C   UNL     1       9.164  54.749  26.525  1.00  0.00     0.000 C 
BRANCH  21  22
ATOM     22  C   UNL     1       8.091  53.797  25.982  1.00  0.00    -0.000 C 
BRANCH  22  23
ATOM     23  C   UNL     1       7.035  54.560  25.171  1.00  0.00    -0.000 C 
BRANCH  23  24
ATOM     24  C   UNL     1       6.745  53.853  23.842  1.00  0.00    -0.000 C 
BRANCH  24  25
ATOM     25  C   UNL     1       6.182  54.837  22.806  1.00  0.00    -0.000 C 
BRANCH  25  26
ATOM     26  C   UNL     1       7.024  56.119  22.690  1.00  0.00    -0.000 C 
BRANCH  26  27
ATOM     27  C   UNL     1       7.957  56.102  21.467  1.00  0.00    -0.000 C 
BRANCH  27  28
ATOM     28  C   UNL     1       7.254  55.615  20.187  1.00  0.00    -0.000 C 
BRANCH  28  29
ATOM     29  C   UNL     1       7.650  54.201  19.725  1.00  0.00    -0.003 C 
ATOM     30  C   UNL     1       6.448  53.277  19.534  1.00  0.00     0.004 C 
ENDBRANCH  28  29
ENDBRANCH  27  28
ENDBRANCH  26  27
ENDBRANCH  25  26
ENDBRANCH  24  25
ENDBRANCH  23  24
ENDBRANCH  22  23
ENDBRANCH  21  22
ENDBRANCH  20  21
ENDBRANCH  19  20
ENDBRANCH  18  19
ENDBRANCH  17  18
ENDBRANCH   1  17
TORSDOF 26
ENDMDL
MODEL 3
REMARK VINA RESULT:    -5.395      6.815     13.532
REMARK INTER + INTRA:         -16.210
REMARK INTER:                 -13.707
REMARK INTRA:                  -2.503
REMARK UNBOUND:                -2.614
REMARK SMILES CCCCCCCCCCCCCCCCCCCCCCCCCCCC(=O)[O-]
REMARK SMILES IDX 15 1 16 2 17 3 18 4 19 5 20 6 21 7 22 8 23 9 24 10 25 11
REMARK SMILES IDX 26 12 27 13 28 14 29 15 30 16 14 17 13 18 12 19 11 20 10 21
REMARK SMILES IDX 9 22 8 23 7 24 6 25 5 26 4 27 3 28 2 29 1 30
REMARK H PARENT
REMARK Flexibility Score: inf
ROOT
ATOM      1  C   UNL     1       2.848  59.828  21.540  1.00  0.00     0.000 C 
ENDROOT
BRANCH   1   2
ATOM      2  C   UNL     1       2.703  60.210  23.025  1.00  0.00     0.000 C 
BRANCH   2   3
ATOM      3  C   UNL     1       1.257  60.226  23.557  1.00  0.00     0.000 C 
BRANCH   3   4
ATOM      4  C   UNL     1       0.513  58.903  23.311  1.00  0.00     0.000 C 
BRANCH   4   5
ATOM      5  C   UNL     1      -0.963  59.114  22.938  1.00  0.00     0.000 C 
BRANCH   5   6
ATOM      6  C   UNL     1      -1.194  60.384  22.103  1.00  0.00     0.000 C 
BRANCH   6   7
ATOM      7  C   UNL     1      -0.715  60.180  20.657  1.00  0.00     0.000 C 
BRANCH   7   8
ATOM      8  C   UNL     1      -1.875  60.143  19.647  1.00  0.00     0.000 C 
BRANCH   8   9
ATOM      9  C   UNL     1      -1.442  59.601  18.274  1.00  0.00     0.000 C 
BRANCH   9  10
ATOM     10  C   UNL     1      -1.269  60.714  17.228  1.00  0.00     0.000 C 
BRANCH  10  11
ATOM     11  C   UNL     1       0.202  60.937  16.836  1.00  0.00     0.000 C 
BRANCH  11  12
ATOM     12  C   UNL     1       1.179  60.113  17.694  1.00  0.00     0.006 C 
BRANCH  12  13
ATOM     13  C   UNL     1       1.728  58.859  16.996  1.00  0.00     0.053 C 
BRANCH  13  14
ATOM     14  C   UNL     1       2.688  59.203  15.899  1.00  0.00     0.041 C 
ATOM     15  O   UNL     1       3.208  60.348  15.848  1.00  0.00    -0.550 OA
ATOM     16  O   UNL     1       2.984  58.268  14.916  1.00  0.00    -0.550 OA
ENDBRANCH  13  14
ENDBRANCH  12  13
ENDBRANCH  11  12
ENDBRANCH  10  11
ENDBRANCH   9  10
ENDBRANCH   8   9
ENDBRANCH   7   8
ENDBRANCH   6   7
ENDBRANCH   5   6
ENDBRANCH   4   5
ENDBRANCH   3   4
ENDBRANCH   2   3
ENDBRANCH   1   2
BRANCH   1  17
ATOM     17  C   UNL     1       3.531  58.464  21.337  1.00  0.00     0.000 C 
BRANCH  17  18
ATOM     18  C   UNL     1       4.318  58.010  22.575  1.00  0.00     0.000 C 
BRANCH  18  19
ATOM     19  C   UNL     1       5.296  56.863  22.264  1.00  0.00     0.000 C 
BRANCH  19  20
ATOM     20  C   UNL     1       6.753  57.220  22.599  1.00  0.00     0.000 C 
BRANCH  20  21
ATOM     21  C   UNL     1       7.759  56.553  21.650  1.00  0.00     0.000 C 
BRANCH  21  22
ATOM     22  C   UNL     1       7.037  55.859  20.488  1.00  0.00    -0.000 C 
BRANCH  22  23
ATOM     23  C   UNL     1       7.417  54.375  20.409  1.00  0.00    -0.000 C 
BRANCH  23  24
ATOM     24  C   UNL     1       6.588  53.541  21.393  1.00  0.00    -0.000 C 
BRANCH  24  25
ATOM     25  C   UNL     1       7.369  53.284  22.690  1.00  0.00    -0.000 C 
BRANCH  25  26
ATOM     26  C   UNL     1       6.621  53.780  23.940  1.00  0.00    -0.000 C 
BRANCH  26  27
ATOM     27  C   UNL     1       7.504  53.763  25.200  1.00  0.00    -0.000 C 
BRANCH  27  28
ATOM     28  C   UNL     1       8.689  54.742  25.111  1.00  0.00    -0.000 C 
BRANCH  28  29
ATOM     29  C   UNL     1       9.593  54.784  26.356  1.00  0.00    -0.003 C 
ATOM     30  C   UNL     1      11.077  54.629  26.023  1.00  0.00     0.004 C 
ENDBRANCH  28  29
ENDBRANCH  27  28
ENDBRANCH  26  27
ENDBRANCH  25  26
ENDBRANCH  24  25
ENDBRANCH  23  24
ENDBRANCH  22  23
ENDBRANCH  21  22
ENDBRANCH  20  21
ENDBRANCH  19  20
ENDBRANCH  18  19
ENDBRANCH  17  18
ENDBRANCH   1  17
TORSDOF 26
ENDMDL
MODEL 4
REMARK VINA RESULT:    -5.387      1.875      4.854
REMARK INTER + INTRA:         -16.189
REMARK INTER:                 -13.633
REMARK INTRA:                  -2.556
REMARK UNBOUND:                -2.614
REMARK SMILES CCCCCCCCCCCCCCCCCCCCCCCCCCCC(=O)[O-]
REMARK SMILES IDX 15 1 16 2 17 3 18 4 19 5 20 6 21 7 22 8 23 9 24 10 25 11
REMARK SMILES IDX 26 12 27 13 28 14 29 15 30 16 14 17 13 18 12 19 11 20 10 21
REMARK SMILES IDX 9 22 8 23 7 24 6 25 5 26 4 27 3 28 2 29 1 30
REMARK H PARENT
REMARK Flexibility Score: inf
ROOT
ATOM      1  C   UNL     1      10.558  49.902  23.696  1.00  0.00     0.000 C 
ENDROOT
BRANCH   1   2
ATOM      2  C   UNL     1      10.292  49.076  24.969  1.00  0.00     0.000 C 
BRANCH   2   3
ATOM      3  C   UNL     1       9.850  47.621  24.722  1.00  0.00     0.000 C 
BRANCH   3   4
ATOM      4  C   UNL     1      11.013  46.619  24.803  1.00  0.00     0.000 C 
BRANCH   4   5
ATOM      5  C   UNL     1      10.561  45.167  24.578  1.00  0.00     0.000 C 
BRANCH   5   6
ATOM      6  C   UNL     1      10.890  44.246  25.764  1.00  0.00     0.000 C 
BRANCH   6   7
ATOM      7  C   UNL     1      10.243  44.769  27.056  1.00  0.00     0.000 C 
BRANCH   7   8
ATOM      8  C   UNL     1      10.654  43.957  28.296  1.00  0.00     0.000 C 
BRANCH   8   9
ATOM      9  C   UNL     1      12.028  44.379  28.845  1.00  0.00     0.000 C 
BRANCH   9  10
ATOM     10  C   UNL     1      12.257  45.896  28.760  1.00  0.00     0.000 C 
BRANCH  10  11
ATOM     11  C   UNL     1      12.052  46.605  30.111  1.00  0.00     0.000 C 
BRANCH  11  12
ATOM     12  C   UNL     1      12.698  48.001  30.155  1.00  0.00     0.006 C 
BRANCH  12  13
ATOM     13  C   UNL     1      13.167  48.521  28.787  1.00  0.00     0.053 C 
BRANCH  13  14
ATOM     14  C   UNL     1      14.643  48.777  28.761  1.00  0.00     0.041 C 
ATOM     15  O   UNL     1      15.450  47.816  28.660  1.00  0.00    -0.550 OA
ATOM     16  O   UNL     1      15.126  50.073  28.880  1.00  0.00    -0.550 OA
ENDBRANCH  13  14
ENDBRANCH  12  13
ENDBRANCH  11  12
ENDBRANCH  10  11
ENDBRANCH   9  10
ENDBRANCH   8   9
ENDBRANCH   7   8
ENDBRANCH   6   7
ENDBRANCH   5   6
ENDBRANCH   4   5
ENDBRANCH   3   4
ENDBRANCH   2   3
ENDBRANCH   1   2
BRANCH   1  17
ATOM     17  C   UNL     1       9.933  51.307  23.753  1.00  0.00     0.000 C 
BRANCH  17  18
ATOM     18  C   UNL     1      10.669  52.316  22.859  1.00  0.00     0.000 C 
BRANCH  18  19
ATOM     19  C   UNL     1      10.323  53.775  23.207  1.00  0.00     0.000 C 
BRANCH  19  20
ATOM     20  C   UNL     1      10.369  54.050  24.719  1.00  0.00     0.000 C 
BRANCH  20  21
ATOM     21  C   UNL     1       9.199  54.921  25.198  1.00  0.00     0.000 C 
BRANCH  21  22
ATOM     22  C   UNL     1       8.114  54.063  25.859  1.00  0.00    -0.000 C 
BRANCH  22  23
ATOM     23  C   UNL     1       7.326  53.264  24.813  1.00  0.00    -0.000 C 
BRANCH  23  24
ATOM     24  C   UNL     1       6.676  54.197  23.784  1.00  0.00    -0.000 C 
BRANCH  24  25
ATOM     25  C   UNL     1       6.809  53.628  22.364  1.00  0.00    -0.000 C 
BRANCH  25  26
ATOM     26  C   UNL     1       7.294  54.678  21.349  1.00  0.00    -0.000 C 
BRANCH  26  27
ATOM     27  C   UNL     1       7.648  56.020  22.013  1.00  0.00    -0.000 C 
BRANCH  27  28
ATOM     28  C   UNL     1       6.625  57.128  21.701  1.00  0.00    -0.000 C 
BRANCH  28  29
ATOM     29  C   UNL     1       5.324  57.062  22.522  1.00  0.00    -0.003 C 
ATOM     30  C   UNL     1       4.291  58.099  22.086  1.00  0.00     0.004 C 
ENDBRANCH  28  29
ENDBRANCH  27  28
ENDBRANCH  26  27
ENDBRANCH  25  26
ENDBRANCH  24  25
ENDBRANCH  23  24
ENDBRANCH  22  23
ENDBRANCH  21  22
ENDBRANCH  20  21
ENDBRANCH  19  20
ENDBRANCH  18  19
ENDBRANCH  17  18
ENDBRANCH   1  17
TORSDOF 26
ENDMDL
MODEL 5
REMARK VINA RESULT:    -5.337      1.840      3.180
REMARK INTER + INTRA:         -16.064
REMARK INTER:                 -13.760
REMARK INTRA:                  -2.304
REMARK UNBOUND:                -2.614
REMARK SMILES CCCCCCCCCCCCCCCCCCCCCCCCCCCC(=O)[O-]
REMARK SMILES IDX 15 1 16 2 17 3 18 4 19 5 20 6 21 7 22 8 23 9 24 10 25 11
REMARK SMILES IDX 26 12 27 13 28 14 29 15 30 16 14 17 13 18 12 19 11 20 10 21
REMARK SMILES IDX 9 22 8 23 7 24 6 25 5 26 4 27 3 28 2 29 1 30
REMARK H PARENT
REMARK Flexibility Score: inf
ROOT
ATOM      1  C   UNL     1       7.237  53.276  24.568  1.00  0.00     0.000 C 
ENDROOT
BRANCH   1   2
ATOM      2  C   UNL     1       7.976  54.091  25.647  1.00  0.00     0.000 C 
BRANCH   2   3
ATOM      3  C   UNL     1       9.208  54.868  25.148  1.00  0.00     0.000 C 
BRANCH   3   4
ATOM      4  C   UNL     1      10.377  53.950  24.752  1.00  0.00     0.000 C 
BRANCH   4   5
ATOM      5  C   UNL     1      10.587  53.882  23.231  1.00  0.00     0.000 C 
BRANCH   5   6
ATOM      6  C   UNL     1      10.290  52.491  22.647  1.00  0.00     0.000 C 
BRANCH   6   7
ATOM      7  C   UNL     1       9.895  51.506  23.758  1.00  0.00     0.000 C 
BRANCH   7   8
ATOM      8  C   UNL     1      10.830  50.286  23.829  1.00  0.00     0.000 C 
BRANCH   8   9
ATOM      9  C   UNL     1      10.169  49.079  24.517  1.00  0.00     0.000 C 
BRANCH   9  10
ATOM     10  C   UNL     1      10.807  47.743  24.104  1.00  0.00     0.000 C 
BRANCH  10  11
ATOM     11  C   UNL     1      11.828  47.228  25.134  1.00  0.00     0.000 C 
BRANCH  11  12
ATOM     12  C   UNL     1      11.173  46.799  26.459  1.00  0.00     0.006 C 
BRANCH  12  13
ATOM     13  C   UNL     1      12.171  46.525  27.595  1.00  0.00     0.053 C 
BRANCH  13  14
ATOM     14  C   UNL     1      12.746  47.790  28.154  1.00  0.00     0.041 C 
ATOM     15  O   UNL     1      12.166  48.386  29.100  1.00  0.00    -0.550 OA
ATOM     16  O   UNL     1      13.904  48.328  27.609  1.00  0.00    -0.550 OA
ENDBRANCH  13  14
ENDBRANCH  12  13
ENDBRANCH  11  12
ENDBRANCH  10  11
ENDBRANCH   9  10
ENDBRANCH   8   9
ENDBRANCH   7   8
ENDBRANCH   6   7
ENDBRANCH   5   6
ENDBRANCH   4   5
ENDBRANCH   3   4
ENDBRANCH   2   3
ENDBRANCH   1   2
BRANCH   1  17
ATOM     17  C   UNL     1       6.455  54.161  23.582  1.00  0.00     0.000 C 
BRANCH  17  18
ATOM     18  C   UNL     1       6.954  54.017  22.136  1.00  0.00     0.000 C 
BRANCH  18  19
ATOM     19  C   UNL     1       7.850  55.190  21.701  1.00  0.00     0.000 C 
BRANCH  19  20
ATOM     20  C   UNL     1       7.395  56.533  22.294  1.00  0.00     0.000 C 
BRANCH  20  21
ATOM     21  C   UNL     1       6.152  57.099  21.591  1.00  0.00     0.000 C 
BRANCH  21  22
ATOM     22  C   UNL     1       5.042  57.402  22.604  1.00  0.00    -0.000 C 
BRANCH  22  23
ATOM     23  C   UNL     1       3.922  58.233  21.964  1.00  0.00    -0.000 C 
BRANCH  23  24
ATOM     24  C   UNL     1       3.363  59.259  22.957  1.00  0.00    -0.000 C 
BRANCH  24  25
ATOM     25  C   UNL     1       1.923  59.649  22.592  1.00  0.00    -0.000 C 
BRANCH  25  26
ATOM     26  C   UNL     1       1.369  58.831  21.413  1.00  0.00    -0.000 C 
BRANCH  26  27
ATOM     27  C   UNL     1       0.941  59.718  20.231  1.00  0.00    -0.000 C 
BRANCH  27  28
ATOM     28  C   UNL     1       1.174  59.045  18.866  1.00  0.00    -0.000 C 
BRANCH  28  29
ATOM     29  C   UNL     1       1.567  60.004  17.727  1.00  0.00    -0.003 C 
ATOM     30  C   UNL     1       2.234  59.292  16.551  1.00  0.00     0.004 C 
ENDBRANCH  28  29
ENDBRANCH  27  28
ENDBRANCH  26  27
ENDBRANCH  25  26
ENDBRANCH  24  25
ENDBRANCH  23  24
ENDBRANCH  22  23
ENDBRANCH  21  22
ENDBRANCH  20  21
ENDBRANCH  19  20
ENDBRANCH  18  19
ENDBRANCH  17  18
ENDBRANCH   1  17
TORSDOF 26
ENDMDL
MODEL 6
REMARK VINA RESULT:    -5.298      5.710     13.001
REMARK INTER + INTRA:         -15.966
REMARK INTER:                 -13.452
REMARK INTRA:                  -2.513
REMARK UNBOUND:                -2.614
REMARK SMILES CCCCCCCCCCCCCCCCCCCCCCCCCCCC(=O)[O-]
REMARK SMILES IDX 15 1 16 2 17 3 18 4 19 5 20 6 21 7 22 8 23 9 24 10 25 11
REMARK SMILES IDX 26 12 27 13 28 14 29 15 30 16 14 17 13 18 12 19 11 20 10 21
REMARK SMILES IDX 9 22 8 23 7 24 6 25 5 26 4 27 3 28 2 29 1 30
REMARK H PARENT
REMARK Flexibility Score: inf
ROOT
ATOM      1  C   UNL     1       7.694  53.630  25.176  1.00  0.00     0.000 C 
ENDROOT
BRANCH   1   2
ATOM      2  C   UNL     1       6.689  54.116  24.115  1.00  0.00     0.000 C 
BRANCH   2   3
ATOM      3  C   UNL     1       6.918  53.560  22.696  1.00  0.00     0.000 C 
BRANCH   3   4
ATOM      4  C   UNL     1       7.346  54.642  21.690  1.00  0.00     0.000 C 
BRANCH   4   5
ATOM      5  C   UNL     1       7.555  56.015  22.349  1.00  0.00     0.000 C 
BRANCH   5   6
ATOM      6  C   UNL     1       6.561  57.076  21.851  1.00  0.00     0.000 C 
BRANCH   6   7
ATOM      7  C   UNL     1       5.231  56.979  22.615  1.00  0.00     0.000 C 
BRANCH   7   8
ATOM      8  C   UNL     1       4.320  58.196  22.379  1.00  0.00     0.000 C 
BRANCH   8   9
ATOM      9  C   UNL     1       2.985  57.813  21.717  1.00  0.00     0.000 C 
BRANCH   9  10
ATOM     10  C   UNL     1       1.836  58.750  22.122  1.00  0.00     0.000 C 
BRANCH  10  11
ATOM     11  C   UNL     1       1.253  59.525  20.927  1.00  0.00     0.000 C 
BRANCH  11  12
ATOM     12  C   UNL     1       1.944  59.177  19.596  1.00  0.00     0.006 C 
BRANCH  12  13
ATOM     13  C   UNL     1       0.979  59.005  18.412  1.00  0.00     0.053 C 
BRANCH  13  14
ATOM     14  C   UNL     1       1.512  59.629  17.160  1.00  0.00     0.041 C 
ATOM     15  O   UNL     1       2.272  58.975  16.398  1.00  0.00    -0.550 OA
ATOM     16  O   UNL     1       1.195  60.945  16.849  1.00  0.00    -0.550 OA
ENDBRANCH  13  14
ENDBRANCH  12  13
ENDBRANCH  11  12
ENDBRANCH  10  11
ENDBRANCH   9  10
ENDBRANCH   8   9
ENDBRANCH   7   8
ENDBRANCH   6   7
ENDBRANCH   5   6
ENDBRANCH   4   5
ENDBRANCH   3   4
ENDBRANCH   2   3
ENDBRANCH   1   2
BRANCH   1  17
ATOM     17  C   UNL     1       8.397  54.788  25.907  1.00  0.00     0.000 C 
BRANCH  17  18
ATOM     18  C   UNL     1       9.737  55.167  25.260  1.00  0.00     0.000 C 
BRANCH  18  19
ATOM     19  C   UNL     1      10.504  53.942  24.730  1.00  0.00     0.000 C 
BRANCH  19  20
ATOM     20  C   UNL     1      10.547  53.890  23.194  1.00  0.00     0.000 C 
BRANCH  20  21
ATOM     21  C   UNL     1      10.574  52.454  22.651  1.00  0.00     0.000 C 
BRANCH  21  22
ATOM     22  C   UNL     1       9.797  51.507  23.573  1.00  0.00    -0.000 C 
BRANCH  22  23
ATOM     23  C   UNL     1      10.564  50.197  23.792  1.00  0.00    -0.000 C 
BRANCH  23  24
ATOM     24  C   UNL     1       9.909  49.352  24.892  1.00  0.00    -0.000 C 
BRANCH  24  25
ATOM     25  C   UNL     1      10.901  48.329  25.464  1.00  0.00    -0.000 C 
BRANCH  25  26
ATOM     26  C   UNL     1      11.793  47.700  24.380  1.00  0.00    -0.000 C 
BRANCH  26  27
ATOM     27  C   UNL     1      11.417  46.238  24.082  1.00  0.00    -0.000 C 
BRANCH  27  28
ATOM     28  C   UNL     1      10.563  45.603  25.195  1.00  0.00    -0.000 C 
BRANCH  28  29
ATOM     29  C   UNL     1       9.072  45.434  24.855  1.00  0.00    -0.003 C 
ATOM     30  C   UNL     1       8.608  43.979  24.909  1.00  0.00     0.004 C 
ENDBRANCH  28  29
ENDBRANCH  27  28
ENDBRANCH  26  27
ENDBRANCH  25  26
ENDBRANCH  24  25
ENDBRANCH  23  24
ENDBRANCH  22  23
ENDBRANCH  21  22
ENDBRANCH  20  21
ENDBRANCH  19  20
ENDBRANCH  18  19
ENDBRANCH  17  18
ENDBRANCH   1  17
TORSDOF 26
ENDMDL
MODEL 7
REMARK VINA RESULT:    -5.187      5.235     13.087
REMARK INTER + INTRA:         -15.686
REMARK INTER:                 -13.138
REMARK INTRA:                  -2.547
REMARK UNBOUND:                -2.614
REMARK SMILES CCCCCCCCCCCCCCCCCCCCCCCCCCCC(=O)[O-]
REMARK SMILES IDX 15 1 16 2 17 3 18 4 19 5 20 6 21 7 22 8 23 9 24 10 25 11
REMARK SMILES IDX 26 12 27 13 28 14 29 15 30 16 14 17 13 18 12 19 11 20 10 21
REMARK SMILES IDX 9 22 8 23 7 24 6 25 5 26 4 27 3 28 2 29 1 30
REMARK H PARENT
REMARK Flexibility Score: inf
ROOT
ATOM      1  C   UNL     1       9.832  51.074  23.824  1.00  0.00     0.000 C 
ENDROOT
BRANCH   1   2
ATOM      2  C   UNL     1      10.372  52.312  23.083  1.00  0.00     0.000 C 
BRANCH   2   3
ATOM      3  C   UNL     1      10.507  53.581  23.946  1.00  0.00     0.000 C 
BRANCH   3   4
ATOM      4  C   UNL     1       9.344  54.567  23.748  1.00  0.00     0.000 C 
BRANCH   4   5
ATOM      5  C   UNL     1       8.230  54.388  24.793  1.00  0.00     0.000 C 
BRANCH   5   6
ATOM      6  C   UNL     1       6.905  53.908  24.179  1.00  0.00     0.000 C 
BRANCH   6   7
ATOM      7  C   UNL     1       7.068  53.634  22.676  1.00  0.00     0.000 C 
BRANCH   7   8
ATOM      8  C   UNL     1       6.247  54.599  21.804  1.00  0.00     0.000 C 
BRANCH   8   9
ATOM      9  C   UNL     1       7.030  55.874  21.442  1.00  0.00     0.000 C 
BRANCH   9  10
ATOM     10  C   UNL     1       6.541  57.106  22.221  1.00  0.00     0.000 C 
BRANCH  10  11
ATOM     11  C   UNL     1       5.038  57.047  22.545  1.00  0.00     0.000 C 
BRANCH  11  12
ATOM     12  C   UNL     1       4.245  58.201  21.906  1.00  0.00     0.006 C 
BRANCH  12  13
ATOM     13  C   UNL     1       2.723  57.987  21.890  1.00  0.00     0.053 C 
BRANCH  13  14
ATOM     14  C   UNL     1       2.020  59.018  21.061  1.00  0.00     0.041 C 
ATOM     15  O   UNL     1       1.606  60.082  21.590  1.00  0.00    -0.550 OA
ATOM     16  O   UNL     1       1.794  58.788  19.711  1.00  0.00    -0.550 OA
ENDBRANCH  13  14
ENDBRANCH  12  13
ENDBRANCH  11  12
ENDBRANCH  10  11
ENDBRANCH   9  10
ENDBRANCH   8   9
ENDBRANCH   7   8
ENDBRANCH   6   7
ENDBRANCH   5   6
ENDBRANCH   4   5
ENDBRANCH   3   4
ENDBRANCH   2   3
ENDBRANCH   1   2
BRANCH   1  17
ATOM     17  C   UNL     1      10.800  49.878  23.772  1.00  0.00     0.000 C 
BRANCH  17  18
ATOM     18  C   UNL     1      10.473  48.810  24.826  1.00  0.00     0.000 C 
BRANCH  18  19
ATOM     19  C   UNL     1      10.235  47.421  24.205  1.00  0.00     0.000 C 
BRANCH  19  20
ATOM     20  C   UNL     1      11.168  46.346  24.785  1.00  0.00     0.000 C 
BRANCH  20  21
ATOM     21  C   UNL     1      11.974  46.850  25.992  1.00  0.00     0.000 C 
BRANCH  21  22
ATOM     22  C   UNL     1      13.059  45.841  26.384  1.00  0.00    -0.000 C 
BRANCH  22  23
ATOM     23  C   UNL     1      12.441  44.566  26.973  1.00  0.00    -0.000 C 
BRANCH  23  24
ATOM     24  C   UNL     1      12.846  44.387  28.442  1.00  0.00    -0.000 C 
BRANCH  24  25
ATOM     25  C   UNL     1      11.874  45.125  29.374  1.00  0.00    -0.000 C 
BRANCH  25  26
ATOM     26  C   UNL     1      12.592  45.838  30.533  1.00  0.00    -0.000 C 
BRANCH  26  27
ATOM     27  C   UNL     1      12.356  47.358  30.525  1.00  0.00    -0.000 C 
BRANCH  27  28
ATOM     28  C   UNL     1      13.042  48.062  29.340  1.00  0.00    -0.000 C 
BRANCH  28  29
ATOM     29  C   UNL     1      14.549  47.780  29.199  1.00  0.00    -0.003 C 
ATOM     30  C   UNL     1      15.300  48.896  28.475  1.00  0.00     0.004 C 
ENDBRANCH  28  29
ENDBRANCH  27  28
ENDBRANCH  26  27
ENDBRANCH  25  26
ENDBRANCH  24  25
ENDBRANCH  23  24
ENDBRANCH  22  23
ENDBRANCH  21  22
ENDBRANCH  20  21
ENDBRANCH  19  20
ENDBRANCH  18  19
ENDBRANCH  17  18
ENDBRANCH   1  17
TORSDOF 26
ENDMDL
MODEL 8
REMARK VINA RESULT:    -5.176      6.474     14.043
REMARK INTER + INTRA:         -15.657
REMARK INTER:                 -12.461
REMARK INTRA:                  -3.196
REMARK UNBOUND:                -2.614
REMARK SMILES CCCCCCCCCCCCCCCCCCCCCCCCCCCC(=O)[O-]
REMARK SMILES IDX 15 1 16 2 17 3 18 4 19 5 20 6 21 7 22 8 23 9 24 10 25 11
REMARK SMILES IDX 26 12 27 13 28 14 29 15 30 16 14 17 13 18 12 19 11 20 10 21
REMARK SMILES IDX 9 22 8 23 7 24 6 25 5 26 4 27 3 28 2 29 1 30
REMARK H PARENT
REMARK Flexibility Score: inf
ROOT
ATOM      1  C   UNL     1       2.394  60.451  22.209  1.00  0.00     0.000 C 
ENDROOT
BRANCH   1   2
ATOM      2  C   UNL     1       1.533  60.720  23.457  1.00  0.00     0.000 C 
BRANCH   2   3
ATOM      3  C   UNL     1       0.916  59.467  24.107  1.00  0.00     0.000 C 
BRANCH   3   4
ATOM      4  C   UNL     1      -0.617  59.537  24.209  1.00  0.00     0.000 C 
BRANCH   4   5
ATOM      5  C   UNL     1      -1.321  58.831  23.039  1.00  0.00     0.000 C 
BRANCH   5   6
ATOM      6  C   UNL     1      -2.083  59.804  22.124  1.00  0.00     0.000 C 
BRANCH   6   7
ATOM      7  C   UNL     1      -1.963  61.246  22.641  1.00  0.00     0.000 C 
BRANCH   7   8
ATOM      8  C   UNL     1      -1.835  62.274  21.504  1.00  0.00     0.000 C 
BRANCH   8   9
ATOM      9  C   UNL     1      -0.595  62.030  20.626  1.00  0.00     0.000 C 
BRANCH   9  10
ATOM     10  C   UNL     1      -0.879  62.248  19.131  1.00  0.00     0.000 C 
BRANCH  10  11
ATOM     11  C   UNL     1      -2.057  61.399  18.620  1.00  0.00     0.000 C 
BRANCH  11  12
ATOM     12  C   UNL     1      -1.599  60.174  17.807  1.00  0.00     0.006 C 
BRANCH  12  13
ATOM     13  C   UNL     1      -0.167  60.281  17.260  1.00  0.00     0.053 C 
BRANCH  13  14
ATOM     14  C   UNL     1       0.536  58.959  17.268  1.00  0.00     0.041 C 
ATOM     15  O   UNL     1      -0.123  57.891  17.368  1.00  0.00    -0.550 OA
ATOM     16  O   UNL     1       1.922  58.908  17.197  1.00  0.00    -0.550 OA
ENDBRANCH  13  14
ENDBRANCH  12  13
ENDBRANCH  11  12
ENDBRANCH  10  11
ENDBRANCH   9  10
ENDBRANCH   8   9
ENDBRANCH   7   8
ENDBRANCH   6   7
ENDBRANCH   5   6
ENDBRANCH   4   5
ENDBRANCH   3   4
ENDBRANCH   2   3
ENDBRANCH   1   2
BRANCH   1  17
ATOM     17  C   UNL     1       2.004  59.151  21.483  1.00  0.00     0.000 C 
BRANCH  17  18
ATOM     18  C   UNL     1       3.153  58.131  21.442  1.00  0.00     0.000 C 
BRANCH  18  19
ATOM     19  C   UNL     1       4.149  58.318  22.601  1.00  0.00     0.000 C 
BRANCH  19  20
ATOM     20  C   UNL     1       5.148  57.156  22.716  1.00  0.00     0.000 C 
BRANCH  20  21
ATOM     21  C   UNL     1       6.173  57.142  21.573  1.00  0.00     0.000 C 
BRANCH  21  22
ATOM     22  C   UNL     1       7.585  56.875  22.109  1.00  0.00    -0.000 C 
BRANCH  22  23
ATOM     23  C   UNL     1       8.149  55.563  21.548  1.00  0.00    -0.000 C 
BRANCH  23  24
ATOM     24  C   UNL     1       7.021  54.587  21.191  1.00  0.00    -0.000 C 
BRANCH  24  25
ATOM     25  C   UNL     1       6.899  53.478  22.247  1.00  0.00    -0.000 C 
BRANCH  25  26
ATOM     26  C   UNL     1       6.919  54.024  23.685  1.00  0.00    -0.000 C 
BRANCH  26  27
ATOM     27  C   UNL     1       7.733  53.136  24.641  1.00  0.00    -0.000 C 
BRANCH  27  28
ATOM     28  C   UNL     1       9.161  52.865  24.134  1.00  0.00    -0.000 C 
BRANCH  28  29
ATOM     29  C   UNL     1      10.107  54.078  24.174  1.00  0.00    -0.003 C 
ATOM     30  C   UNL     1      10.226  54.697  25.566  1.00  0.00     0.004 C 
ENDBRANCH  28  29
ENDBRANCH  27  28
ENDBRANCH  26  27
ENDBRANCH  25  26
ENDBRANCH  24  25
ENDBRANCH  23  24
ENDBRANCH  22  23
ENDBRANCH  21  22
ENDBRANCH  20  21
ENDBRANCH  19  20
ENDBRANCH  18  19
ENDBRANCH  17  18
ENDBRANCH   1  17
TORSDOF 26
ENDMDL
MODEL 9
REMARK VINA RESULT:    -5.101      5.071      9.794
REMARK INTER + INTRA:         -15.469
REMARK INTER:                 -13.119
REMARK INTRA:                  -2.351
REMARK UNBOUND:                -2.614
REMARK SMILES CCCCCCCCCCCCCCCCCCCCCCCCCCCC(=O)[O-]
REMARK SMILES IDX 15 1 16 2 17 3 18 4 19 5 20 6 21 7 22 8 23 9 24 10 25 11
REMARK SMILES IDX 26 12 27 13 28 14 29 15 30 16 14 17 13 18 12 19 11 20 10 21
REMARK SMILES IDX 9 22 8 23 7 24 6 25 5 26 4 27 3 28 2 29 1 30
REMARK H PARENT
REMARK Flexibility Score: inf
ROOT
ATOM      1  C   UNL     1       0.800  59.528  24.348  1.00  0.00     0.000 C 
ENDROOT
BRANCH   1   2
ATOM      2  C   UNL     1       0.490  58.756  23.051  1.00  0.00     0.000 C 
BRANCH   2   3
ATOM      3  C   UNL     1       1.726  58.283  22.262  1.00  0.00     0.000 C 
BRANCH   3   4
ATOM      4  C   UNL     1       2.976  59.136  22.536  1.00  0.00     0.000 C 
BRANCH   4   5
ATOM      5  C   UNL     1       4.227  58.600  21.823  1.00  0.00     0.000 C 
BRANCH   5   6
ATOM      6  C   UNL     1       4.866  57.405  22.551  1.00  0.00     0.000 C 
BRANCH   6   7
ATOM      7  C   UNL     1       6.006  56.803  21.715  1.00  0.00     0.000 C 
BRANCH   7   8
ATOM      8  C   UNL     1       7.240  56.450  22.563  1.00  0.00     0.000 C 
BRANCH   8   9
ATOM      9  C   UNL     1       8.262  55.599  21.788  1.00  0.00     0.000 C 
BRANCH   9  10
ATOM     10  C   UNL     1       7.793  54.149  21.592  1.00  0.00     0.000 C 
BRANCH  10  11
ATOM     11  C   UNL     1       7.067  53.587  22.828  1.00  0.00     0.000 C 
BRANCH  11  12
ATOM     12  C   UNL     1       8.037  53.052  23.896  1.00  0.00     0.006 C 
BRANCH  12  13
ATOM     13  C   UNL     1       8.145  53.937  25.148  1.00  0.00     0.053 C 
BRANCH  13  14
ATOM     14  C   UNL     1       9.464  54.644  25.222  1.00  0.00     0.041 C 
ATOM     15  O   UNL     1       9.505  55.889  25.410  1.00  0.00    -0.550 OA
ATOM     16  O   UNL     1      10.645  53.934  25.053  1.00  0.00    -0.550 OA
ENDBRANCH  13  14
ENDBRANCH  12  13
ENDBRANCH  11  12
ENDBRANCH  10  11
ENDBRANCH   9  10
ENDBRANCH   8   9
ENDBRANCH   7   8
ENDBRANCH   6   7
ENDBRANCH   5   6
ENDBRANCH   4   5
ENDBRANCH   3   4
ENDBRANCH   2   3
ENDBRANCH   1   2
BRANCH   1  17
ATOM     17  C   UNL     1      -0.241  60.618  24.658  1.00  0.00     0.000 C 
BRANCH  17  18
ATOM     18  C   UNL     1      -1.152  60.244  25.837  1.00  0.00     0.000 C 
BRANCH  18  19
ATOM     19  C   UNL     1      -0.607  59.057  26.651  1.00  0.00     0.000 C 
BRANCH  19  20
ATOM     20  C   UNL     1      -1.596  57.882  26.717  1.00  0.00     0.000 C 
BRANCH  20  21
ATOM     21  C   UNL     1      -0.988  56.567  26.206  1.00  0.00     0.000 C 
BRANCH  21  22
ATOM     22  C   UNL     1      -1.071  55.474  27.278  1.00  0.00    -0.000 C 
BRANCH  22  23
ATOM     23  C   UNL     1      -0.146  55.787  28.460  1.00  0.00    -0.000 C 
BRANCH  23  24
ATOM     24  C   UNL     1      -0.683  55.172  29.758  1.00  0.00    -0.000 C 
BRANCH  24  25
ATOM     25  C   UNL     1       0.402  54.348  30.467  1.00  0.00    -0.000 C 
BRANCH  25  26
ATOM     26  C   UNL     1      -0.173  53.135  31.219  1.00  0.00    -0.000 C 
BRANCH  26  27
ATOM     27  C   UNL     1       0.098  51.808  30.490  1.00  0.00    -0.000 C 
BRANCH  27  28
ATOM     28  C   UNL     1       1.202  51.927  29.423  1.00  0.00    -0.000 C 
BRANCH  28  29
ATOM     29  C   UNL     1       0.824  51.387  28.032  1.00  0.00    -0.003 C 
ATOM     30  C   UNL     1      -0.540  51.880  27.550  1.00  0.00     0.004 C 
ENDBRANCH  28  29
ENDBRANCH  27  28
ENDBRANCH  26  27
ENDBRANCH  25  26
ENDBRANCH  24  25
ENDBRANCH  23  24
ENDBRANCH  22  23
ENDBRANCH  21  22
ENDBRANCH  20  21
ENDBRANCH  19  20
ENDBRANCH  18  19
ENDBRANCH  17  18
ENDBRANCH   1  17
TORSDOF 26
ENDMDL
