MODEL 1
REMARK VINA RESULT:    -5.091      0.000      0.000
REMARK INTER + INTRA:          -6.115
REMARK INTER:                  -5.984
REMARK INTRA:                  -0.130
REMARK UNBOUND:                -0.130
REMARK SMILES O=C([O-])C=Cc1ccc(O)c(O)c1
REMARK SMILES IDX 6 1 13 2 7 3 11 4 8 5 9 6 5 7 4 8 2 9 1 10 3 11 12 12 10 14
REMARK H PARENT 12 13 10 15
REMARK Flexibility Score: inf
ROOT
ATOM      1  C   UNL     1    -119.322  -2.697  77.124  1.00  0.00    -0.022 A 
ATOM      2  C   UNL     1    -117.993  -2.335  76.828  1.00  0.00     0.058 A 
ATOM      3  C   UNL     1    -119.702  -2.841  78.467  1.00  0.00     0.012 A 
ATOM      4  C   UNL     1    -117.073  -2.096  77.860  1.00  0.00     0.157 A 
ATOM      5  C   UNL     1    -118.787  -2.603  79.495  1.00  0.00     0.051 A 
ATOM      6  C   UNL     1    -117.474  -2.228  79.200  1.00  0.00     0.157 A 
ENDROOT
BRANCH   1   7
ATOM      7  C   UNL     1    -120.328  -2.971  76.068  1.00  0.00     0.010 C 
ATOM      8  C   UNL     1    -120.776  -4.197  75.765  1.00  0.00     0.025 C 
BRANCH   8   9
ATOM      9  C   UNL     1    -121.766  -4.424  74.701  1.00  0.00     0.064 C 
ATOM     10  O   UNL     1    -122.919  -4.828  75.001  1.00  0.00    -0.545 OA
ATOM     11  O   UNL     1    -121.449  -4.197  73.366  1.00  0.00    -0.545 OA
ENDBRANCH   8   9
ENDBRANCH   1   7
BRANCH   4  12
ATOM     12  O   UNL     1    -115.760  -1.734  77.557  1.00  0.00    -0.504 OA
ATOM     13  H   UNL     1    -114.978  -2.057  78.113  1.00  0.00     0.293 HD
ENDBRANCH   4  12
BRANCH   6  14
ATOM     14  O   UNL     1    -116.583  -1.995  80.246  1.00  0.00    -0.504 OA
ATOM     15  H   UNL     1    -116.714  -2.401  81.164  1.00  0.00     0.293 HD
ENDBRANCH   6  14
TORSDOF 4
ENDMDL
MODEL 2
REMARK VINA RESULT:    -4.992      1.500      5.745
REMARK INTER + INTRA:          -5.997
REMARK INTER:                  -5.857
REMARK INTRA:                  -0.140
REMARK UNBOUND:                -0.130
REMARK SMILES O=C([O-])C=Cc1ccc(O)c(O)c1
REMARK SMILES IDX 6 1 13 2 7 3 11 4 8 5 9 6 5 7 4 8 2 9 1 10 3 11 12 12 10 14
REMARK H PARENT 12 13 10 15
REMARK Flexibility Score: inf
ROOT
ATOM      1  C   UNL     1    -119.075  -2.695  76.774  1.00  0.00    -0.022 A 
ATOM      2  C   UNL     1    -119.273  -2.880  75.391  1.00  0.00     0.058 A 
ATOM      3  C   UNL     1    -119.953  -3.320  77.673  1.00  0.00     0.012 A 
ATOM      4  C   UNL     1    -120.315  -3.696  74.923  1.00  0.00     0.157 A 
ATOM      5  C   UNL     1    -120.989  -4.133  77.208  1.00  0.00     0.051 A 
ATOM      6  C   UNL     1    -121.174  -4.327  75.837  1.00  0.00     0.157 A 
ENDROOT
BRANCH   1   7
ATOM      7  C   UNL     1    -117.996  -1.833  77.317  1.00  0.00     0.010 C 
ATOM      8  C   UNL     1    -118.183  -0.926  78.286  1.00  0.00     0.025 C 
BRANCH   8   9
ATOM      9  C   UNL     1    -117.087  -0.084  78.786  1.00  0.00     0.064 C 
ATOM     10  O   UNL     1    -117.026   1.125  78.443  1.00  0.00    -0.545 OA
ATOM     11  O   UNL     1    -116.114  -0.602  79.635  1.00  0.00    -0.545 OA
ENDBRANCH   8   9
ENDBRANCH   1   7
BRANCH   4  12
ATOM     12  O   UNL     1    -120.501  -3.875  73.552  1.00  0.00    -0.504 OA
ATOM     13  H   UNL     1    -120.306  -4.760  73.100  1.00  0.00     0.293 HD
ENDBRANCH   4  12
BRANCH   6  14
ATOM     14  O   UNL     1    -122.215  -5.146  75.401  1.00  0.00    -0.504 OA
ATOM     15  H   UNL     1    -122.089  -5.833  74.669  1.00  0.00     0.293 HD
ENDBRANCH   6  14
TORSDOF 4
ENDMDL
MODEL 3
REMARK VINA RESULT:    -4.879      1.273      5.755
REMARK INTER + INTRA:          -5.865
REMARK INTER:                  -5.740
REMARK INTRA:                  -0.124
REMARK UNBOUND:                -0.130
REMARK SMILES O=C([O-])C=Cc1ccc(O)c(O)c1
REMARK SMILES IDX 6 1 13 2 7 3 11 4 8 5 9 6 5 7 4 8 2 9 1 10 3 11 12 12 10 14
REMARK H PARENT 12 13 10 15
REMARK Flexibility Score: inf
ROOT
ATOM      1  C   UNL     1    -119.035  -2.604  76.907  1.00  0.00    -0.022 A 
ATOM      2  C   UNL     1    -119.233  -2.782  75.523  1.00  0.00     0.058 A 
ATOM      3  C   UNL     1    -119.896  -3.253  77.804  1.00  0.00     0.012 A 
ATOM      4  C   UNL     1    -120.258  -3.616  75.052  1.00  0.00     0.157 A 
ATOM      5  C   UNL     1    -120.917  -4.084  77.335  1.00  0.00     0.051 A 
ATOM      6  C   UNL     1    -121.101  -4.272  75.963  1.00  0.00     0.157 A 
ENDROOT
BRANCH   1   7
ATOM      7  C   UNL     1    -117.972  -1.723  77.454  1.00  0.00     0.010 C 
ATOM      8  C   UNL     1    -116.676  -2.059  77.498  1.00  0.00     0.025 C 
BRANCH   8   9
ATOM      9  C   UNL     1    -115.657  -1.160  78.061  1.00  0.00     0.064 C 
ATOM     10  O   UNL     1    -114.669  -0.823  77.360  1.00  0.00    -0.545 OA
ATOM     11  O   UNL     1    -115.770  -0.672  79.359  1.00  0.00    -0.545 OA
ENDBRANCH   8   9
ENDBRANCH   1   7
BRANCH   4  12
ATOM     12  O   UNL     1    -120.445  -3.789  73.680  1.00  0.00    -0.504 OA
ATOM     13  H   UNL     1    -121.052  -4.510  73.312  1.00  0.00     0.293 HD
ENDBRANCH   4  12
BRANCH   6  14
ATOM     14  O   UNL     1    -122.127  -5.109  75.525  1.00  0.00    -0.504 OA
ATOM     15  H   UNL     1    -122.792  -5.524  76.164  1.00  0.00     0.293 HD
ENDBRANCH   6  14
TORSDOF 4
ENDMDL
MODEL 4
REMARK VINA RESULT:    -4.726      1.752      2.618
REMARK INTER + INTRA:          -5.685
REMARK INTER:                  -5.542
REMARK INTRA:                  -0.143
REMARK UNBOUND:                -0.130
REMARK SMILES O=C([O-])C=Cc1ccc(O)c(O)c1
REMARK SMILES IDX 6 1 13 2 7 3 11 4 8 5 9 6 5 7 4 8 2 9 1 10 3 11 12 12 10 14
REMARK H PARENT 12 13 10 15
REMARK Flexibility Score: inf
ROOT
ATOM      1  C   UNL     1    -117.966  -1.956  77.353  1.00  0.00    -0.022 A 
ATOM      2  C   UNL     1    -117.901  -0.712  78.011  1.00  0.00     0.058 A 
ATOM      3  C   UNL     1    -116.770  -2.577  76.959  1.00  0.00     0.012 A 
ATOM      4  C   UNL     1    -116.661  -0.117  78.291  1.00  0.00     0.157 A 
ATOM      5  C   UNL     1    -115.536  -1.985  77.238  1.00  0.00     0.051 A 
ATOM      6  C   UNL     1    -115.474  -0.759  77.905  1.00  0.00     0.157 A 
ENDROOT
BRANCH   1   7
ATOM      7  C   UNL     1    -119.252  -2.620  77.025  1.00  0.00     0.010 C 
ATOM      8  C   UNL     1    -119.479  -3.282  75.882  1.00  0.00     0.025 C 
BRANCH   8   9
ATOM      9  C   UNL     1    -120.775  -3.914  75.593  1.00  0.00     0.064 C 
ATOM     10  O   UNL     1    -121.579  -3.351  74.807  1.00  0.00    -0.545 OA
ATOM     11  O   UNL     1    -121.125  -5.129  76.174  1.00  0.00    -0.545 OA
ENDBRANCH   8   9
ENDBRANCH   1   7
BRANCH   4  12
ATOM     12  O   UNL     1    -116.608   1.114  78.947  1.00  0.00    -0.504 OA
ATOM     13  H   UNL     1    -117.448   1.627  79.183  1.00  0.00     0.293 HD
ENDBRANCH   4  12
BRANCH   6  14
ATOM     14  O   UNL     1    -114.228  -0.194  78.172  1.00  0.00    -0.504 OA
ATOM     15  H   UNL     1    -113.424  -0.358  77.578  1.00  0.00     0.293 HD
ENDBRANCH   6  14
TORSDOF 4
ENDMDL
MODEL 5
REMARK VINA RESULT:    -4.690      8.792     10.484
REMARK INTER + INTRA:          -5.642
REMARK INTER:                  -5.492
REMARK INTRA:                  -0.150
REMARK UNBOUND:                -0.130
REMARK SMILES O=C([O-])C=Cc1ccc(O)c(O)c1
REMARK SMILES IDX 6 1 13 2 7 3 11 4 8 5 9 6 5 7 4 8 2 9 1 10 3 11 12 12 10 14
REMARK H PARENT 12 13 10 15
REMARK Flexibility Score: inf
ROOT
ATOM      1  C   UNL     1    -112.618  -9.095  76.958  1.00  0.00    -0.022 A 
ATOM      2  C   UNL     1    -113.566  -9.871  76.261  1.00  0.00     0.058 A 
ATOM      3  C   UNL     1    -112.930  -8.641  78.249  1.00  0.00     0.012 A 
ATOM      4  C   UNL     1    -114.791 -10.206  76.860  1.00  0.00     0.157 A 
ATOM      5  C   UNL     1    -114.149  -8.975  78.845  1.00  0.00     0.051 A 
ATOM      6  C   UNL     1    -115.081  -9.758  78.158  1.00  0.00     0.157 A 
ENDROOT
BRANCH   1   7
ATOM      7  C   UNL     1    -111.315  -8.706  76.365  1.00  0.00     0.010 C 
ATOM      8  C   UNL     1    -110.249  -8.332  77.086  1.00  0.00     0.025 C 
BRANCH   8   9
ATOM      9  C   UNL     1    -108.979  -7.941  76.455  1.00  0.00     0.064 C 
ATOM     10  O   UNL     1    -108.021  -7.558  77.173  1.00  0.00    -0.545 OA
ATOM     11  O   UNL     1    -108.820  -7.991  75.074  1.00  0.00    -0.545 OA
ENDBRANCH   8   9
ENDBRANCH   1   7
BRANCH   4  12
ATOM     12  O   UNL     1    -115.721 -10.977  76.163  1.00  0.00    -0.504 OA
ATOM     13  H   UNL     1    -116.403 -10.556  75.544  1.00  0.00     0.293 HD
ENDBRANCH   4  12
BRANCH   6  14
ATOM     14  O   UNL     1    -116.288 -10.076  78.779  1.00  0.00    -0.504 OA
ATOM     15  H   UNL     1    -116.984 -10.662  78.333  1.00  0.00     0.293 HD
ENDBRANCH   6  14
TORSDOF 4
ENDMDL
MODEL 6
REMARK VINA RESULT:    -4.679      2.190      5.759
REMARK INTER + INTRA:          -5.630
REMARK INTER:                  -5.508
REMARK INTRA:                  -0.122
REMARK UNBOUND:                -0.130
REMARK SMILES O=C([O-])C=Cc1ccc(O)c(O)c1
REMARK SMILES IDX 6 1 13 2 7 3 11 4 8 5 9 6 5 7 4 8 2 9 1 10 3 11 12 12 10 14
REMARK H PARENT 12 13 10 15
REMARK Flexibility Score: inf
ROOT
ATOM      1  C   UNL     1    -117.505  -1.878  77.824  1.00  0.00    -0.022 A 
ATOM      2  C   UNL     1    -118.225  -2.239  76.668  1.00  0.00     0.058 A 
ATOM      3  C   UNL     1    -118.045  -2.186  79.082  1.00  0.00     0.012 A 
ATOM      4  C   UNL     1    -119.448  -2.920  76.773  1.00  0.00     0.157 A 
ATOM      5  C   UNL     1    -119.262  -2.863  79.188  1.00  0.00     0.051 A 
ATOM      6  C   UNL     1    -119.966  -3.235  78.040  1.00  0.00     0.157 A 
ENDROOT
BRANCH   1   7
ATOM      7  C   UNL     1    -116.214  -1.148  77.764  1.00  0.00     0.010 C 
ATOM      8  C   UNL     1    -115.135  -1.595  77.108  1.00  0.00     0.025 C 
BRANCH   8   9
ATOM      9  C   UNL     1    -113.871  -0.844  77.086  1.00  0.00     0.064 C 
ATOM     10  O   UNL     1    -113.287  -0.578  78.168  1.00  0.00    -0.545 OA
ATOM     11  O   UNL     1    -113.308  -0.423  75.885  1.00  0.00    -0.545 OA
ENDBRANCH   8   9
ENDBRANCH   1   7
BRANCH   4  12
ATOM     12  O   UNL     1    -120.152  -3.276  75.622  1.00  0.00    -0.504 OA
ATOM     13  H   UNL     1    -120.345  -4.244  75.396  1.00  0.00     0.293 HD
ENDBRANCH   4  12
BRANCH   6  14
ATOM     14  O   UNL     1    -121.177  -3.913  78.176  1.00  0.00    -0.504 OA
ATOM     15  H   UNL     1    -121.813  -3.729  78.942  1.00  0.00     0.293 HD
ENDBRANCH   6  14
TORSDOF 4
ENDMDL
MODEL 7
REMARK VINA RESULT:    -4.515      2.102      6.476
REMARK INTER + INTRA:          -5.437
REMARK INTER:                  -5.291
REMARK INTRA:                  -0.146
REMARK UNBOUND:                -0.130
REMARK SMILES O=C([O-])C=Cc1ccc(O)c(O)c1
REMARK SMILES IDX 6 1 13 2 7 3 11 4 8 5 9 6 5 7 4 8 2 9 1 10 3 11 12 12 10 14
REMARK H PARENT 12 13 10 15
REMARK Flexibility Score: inf
ROOT
ATOM      1  C   UNL     1    -117.968  -2.221  78.826  1.00  0.00    -0.022 A 
ATOM      2  C   UNL     1    -119.127  -2.982  79.078  1.00  0.00     0.058 A 
ATOM      3  C   UNL     1    -117.658  -1.877  77.501  1.00  0.00     0.012 A 
ATOM      4  C   UNL     1    -119.971  -3.365  78.025  1.00  0.00     0.157 A 
ATOM      5  C   UNL     1    -118.498  -2.258  76.452  1.00  0.00     0.051 A 
ATOM      6  C   UNL     1    -119.655  -2.998  76.706  1.00  0.00     0.157 A 
ENDROOT
BRANCH   1   7
ATOM      7  C   UNL     1    -117.038  -1.802  79.905  1.00  0.00     0.010 C 
ATOM      8  C   UNL     1    -116.224  -0.741  79.816  1.00  0.00     0.025 C 
BRANCH   8   9
ATOM      9  C   UNL     1    -115.309  -0.369  80.906  1.00  0.00     0.064 C 
ATOM     10  O   UNL     1    -115.621   0.567  81.686  1.00  0.00    -0.545 OA
ATOM     11  O   UNL     1    -114.103  -1.037  81.089  1.00  0.00    -0.545 OA
ENDBRANCH   8   9
ENDBRANCH   1   7
BRANCH   4  12
ATOM     12  O   UNL     1    -121.118  -4.116  78.285  1.00  0.00    -0.504 OA
ATOM     13  H   UNL     1    -122.006  -3.675  78.489  1.00  0.00     0.293 HD
ENDBRANCH   4  12
BRANCH   6  14
ATOM     14  O   UNL     1    -120.476  -3.363  75.640  1.00  0.00    -0.504 OA
ATOM     15  H   UNL     1    -121.222  -2.765  75.307  1.00  0.00     0.293 HD
ENDBRANCH   6  14
TORSDOF 4
ENDMDL
MODEL 8
REMARK VINA RESULT:    -4.483     10.339     12.276
REMARK INTER + INTRA:          -5.399
REMARK INTER:                  -5.267
REMARK INTRA:                  -0.132
REMARK UNBOUND:                -0.130
REMARK SMILES O=C([O-])C=Cc1ccc(O)c(O)c1
REMARK SMILES IDX 6 1 13 2 7 3 11 4 8 5 9 6 5 7 4 8 2 9 1 10 3 11 12 12 10 14
REMARK H PARENT 12 13 10 15
REMARK Flexibility Score: inf
ROOT
ATOM      1  C   UNL     1    -107.671  -3.145  74.036  1.00  0.00    -0.022 A 
ATOM      2  C   UNL     1    -106.551  -2.322  73.800  1.00  0.00     0.058 A 
ATOM      3  C   UNL     1    -107.499  -4.538  74.042  1.00  0.00     0.012 A 
ATOM      4  C   UNL     1    -105.282  -2.886  73.601  1.00  0.00     0.157 A 
ATOM      5  C   UNL     1    -106.236  -5.100  73.844  1.00  0.00     0.051 A 
ATOM      6  C   UNL     1    -105.124  -4.281  73.626  1.00  0.00     0.157 A 
ENDROOT
BRANCH   1   7
ATOM      7  C   UNL     1    -109.035  -2.597  74.241  1.00  0.00     0.010 C 
ATOM      8  C   UNL     1    -110.035  -2.739  73.361  1.00  0.00     0.025 C 
BRANCH   8   9
ATOM      9  C   UNL     1    -111.369  -2.168  73.599  1.00  0.00     0.064 C 
ATOM     10  O   UNL     1    -112.083  -2.623  74.530  1.00  0.00    -0.545 OA
ATOM     11  O   UNL     1    -111.856  -1.130  72.811  1.00  0.00    -0.545 OA
ENDBRANCH   8   9
ENDBRANCH   1   7
BRANCH   4  12
ATOM     12  O   UNL     1    -104.179  -2.063  73.372  1.00  0.00    -0.504 OA
ATOM     13  H   UNL     1    -103.772  -1.964  72.450  1.00  0.00     0.293 HD
ENDBRANCH   4  12
BRANCH   6  14
ATOM     14  O   UNL     1    -103.875  -4.870  73.434  1.00  0.00    -0.504 OA
ATOM     15  H   UNL     1    -103.491  -5.542  74.088  1.00  0.00     0.293 HD
ENDBRANCH   6  14
TORSDOF 4
ENDMDL
MODEL 9
REMARK VINA RESULT:    -4.481     10.279     12.434
REMARK INTER + INTRA:          -5.398
REMARK INTER:                  -5.276
REMARK INTRA:                  -0.122
REMARK UNBOUND:                -0.130
REMARK SMILES O=C([O-])C=Cc1ccc(O)c(O)c1
REMARK SMILES IDX 6 1 13 2 7 3 11 4 8 5 9 6 5 7 4 8 2 9 1 10 3 11 12 12 10 14
REMARK H PARENT 12 13 10 15
REMARK Flexibility Score: inf
ROOT
ATOM      1  C   UNL     1    -107.508  -2.527  74.006  1.00  0.00    -0.022 A 
ATOM      2  C   UNL     1    -107.496  -3.930  73.868  1.00  0.00     0.058 A 
ATOM      3  C   UNL     1    -106.292  -1.829  73.937  1.00  0.00     0.012 A 
ATOM      4  C   UNL     1    -106.292  -4.613  73.637  1.00  0.00     0.157 A 
ATOM      5  C   UNL     1    -105.094  -2.508  73.707  1.00  0.00     0.051 A 
ATOM      6  C   UNL     1    -105.086  -3.897  73.553  1.00  0.00     0.157 A 
ENDROOT
BRANCH   1   7
ATOM      7  C   UNL     1    -108.753  -1.762  74.263  1.00  0.00     0.010 C 
ATOM      8  C   UNL     1    -109.907  -1.978  73.618  1.00  0.00     0.025 C 
BRANCH   8   9
ATOM      9  C   UNL     1    -111.115  -1.186  73.895  1.00  0.00     0.064 C 
ATOM     10  O   UNL     1    -111.968  -1.014  72.987  1.00  0.00    -0.545 OA
ATOM     11  O   UNL     1    -111.331  -0.623  75.149  1.00  0.00    -0.545 OA
ENDBRANCH   8   9
ENDBRANCH   1   7
BRANCH   4  12
ATOM     12  O   UNL     1    -106.291  -6.001  73.497  1.00  0.00    -0.504 OA
ATOM     13  H   UNL     1    -107.138  -6.546  73.598  1.00  0.00     0.293 HD
ENDBRANCH   4  12
BRANCH   6  14
ATOM     14  O   UNL     1    -103.875  -4.548  73.322  1.00  0.00    -0.504 OA
ATOM     15  H   UNL     1    -103.788  -5.555  73.372  1.00  0.00     0.293 HD
ENDBRANCH   6  14
TORSDOF 4
ENDMDL
