MODEL 1
REMARK VINA RESULT:    -4.220      0.000      0.000
REMARK INTER + INTRA:          -5.413
REMARK INTER:                  -5.083
REMARK INTRA:                  -0.330
REMARK UNBOUND:                -0.330
REMARK SMILES O=c1c(O)c(-c2ccc(O)c(O)c2)oc2cc(O)cc(O)c12
REMARK SMILES IDX 5 1 3 2 2 3 1 4 22 5 20 6 19 7 17 8 16 9 15 10 14 11 6 12
REMARK SMILES IDX 7 13 8 14 9 15 13 16 11 17 10 18 12 20 4 22 21 24 18 26
REMARK H PARENT 10 19 12 21 4 23 21 25 18 27
REMARK Flexibility Score: inf
ROOT
ATOM      1  C   UNL     1     125.713 126.346 126.063  1.00  0.00     0.180 A 
ATOM      2  C   UNL     1     124.423 126.837 125.786  1.00  0.00     0.208 A 
ATOM      3  C   UNL     1     123.467 126.847 126.815  1.00  0.00     0.238 A 
ATOM      4  O   UNL     1     122.305 127.274 126.577  1.00  0.00    -0.285 OA
ATOM      5  C   UNL     1     123.821 126.390 128.101  1.00  0.00     0.111 A 
ATOM      6  C   UNL     1     122.920 126.372 129.192  1.00  0.00     0.134 A 
ATOM      7  C   UNL     1     123.352 125.909 130.444  1.00  0.00     0.093 A 
ATOM      8  C   UNL     1     124.667 125.465 130.624  1.00  0.00     0.123 A 
ATOM      9  C   UNL     1     125.559 125.481 129.552  1.00  0.00     0.094 A 
ATOM     10  C   UNL     1     125.148 125.937 128.296  1.00  0.00     0.146 A 
ATOM     11  O   UNL     1     126.016 125.935 127.291  1.00  0.00    -0.452 OA
ENDROOT
BRANCH   1  12
ATOM     12  C   UNL     1     126.770 126.284 125.027  1.00  0.00     0.025 A 
ATOM     13  C   UNL     1     126.899 125.170 124.179  1.00  0.00     0.016 A 
ATOM     14  C   UNL     1     127.919 125.123 123.225  1.00  0.00     0.051 A 
ATOM     15  C   UNL     1     128.830 126.177 123.110  1.00  0.00     0.157 A 
ATOM     16  C   UNL     1     127.699 127.332 124.924  1.00  0.00     0.062 A 
ATOM     17  C   UNL     1     128.722 127.287 123.966  1.00  0.00     0.158 A 
BRANCH  15  18
ATOM     18  O   UNL     1     129.836 126.104 122.147  1.00  0.00    -0.504 OA
ATOM     19  H   UNL     1     130.028 126.868 121.511  1.00  0.00     0.293 HD
ENDBRANCH  15  18
BRANCH  17  20
ATOM     20  O   UNL     1     129.632 128.338 123.863  1.00  0.00    -0.504 OA
ATOM     21  H   UNL     1     129.518 129.193 124.395  1.00  0.00     0.293 HD
ENDBRANCH  17  20
ENDBRANCH   1  12
BRANCH   2  22
ATOM     22  O   UNL     1     124.111 127.330 124.517  1.00  0.00    -0.502 OA
ATOM     23  H   UNL     1     123.250 127.094 124.040  1.00  0.00     0.293 HD
ENDBRANCH   2  22
BRANCH   6  24
ATOM     24  O   UNL     1     121.602 126.808 129.043  1.00  0.00    -0.507 OA
ATOM     25  H   UNL     1     121.208 127.011 128.132  1.00  0.00     0.293 HD
ENDBRANCH   6  24
BRANCH   8  26
ATOM     26  O   UNL     1     125.096 125.007 131.868  1.00  0.00    -0.508 OA
ATOM     27  H   UNL     1     124.530 125.122 132.700  1.00  0.00     0.293 HD
ENDBRANCH   8  26
TORSDOF 6
ENDMDL
MODEL 2
REMARK VINA RESULT:    -4.106      3.504      4.958
REMARK INTER + INTRA:          -5.276
REMARK INTER:                  -4.945
REMARK INTRA:                  -0.331
REMARK UNBOUND:                -0.330
REMARK SMILES O=c1c(O)c(-c2ccc(O)c(O)c2)oc2cc(O)cc(O)c12
REMARK SMILES IDX 5 1 3 2 2 3 1 4 22 5 20 6 19 7 17 8 16 9 15 10 14 11 6 12
REMARK SMILES IDX 7 13 8 14 9 15 13 16 11 17 10 18 12 20 4 22 21 24 18 26
REMARK H PARENT 10 19 12 21 4 23 21 25 18 27
REMARK Flexibility Score: inf
ROOT
ATOM      1  C   UNL     1     125.707 123.831 126.054  1.00  0.00     0.180 A 
ATOM      2  C   UNL     1     126.749 124.723 125.735  1.00  0.00     0.208 A 
ATOM      3  C   UNL     1     127.254 125.561 126.742  1.00  0.00     0.238 A 
ATOM      4  O   UNL     1     128.180 126.373 126.466  1.00  0.00    -0.285 OA
ATOM      5  C   UNL     1     126.727 125.480 128.048  1.00  0.00     0.111 A 
ATOM      6  C   UNL     1     127.184 126.286 129.119  1.00  0.00     0.134 A 
ATOM      7  C   UNL     1     126.613 126.138 130.392  1.00  0.00     0.093 A 
ATOM      8  C   UNL     1     125.598 125.201 130.613  1.00  0.00     0.123 A 
ATOM      9  C   UNL     1     125.144 124.405 129.561  1.00  0.00     0.094 A 
ATOM     10  C   UNL     1     125.699 124.537 128.284  1.00  0.00     0.146 A 
ATOM     11  O   UNL     1     125.244 123.771 127.299  1.00  0.00    -0.452 OA
ENDROOT
BRANCH   1  12
ATOM     12  C   UNL     1     125.108 122.929 125.043  1.00  0.00     0.025 A 
ATOM     13  C   UNL     1     123.985 123.315 124.291  1.00  0.00     0.016 A 
ATOM     14  C   UNL     1     123.423 122.438 123.360  1.00  0.00     0.051 A 
ATOM     15  C   UNL     1     123.962 121.160 123.176  1.00  0.00     0.157 A 
ATOM     16  C   UNL     1     125.635 121.638 124.871  1.00  0.00     0.062 A 
ATOM     17  C   UNL     1     125.072 120.756 123.937  1.00  0.00     0.158 A 
BRANCH  15  18
ATOM     18  O   UNL     1     123.381 120.307 122.238  1.00  0.00    -0.504 OA
ATOM     19  H   UNL     1     123.760 119.391 122.036  1.00  0.00     0.293 HD
ENDBRANCH  15  18
BRANCH  17  20
ATOM     20  O   UNL     1     125.610 119.482 123.764  1.00  0.00    -0.504 OA
ATOM     21  H   UNL     1     126.399 119.317 123.150  1.00  0.00     0.293 HD
ENDBRANCH  17  20
ENDBRANCH   1  12
BRANCH   2  22
ATOM     22  O   UNL     1     127.287 124.750 124.446  1.00  0.00    -0.502 OA
ATOM     23  H   UNL     1     126.707 124.803 123.618  1.00  0.00     0.293 HD
ENDBRANCH   2  22
BRANCH   6  24
ATOM     24  O   UNL     1     128.195 127.228 128.928  1.00  0.00    -0.507 OA
ATOM     25  H   UNL     1     129.166 126.956 128.830  1.00  0.00     0.293 HD
ENDBRANCH   6  24
BRANCH   8  26
ATOM     26  O   UNL     1     125.033 125.054 131.878  1.00  0.00    -0.508 OA
ATOM     27  H   UNL     1     125.020 125.815 132.546  1.00  0.00     0.293 HD
ENDBRANCH   8  26
TORSDOF 6
ENDMDL
MODEL 3
REMARK VINA RESULT:    -4.072      3.448      4.933
REMARK INTER + INTRA:          -5.235
REMARK INTER:                  -4.904
REMARK INTRA:                  -0.331
REMARK UNBOUND:                -0.330
REMARK SMILES O=c1c(O)c(-c2ccc(O)c(O)c2)oc2cc(O)cc(O)c12
REMARK SMILES IDX 5 1 3 2 2 3 1 4 22 5 20 6 19 7 17 8 16 9 15 10 14 11 6 12
REMARK SMILES IDX 7 13 8 14 9 15 13 16 11 17 10 18 12 20 4 22 21 24 18 26
REMARK H PARENT 10 19 12 21 4 23 21 25 18 27
REMARK Flexibility Score: inf
ROOT
ATOM      1  C   UNL     1     123.629 125.051 126.040  1.00  0.00     0.180 A 
ATOM      2  C   UNL     1     123.886 123.701 125.731  1.00  0.00     0.208 A 
ATOM      3  C   UNL     1     124.355 122.852 126.746  1.00  0.00     0.238 A 
ATOM      4  O   UNL     1     124.600 121.644 126.479  1.00  0.00    -0.285 OA
ATOM      5  C   UNL     1     124.538 123.357 128.050  1.00  0.00     0.111 A 
ATOM      6  C   UNL     1     125.002 122.567 129.129  1.00  0.00     0.134 A 
ATOM      7  C   UNL     1     125.150 123.142 130.399  1.00  0.00     0.093 A 
ATOM      8  C   UNL     1     124.841 124.491 130.611  1.00  0.00     0.123 A 
ATOM      9  C   UNL     1     124.383 125.274 129.551  1.00  0.00     0.094 A 
ATOM     10  C   UNL     1     124.231 124.720 128.276  1.00  0.00     0.146 A 
ATOM     11  O   UNL     1     123.799 125.489 127.284  1.00  0.00    -0.452 OA
ENDROOT
BRANCH   1  12
ATOM     12  C   UNL     1     123.152 126.014 125.020  1.00  0.00     0.025 A 
ATOM     13  C   UNL     1     124.049 126.702 124.186  1.00  0.00     0.016 A 
ATOM     14  C   UNL     1     123.577 127.623 123.248  1.00  0.00     0.051 A 
ATOM     15  C   UNL     1     122.207 127.882 123.137  1.00  0.00     0.157 A 
ATOM     16  C   UNL     1     121.778 126.290 124.922  1.00  0.00     0.062 A 
ATOM     17  C   UNL     1     121.302 127.214 123.979  1.00  0.00     0.158 A 
BRANCH  15  18
ATOM     18  O   UNL     1     121.765 128.804 122.190  1.00  0.00    -0.504 OA
ATOM     19  H   UNL     1     120.787 129.044 122.088  1.00  0.00     0.293 HD
ENDBRANCH  15  18
BRANCH  17  20
ATOM     20  O   UNL     1     119.936 127.472 123.880  1.00  0.00    -0.504 OA
ATOM     21  H   UNL     1     119.405 127.210 123.058  1.00  0.00     0.293 HD
ENDBRANCH  17  20
ENDBRANCH   1  12
BRANCH   2  22
ATOM     22  O   UNL     1     123.651 123.214 124.443  1.00  0.00    -0.502 OA
ATOM     23  H   UNL     1     124.376 123.176 123.737  1.00  0.00     0.293 HD
ENDBRANCH   2  22
BRANCH   6  24
ATOM     24  O   UNL     1     125.318 121.220 128.948  1.00  0.00    -0.507 OA
ATOM     25  H   UNL     1     124.602 120.521 128.791  1.00  0.00     0.293 HD
ENDBRANCH   6  24
BRANCH   8  26
ATOM     26  O   UNL     1     124.986 125.062 131.874  1.00  0.00    -0.508 OA
ATOM     27  H   UNL     1     125.736 125.710 132.080  1.00  0.00     0.293 HD
ENDBRANCH   8  26
TORSDOF 6
ENDMDL
MODEL 4
REMARK VINA RESULT:    -3.902      2.017      2.619
REMARK INTER + INTRA:          -5.031
REMARK INTER:                  -5.483
REMARK INTRA:                   0.452
REMARK UNBOUND:                -0.330
REMARK SMILES O=c1c(O)c(-c2ccc(O)c(O)c2)oc2cc(O)cc(O)c12
REMARK SMILES IDX 5 1 3 2 2 3 1 4 22 5 20 6 19 7 17 8 16 9 15 10 14 11 6 12
REMARK SMILES IDX 7 13 8 14 9 15 13 16 11 17 10 18 12 20 4 22 21 24 18 26
REMARK H PARENT 10 19 12 21 4 23 21 25 18 27
REMARK Flexibility Score: inf
ROOT
ATOM      1  C   UNL     1     126.396 124.866 126.699  1.00  0.00     0.180 A 
ATOM      2  C   UNL     1     125.903 123.571 126.955  1.00  0.00     0.208 A 
ATOM      3  C   UNL     1     125.144 123.352 128.115  1.00  0.00     0.238 A 
ATOM      4  O   UNL     1     124.708 122.195 128.361  1.00  0.00    -0.285 OA
ATOM      5  C   UNL     1     124.873 124.429 128.985  1.00  0.00     0.111 A 
ATOM      6  C   UNL     1     124.112 124.293 130.171  1.00  0.00     0.134 A 
ATOM      7  C   UNL     1     123.879 125.415 130.980  1.00  0.00     0.093 A 
ATOM      8  C   UNL     1     124.390 126.669 130.624  1.00  0.00     0.123 A 
ATOM      9  C   UNL     1     125.141 126.807 129.456  1.00  0.00     0.094 A 
ATOM     10  C   UNL     1     125.386 125.701 128.637  1.00  0.00     0.146 A 
ATOM     11  O   UNL     1     126.108 125.860 127.534  1.00  0.00    -0.452 OA
ENDROOT
BRANCH   1  12
ATOM     12  C   UNL     1     127.220 125.172 125.507  1.00  0.00     0.025 A 
ATOM     13  C   UNL     1     127.667 124.156 124.645  1.00  0.00     0.016 A 
ATOM     14  C   UNL     1     128.464 124.467 123.540  1.00  0.00     0.051 A 
ATOM     15  C   UNL     1     128.837 125.790 123.286  1.00  0.00     0.157 A 
ATOM     16  C   UNL     1     127.614 126.498 125.262  1.00  0.00     0.062 A 
ATOM     17  C   UNL     1     128.412 126.812 124.153  1.00  0.00     0.158 A 
BRANCH  15  18
ATOM     18  O   UNL     1     129.631 126.071 122.175  1.00  0.00    -0.504 OA
ATOM     19  H   UNL     1     130.540 125.646 122.041  1.00  0.00     0.293 HD
ENDBRANCH  15  18
BRANCH  17  20
ATOM     20  O   UNL     1     128.787 128.133 123.911  1.00  0.00    -0.504 OA
ATOM     21  H   UNL     1     128.322 128.696 123.209  1.00  0.00     0.293 HD
ENDBRANCH  17  20
ENDBRANCH   1  12
BRANCH   2  22
ATOM     22  O   UNL     1     126.145 122.532 126.052  1.00  0.00    -0.502 OA
ATOM     23  H   UNL     1     127.051 122.388 125.622  1.00  0.00     0.293 HD
ENDBRANCH   2  22
BRANCH   6  24
ATOM     24  O   UNL     1     123.590 123.057 130.552  1.00  0.00    -0.507 OA
ATOM     25  H   UNL     1     122.774 122.660 130.100  1.00  0.00     0.293 HD
ENDBRANCH   6  24
BRANCH   8  26
ATOM     26  O   UNL     1     124.157 127.783 131.427  1.00  0.00    -0.508 OA
ATOM     27  H   UNL     1     123.416 128.441 131.219  1.00  0.00     0.293 HD
ENDBRANCH   8  26
TORSDOF 6
ENDMDL
MODEL 5
REMARK VINA RESULT:    -3.873      3.786      4.373
REMARK INTER + INTRA:          -4.995
REMARK INTER:                  -5.410
REMARK INTRA:                   0.415
REMARK UNBOUND:                -0.330
REMARK SMILES O=c1c(O)c(-c2ccc(O)c(O)c2)oc2cc(O)cc(O)c12
REMARK SMILES IDX 5 1 3 2 2 3 1 4 22 5 20 6 19 7 17 8 16 9 15 10 14 11 6 12
REMARK SMILES IDX 7 13 8 14 9 15 13 16 11 17 10 18 12 20 4 22 21 24 18 26
REMARK H PARENT 10 19 12 21 4 23 21 25 18 27
REMARK Flexibility Score: inf
ROOT
ATOM      1  C   UNL     1     124.142 123.881 126.710  1.00  0.00     0.180 A 
ATOM      2  C   UNL     1     123.279 124.977 126.898  1.00  0.00     0.208 A 
ATOM      3  C   UNL     1     123.398 125.740 128.070  1.00  0.00     0.238 A 
ATOM      4  O   UNL     1     122.623 126.717 128.256  1.00  0.00    -0.285 OA
ATOM      5  C   UNL     1     124.388 125.410 129.020  1.00  0.00     0.111 A 
ATOM      6  C   UNL     1     124.577 126.130 130.224  1.00  0.00     0.134 A 
ATOM      7  C   UNL     1     125.590 125.743 131.114  1.00  0.00     0.093 A 
ATOM      8  C   UNL     1     126.416 124.652 130.822  1.00  0.00     0.123 A 
ATOM      9  C   UNL     1     126.233 123.939 129.637  1.00  0.00     0.094 A 
ATOM     10  C   UNL     1     125.228 124.308 128.737  1.00  0.00     0.146 A 
ATOM     11  O   UNL     1     125.073 123.607 127.620  1.00  0.00    -0.452 OA
ENDROOT
BRANCH   1  12
ATOM     12  C   UNL     1     124.065 123.016 125.509  1.00  0.00     0.025 A 
ATOM     13  C   UNL     1     122.974 123.086 124.625  1.00  0.00     0.016 A 
ATOM     14  C   UNL     1     122.912 122.244 123.513  1.00  0.00     0.051 A 
ATOM     15  C   UNL     1     123.927 121.312 123.272  1.00  0.00     0.157 A 
ATOM     16  C   UNL     1     125.073 122.066 125.277  1.00  0.00     0.062 A 
ATOM     17  C   UNL     1     125.012 121.220 124.160  1.00  0.00     0.158 A 
BRANCH  15  18
ATOM     18  O   UNL     1     123.839 120.487 122.152  1.00  0.00    -0.504 OA
ATOM     19  H   UNL     1     123.001 119.963 121.933  1.00  0.00     0.293 HD
ENDBRANCH  15  18
BRANCH  17  20
ATOM     20  O   UNL     1     126.024 120.289 123.931  1.00  0.00    -0.504 OA
ATOM     21  H   UNL     1     126.880 120.290 124.473  1.00  0.00     0.293 HD
ENDBRANCH  17  20
ENDBRANCH   1  12
BRANCH   2  22
ATOM     22  O   UNL     1     122.339 125.313 125.920  1.00  0.00    -0.502 OA
ATOM     23  H   UNL     1     122.050 126.269 125.751  1.00  0.00     0.293 HD
ENDBRANCH   2  22
BRANCH   6  24
ATOM     24  O   UNL     1     123.768 127.222 130.542  1.00  0.00    -0.507 OA
ATOM     25  H   UNL     1     122.809 127.287 130.221  1.00  0.00     0.293 HD
ENDBRANCH   6  24
BRANCH   8  26
ATOM     26  O   UNL     1     127.423 124.270 131.705  1.00  0.00    -0.508 OA
ATOM     27  H   UNL     1     127.270 124.245 132.706  1.00  0.00     0.293 HD
ENDBRANCH   8  26
TORSDOF 6
ENDMDL
MODEL 6
REMARK VINA RESULT:    -3.869      1.206      2.868
REMARK INTER + INTRA:          -4.991
REMARK INTER:                  -4.779
REMARK INTRA:                  -0.212
REMARK UNBOUND:                -0.330
REMARK SMILES O=c1c(O)c(-c2ccc(O)c(O)c2)oc2cc(O)cc(O)c12
REMARK SMILES IDX 5 1 3 2 2 3 1 4 22 5 20 6 19 7 17 8 16 9 15 10 14 11 6 12
REMARK SMILES IDX 7 13 8 14 9 15 13 16 11 17 10 18 12 20 4 22 21 24 18 26
REMARK H PARENT 10 19 12 21 4 23 21 25 18 27
REMARK Flexibility Score: inf
ROOT
ATOM      1  C   UNL     1     126.560 126.262 126.778  1.00  0.00     0.180 A 
ATOM      2  C   UNL     1     127.170 126.167 128.044  1.00  0.00     0.208 A 
ATOM      3  C   UNL     1     126.366 126.255 129.191  1.00  0.00     0.238 A 
ATOM      4  O   UNL     1     126.901 126.182 130.331  1.00  0.00    -0.285 OA
ATOM      5  C   UNL     1     124.971 126.413 129.055  1.00  0.00     0.111 A 
ATOM      6  C   UNL     1     124.091 126.505 130.160  1.00  0.00     0.134 A 
ATOM      7  C   UNL     1     122.713 126.654 129.941  1.00  0.00     0.093 A 
ATOM      8  C   UNL     1     122.200 126.711 128.640  1.00  0.00     0.123 A 
ATOM      9  C   UNL     1     123.064 126.621 127.548  1.00  0.00     0.094 A 
ATOM     10  C   UNL     1     124.441 126.474 127.745  1.00  0.00     0.146 A 
ATOM     11  O   UNL     1     125.241 126.397 126.688  1.00  0.00    -0.452 OA
ENDROOT
BRANCH   1  12
ATOM     12  C   UNL     1     127.343 126.198 125.522  1.00  0.00     0.025 A 
ATOM     13  C   UNL     1     127.276 125.078 124.674  1.00  0.00     0.016 A 
ATOM     14  C   UNL     1     128.042 125.031 123.507  1.00  0.00     0.051 A 
ATOM     15  C   UNL     1     128.893 126.089 123.173  1.00  0.00     0.157 A 
ATOM     16  C   UNL     1     128.213 127.251 125.196  1.00  0.00     0.062 A 
ATOM     17  C   UNL     1     128.981 127.205 124.024  1.00  0.00     0.158 A 
BRANCH  15  18
ATOM     18  O   UNL     1     129.642 126.015 122.000  1.00  0.00    -0.504 OA
ATOM     19  H   UNL     1     129.456 126.611 121.203  1.00  0.00     0.293 HD
ENDBRANCH  15  18
BRANCH  17  20
ATOM     20  O   UNL     1     129.833 128.261 123.702  1.00  0.00    -0.504 OA
ATOM     21  H   UNL     1     129.747 129.167 124.147  1.00  0.00     0.293 HD
ENDBRANCH  17  20
ENDBRANCH   1  12
BRANCH   2  22
ATOM     22  O   UNL     1     128.548 125.961 128.151  1.00  0.00    -0.502 OA
ATOM     23  H   UNL     1     128.985 125.081 127.904  1.00  0.00     0.293 HD
ENDBRANCH   2  22
BRANCH   6  24
ATOM     24  O   UNL     1     124.572 126.451 131.469  1.00  0.00    -0.507 OA
ATOM     25  H   UNL     1     124.271 127.112 132.175  1.00  0.00     0.293 HD
ENDBRANCH   6  24
BRANCH   8  26
ATOM     26  O   UNL     1     120.832 126.857 128.423  1.00  0.00    -0.508 OA
ATOM     27  H   UNL     1     120.246 127.377 129.065  1.00  0.00     0.293 HD
ENDBRANCH   8  26
TORSDOF 6
ENDMDL
MODEL 7
REMARK VINA RESULT:    -3.837      2.776      4.639
REMARK INTER + INTRA:          -4.953
REMARK INTER:                  -5.378
REMARK INTRA:                   0.425
REMARK UNBOUND:                -0.330
REMARK SMILES O=c1c(O)c(-c2ccc(O)c(O)c2)oc2cc(O)cc(O)c12
REMARK SMILES IDX 5 1 3 2 2 3 1 4 22 5 20 6 19 7 17 8 16 9 15 10 14 11 6 12
REMARK SMILES IDX 7 13 8 14 9 15 13 16 11 17 10 18 12 20 4 22 21 24 18 26
REMARK H PARENT 10 19 12 21 4 23 21 25 18 27
REMARK Flexibility Score: inf
ROOT
ATOM      1  C   UNL     1     124.560 126.375 126.748  1.00  0.00     0.180 A 
ATOM      2  C   UNL     1     125.948 126.530 126.933  1.00  0.00     0.208 A 
ATOM      3  C   UNL     1     126.535 126.023 128.104  1.00  0.00     0.238 A 
ATOM      4  O   UNL     1     127.775 126.165 128.286  1.00  0.00    -0.285 OA
ATOM      5  C   UNL     1     125.735 125.356 129.054  1.00  0.00     0.111 A 
ATOM      6  C   UNL     1     126.250 124.813 130.256  1.00  0.00     0.134 A 
ATOM      7  C   UNL     1     125.389 124.156 131.147  1.00  0.00     0.093 A 
ATOM      8  C   UNL     1     124.025 124.030 130.858  1.00  0.00     0.123 A 
ATOM      9  C   UNL     1     123.513 124.564 129.675  1.00  0.00     0.094 A 
ATOM     10  C   UNL     1     124.354 125.224 128.774  1.00  0.00     0.146 A 
ATOM     11  O   UNL     1     123.839 125.728 127.659  1.00  0.00    -0.452 OA
ENDROOT
BRANCH   1  12
ATOM     12  C   UNL     1     123.864 126.899 125.550  1.00  0.00     0.025 A 
ATOM     13  C   UNL     1     124.499 127.786 124.663  1.00  0.00     0.016 A 
ATOM     14  C   UNL     1     123.814 128.285 123.553  1.00  0.00     0.051 A 
ATOM     15  C   UNL     1     122.484 127.920 123.318  1.00  0.00     0.157 A 
ATOM     16  C   UNL     1     122.522 126.551 125.324  1.00  0.00     0.062 A 
ATOM     17  C   UNL     1     121.833 127.050 124.209  1.00  0.00     0.158 A 
BRANCH  15  18
ATOM     18  O   UNL     1     121.827 128.433 122.200  1.00  0.00    -0.504 OA
ATOM     19  H   UNL     1     121.145 129.178 122.271  1.00  0.00     0.293 HD
ENDBRANCH  15  18
BRANCH  17  20
ATOM     20  O   UNL     1     120.506 126.688 123.986  1.00  0.00    -0.504 OA
ATOM     21  H   UNL     1     119.815 126.721 124.726  1.00  0.00     0.293 HD
ENDBRANCH  17  20
ENDBRANCH   1  12
BRANCH   2  22
ATOM     22  O   UNL     1     126.726 127.151 125.954  1.00  0.00    -0.502 OA
ATOM     23  H   UNL     1     126.930 126.712 125.064  1.00  0.00     0.293 HD
ENDBRANCH   2  22
BRANCH   6  24
ATOM     24  O   UNL     1     127.605 124.922 130.570  1.00  0.00    -0.507 OA
ATOM     25  H   UNL     1     128.166 124.110 130.799  1.00  0.00     0.293 HD
ENDBRANCH   6  24
BRANCH   8  26
ATOM     26  O   UNL     1     123.170 123.376 131.743  1.00  0.00    -0.508 OA
ATOM     27  H   UNL     1     122.281 122.998 131.440  1.00  0.00     0.293 HD
ENDBRANCH   8  26
TORSDOF 6
ENDMDL
MODEL 8
REMARK VINA RESULT:    -3.822      3.844      5.473
REMARK INTER + INTRA:          -4.935
REMARK INTER:                  -4.722
REMARK INTRA:                  -0.212
REMARK UNBOUND:                -0.330
REMARK SMILES O=c1c(O)c(-c2ccc(O)c(O)c2)oc2cc(O)cc(O)c12
REMARK SMILES IDX 5 1 3 2 2 3 1 4 22 5 20 6 19 7 17 8 16 9 15 10 14 11 6 12
REMARK SMILES IDX 7 13 8 14 9 15 13 16 11 17 10 18 12 20 4 22 21 24 18 26
REMARK H PARENT 10 19 12 21 4 23 21 25 18 27
REMARK Flexibility Score: inf
ROOT
ATOM      1  C   UNL     1     125.350 123.082 126.751  1.00  0.00     0.180 A 
ATOM      2  C   UNL     1     124.922 122.606 128.005  1.00  0.00     0.208 A 
ATOM      3  C   UNL     1     125.367 123.259 129.165  1.00  0.00     0.238 A 
ATOM      4  O   UNL     1     125.000 122.835 130.294  1.00  0.00    -0.285 OA
ATOM      5  C   UNL     1     126.211 124.383 129.053  1.00  0.00     0.111 A 
ATOM      6  C   UNL     1     126.700 125.099 130.172  1.00  0.00     0.134 A 
ATOM      7  C   UNL     1     127.530 126.214 129.977  1.00  0.00     0.093 A 
ATOM      8  C   UNL     1     127.878 126.625 128.685  1.00  0.00     0.123 A 
ATOM      9  C   UNL     1     127.398 125.922 127.579  1.00  0.00     0.094 A 
ATOM     10  C   UNL     1     126.572 124.808 127.752  1.00  0.00     0.146 A 
ATOM     11  O   UNL     1     126.135 124.154 126.682  1.00  0.00    -0.452 OA
ENDROOT
BRANCH   1  12
ATOM     12  C   UNL     1     124.940 122.436 125.482  1.00  0.00     0.025 A 
ATOM     13  C   UNL     1     124.033 123.056 124.605  1.00  0.00     0.016 A 
ATOM     14  C   UNL     1     123.642 122.417 123.426  1.00  0.00     0.051 A 
ATOM     15  C   UNL     1     124.138 121.148 123.110  1.00  0.00     0.157 A 
ATOM     16  C   UNL     1     125.420 121.153 125.174  1.00  0.00     0.062 A 
ATOM     17  C   UNL     1     125.030 120.511 123.990  1.00  0.00     0.158 A 
BRANCH  15  18
ATOM     18  O   UNL     1     123.732 120.536 121.925  1.00  0.00    -0.504 OA
ATOM     19  H   UNL     1     122.869 120.010 121.859  1.00  0.00     0.293 HD
ENDBRANCH  15  18
BRANCH  17  20
ATOM     20  O   UNL     1     125.522 119.243 123.686  1.00  0.00    -0.504 OA
ATOM     21  H   UNL     1     124.914 118.502 123.356  1.00  0.00     0.293 HD
ENDBRANCH  17  20
ENDBRANCH   1  12
BRANCH   2  22
ATOM     22  O   UNL     1     124.046 121.521 128.087  1.00  0.00    -0.502 OA
ATOM     23  H   UNL     1     123.273 121.496 128.742  1.00  0.00     0.293 HD
ENDBRANCH   2  22
BRANCH   6  24
ATOM     24  O   UNL     1     126.370 124.713 131.472  1.00  0.00    -0.507 OA
ATOM     25  H   UNL     1     126.746 125.192 132.282  1.00  0.00     0.293 HD
ENDBRANCH   6  24
BRANCH   8  26
ATOM     26  O   UNL     1     128.700 127.733 128.491  1.00  0.00    -0.508 OA
ATOM     27  H   UNL     1     129.041 127.986 127.572  1.00  0.00     0.293 HD
ENDBRANCH   8  26
TORSDOF 6
ENDMDL
MODEL 9
REMARK VINA RESULT:    -3.796      1.235      1.500
REMARK INTER + INTRA:          -4.903
REMARK INTER:                  -4.570
REMARK INTRA:                  -0.332
REMARK UNBOUND:                -0.330
REMARK SMILES O=c1c(O)c(-c2ccc(O)c(O)c2)oc2cc(O)cc(O)c12
REMARK SMILES IDX 5 1 3 2 2 3 1 4 22 5 20 6 19 7 17 8 16 9 15 10 14 11 6 12
REMARK SMILES IDX 7 13 8 14 9 15 13 16 11 17 10 18 12 20 4 22 21 24 18 26
REMARK H PARENT 10 19 12 21 4 23 21 25 18 27
REMARK Flexibility Score: inf
ROOT
ATOM      1  C   UNL     1     126.623 125.982 126.613  1.00  0.00     0.180 A 
ATOM      2  C   UNL     1     125.321 126.514 126.692  1.00  0.00     0.208 A 
ATOM      3  C   UNL     1     124.622 126.418 127.905  1.00  0.00     0.238 A 
ATOM      4  O   UNL     1     123.452 126.880 127.985  1.00  0.00    -0.285 OA
ATOM      5  C   UNL     1     125.240 125.815 129.021  1.00  0.00     0.111 A 
ATOM      6  C   UNL     1     124.606 125.683 130.280  1.00  0.00     0.134 A 
ATOM      7  C   UNL     1     125.291 125.077 131.343  1.00  0.00     0.093 A 
ATOM      8  C   UNL     1     126.597 124.603 131.172  1.00  0.00     0.123 A 
ATOM      9  C   UNL     1     127.226 124.731 129.933  1.00  0.00     0.094 A 
ATOM     10  C   UNL     1     126.559 125.330 128.859  1.00  0.00     0.146 A 
ATOM     11  O   UNL     1     127.179 125.432 127.689  1.00  0.00    -0.452 OA
ENDROOT
BRANCH   1  12
ATOM     12  C   UNL     1     127.417 126.026 125.364  1.00  0.00     0.025 A 
ATOM     13  C   UNL     1     127.356 124.986 124.420  1.00  0.00     0.016 A 
ATOM     14  C   UNL     1     128.132 125.039 123.260  1.00  0.00     0.051 A 
ATOM     15  C   UNL     1     128.989 126.119 123.030  1.00  0.00     0.157 A 
ATOM     16  C   UNL     1     128.294 127.100 125.141  1.00  0.00     0.062 A 
ATOM     17  C   UNL     1     129.073 127.155 123.976  1.00  0.00     0.158 A 
BRANCH  15  18
ATOM     18  O   UNL     1     129.750 126.146 121.862  1.00  0.00    -0.504 OA
ATOM     19  H   UNL     1     129.393 126.528 120.995  1.00  0.00     0.293 HD
ENDBRANCH  15  18
BRANCH  17  20
ATOM     20  O   UNL     1     129.931 128.232 123.757  1.00  0.00    -0.504 OA
ATOM     21  H   UNL     1     130.737 128.397 124.348  1.00  0.00     0.293 HD
ENDBRANCH  17  20
ENDBRANCH   1  12
BRANCH   2  22
ATOM     22  O   UNL     1     124.751 127.150 125.586  1.00  0.00    -0.502 OA
ATOM     23  H   UNL     1     124.844 128.146 125.426  1.00  0.00     0.293 HD
ENDBRANCH   2  22
BRANCH   6  24
ATOM     24  O   UNL     1     123.305 126.146 130.481  1.00  0.00    -0.507 OA
ATOM     25  H   UNL     1     123.039 126.639 131.325  1.00  0.00     0.293 HD
ENDBRANCH   6  24
BRANCH   8  26
ATOM     26  O   UNL     1     127.278 124.004 132.229  1.00  0.00    -0.508 OA
ATOM     27  H   UNL     1     126.797 123.433 132.914  1.00  0.00     0.293 HD
ENDBRANCH   8  26
TORSDOF 6
ENDMDL
