MODEL 1
REMARK VINA RESULT:     6.411      0.000      0.000
REMARK INTER + INTRA:          11.240
REMARK INTER:                  11.658
REMARK INTRA:                  -0.417
REMARK UNBOUND:                -0.417
REMARK SMILES CCCCCCCCCCCCCCCC(=O)[O-]
REMARK SMILES IDX 9 1 10 2 11 3 12 4 13 5 14 6 15 7 16 8 17 9 18 10 8 11 7 12
REMARK SMILES IDX 6 13 5 14 4 15 3 16 2 17 1 18
REMARK H PARENT
REMARK Flexibility Score: inf
ROOT
ATOM      1  C   UNL     1     -16.836   7.038 -17.921  1.00  0.00     0.000 C 
ENDROOT
BRANCH   1   2
ATOM      2  C   UNL     1     -15.699   6.251 -17.247  1.00  0.00     0.000 C 
BRANCH   2   3
ATOM      3  C   UNL     1     -14.368   6.363 -18.010  1.00  0.00     0.000 C 
BRANCH   3   4
ATOM      4  C   UNL     1     -13.285   7.099 -17.204  1.00  0.00     0.000 C 
BRANCH   4   5
ATOM      5  C   UNL     1     -11.922   7.125 -17.915  1.00  0.00     0.000 C 
BRANCH   5   6
ATOM      6  C   UNL     1     -10.711   6.748 -17.038  1.00  0.00     0.006 C 
BRANCH   6   7
ATOM      7  C   UNL     1     -11.026   5.714 -15.941  1.00  0.00     0.053 C 
BRANCH   7   8
ATOM      8  C   UNL     1     -11.341   6.350 -14.621  1.00  0.00     0.041 C 
ATOM      9  O   UNL     1     -12.502   6.270 -14.137  1.00  0.00    -0.550 OA
ATOM     10  O   UNL     1     -10.342   6.994 -13.902  1.00  0.00    -0.550 OA
ENDBRANCH   7   8
ENDBRANCH   6   7
ENDBRANCH   5   6
ENDBRANCH   4   5
ENDBRANCH   3   4
ENDBRANCH   2   3
ENDBRANCH   1   2
BRANCH   1  11
ATOM     11  C   UNL     1     -18.208   6.753 -17.288  1.00  0.00     0.000 C 
BRANCH  11  12
ATOM     12  C   UNL     1     -18.116   5.794 -16.087  1.00  0.00    -0.000 C 
BRANCH  12  13
ATOM     13  C   UNL     1     -19.198   6.068 -15.030  1.00  0.00    -0.000 C 
BRANCH  13  14
ATOM     14  C   UNL     1     -19.265   4.973 -13.951  1.00  0.00    -0.000 C 
BRANCH  14  15
ATOM     15  C   UNL     1     -20.115   3.769 -14.385  1.00  0.00    -0.000 C 
BRANCH  15  16
ATOM     16  C   UNL     1     -19.370   2.432 -14.225  1.00  0.00    -0.000 C 
BRANCH  16  17
ATOM     17  C   UNL     1     -19.658   1.456 -15.377  1.00  0.00    -0.003 C 
ATOM     18  C   UNL     1     -19.829   0.015 -14.900  1.00  0.00     0.004 C 
ENDBRANCH  16  17
ENDBRANCH  15  16
ENDBRANCH  14  15
ENDBRANCH  13  14
ENDBRANCH  12  13
ENDBRANCH  11  12
ENDBRANCH   1  11
TORSDOF 14
ENDMDL
MODEL 2
REMARK VINA RESULT:     8.658      6.526      9.922
REMARK INTER + INTRA:          15.326
REMARK INTER:                  16.020
REMARK INTRA:                  -0.693
REMARK UNBOUND:                -0.417
REMARK SMILES CCCCCCCCCCCCCCCC(=O)[O-]
REMARK SMILES IDX 9 1 10 2 11 3 12 4 13 5 14 6 15 7 16 8 17 9 18 10 8 11 7 12
REMARK SMILES IDX 6 13 5 14 4 15 3 16 2 17 1 18
REMARK H PARENT
REMARK Flexibility Score: inf
ROOT
ATOM      1  C   UNL     1     -19.872  -0.287 -15.348  1.00  0.00     0.000 C 
ENDROOT
BRANCH   1   2
ATOM      2  C   UNL     1     -20.124  -1.798 -15.199  1.00  0.00     0.000 C 
BRANCH   2   3
ATOM      3  C   UNL     1     -19.952  -2.560 -16.524  1.00  0.00     0.000 C 
BRANCH   3   4
ATOM      4  C   UNL     1     -19.779  -1.620 -17.729  1.00  0.00     0.000 C 
BRANCH   4   5
ATOM      5  C   UNL     1     -19.845  -2.355 -19.078  1.00  0.00     0.000 C 
BRANCH   5   6
ATOM      6  C   UNL     1     -18.872  -3.542 -19.231  1.00  0.00     0.006 C 
BRANCH   6   7
ATOM      7  C   UNL     1     -18.651  -3.989 -20.688  1.00  0.00     0.053 C 
BRANCH   7   8
ATOM      8  C   UNL     1     -17.898  -5.282 -20.788  1.00  0.00     0.041 C 
ATOM      9  O   UNL     1     -17.138  -5.648 -19.853  1.00  0.00    -0.550 OA
ATOM     10  O   UNL     1     -18.068  -6.103 -21.895  1.00  0.00    -0.550 OA
ENDBRANCH   7   8
ENDBRANCH   6   7
ENDBRANCH   5   6
ENDBRANCH   4   5
ENDBRANCH   3   4
ENDBRANCH   2   3
ENDBRANCH   1   2
BRANCH   1  11
ATOM     11  C   UNL     1     -18.470   0.127 -14.871  1.00  0.00     0.000 C 
BRANCH  11  12
ATOM     12  C   UNL     1     -18.505   1.323 -13.903  1.00  0.00    -0.000 C 
BRANCH  12  13
ATOM     13  C   UNL     1     -19.821   2.115 -13.993  1.00  0.00    -0.000 C 
BRANCH  13  14
ATOM     14  C   UNL     1     -19.594   3.617 -14.238  1.00  0.00    -0.000 C 
BRANCH  14  15
ATOM     15  C   UNL     1     -20.124   4.077 -15.605  1.00  0.00    -0.000 C 
BRANCH  15  16
ATOM     16  C   UNL     1     -19.958   5.591 -15.823  1.00  0.00    -0.000 C 
BRANCH  16  17
ATOM     17  C   UNL     1     -18.933   5.920 -16.919  1.00  0.00    -0.003 C 
ATOM     18  C   UNL     1     -19.170   5.130 -18.205  1.00  0.00     0.004 C 
ENDBRANCH  16  17
ENDBRANCH  15  16
ENDBRANCH  14  15
ENDBRANCH  13  14
ENDBRANCH  12  13
ENDBRANCH  11  12
ENDBRANCH   1  11
TORSDOF 14
ENDMDL
