MODEL 1
REMARK VINA RESULT:    -3.762      0.000      0.000
REMARK INTER + INTRA:          -7.355
REMARK INTER:                  -6.842
REMARK INTRA:                  -0.513
REMARK UNBOUND:                -0.513
REMARK SMILES CCCCCCCCCCCCCCCC(=O)[O-]
REMARK SMILES IDX 9 1 10 2 11 3 12 4 13 5 14 6 15 7 16 8 17 9 18 10 8 11 7 12
REMARK SMILES IDX 6 13 5 14 4 15 3 16 2 17 1 18
REMARK H PARENT
REMARK Flexibility Score: inf
ROOT
ATOM      1  C   UNL     1      41.211  13.649 -35.626  1.00  0.00     0.000 C 
ENDROOT
BRANCH   1   2
ATOM      2  C   UNL     1      39.763  13.535 -36.127  1.00  0.00     0.000 C 
BRANCH   2   3
ATOM      3  C   UNL     1      38.797  14.445 -35.349  1.00  0.00     0.000 C 
BRANCH   3   4
ATOM      4  C   UNL     1      37.350  13.925 -35.373  1.00  0.00     0.000 C 
BRANCH   4   5
ATOM      5  C   UNL     1      37.046  12.961 -34.213  1.00  0.00     0.000 C 
BRANCH   5   6
ATOM      6  C   UNL     1      36.936  13.671 -32.852  1.00  0.00     0.006 C 
BRANCH   6   7
ATOM      7  C   UNL     1      36.947  12.714 -31.646  1.00  0.00     0.053 C 
BRANCH   7   8
ATOM      8  C   UNL     1      37.041  13.439 -30.338  1.00  0.00     0.041 C 
ATOM      9  O   UNL     1      36.877  12.816 -29.256  1.00  0.00    -0.550 OA
ATOM     10  O   UNL     1      37.276  14.808 -30.313  1.00  0.00    -0.550 OA
ENDBRANCH   7   8
ENDBRANCH   6   7
ENDBRANCH   5   6
ENDBRANCH   4   5
ENDBRANCH   3   4
ENDBRANCH   2   3
ENDBRANCH   1   2
BRANCH   1  11
ATOM     11  C   UNL     1      42.078  12.449 -36.043  1.00  0.00     0.000 C 
BRANCH  11  12
ATOM     12  C   UNL     1      42.863  11.845 -34.865  1.00  0.00    -0.000 C 
BRANCH  12  13
ATOM     13  C   UNL     1      44.138  12.619 -34.471  1.00  0.00    -0.000 C 
BRANCH  13  14
ATOM     14  C   UNL     1      44.538  12.513 -32.985  1.00  0.00    -0.000 C 
BRANCH  14  15
ATOM     15  C   UNL     1      46.045  12.656 -32.710  1.00  0.00    -0.000 C 
BRANCH  15  16
ATOM     16  C   UNL     1      46.559  11.636 -31.679  1.00  0.00    -0.000 C 
BRANCH  16  17
ATOM     17  C   UNL     1      45.931  11.835 -30.291  1.00  0.00    -0.003 C 
ATOM     18  C   UNL     1      46.664  11.061 -29.195  1.00  0.00     0.004 C 
ENDBRANCH  16  17
ENDBRANCH  15  16
ENDBRANCH  14  15
ENDBRANCH  13  14
ENDBRANCH  12  13
ENDBRANCH  11  12
ENDBRANCH   1  11
TORSDOF 14
ENDMDL
MODEL 2
REMARK VINA RESULT:    -3.277      3.226      7.540
REMARK INTER + INTRA:          -6.472
REMARK INTER:                  -5.835
REMARK INTRA:                  -0.637
REMARK UNBOUND:                -0.513
REMARK SMILES CCCCCCCCCCCCCCCC(=O)[O-]
REMARK SMILES IDX 9 1 10 2 11 3 12 4 13 5 14 6 15 7 16 8 17 9 18 10 8 11 7 12
REMARK SMILES IDX 6 13 5 14 4 15 3 16 2 17 1 18
REMARK H PARENT
REMARK Flexibility Score: inf
ROOT
ATOM      1  C   UNL     1      40.474  14.476 -35.689  1.00  0.00     0.000 C 
ENDROOT
BRANCH   1   2
ATOM      2  C   UNL     1      41.554  13.535 -36.245  1.00  0.00     0.000 C 
BRANCH   2   3
ATOM      3  C   UNL     1      41.791  12.312 -35.343  1.00  0.00     0.000 C 
BRANCH   3   4
ATOM      4  C   UNL     1      43.194  11.709 -35.526  1.00  0.00     0.000 C 
BRANCH   4   5
ATOM      5  C   UNL     1      44.290  12.531 -34.826  1.00  0.00     0.000 C 
BRANCH   5   6
ATOM      6  C   UNL     1      44.441  12.186 -33.334  1.00  0.00     0.006 C 
BRANCH   6   7
ATOM      7  C   UNL     1      45.706  12.775 -32.683  1.00  0.00     0.053 C 
BRANCH   7   8
ATOM      8  C   UNL     1      45.927  12.264 -31.292  1.00  0.00     0.041 C 
ATOM      9  O   UNL     1      45.351  12.815 -30.317  1.00  0.00    -0.550 OA
ATOM     10  O   UNL     1      46.796  11.204 -31.066  1.00  0.00    -0.550 OA
ENDBRANCH   7   8
ENDBRANCH   6   7
ENDBRANCH   5   6
ENDBRANCH   4   5
ENDBRANCH   3   4
ENDBRANCH   2   3
ENDBRANCH   1   2
BRANCH   1  11
ATOM     11  C   UNL     1      39.054  14.071 -36.122  1.00  0.00     0.000 C 
BRANCH  11  12
ATOM     12  C   UNL     1      38.007  14.304 -35.019  1.00  0.00    -0.000 C 
BRANCH  12  13
ATOM     13  C   UNL     1      37.023  13.137 -34.802  1.00  0.00    -0.000 C 
BRANCH  13  14
ATOM     14  C   UNL     1      36.879  12.662 -33.342  1.00  0.00    -0.000 C 
BRANCH  14  15
ATOM     15  C   UNL     1      36.938  13.782 -32.289  1.00  0.00    -0.000 C 
BRANCH  15  16
ATOM     16  C   UNL     1      36.896  13.246 -30.848  1.00  0.00    -0.000 C 
BRANCH  16  17
ATOM     17  C   UNL     1      36.981  14.368 -29.801  1.00  0.00    -0.003 C 
ATOM     18  C   UNL     1      37.837  15.545 -30.266  1.00  0.00     0.004 C 
ENDBRANCH  16  17
ENDBRANCH  15  16
ENDBRANCH  14  15
ENDBRANCH  13  14
ENDBRANCH  12  13
ENDBRANCH  11  12
ENDBRANCH   1  11
TORSDOF 14
ENDMDL
MODEL 3
REMARK VINA RESULT:    -3.063      3.263      7.783
REMARK INTER + INTRA:          -6.084
REMARK INTER:                  -5.706
REMARK INTRA:                  -0.377
REMARK UNBOUND:                -0.513
REMARK SMILES CCCCCCCCCCCCCCCC(=O)[O-]
REMARK SMILES IDX 9 1 10 2 11 3 12 4 13 5 14 6 15 7 16 8 17 9 18 10 8 11 7 12
REMARK SMILES IDX 6 13 5 14 4 15 3 16 2 17 1 18
REMARK H PARENT
REMARK Flexibility Score: inf
ROOT
ATOM      1  C   UNL     1      41.103  12.480 -35.856  1.00  0.00     0.000 C 
ENDROOT
BRANCH   1   2
ATOM      2  C   UNL     1      42.620  12.365 -36.067  1.00  0.00     0.000 C 
BRANCH   2   3
ATOM      3  C   UNL     1      43.342  11.766 -34.848  1.00  0.00     0.000 C 
BRANCH   3   4
ATOM      4  C   UNL     1      44.181  12.807 -34.090  1.00  0.00     0.000 C 
BRANCH   4   5
ATOM      5  C   UNL     1      44.618  12.319 -32.697  1.00  0.00     0.000 C 
BRANCH   5   6
ATOM      6  C   UNL     1      46.105  12.587 -32.405  1.00  0.00     0.006 C 
BRANCH   6   7
ATOM      7  C   UNL     1      46.780  11.493 -31.556  1.00  0.00     0.053 C 
BRANCH   7   8
ATOM      8  C   UNL     1      46.418  11.588 -30.105  1.00  0.00     0.041 C 
ATOM      9  O   UNL     1      45.443  12.297 -29.740  1.00  0.00    -0.550 OA
ATOM     10  O   UNL     1      47.177  10.923 -29.150  1.00  0.00    -0.550 OA
ENDBRANCH   7   8
ENDBRANCH   6   7
ENDBRANCH   5   6
ENDBRANCH   4   5
ENDBRANCH   3   4
ENDBRANCH   2   3
ENDBRANCH   1   2
BRANCH   1  11
ATOM     11  C   UNL     1      40.621  13.940 -35.799  1.00  0.00     0.000 C 
BRANCH  11  12
ATOM     12  C   UNL     1      39.240  14.135 -36.450  1.00  0.00    -0.000 C 
BRANCH  12  13
ATOM     13  C   UNL     1      38.041  13.860 -35.520  1.00  0.00    -0.000 C 
BRANCH  13  14
ATOM     14  C   UNL     1      37.830  14.896 -34.396  1.00  0.00    -0.000 C 
BRANCH  14  15
ATOM     15  C   UNL     1      36.875  14.449 -33.276  1.00  0.00    -0.000 C 
BRANCH  15  16
ATOM     16  C   UNL     1      37.315  13.135 -32.609  1.00  0.00    -0.000 C 
BRANCH  16  17
ATOM     17  C   UNL     1      36.924  13.069 -31.124  1.00  0.00    -0.003 C 
ATOM     18  C   UNL     1      37.249  14.359 -30.371  1.00  0.00     0.004 C 
ENDBRANCH  16  17
ENDBRANCH  15  16
ENDBRANCH  14  15
ENDBRANCH  13  14
ENDBRANCH  12  13
ENDBRANCH  11  12
ENDBRANCH   1  11
TORSDOF 14
ENDMDL
MODEL 4
REMARK VINA RESULT:    -1.825     19.803     22.405
REMARK INTER + INTRA:          -3.832
REMARK INTER:                  -3.904
REMARK INTRA:                   0.072
REMARK UNBOUND:                -0.513
REMARK SMILES CCCCCCCCCCCCCCCC(=O)[O-]
REMARK SMILES IDX 9 1 10 2 11 3 12 4 13 5 14 6 15 7 16 8 17 9 18 10 8 11 7 12
REMARK SMILES IDX 6 13 5 14 4 15 3 16 2 17 1 18
REMARK H PARENT
REMARK Flexibility Score: inf
ROOT
ATOM      1  C   UNL     1      55.642  26.644 -34.603  1.00  0.00     0.000 C 
ENDROOT
BRANCH   1   2
ATOM      2  C   UNL     1      56.446  27.617 -35.480  1.00  0.00     0.000 C 
BRANCH   2   3
ATOM      3  C   UNL     1      57.007  28.805 -34.681  1.00  0.00     0.000 C 
BRANCH   3   4
ATOM      4  C   UNL     1      56.314  30.131 -35.033  1.00  0.00     0.000 C 
BRANCH   4   5
ATOM      5  C   UNL     1      56.148  31.057 -33.815  1.00  0.00     0.000 C 
BRANCH   5   6
ATOM      6  C   UNL     1      56.855  30.527 -32.555  1.00  0.00     0.006 C 
BRANCH   6   7
ATOM      7  C   UNL     1      55.927  30.381 -31.335  1.00  0.00     0.053 C 
BRANCH   7   8
ATOM      8  C   UNL     1      56.104  29.069 -30.632  1.00  0.00     0.041 C 
ATOM      9  O   UNL     1      56.401  29.041 -29.409  1.00  0.00    -0.550 OA
ATOM     10  O   UNL     1      55.976  27.877 -31.335  1.00  0.00    -0.550 OA
ENDBRANCH   7   8
ENDBRANCH   6   7
ENDBRANCH   5   6
ENDBRANCH   4   5
ENDBRANCH   3   4
ENDBRANCH   2   3
ENDBRANCH   1   2
BRANCH   1  11
ATOM     11  C   UNL     1      55.365  25.304 -35.304  1.00  0.00     0.000 C 
BRANCH  11  12
ATOM     12  C   UNL     1      55.203  25.453 -36.828  1.00  0.00    -0.000 C 
BRANCH  12  13
ATOM     13  C   UNL     1      55.143  26.909 -37.333  1.00  0.00    -0.000 C 
BRANCH  13  14
ATOM     14  C   UNL     1      54.372  27.114 -38.653  1.00  0.00    -0.000 C 
BRANCH  14  15
ATOM     15  C   UNL     1      54.144  28.584 -39.047  1.00  0.00    -0.000 C 
BRANCH  15  16
ATOM     16  C   UNL     1      53.873  29.489 -37.834  1.00  0.00    -0.000 C 
BRANCH  16  17
ATOM     17  C   UNL     1      54.215  30.962 -38.111  1.00  0.00    -0.003 C 
ATOM     18  C   UNL     1      55.469  31.125 -38.969  1.00  0.00     0.004 C 
ENDBRANCH  16  17
ENDBRANCH  15  16
ENDBRANCH  14  15
ENDBRANCH  13  14
ENDBRANCH  12  13
ENDBRANCH  11  12
ENDBRANCH   1  11
TORSDOF 14
ENDMDL
MODEL 5
REMARK VINA RESULT:    -1.340      3.593      8.373
REMARK INTER + INTRA:          -2.949
REMARK INTER:                  -2.447
REMARK INTRA:                  -0.503
REMARK UNBOUND:                -0.513
REMARK SMILES CCCCCCCCCCCCCCCC(=O)[O-]
REMARK SMILES IDX 9 1 10 2 11 3 12 4 13 5 14 6 15 7 16 8 17 9 18 10 8 11 7 12
REMARK SMILES IDX 6 13 5 14 4 15 3 16 2 17 1 18
REMARK H PARENT
REMARK Flexibility Score: inf
ROOT
ATOM      1  C   UNL     1      45.573  12.887 -31.712  1.00  0.00     0.000 C 
ENDROOT
BRANCH   1   2
ATOM      2  C   UNL     1      45.503  11.614 -30.854  1.00  0.00     0.000 C 
BRANCH   2   3
ATOM      3  C   UNL     1      46.878  11.199 -30.302  1.00  0.00     0.000 C 
BRANCH   3   4
ATOM      4  C   UNL     1      46.836  10.875 -28.800  1.00  0.00     0.000 C 
BRANCH   4   5
ATOM      5  C   UNL     1      45.478  11.208 -28.157  1.00  0.00     0.000 C 
BRANCH   5   6
ATOM      6  C   UNL     1      45.514  11.168 -26.619  1.00  0.00     0.006 C 
BRANCH   6   7
ATOM      7  C   UNL     1      44.185  11.570 -25.954  1.00  0.00     0.053 C 
BRANCH   7   8
ATOM      8  C   UNL     1      44.384  12.470 -24.772  1.00  0.00     0.041 C 
ATOM      9  O   UNL     1      43.665  13.493 -24.627  1.00  0.00    -0.550 OA
ATOM     10  O   UNL     1      45.386  12.199 -23.848  1.00  0.00    -0.550 OA
ENDBRANCH   7   8
ENDBRANCH   6   7
ENDBRANCH   5   6
ENDBRANCH   4   5
ENDBRANCH   3   4
ENDBRANCH   2   3
ENDBRANCH   1   2
BRANCH   1  11
ATOM     11  C   UNL     1      45.364  12.604 -33.210  1.00  0.00     0.000 C 
BRANCH  11  12
ATOM     12  C   UNL     1      43.883  12.391 -33.573  1.00  0.00    -0.000 C 
BRANCH  12  13
ATOM     13  C   UNL     1      43.627  11.980 -35.037  1.00  0.00    -0.000 C 
BRANCH  13  14
ATOM     14  C   UNL     1      42.147  11.975 -35.469  1.00  0.00    -0.000 C 
BRANCH  14  15
ATOM     15  C   UNL     1      41.703  13.212 -36.269  1.00  0.00    -0.000 C 
BRANCH  15  16
ATOM     16  C   UNL     1      40.519  13.948 -35.618  1.00  0.00    -0.000 C 
BRANCH  16  17
ATOM     17  C   UNL     1      39.196  13.706 -36.361  1.00  0.00    -0.003 C 
ATOM     18  C   UNL     1      37.974  14.106 -35.535  1.00  0.00     0.004 C 
ENDBRANCH  16  17
ENDBRANCH  15  16
ENDBRANCH  14  15
ENDBRANCH  13  14
ENDBRANCH  12  13
ENDBRANCH  11  12
ENDBRANCH   1  11
TORSDOF 14
ENDMDL
MODEL 6
REMARK VINA RESULT:    -1.330      1.292      2.431
REMARK INTER + INTRA:          -2.932
REMARK INTER:                  -2.146
REMARK INTRA:                  -0.786
REMARK UNBOUND:                -0.513
REMARK SMILES CCCCCCCCCCCCCCCC(=O)[O-]
REMARK SMILES IDX 9 1 10 2 11 3 12 4 13 5 14 6 15 7 16 8 17 9 18 10 8 11 7 12
REMARK SMILES IDX 6 13 5 14 4 15 3 16 2 17 1 18
REMARK H PARENT
REMARK Flexibility Score: inf
ROOT
ATOM      1  C   UNL     1      43.205  13.028 -35.086  1.00  0.00     0.000 C 
ENDROOT
BRANCH   1   2
ATOM      2  C   UNL     1      42.234  12.455 -36.130  1.00  0.00     0.000 C 
BRANCH   2   3
ATOM      3  C   UNL     1      40.761  12.631 -35.725  1.00  0.00     0.000 C 
BRANCH   3   4
ATOM      4  C   UNL     1      40.093  13.820 -36.434  1.00  0.00     0.000 C 
BRANCH   4   5
ATOM      5  C   UNL     1      39.318  14.731 -35.466  1.00  0.00     0.000 C 
BRANCH   5   6
ATOM      6  C   UNL     1      37.896  14.222 -35.168  1.00  0.00     0.006 C 
BRANCH   6   7
ATOM      7  C   UNL     1      37.226  14.911 -33.965  1.00  0.00     0.053 C 
BRANCH   7   8
ATOM      8  C   UNL     1      37.083  13.997 -32.786  1.00  0.00     0.041 C 
ATOM      9  O   UNL     1      37.115  12.749 -32.946  1.00  0.00    -0.550 OA
ATOM     10  O   UNL     1      36.878  14.521 -31.516  1.00  0.00    -0.550 OA
ENDBRANCH   7   8
ENDBRANCH   6   7
ENDBRANCH   5   6
ENDBRANCH   4   5
ENDBRANCH   3   4
ENDBRANCH   2   3
ENDBRANCH   1   2
BRANCH   1  11
ATOM     11  C   UNL     1      43.994  11.934 -34.346  1.00  0.00     0.000 C 
BRANCH  11  12
ATOM     12  C   UNL     1      44.153  12.230 -32.844  1.00  0.00    -0.000 C 
BRANCH  12  13
ATOM     13  C   UNL     1      45.060  13.432 -32.513  1.00  0.00    -0.000 C 
BRANCH  13  14
ATOM     14  C   UNL     1      46.336  13.093 -31.716  1.00  0.00    -0.000 C 
BRANCH  14  15
ATOM     15  C   UNL     1      46.851  11.655 -31.902  1.00  0.00    -0.000 C 
BRANCH  15  16
ATOM     16  C   UNL     1      46.930  10.875 -30.579  1.00  0.00    -0.000 C 
BRANCH  16  17
ATOM     17  C   UNL     1      46.546  11.737 -29.365  1.00  0.00    -0.003 C 
ATOM     18  C   UNL     1      46.164  10.900 -28.145  1.00  0.00     0.004 C 
ENDBRANCH  16  17
ENDBRANCH  15  16
ENDBRANCH  14  15
ENDBRANCH  13  14
ENDBRANCH  12  13
ENDBRANCH  11  12
ENDBRANCH   1  11
TORSDOF 14
ENDMDL
MODEL 7
REMARK VINA RESULT:    -1.137      2.967      5.931
REMARK INTER + INTRA:          -2.581
REMARK INTER:                  -2.083
REMARK INTRA:                  -0.497
REMARK UNBOUND:                -0.513
REMARK SMILES CCCCCCCCCCCCCCCC(=O)[O-]
REMARK SMILES IDX 9 1 10 2 11 3 12 4 13 5 14 6 15 7 16 8 17 9 18 10 8 11 7 12
REMARK SMILES IDX 6 13 5 14 4 15 3 16 2 17 1 18
REMARK H PARENT
REMARK Flexibility Score: inf
ROOT
ATOM      1  C   UNL     1      45.828  12.952 -32.016  1.00  0.00     0.000 C 
ENDROOT
BRANCH   1   2
ATOM      2  C   UNL     1      44.618  12.207 -32.601  1.00  0.00     0.000 C 
BRANCH   2   3
ATOM      3  C   UNL     1      44.305  12.632 -34.045  1.00  0.00     0.000 C 
BRANCH   3   4
ATOM      4  C   UNL     1      43.019  11.984 -34.585  1.00  0.00     0.000 C 
BRANCH   4   5
ATOM      5  C   UNL     1      42.507  12.659 -35.869  1.00  0.00     0.000 C 
BRANCH   5   6
ATOM      6  C   UNL     1      40.971  12.696 -35.959  1.00  0.00     0.006 C 
BRANCH   6   7
ATOM      7  C   UNL     1      40.377  14.115 -35.902  1.00  0.00     0.053 C 
BRANCH   7   8
ATOM      8  C   UNL     1      38.882  14.109 -35.806  1.00  0.00     0.041 C 
ATOM      9  O   UNL     1      38.308  14.659 -34.829  1.00  0.00    -0.550 OA
ATOM     10  O   UNL     1      38.121  13.465 -36.774  1.00  0.00    -0.550 OA
ENDBRANCH   7   8
ENDBRANCH   6   7
ENDBRANCH   5   6
ENDBRANCH   4   5
ENDBRANCH   3   4
ENDBRANCH   2   3
ENDBRANCH   1   2
BRANCH   1  11
ATOM     11  C   UNL     1      46.898  11.998 -31.458  1.00  0.00     0.000 C 
BRANCH  11  12
ATOM     12  C   UNL     1      46.299  10.876 -30.591  1.00  0.00    -0.000 C 
BRANCH  12  13
ATOM     13  C   UNL     1      46.621  10.976 -29.087  1.00  0.00    -0.000 C 
BRANCH  13  14
ATOM     14  C   UNL     1      45.492  11.557 -28.211  1.00  0.00    -0.000 C 
BRANCH  14  15
ATOM     15  C   UNL     1      45.513  11.099 -26.742  1.00  0.00    -0.000 C 
BRANCH  15  16
ATOM     16  C   UNL     1      44.238  11.494 -25.978  1.00  0.00    -0.000 C 
BRANCH  16  17
ATOM     17  C   UNL     1      44.545  12.200 -24.648  1.00  0.00    -0.003 C 
ATOM     18  C   UNL     1      44.004  13.628 -24.599  1.00  0.00     0.004 C 
ENDBRANCH  16  17
ENDBRANCH  15  16
ENDBRANCH  14  15
ENDBRANCH  13  14
ENDBRANCH  12  13
ENDBRANCH  11  12
ENDBRANCH   1  11
TORSDOF 14
ENDMDL
