MODEL 1
REMARK VINA RESULT:    -5.379      0.000      0.000
REMARK INTER + INTRA:         -12.045
REMARK INTER:                 -10.411
REMARK INTRA:                  -1.634
REMARK UNBOUND:                -1.634
REMARK SMILES CCCCCCCCCCCCCCCCCC(=O)[O-]
REMARK SMILES IDX 10 1 11 2 12 3 13 4 14 5 15 6 16 7 17 8 18 9 19 10 20 11
REMARK SMILES IDX 9 12 8 13 7 14 6 15 5 16 4 17 3 18 2 19 1 20
REMARK H PARENT
REMARK Flexibility Score: inf
ROOT
ATOM      1  C   UNL     1       4.243  10.701  19.595  1.00  0.00     0.000 C 
ENDROOT
BRANCH   1   2
ATOM      2  C   UNL     1       3.048  10.916  18.651  1.00  0.00     0.000 C 
BRANCH   2   3
ATOM      3  C   UNL     1       3.088   9.988  17.426  1.00  0.00     0.000 C 
BRANCH   3   4
ATOM      4  C   UNL     1       2.242   8.719  17.614  1.00  0.00     0.000 C 
BRANCH   4   5
ATOM      5  C   UNL     1       2.666   7.626  16.625  1.00  0.00     0.000 C 
BRANCH   5   6
ATOM      6  C   UNL     1       2.373   6.231  17.187  1.00  0.00     0.000 C 
BRANCH   6   7
ATOM      7  C   UNL     1       1.080   6.232  18.017  1.00  0.00     0.006 C 
BRANCH   7   8
ATOM      8  C   UNL     1       1.295   5.666  19.427  1.00  0.00     0.053 C 
BRANCH   8   9
ATOM      9  C   UNL     1       1.920   4.305  19.390  1.00  0.00     0.041 C 
ATOM     10  O   UNL     1       2.845   4.010  20.191  1.00  0.00    -0.550 OA
ATOM     11  O   UNL     1       1.456   3.351  18.493  1.00  0.00    -0.550 OA
ENDBRANCH   8   9
ENDBRANCH   7   8
ENDBRANCH   6   7
ENDBRANCH   5   6
ENDBRANCH   4   5
ENDBRANCH   3   4
ENDBRANCH   2   3
ENDBRANCH   1   2
BRANCH   1  12
ATOM     12  C   UNL     1       5.382  11.704  19.344  1.00  0.00     0.000 C 
BRANCH  12  13
ATOM     13  C   UNL     1       6.483  11.131  18.437  1.00  0.00    -0.000 C 
BRANCH  13  14
ATOM     14  C   UNL     1       6.382  11.634  16.985  1.00  0.00    -0.000 C 
BRANCH  14  15
ATOM     15  C   UNL     1       5.273  12.674  16.725  1.00  0.00    -0.000 C 
BRANCH  15  16
ATOM     16  C   UNL     1       4.912  12.899  15.245  1.00  0.00    -0.000 C 
BRANCH  16  17
ATOM     17  C   UNL     1       3.397  12.853  14.986  1.00  0.00    -0.000 C 
BRANCH  17  18
ATOM     18  C   UNL     1       2.967  11.624  14.163  1.00  0.00    -0.000 C 
BRANCH  18  19
ATOM     19  C   UNL     1       4.001  10.484  14.107  1.00  0.00    -0.003 C 
ATOM     20  C   UNL     1       3.476   9.233  13.402  1.00  0.00     0.004 C 
ENDBRANCH  18  19
ENDBRANCH  17  18
ENDBRANCH  16  17
ENDBRANCH  15  16
ENDBRANCH  14  15
ENDBRANCH  13  14
ENDBRANCH  12  13
ENDBRANCH   1  12
TORSDOF 16
ENDMDL
MODEL 2
REMARK VINA RESULT:    -5.273      2.661      6.403
REMARK INTER + INTRA:         -11.839
REMARK INTER:                 -10.193
REMARK INTRA:                  -1.647
REMARK UNBOUND:                -1.634
REMARK SMILES CCCCCCCCCCCCCCCCCC(=O)[O-]
REMARK SMILES IDX 10 1 11 2 12 3 13 4 14 5 15 6 16 7 17 8 18 9 19 10 20 11
REMARK SMILES IDX 9 12 8 13 7 14 6 15 5 16 4 17 3 18 2 19 1 20
REMARK H PARENT
REMARK Flexibility Score: inf
ROOT
ATOM      1  C   UNL     1       5.253  11.467  19.363  1.00  0.00     0.000 C 
ENDROOT
BRANCH   1   2
ATOM      2  C   UNL     1       6.112  11.070  18.150  1.00  0.00     0.000 C 
BRANCH   2   3
ATOM      3  C   UNL     1       6.401  12.257  17.217  1.00  0.00     0.000 C 
BRANCH   3   4
ATOM      4  C   UNL     1       5.519  12.252  15.959  1.00  0.00     0.000 C 
BRANCH   4   5
ATOM      5  C   UNL     1       4.418  13.316  16.057  1.00  0.00     0.000 C 
BRANCH   5   6
ATOM      6  C   UNL     1       3.183  12.906  15.248  1.00  0.00     0.000 C 
BRANCH   6   7
ATOM      7  C   UNL     1       3.584  12.117  13.992  1.00  0.00     0.006 C 
BRANCH   7   8
ATOM      8  C   UNL     1       2.803  10.803  13.859  1.00  0.00     0.053 C 
BRANCH   8   9
ATOM      9  C   UNL     1       3.707   9.647  13.556  1.00  0.00     0.041 C 
ATOM     10  O   UNL     1       4.948   9.827  13.438  1.00  0.00    -0.550 OA
ATOM     11  O   UNL     1       3.182   8.367  13.437  1.00  0.00    -0.550 OA
ENDBRANCH   8   9
ENDBRANCH   7   8
ENDBRANCH   6   7
ENDBRANCH   5   6
ENDBRANCH   4   5
ENDBRANCH   3   4
ENDBRANCH   2   3
ENDBRANCH   1   2
BRANCH   1  12
ATOM     12  C   UNL     1       3.898  10.740  19.390  1.00  0.00     0.000 C 
BRANCH  12  13
ATOM     13  C   UNL     1       3.345  10.470  17.981  1.00  0.00    -0.000 C 
BRANCH  13  14
ATOM     14  C   UNL     1       2.390   9.263  17.936  1.00  0.00    -0.000 C 
BRANCH  14  15
ATOM     15  C   UNL     1       2.738   8.189  16.885  1.00  0.00    -0.000 C 
BRANCH  15  16
ATOM     16  C   UNL     1       2.182   6.782  17.170  1.00  0.00    -0.000 C 
BRANCH  16  17
ATOM     17  C   UNL     1       0.889   6.807  18.002  1.00  0.00    -0.000 C 
BRANCH  17  18
ATOM     18  C   UNL     1       0.887   5.766  19.137  1.00  0.00    -0.000 C 
BRANCH  18  19
ATOM     19  C   UNL     1       1.618   4.450  18.815  1.00  0.00    -0.003 C 
ATOM     20  C   UNL     1       2.564   4.002  19.930  1.00  0.00     0.004 C 
ENDBRANCH  18  19
ENDBRANCH  17  18
ENDBRANCH  16  17
ENDBRANCH  15  16
ENDBRANCH  14  15
ENDBRANCH  13  14
ENDBRANCH  12  13
ENDBRANCH   1  12
TORSDOF 16
ENDMDL
MODEL 3
REMARK VINA RESULT:    -5.187      1.074      3.651
REMARK INTER + INTRA:         -11.673
REMARK INTER:                 -10.091
REMARK INTRA:                  -1.582
REMARK UNBOUND:                -1.634
REMARK SMILES CCCCCCCCCCCCCCCCCC(=O)[O-]
REMARK SMILES IDX 10 1 11 2 12 3 13 4 14 5 15 6 16 7 17 8 18 9 19 10 20 11
REMARK SMILES IDX 9 12 8 13 7 14 6 15 5 16 4 17 3 18 2 19 1 20
REMARK H PARENT
REMARK Flexibility Score: inf
ROOT
ATOM      1  C   UNL     1       3.755  10.988  14.816  1.00  0.00     0.000 C 
ENDROOT
BRANCH   1   2
ATOM      2  C   UNL     1       3.569   9.555  14.287  1.00  0.00     0.000 C 
BRANCH   2   3
ATOM      3  C   UNL     1       3.249   8.550  15.405  1.00  0.00     0.000 C 
BRANCH   3   4
ATOM      4  C   UNL     1       2.966   9.232  16.754  1.00  0.00     0.000 C 
BRANCH   4   5
ATOM      5  C   UNL     1       2.016   8.383  17.608  1.00  0.00     0.000 C 
BRANCH   5   6
ATOM      6  C   UNL     1       2.088   6.905  17.209  1.00  0.00     0.000 C 
BRANCH   6   7
ATOM      7  C   UNL     1       0.957   6.101  17.869  1.00  0.00     0.006 C 
BRANCH   7   8
ATOM      8  C   UNL     1       1.300   5.688  19.306  1.00  0.00     0.053 C 
BRANCH   8   9
ATOM      9  C   UNL     1       1.946   4.338  19.358  1.00  0.00     0.041 C 
ATOM     10  O   UNL     1       1.780   3.519  18.415  1.00  0.00    -0.550 OA
ATOM     11  O   UNL     1       2.758   3.996  20.432  1.00  0.00    -0.550 OA
ENDBRANCH   8   9
ENDBRANCH   7   8
ENDBRANCH   6   7
ENDBRANCH   5   6
ENDBRANCH   4   5
ENDBRANCH   3   4
ENDBRANCH   2   3
ENDBRANCH   1   2
BRANCH   1  12
ATOM     12  C   UNL     1       2.865  12.007  14.085  1.00  0.00     0.000 C 
BRANCH  12  13
ATOM     13  C   UNL     1       2.736  13.334  14.850  1.00  0.00    -0.000 C 
BRANCH  13  14
ATOM     14  C   UNL     1       3.534  13.343  16.167  1.00  0.00    -0.000 C 
BRANCH  14  15
ATOM     15  C   UNL     1       2.738  13.778  17.415  1.00  0.00    -0.000 C 
BRANCH  15  16
ATOM     16  C   UNL     1       3.170  13.118  18.737  1.00  0.00    -0.000 C 
BRANCH  16  17
ATOM     17  C   UNL     1       3.477  11.618  18.583  1.00  0.00    -0.000 C 
BRANCH  17  18
ATOM     18  C   UNL     1       4.640  11.150  19.478  1.00  0.00    -0.000 C 
BRANCH  18  19
ATOM     19  C   UNL     1       6.046  11.409  18.908  1.00  0.00    -0.003 C 
ATOM     20  C   UNL     1       6.157  11.089  17.417  1.00  0.00     0.004 C 
ENDBRANCH  18  19
ENDBRANCH  17  18
ENDBRANCH  16  17
ENDBRANCH  15  16
ENDBRANCH  14  15
ENDBRANCH  13  14
ENDBRANCH  12  13
ENDBRANCH   1  12
TORSDOF 16
ENDMDL
MODEL 4
REMARK VINA RESULT:    -5.180      0.587      1.162
REMARK INTER + INTRA:         -11.660
REMARK INTER:                 -10.142
REMARK INTRA:                  -1.518
REMARK UNBOUND:                -1.634
REMARK SMILES CCCCCCCCCCCCCCCCCC(=O)[O-]
REMARK SMILES IDX 10 1 11 2 12 3 13 4 14 5 15 6 16 7 17 8 18 9 19 10 20 11
REMARK SMILES IDX 9 12 8 13 7 14 6 15 5 16 4 17 3 18 2 19 1 20
REMARK H PARENT
REMARK Flexibility Score: inf
ROOT
ATOM      1  C   UNL     1       4.586  11.534  19.013  1.00  0.00     0.000 C 
ENDROOT
BRANCH   1   2
ATOM      2  C   UNL     1       3.575  10.376  19.058  1.00  0.00     0.000 C 
BRANCH   2   3
ATOM      3  C   UNL     1       3.081   9.968  17.661  1.00  0.00     0.000 C 
BRANCH   3   4
ATOM      4  C   UNL     1       2.082   8.801  17.701  1.00  0.00     0.000 C 
BRANCH   4   5
ATOM      5  C   UNL     1       2.533   7.661  16.778  1.00  0.00     0.000 C 
BRANCH   5   6
ATOM      6  C   UNL     1       2.383   6.301  17.468  1.00  0.00     0.000 C 
BRANCH   6   7
ATOM      7  C   UNL     1       1.409   6.389  18.652  1.00  0.00     0.006 C 
BRANCH   7   8
ATOM      8  C   UNL     1       0.792   5.028  18.999  1.00  0.00     0.053 C 
BRANCH   8   9
ATOM      9  C   UNL     1       1.842   3.990  19.254  1.00  0.00     0.041 C 
ATOM     10  O   UNL     1       2.619   4.104  20.238  1.00  0.00    -0.550 OA
ATOM     11  O   UNL     1       1.939   2.881  18.424  1.00  0.00    -0.550 OA
ENDBRANCH   8   9
ENDBRANCH   7   8
ENDBRANCH   6   7
ENDBRANCH   5   6
ENDBRANCH   4   5
ENDBRANCH   3   4
ENDBRANCH   2   3
ENDBRANCH   1   2
BRANCH   1  12
ATOM     12  C   UNL     1       5.920  11.128  18.364  1.00  0.00     0.000 C 
BRANCH  12  13
ATOM     13  C   UNL     1       6.197  11.889  17.057  1.00  0.00    -0.000 C 
BRANCH  13  14
ATOM     14  C   UNL     1       4.969  12.664  16.547  1.00  0.00    -0.000 C 
BRANCH  14  15
ATOM     15  C   UNL     1       4.928  12.903  15.023  1.00  0.00    -0.000 C 
BRANCH  15  16
ATOM     16  C   UNL     1       3.534  12.809  14.376  1.00  0.00    -0.000 C 
BRANCH  16  17
ATOM     17  C   UNL     1       2.920  11.402  14.482  1.00  0.00    -0.000 C 
BRANCH  17  18
ATOM     18  C   UNL     1       3.931  10.283  14.170  1.00  0.00    -0.000 C 
BRANCH  18  19
ATOM     19  C   UNL     1       3.549   9.370  12.991  1.00  0.00    -0.003 C 
ATOM     20  C   UNL     1       3.272   7.927  13.414  1.00  0.00     0.004 C 
ENDBRANCH  18  19
ENDBRANCH  17  18
ENDBRANCH  16  17
ENDBRANCH  15  16
ENDBRANCH  14  15
ENDBRANCH  13  14
ENDBRANCH  12  13
ENDBRANCH   1  12
TORSDOF 16
ENDMDL
MODEL 5
REMARK VINA RESULT:    -4.950      3.005      6.786
REMARK INTER + INTRA:         -11.214
REMARK INTER:                 -10.055
REMARK INTRA:                  -1.159
REMARK UNBOUND:                -1.634
REMARK SMILES CCCCCCCCCCCCCCCCCC(=O)[O-]
REMARK SMILES IDX 10 1 11 2 12 3 13 4 14 5 15 6 16 7 17 8 18 9 19 10 20 11
REMARK SMILES IDX 9 12 8 13 7 14 6 15 5 16 4 17 3 18 2 19 1 20
REMARK H PARENT
REMARK Flexibility Score: inf
ROOT
ATOM      1  C   UNL     1       3.972  11.066  14.311  1.00  0.00     0.000 C 
ENDROOT
BRANCH   1   2
ATOM      2  C   UNL     1       2.804  12.017  13.996  1.00  0.00     0.000 C 
BRANCH   2   3
ATOM      3  C   UNL     1       2.874  13.324  14.802  1.00  0.00     0.000 C 
BRANCH   3   4
ATOM      4  C   UNL     1       3.635  13.166  16.127  1.00  0.00     0.000 C 
BRANCH   4   5
ATOM      5  C   UNL     1       2.823  13.736  17.297  1.00  0.00     0.000 C 
BRANCH   5   6
ATOM      6  C   UNL     1       3.199  13.050  18.615  1.00  0.00     0.000 C 
BRANCH   6   7
ATOM      7  C   UNL     1       3.430  11.546  18.406  1.00  0.00     0.006 C 
BRANCH   7   8
ATOM      8  C   UNL     1       4.318  10.938  19.500  1.00  0.00     0.053 C 
BRANCH   8   9
ATOM      9  C   UNL     1       5.766  11.248  19.277  1.00  0.00     0.041 C 
ATOM     10  O   UNL     1       6.544  11.386  20.258  1.00  0.00    -0.550 OA
ATOM     11  O   UNL     1       6.264  11.353  17.984  1.00  0.00    -0.550 OA
ENDBRANCH   8   9
ENDBRANCH   7   8
ENDBRANCH   6   7
ENDBRANCH   5   6
ENDBRANCH   4   5
ENDBRANCH   3   4
ENDBRANCH   2   3
ENDBRANCH   1   2
BRANCH   1  12
ATOM     12  C   UNL     1       3.496   9.661  14.715  1.00  0.00     0.000 C 
BRANCH  12  13
ATOM     13  C   UNL     1       3.152   9.562  16.211  1.00  0.00    -0.000 C 
BRANCH  13  14
ATOM     14  C   UNL     1       2.784   8.131  16.645  1.00  0.00    -0.000 C 
BRANCH  14  15
ATOM     15  C   UNL     1       1.962   8.030  17.947  1.00  0.00    -0.000 C 
BRANCH  15  16
ATOM     16  C   UNL     1       0.791   7.031  17.912  1.00  0.00    -0.000 C 
BRANCH  16  17
ATOM     17  C   UNL     1       0.802   6.057  19.103  1.00  0.00    -0.000 C 
BRANCH  17  18
ATOM     18  C   UNL     1       0.565   4.595  18.681  1.00  0.00    -0.000 C 
BRANCH  18  19
ATOM     19  C   UNL     1       1.789   3.671  18.816  1.00  0.00    -0.003 C 
ATOM     20  C   UNL     1       2.825   4.191  19.814  1.00  0.00     0.004 C 
ENDBRANCH  18  19
ENDBRANCH  17  18
ENDBRANCH  16  17
ENDBRANCH  15  16
ENDBRANCH  14  15
ENDBRANCH  13  14
ENDBRANCH  12  13
ENDBRANCH   1  12
TORSDOF 16
ENDMDL
MODEL 6
REMARK VINA RESULT:    -4.923      2.551      6.712
REMARK INTER + INTRA:         -11.163
REMARK INTER:                  -9.339
REMARK INTRA:                  -1.824
REMARK UNBOUND:                -1.634
REMARK SMILES CCCCCCCCCCCCCCCCCC(=O)[O-]
REMARK SMILES IDX 10 1 11 2 12 3 13 4 14 5 15 6 16 7 17 8 18 9 19 10 20 11
REMARK SMILES IDX 9 12 8 13 7 14 6 15 5 16 4 17 3 18 2 19 1 20
REMARK H PARENT
REMARK Flexibility Score: inf
ROOT
ATOM      1  C   UNL     1       3.800   9.952  14.008  1.00  0.00     0.000 C 
ENDROOT
BRANCH   1   2
ATOM      2  C   UNL     1       2.943  11.228  13.954  1.00  0.00     0.000 C 
BRANCH   2   3
ATOM      3  C   UNL     1       3.769  12.505  14.175  1.00  0.00     0.000 C 
BRANCH   3   4
ATOM      4  C   UNL     1       3.238  13.364  15.333  1.00  0.00     0.000 C 
BRANCH   4   5
ATOM      5  C   UNL     1       3.968  13.033  16.641  1.00  0.00     0.000 C 
BRANCH   5   6
ATOM      6  C   UNL     1       5.325  12.377  16.364  1.00  0.00     0.000 C 
BRANCH   6   7
ATOM      7  C   UNL     1       5.733  11.448  17.518  1.00  0.00     0.006 C 
BRANCH   7   8
ATOM      8  C   UNL     1       4.746  11.511  18.690  1.00  0.00     0.053 C 
BRANCH   8   9
ATOM      9  C   UNL     1       5.402  11.155  19.989  1.00  0.00     0.041 C 
ATOM     10  O   UNL     1       6.594  11.494  20.212  1.00  0.00    -0.550 OA
ATOM     11  O   UNL     1       4.686  10.476  20.967  1.00  0.00    -0.550 OA
ENDBRANCH   8   9
ENDBRANCH   7   8
ENDBRANCH   6   7
ENDBRANCH   5   6
ENDBRANCH   4   5
ENDBRANCH   3   4
ENDBRANCH   2   3
ENDBRANCH   1   2
BRANCH   1  12
ATOM     12  C   UNL     1       3.395   9.017  15.160  1.00  0.00     0.000 C 
BRANCH  12  13
ATOM     13  C   UNL     1       2.804   9.779  16.358  1.00  0.00    -0.000 C 
BRANCH  13  14
ATOM     14  C   UNL     1       2.377   8.846  17.506  1.00  0.00    -0.000 C 
BRANCH  14  15
ATOM     15  C   UNL     1       2.689   7.351  17.289  1.00  0.00    -0.000 C 
BRANCH  15  16
ATOM     16  C   UNL     1       1.461   6.430  17.172  1.00  0.00    -0.000 C 
BRANCH  16  17
ATOM     17  C   UNL     1       0.478   6.593  18.344  1.00  0.00    -0.000 C 
BRANCH  17  18
ATOM     18  C   UNL     1       0.754   5.612  19.499  1.00  0.00    -0.000 C 
BRANCH  18  19
ATOM     19  C   UNL     1       1.366   4.264  19.076  1.00  0.00    -0.003 C 
ATOM     20  C   UNL     1       2.749   4.017  19.680  1.00  0.00     0.004 C 
ENDBRANCH  18  19
ENDBRANCH  17  18
ENDBRANCH  16  17
ENDBRANCH  15  16
ENDBRANCH  14  15
ENDBRANCH  13  14
ENDBRANCH  12  13
ENDBRANCH   1  12
TORSDOF 16
ENDMDL
MODEL 7
REMARK VINA RESULT:    -4.590      4.859      7.842
REMARK INTER + INTRA:         -10.518
REMARK INTER:                  -9.443
REMARK INTRA:                  -1.075
REMARK UNBOUND:                -1.634
REMARK SMILES CCCCCCCCCCCCCCCCCC(=O)[O-]
REMARK SMILES IDX 10 1 11 2 12 3 13 4 14 5 15 6 16 7 17 8 18 9 19 10 20 11
REMARK SMILES IDX 9 12 8 13 7 14 6 15 5 16 4 17 3 18 2 19 1 20
REMARK H PARENT
REMARK Flexibility Score: inf
ROOT
ATOM      1  C   UNL     1       5.600  11.092  17.668  1.00  0.00     0.000 C 
ENDROOT
BRANCH   1   2
ATOM      2  C   UNL     1       5.492  12.364  16.810  1.00  0.00     0.000 C 
BRANCH   2   3
ATOM      3  C   UNL     1       4.544  12.190  15.613  1.00  0.00     0.000 C 
BRANCH   3   4
ATOM      4  C   UNL     1       3.485  13.300  15.527  1.00  0.00     0.000 C 
BRANCH   4   5
ATOM      5  C   UNL     1       2.946  13.652  16.920  1.00  0.00     0.000 C 
BRANCH   5   6
ATOM      6  C   UNL     1       1.924  14.792  16.843  1.00  0.00     0.000 C 
BRANCH   6   7
ATOM      7  C   UNL     1       1.464  15.215  18.247  1.00  0.00     0.006 C 
BRANCH   7   8
ATOM      8  C   UNL     1       0.854  16.623  18.258  1.00  0.00     0.053 C 
BRANCH   8   9
ATOM      9  C   UNL     1      -0.550  16.616  18.778  1.00  0.00     0.041 C 
ATOM     10  O   UNL     1      -1.355  15.716  18.419  1.00  0.00    -0.550 OA
ATOM     11  O   UNL     1      -0.960  17.584  19.686  1.00  0.00    -0.550 OA
ENDBRANCH   8   9
ENDBRANCH   7   8
ENDBRANCH   6   7
ENDBRANCH   5   6
ENDBRANCH   4   5
ENDBRANCH   3   4
ENDBRANCH   2   3
ENDBRANCH   1   2
BRANCH   1  12
ATOM     12  C   UNL     1       4.770  11.180  18.960  1.00  0.00     0.000 C 
BRANCH  12  13
ATOM     13  C   UNL     1       3.361  10.586  18.798  1.00  0.00    -0.000 C 
BRANCH  13  14
ATOM     14  C   UNL     1       3.228   9.699  17.546  1.00  0.00    -0.000 C 
BRANCH  14  15
ATOM     15  C   UNL     1       2.111   8.637  17.608  1.00  0.00    -0.000 C 
BRANCH  15  16
ATOM     16  C   UNL     1       2.361   7.365  16.777  1.00  0.00    -0.000 C 
BRANCH  16  17
ATOM     17  C   UNL     1       2.421   6.092  17.638  1.00  0.00    -0.000 C 
BRANCH  17  18
ATOM     18  C   UNL     1       1.168   5.900  18.512  1.00  0.00    -0.000 C 
BRANCH  18  19
ATOM     19  C   UNL     1       1.113   4.572  19.290  1.00  0.00    -0.003 C 
ATOM     20  C   UNL     1       2.496   4.037  19.661  1.00  0.00     0.004 C 
ENDBRANCH  18  19
ENDBRANCH  17  18
ENDBRANCH  16  17
ENDBRANCH  15  16
ENDBRANCH  14  15
ENDBRANCH  13  14
ENDBRANCH  12  13
ENDBRANCH   1  12
TORSDOF 16
ENDMDL
MODEL 8
REMARK VINA RESULT:    -4.271      3.068      4.574
REMARK INTER + INTRA:          -9.901
REMARK INTER:                  -8.724
REMARK INTRA:                  -1.177
REMARK UNBOUND:                -1.634
REMARK SMILES CCCCCCCCCCCCCCCCCC(=O)[O-]
REMARK SMILES IDX 10 1 11 2 12 3 13 4 14 5 15 6 16 7 17 8 18 9 19 10 20 11
REMARK SMILES IDX 9 12 8 13 7 14 6 15 5 16 4 17 3 18 2 19 1 20
REMARK H PARENT
REMARK Flexibility Score: inf
ROOT
ATOM      1  C   UNL     1       4.150  11.045  14.506  1.00  0.00     0.000 C 
ENDROOT
BRANCH   1   2
ATOM      2  C   UNL     1       3.890   9.996  15.601  1.00  0.00     0.000 C 
BRANCH   2   3
ATOM      3  C   UNL     1       4.007  10.580  17.018  1.00  0.00     0.000 C 
BRANCH   3   4
ATOM      4  C   UNL     1       3.015   9.946  18.006  1.00  0.00     0.000 C 
BRANCH   4   5
ATOM      5  C   UNL     1       2.164   8.873  17.315  1.00  0.00     0.000 C 
BRANCH   5   6
ATOM      6  C   UNL     1       1.675   7.825  18.321  1.00  0.00     0.000 C 
BRANCH   6   7
ATOM      7  C   UNL     1       1.949   6.402  17.810  1.00  0.00     0.006 C 
BRANCH   7   8
ATOM      8  C   UNL     1       0.953   5.381  18.377  1.00  0.00     0.053 C 
BRANCH   8   9
ATOM      9  C   UNL     1       1.650   4.251  19.070  1.00  0.00     0.041 C 
ATOM     10  O   UNL     1       2.026   4.375  20.266  1.00  0.00    -0.550 OA
ATOM     11  O   UNL     1       1.855   3.048  18.406  1.00  0.00    -0.550 OA
ENDBRANCH   8   9
ENDBRANCH   7   8
ENDBRANCH   6   7
ENDBRANCH   5   6
ENDBRANCH   4   5
ENDBRANCH   3   4
ENDBRANCH   2   3
ENDBRANCH   1   2
BRANCH   1  12
ATOM     12  C   UNL     1       4.106  12.485  15.046  1.00  0.00     0.000 C 
BRANCH  12  13
ATOM     13  C   UNL     1       2.823  13.229  14.641  1.00  0.00    -0.000 C 
BRANCH  13  14
ATOM     14  C   UNL     1       2.262  14.111  15.771  1.00  0.00    -0.000 C 
BRANCH  14  15
ATOM     15  C   UNL     1       2.873  13.860  17.165  1.00  0.00    -0.000 C 
BRANCH  15  16
ATOM     16  C   UNL     1       2.162  14.566  18.334  1.00  0.00    -0.000 C 
BRANCH  16  17
ATOM     17  C   UNL     1       0.929  15.368  17.887  1.00  0.00    -0.000 C 
BRANCH  17  18
ATOM     18  C   UNL     1       0.958  16.831  18.369  1.00  0.00    -0.000 C 
BRANCH  18  19
ATOM     19  C   UNL     1      -0.393  17.384  18.857  1.00  0.00    -0.003 C 
ATOM     20  C   UNL     1      -1.574  16.477  18.506  1.00  0.00     0.004 C 
ENDBRANCH  18  19
ENDBRANCH  17  18
ENDBRANCH  16  17
ENDBRANCH  15  16
ENDBRANCH  14  15
ENDBRANCH  13  14
ENDBRANCH  12  13
ENDBRANCH   1  12
TORSDOF 16
ENDMDL
MODEL 9
REMARK VINA RESULT:    -4.122      5.695      8.702
REMARK INTER + INTRA:          -9.611
REMARK INTER:                  -8.596
REMARK INTRA:                  -1.016
REMARK UNBOUND:                -1.634
REMARK SMILES CCCCCCCCCCCCCCCCCC(=O)[O-]
REMARK SMILES IDX 10 1 11 2 12 3 13 4 14 5 15 6 16 7 17 8 18 9 19 10 20 11
REMARK SMILES IDX 9 12 8 13 7 14 6 15 5 16 4 17 3 18 2 19 1 20
REMARK H PARENT
REMARK Flexibility Score: inf
ROOT
ATOM      1  C   UNL     1       3.120  11.679  14.407  1.00  0.00     0.000 C 
ENDROOT
BRANCH   1   2
ATOM      2  C   UNL     1       3.762  12.973  14.937  1.00  0.00     0.000 C 
BRANCH   2   3
ATOM      3  C   UNL     1       2.840  13.738  15.900  1.00  0.00     0.000 C 
BRANCH   3   4
ATOM      4  C   UNL     1       3.145  13.441  17.377  1.00  0.00     0.000 C 
BRANCH   4   5
ATOM      5  C   UNL     1       2.254  14.281  18.301  1.00  0.00     0.000 C 
BRANCH   5   6
ATOM      6  C   UNL     1       1.368  15.235  17.493  1.00  0.00     0.000 C 
BRANCH   6   7
ATOM      7  C   UNL     1       0.486  16.085  18.420  1.00  0.00     0.006 C 
BRANCH   7   8
ATOM      8  C   UNL     1       0.918  17.557  18.444  1.00  0.00     0.053 C 
BRANCH   8   9
ATOM      9  C   UNL     1      -0.217  18.464  18.807  1.00  0.00     0.041 C 
ATOM     10  O   UNL     1      -1.368  17.992  19.004  1.00  0.00    -0.550 OA
ATOM     11  O   UNL     1       0.004  19.827  18.962  1.00  0.00    -0.550 OA
ENDBRANCH   8   9
ENDBRANCH   7   8
ENDBRANCH   6   7
ENDBRANCH   5   6
ENDBRANCH   4   5
ENDBRANCH   3   4
ENDBRANCH   2   3
ENDBRANCH   1   2
BRANCH   1  12
ATOM     12  C   UNL     1       4.067  10.470  14.498  1.00  0.00     0.000 C 
BRANCH  12  13
ATOM     13  C   UNL     1       3.480   9.324  15.338  1.00  0.00    -0.000 C 
BRANCH  13  14
ATOM     14  C   UNL     1       3.445   9.645  16.844  1.00  0.00    -0.000 C 
BRANCH  14  15
ATOM     15  C   UNL     1       2.221   9.096  17.605  1.00  0.00    -0.000 C 
BRANCH  15  16
ATOM     16  C   UNL     1       2.116   7.561  17.667  1.00  0.00    -0.000 C 
BRANCH  16  17
ATOM     17  C   UNL     1       0.696   7.073  18.002  1.00  0.00    -0.000 C 
BRANCH  17  18
ATOM     18  C   UNL     1       0.686   5.720  18.739  1.00  0.00    -0.000 C 
BRANCH  18  19
ATOM     19  C   UNL     1       2.074   5.184  19.135  1.00  0.00    -0.003 C 
ATOM     20  C   UNL     1       2.068   3.692  19.467  1.00  0.00     0.004 C 
ENDBRANCH  18  19
ENDBRANCH  17  18
ENDBRANCH  16  17
ENDBRANCH  15  16
ENDBRANCH  14  15
ENDBRANCH  13  14
ENDBRANCH  12  13
ENDBRANCH   1  12
TORSDOF 16
ENDMDL
