MODEL 1
REMARK VINA RESULT:    -3.317      0.000      0.000
REMARK INTER + INTRA:          -9.061
REMARK INTER:                  -6.225
REMARK INTRA:                  -2.835
REMARK UNBOUND:                -2.835
REMARK SMILES CCCCCCCCC=CCCCCCCCC(=O)[O-]
REMARK SMILES IDX 10 1 9 2 11 3 12 4 13 5 14 6 15 7 16 8 17 9 18 10 19 11
REMARK SMILES IDX 20 12 8 13 7 14 6 15 5 16 4 17 3 18 2 19 1 20
REMARK H PARENT
REMARK Flexibility Score: inf
ROOT
ATOM      1  C   UNL     1      58.001  27.821  52.671  1.00  0.00    -0.031 C 
ATOM      2  C   UNL     1      57.461  26.676  53.131  1.00  0.00    -0.031 C 
ENDROOT
BRANCH   1   3
ATOM      3  C   UNL     1      57.333  28.748  51.688  1.00  0.00     0.027 C 
BRANCH   3   4
ATOM      4  C   UNL     1      57.887  28.525  50.276  1.00  0.00     0.004 C 
BRANCH   4   5
ATOM      5  C   UNL     1      59.410  28.708  50.247  1.00  0.00     0.000 C 
BRANCH   5   6
ATOM      6  C   UNL     1      60.093  27.513  49.565  1.00  0.00     0.000 C 
BRANCH   6   7
ATOM      7  C   UNL     1      59.272  26.219  49.676  1.00  0.00     0.000 C 
BRANCH   7   8
ATOM      8  C   UNL     1      60.043  25.086  50.375  1.00  0.00     0.006 C 
BRANCH   8   9
ATOM      9  C   UNL     1      61.058  25.620  51.395  1.00  0.00     0.053 C 
BRANCH   9  10
ATOM     10  C   UNL     1      62.435  25.088  51.141  1.00  0.00     0.041 C 
ATOM     11  O   UNL     1      63.444  25.705  51.574  1.00  0.00    -0.550 OA
ATOM     12  O   UNL     1      62.601  23.894  50.451  1.00  0.00    -0.550 OA
ENDBRANCH   9  10
ENDBRANCH   8   9
ENDBRANCH   7   8
ENDBRANCH   6   7
ENDBRANCH   5   6
ENDBRANCH   4   5
ENDBRANCH   3   4
ENDBRANCH   1   3
BRANCH   2  13
ATOM     13  C   UNL     1      56.143  26.106  52.669  1.00  0.00     0.027 C 
BRANCH  13  14
ATOM     14  C   UNL     1      56.310  25.128  51.487  1.00  0.00     0.004 C 
BRANCH  14  15
ATOM     15  C   UNL     1      55.666  25.618  50.179  1.00  0.00     0.000 C 
BRANCH  15  16
ATOM     16  C   UNL     1      54.178  25.246  50.072  1.00  0.00     0.000 C 
BRANCH  16  17
ATOM     17  C   UNL     1      53.280  26.472  49.835  1.00  0.00    -0.000 C 
BRANCH  17  18
ATOM     18  C   UNL     1      53.985  27.794  50.187  1.00  0.00    -0.000 C 
BRANCH  18  19
ATOM     19  C   UNL     1      53.355  28.491  51.403  1.00  0.00    -0.003 C 
ATOM     20  C   UNL     1      53.873  29.915  51.604  1.00  0.00     0.004 C 
ENDBRANCH  18  19
ENDBRANCH  17  18
ENDBRANCH  16  17
ENDBRANCH  15  16
ENDBRANCH  14  15
ENDBRANCH  13  14
ENDBRANCH   2  13
TORSDOF 15
ENDMDL
MODEL 2
REMARK VINA RESULT:    -3.239      1.874      3.266
REMARK INTER + INTRA:          -8.914
REMARK INTER:                  -5.978
REMARK INTRA:                  -2.936
REMARK UNBOUND:                -2.835
REMARK SMILES CCCCCCCCC=CCCCCCCCC(=O)[O-]
REMARK SMILES IDX 10 1 9 2 11 3 12 4 13 5 14 6 15 7 16 8 17 9 18 10 19 11
REMARK SMILES IDX 20 12 8 13 7 14 6 15 5 16 4 17 3 18 2 19 1 20
REMARK H PARENT
REMARK Flexibility Score: inf
ROOT
ATOM      1  C   UNL     1      56.012  28.736  51.560  1.00  0.00    -0.031 C 
ATOM      2  C   UNL     1      54.668  28.797  51.512  1.00  0.00    -0.031 C 
ENDROOT
BRANCH   1   3
ATOM      3  C   UNL     1      56.890  28.284  50.421  1.00  0.00     0.027 C 
BRANCH   3   4
ATOM      4  C   UNL     1      58.348  28.684  50.674  1.00  0.00     0.004 C 
BRANCH   4   5
ATOM      5  C   UNL     1      59.286  28.013  49.663  1.00  0.00     0.000 C 
BRANCH   5   6
ATOM      6  C   UNL     1      59.012  26.504  49.577  1.00  0.00     0.000 C 
BRANCH   6   7
ATOM      7  C   UNL     1      60.184  25.658  50.102  1.00  0.00     0.000 C 
BRANCH   7   8
ATOM      8  C   UNL     1      59.751  24.244  50.525  1.00  0.00     0.006 C 
BRANCH   8   9
ATOM      9  C   UNL     1      60.474  23.773  51.793  1.00  0.00     0.053 C 
BRANCH   9  10
ATOM     10  C   UNL     1      59.783  22.604  52.426  1.00  0.00     0.041 C 
ATOM     11  O   UNL     1      59.203  22.735  53.536  1.00  0.00    -0.550 OA
ATOM     12  O   UNL     1      59.756  21.377  51.775  1.00  0.00    -0.550 OA
ENDBRANCH   9  10
ENDBRANCH   8   9
ENDBRANCH   7   8
ENDBRANCH   6   7
ENDBRANCH   5   6
ENDBRANCH   4   5
ENDBRANCH   3   4
ENDBRANCH   1   3
BRANCH   2  13
ATOM     13  C   UNL     1      53.832  28.345  50.340  1.00  0.00     0.027 C 
BRANCH  13  14
ATOM     14  C   UNL     1      53.157  26.981  50.593  1.00  0.00     0.004 C 
BRANCH  14  15
ATOM     15  C   UNL     1      53.598  25.878  49.616  1.00  0.00     0.000 C 
BRANCH  15  16
ATOM     16  C   UNL     1      54.945  25.244  50.000  1.00  0.00     0.000 C 
BRANCH  16  17
ATOM     17  C   UNL     1      55.081  25.021  51.516  1.00  0.00    -0.000 C 
BRANCH  17  18
ATOM     18  C   UNL     1      56.549  24.988  51.976  1.00  0.00    -0.000 C 
BRANCH  18  19
ATOM     19  C   UNL     1      56.766  25.730  53.303  1.00  0.00    -0.003 C 
ATOM     20  C   UNL     1      58.187  26.276  53.452  1.00  0.00     0.004 C 
ENDBRANCH  18  19
ENDBRANCH  17  18
ENDBRANCH  16  17
ENDBRANCH  15  16
ENDBRANCH  14  15
ENDBRANCH  13  14
ENDBRANCH   2  13
TORSDOF 15
ENDMDL
MODEL 3
REMARK VINA RESULT:    -3.236     10.606     12.630
REMARK INTER + INTRA:          -8.909
REMARK INTER:                  -6.066
REMARK INTRA:                  -2.843
REMARK UNBOUND:                -2.835
REMARK SMILES CCCCCCCCC=CCCCCCCCC(=O)[O-]
REMARK SMILES IDX 10 1 9 2 11 3 12 4 13 5 14 6 15 7 16 8 17 9 18 10 19 11
REMARK SMILES IDX 20 12 8 13 7 14 6 15 5 16 4 17 3 18 2 19 1 20
REMARK H PARENT
REMARK Flexibility Score: inf
ROOT
ATOM      1  C   UNL     1      62.143  32.426  59.541  1.00  0.00    -0.031 C 
ATOM      2  C   UNL     1      63.395  32.910  59.643  1.00  0.00    -0.031 C 
ENDROOT
BRANCH   1   3
ATOM      3  C   UNL     1      61.282  32.026  60.712  1.00  0.00     0.027 C 
BRANCH   3   4
ATOM      4  C   UNL     1      61.105  30.504  60.755  1.00  0.00     0.004 C 
BRANCH   4   5
ATOM      5  C   UNL     1      61.817  29.901  61.973  1.00  0.00     0.000 C 
BRANCH   5   6
ATOM      6  C   UNL     1      63.259  29.503  61.625  1.00  0.00     0.000 C 
BRANCH   6   7
ATOM      7  C   UNL     1      63.377  28.863  60.233  1.00  0.00     0.000 C 
BRANCH   7   8
ATOM      8  C   UNL     1      64.602  29.366  59.451  1.00  0.00     0.006 C 
BRANCH   8   9
ATOM      9  C   UNL     1      65.766  29.740  60.378  1.00  0.00     0.053 C 
BRANCH   9  10
ATOM     10  C   UNL     1      66.712  28.595  60.575  1.00  0.00     0.041 C 
ATOM     11  O   UNL     1      67.539  28.611  61.523  1.00  0.00    -0.550 OA
ATOM     12  O   UNL     1      66.657  27.496  59.725  1.00  0.00    -0.550 OA
ENDBRANCH   9  10
ENDBRANCH   8   9
ENDBRANCH   7   8
ENDBRANCH   6   7
ENDBRANCH   5   6
ENDBRANCH   4   5
ENDBRANCH   3   4
ENDBRANCH   1   3
BRANCH   2  13
ATOM     13  C   UNL     1      64.157  33.047  60.939  1.00  0.00     0.027 C 
BRANCH  13  14
ATOM     14  C   UNL     1      64.494  34.516  61.268  1.00  0.00     0.004 C 
BRANCH  14  15
ATOM     15  C   UNL     1      63.635  35.538  60.502  1.00  0.00     0.000 C 
BRANCH  15  16
ATOM     16  C   UNL     1      62.457  36.069  61.335  1.00  0.00     0.000 C 
BRANCH  16  17
ATOM     17  C   UNL     1      61.103  35.876  60.631  1.00  0.00    -0.000 C 
BRANCH  17  18
ATOM     18  C   UNL     1      61.201  36.067  59.107  1.00  0.00    -0.000 C 
BRANCH  18  19
ATOM     19  C   UNL     1      60.069  35.355  58.351  1.00  0.00    -0.003 C 
ATOM     20  C   UNL     1      60.558  34.629  57.098  1.00  0.00     0.004 C 
ENDBRANCH  18  19
ENDBRANCH  17  18
ENDBRANCH  16  17
ENDBRANCH  15  16
ENDBRANCH  14  15
ENDBRANCH  13  14
ENDBRANCH   2  13
TORSDOF 15
ENDMDL
MODEL 4
REMARK VINA RESULT:    -3.184      1.602      3.678
REMARK INTER + INTRA:          -8.811
REMARK INTER:                  -6.166
REMARK INTRA:                  -2.644
REMARK UNBOUND:                -2.835
REMARK SMILES CCCCCCCCC=CCCCCCCCC(=O)[O-]
REMARK SMILES IDX 10 1 9 2 11 3 12 4 13 5 14 6 15 7 16 8 17 9 18 10 19 11
REMARK SMILES IDX 20 12 8 13 7 14 6 15 5 16 4 17 3 18 2 19 1 20
REMARK H PARENT
REMARK Flexibility Score: inf
ROOT
ATOM      1  C   UNL     1      54.683  29.929  53.138  1.00  0.00    -0.031 C 
ATOM      2  C   UNL     1      53.895  30.057  52.054  1.00  0.00    -0.031 C 
ENDROOT
BRANCH   1   3
ATOM      3  C   UNL     1      56.019  29.228  53.147  1.00  0.00     0.027 C 
BRANCH   3   4
ATOM      4  C   UNL     1      57.156  30.240  53.328  1.00  0.00     0.004 C 
BRANCH   4   5
ATOM      5  C   UNL     1      58.381  29.847  52.492  1.00  0.00     0.000 C 
BRANCH   5   6
ATOM      6  C   UNL     1      58.095  28.591  51.657  1.00  0.00     0.000 C 
BRANCH   6   7
ATOM      7  C   UNL     1      58.188  28.851  50.145  1.00  0.00     0.000 C 
BRANCH   7   8
ATOM      8  C   UNL     1      59.148  27.881  49.434  1.00  0.00     0.006 C 
BRANCH   8   9
ATOM      9  C   UNL     1      60.103  27.190  50.416  1.00  0.00     0.053 C 
BRANCH   9  10
ATOM     10  C   UNL     1      61.499  27.723  50.303  1.00  0.00     0.041 C 
ATOM     11  O   UNL     1      61.817  28.797  50.878  1.00  0.00    -0.550 OA
ATOM     12  O   UNL     1      62.455  27.017  49.585  1.00  0.00    -0.550 OA
ENDBRANCH   9  10
ENDBRANCH   8   9
ENDBRANCH   7   8
ENDBRANCH   6   7
ENDBRANCH   5   6
ENDBRANCH   4   5
ENDBRANCH   3   4
ENDBRANCH   1   3
BRANCH   2  13
ATOM     13  C   UNL     1      54.189  29.447  50.705  1.00  0.00     0.027 C 
BRANCH  13  14
ATOM     14  C   UNL     1      53.105  28.442  50.268  1.00  0.00     0.004 C 
BRANCH  14  15
ATOM     15  C   UNL     1      53.614  26.996  50.135  1.00  0.00     0.000 C 
BRANCH  15  16
ATOM     16  C   UNL     1      55.089  26.843  50.541  1.00  0.00     0.000 C 
BRANCH  16  17
ATOM     17  C   UNL     1      55.654  25.456  50.195  1.00  0.00    -0.000 C 
BRANCH  17  18
ATOM     18  C   UNL     1      56.992  25.173  50.901  1.00  0.00    -0.000 C 
BRANCH  18  19
ATOM     19  C   UNL     1      56.844  25.093  52.428  1.00  0.00    -0.003 C 
ATOM     20  C   UNL     1      58.175  25.266  53.163  1.00  0.00     0.004 C 
ENDBRANCH  18  19
ENDBRANCH  17  18
ENDBRANCH  16  17
ENDBRANCH  15  16
ENDBRANCH  14  15
ENDBRANCH  13  14
ENDBRANCH   2  13
TORSDOF 15
ENDMDL
MODEL 5
REMARK VINA RESULT:    -3.132     10.146     12.194
REMARK INTER + INTRA:          -8.713
REMARK INTER:                  -6.181
REMARK INTRA:                  -2.533
REMARK UNBOUND:                -2.835
REMARK SMILES CCCCCCCCC=CCCCCCCCC(=O)[O-]
REMARK SMILES IDX 10 1 9 2 11 3 12 4 13 5 14 6 15 7 16 8 17 9 18 10 19 11
REMARK SMILES IDX 20 12 8 13 7 14 6 15 5 16 4 17 3 18 2 19 1 20
REMARK H PARENT
REMARK Flexibility Score: inf
ROOT
ATOM      1  C   UNL     1      60.852  34.998  60.491  1.00  0.00    -0.031 C 
ATOM      2  C   UNL     1      60.182  33.831  60.464  1.00  0.00    -0.031 C 
ENDROOT
BRANCH   1   3
ATOM      3  C   UNL     1      62.287  35.172  60.061  1.00  0.00     0.027 C 
BRANCH   3   4
ATOM      4  C   UNL     1      63.153  35.616  61.244  1.00  0.00     0.004 C 
BRANCH   4   5
ATOM      5  C   UNL     1      64.282  34.611  61.508  1.00  0.00     0.000 C 
BRANCH   5   6
ATOM      6  C   UNL     1      64.484  33.683  60.302  1.00  0.00     0.000 C 
BRANCH   6   7
ATOM      7  C   UNL     1      64.547  32.199  60.700  1.00  0.00     0.000 C 
BRANCH   7   8
ATOM      8  C   UNL     1      64.481  31.257  59.486  1.00  0.00     0.006 C 
BRANCH   8   9
ATOM      9  C   UNL     1      65.848  30.648  59.151  1.00  0.00     0.053 C 
BRANCH   9  10
ATOM     10  C   UNL     1      65.993  29.264  59.706  1.00  0.00     0.041 C 
ATOM     11  O   UNL     1      65.878  29.061  60.944  1.00  0.00    -0.550 OA
ATOM     12  O   UNL     1      66.225  28.193  58.852  1.00  0.00    -0.550 OA
ENDBRANCH   9  10
ENDBRANCH   8   9
ENDBRANCH   7   8
ENDBRANCH   6   7
ENDBRANCH   5   6
ENDBRANCH   4   5
ENDBRANCH   3   4
ENDBRANCH   1   3
BRANCH   2  13
ATOM     13  C   UNL     1      60.790  32.504  60.079  1.00  0.00     0.027 C 
BRANCH  13  14
ATOM     14  C   UNL     1      61.154  31.647  61.309  1.00  0.00     0.004 C 
BRANCH  14  15
ATOM     15  C   UNL     1      61.174  30.135  61.030  1.00  0.00     0.000 C 
BRANCH  15  16
ATOM     16  C   UNL     1      62.308  29.407  61.771  1.00  0.00     0.000 C 
BRANCH  16  17
ATOM     17  C   UNL     1      62.428  27.930  61.359  1.00  0.00    -0.000 C 
BRANCH  17  18
ATOM     18  C   UNL     1      61.765  27.643  60.000  1.00  0.00    -0.000 C 
BRANCH  18  19
ATOM     19  C   UNL     1      62.779  27.610  58.846  1.00  0.00    -0.003 C 
ATOM     20  C   UNL     1      62.510  28.683  57.790  1.00  0.00     0.004 C 
ENDBRANCH  18  19
ENDBRANCH  17  18
ENDBRANCH  16  17
ENDBRANCH  15  16
ENDBRANCH  14  15
ENDBRANCH  13  14
ENDBRANCH   2  13
TORSDOF 15
ENDMDL
MODEL 6
REMARK VINA RESULT:    -3.122      2.075      4.276
REMARK INTER + INTRA:          -8.695
REMARK INTER:                  -6.525
REMARK INTRA:                  -2.170
REMARK UNBOUND:                -2.835
REMARK SMILES CCCCCCCCC=CCCCCCCCC(=O)[O-]
REMARK SMILES IDX 10 1 9 2 11 3 12 4 13 5 14 6 15 7 16 8 17 9 18 10 19 11
REMARK SMILES IDX 20 12 8 13 7 14 6 15 5 16 4 17 3 18 2 19 1 20
REMARK H PARENT
REMARK Flexibility Score: inf
ROOT
ATOM      1  C   UNL     1      59.326  25.386  49.713  1.00  0.00    -0.031 C 
ATOM      2  C   UNL     1      59.325  26.728  49.819  1.00  0.00    -0.031 C 
ENDROOT
BRANCH   1   3
ATOM      3  C   UNL     1      59.598  24.437  50.853  1.00  0.00     0.027 C 
BRANCH   3   4
ATOM      4  C   UNL     1      60.552  23.322  50.408  1.00  0.00     0.004 C 
BRANCH   4   5
ATOM      5  C   UNL     1      61.989  23.614  50.861  1.00  0.00     0.000 C 
BRANCH   5   6
ATOM      6  C   UNL     1      62.021  24.765  51.877  1.00  0.00     0.000 C 
BRANCH   6   7
ATOM      7  C   UNL     1      63.046  25.850  51.511  1.00  0.00     0.000 C 
BRANCH   7   8
ATOM      8  C   UNL     1      63.391  25.858  50.012  1.00  0.00     0.006 C 
BRANCH   8   9
ATOM      9  C   UNL     1      62.907  27.136  49.314  1.00  0.00     0.053 C 
BRANCH   9  10
ATOM     10  C   UNL     1      64.025  27.845  48.613  1.00  0.00     0.041 C 
ATOM     11  O   UNL     1      64.796  27.213  47.845  1.00  0.00    -0.550 OA
ATOM     12  O   UNL     1      64.195  29.213  48.787  1.00  0.00    -0.550 OA
ENDBRANCH   9  10
ENDBRANCH   8   9
ENDBRANCH   7   8
ENDBRANCH   6   7
ENDBRANCH   5   6
ENDBRANCH   4   5
ENDBRANCH   3   4
ENDBRANCH   1   3
BRANCH   2  13
ATOM     13  C   UNL     1      59.679  27.487  51.075  1.00  0.00     0.027 C 
BRANCH  13  14
ATOM     14  C   UNL     1      58.770  28.714  51.293  1.00  0.00     0.004 C 
BRANCH  14  15
ATOM     15  C   UNL     1      57.469  28.678  50.473  1.00  0.00     0.000 C 
BRANCH  15  16
ATOM     16  C   UNL     1      56.233  28.354  51.328  1.00  0.00     0.000 C 
BRANCH  16  17
ATOM     17  C   UNL     1      55.202  27.498  50.574  1.00  0.00    -0.000 C 
BRANCH  17  18
ATOM     18  C   UNL     1      55.712  26.072  50.297  1.00  0.00    -0.000 C 
BRANCH  18  19
ATOM     19  C   UNL     1      54.603  25.017  50.418  1.00  0.00    -0.003 C 
ATOM     20  C   UNL     1      53.589  25.088  49.275  1.00  0.00     0.004 C 
ENDBRANCH  18  19
ENDBRANCH  17  18
ENDBRANCH  16  17
ENDBRANCH  15  16
ENDBRANCH  14  15
ENDBRANCH  13  14
ENDBRANCH   2  13
TORSDOF 15
ENDMDL
MODEL 7
REMARK VINA RESULT:    -3.069      1.934      4.112
REMARK INTER + INTRA:          -8.596
REMARK INTER:                  -5.860
REMARK INTRA:                  -2.736
REMARK UNBOUND:                -2.835
REMARK SMILES CCCCCCCCC=CCCCCCCCC(=O)[O-]
REMARK SMILES IDX 10 1 9 2 11 3 12 4 13 5 14 6 15 7 16 8 17 9 18 10 19 11
REMARK SMILES IDX 20 12 8 13 7 14 6 15 5 16 4 17 3 18 2 19 1 20
REMARK H PARENT
REMARK Flexibility Score: inf
ROOT
ATOM      1  C   UNL     1      54.190  29.248  51.689  1.00  0.00    -0.031 C 
ATOM      2  C   UNL     1      53.995  28.755  50.452  1.00  0.00    -0.031 C 
ENDROOT
BRANCH   1   3
ATOM      3  C   UNL     1      54.041  28.453  52.961  1.00  0.00     0.027 C 
BRANCH   3   4
ATOM      4  C   UNL     1      55.334  28.505  53.783  1.00  0.00     0.004 C 
BRANCH   4   5
ATOM      5  C   UNL     1      56.537  28.054  52.945  1.00  0.00     0.000 C 
BRANCH   5   6
ATOM      6  C   UNL     1      57.709  29.036  53.093  1.00  0.00     0.000 C 
BRANCH   6   7
ATOM      7  C   UNL     1      58.419  29.318  51.759  1.00  0.00     0.000 C 
BRANCH   7   8
ATOM      8  C   UNL     1      57.842  28.494  50.596  1.00  0.00     0.006 C 
BRANCH   8   9
ATOM      9  C   UNL     1      58.818  28.396  49.416  1.00  0.00     0.053 C 
BRANCH   9  10
ATOM     10  C   UNL     1      59.759  27.241  49.566  1.00  0.00     0.041 C 
ATOM     11  O   UNL     1      60.990  27.442  49.741  1.00  0.00    -0.550 OA
ATOM     12  O   UNL     1      59.271  25.940  49.541  1.00  0.00    -0.550 OA
ENDBRANCH   9  10
ENDBRANCH   8   9
ENDBRANCH   7   8
ENDBRANCH   6   7
ENDBRANCH   5   6
ENDBRANCH   4   5
ENDBRANCH   3   4
ENDBRANCH   1   3
BRANCH   2  13
ATOM     13  C   UNL     1      53.518  27.354  50.155  1.00  0.00     0.027 C 
BRANCH  13  14
ATOM     14  C   UNL     1      54.683  26.348  50.053  1.00  0.00     0.004 C 
BRANCH  14  15
ATOM     15  C   UNL     1      54.290  24.903  50.405  1.00  0.00     0.000 C 
BRANCH  15  16
ATOM     16  C   UNL     1      53.417  24.813  51.667  1.00  0.00     0.000 C 
BRANCH  16  17
ATOM     17  C   UNL     1      54.070  23.973  52.777  1.00  0.00    -0.000 C 
BRANCH  17  18
ATOM     18  C   UNL     1      55.176  24.742  53.521  1.00  0.00    -0.000 C 
BRANCH  18  19
ATOM     19  C   UNL     1      56.547  24.058  53.405  1.00  0.00    -0.003 C 
ATOM     20  C   UNL     1      57.412  24.647  52.290  1.00  0.00     0.004 C 
ENDBRANCH  18  19
ENDBRANCH  17  18
ENDBRANCH  16  17
ENDBRANCH  15  16
ENDBRANCH  14  15
ENDBRANCH  13  14
ENDBRANCH   2  13
TORSDOF 15
ENDMDL
MODEL 8
REMARK VINA RESULT:    -3.043      3.695      6.681
REMARK INTER + INTRA:          -8.546
REMARK INTER:                  -6.221
REMARK INTRA:                  -2.325
REMARK UNBOUND:                -2.835
REMARK SMILES CCCCCCCCC=CCCCCCCCC(=O)[O-]
REMARK SMILES IDX 10 1 9 2 11 3 12 4 13 5 14 6 15 7 16 8 17 9 18 10 19 11
REMARK SMILES IDX 20 12 8 13 7 14 6 15 5 16 4 17 3 18 2 19 1 20
REMARK H PARENT
REMARK Flexibility Score: inf
ROOT
ATOM      1  C   UNL     1      56.777  25.390  51.784  1.00  0.00    -0.031 C 
ATOM      2  C   UNL     1      58.093  25.356  51.499  1.00  0.00    -0.031 C 
ENDROOT
BRANCH   1   3
ATOM      3  C   UNL     1      55.677  25.305  50.757  1.00  0.00     0.027 C 
BRANCH   3   4
ATOM      4  C   UNL     1      55.147  26.703  50.419  1.00  0.00     0.004 C 
BRANCH   4   5
ATOM      5  C   UNL     1      53.677  26.644  49.985  1.00  0.00     0.000 C 
BRANCH   5   6
ATOM      6  C   UNL     1      53.028  28.035  50.054  1.00  0.00     0.000 C 
BRANCH   6   7
ATOM      7  C   UNL     1      53.919  29.070  50.759  1.00  0.00     0.000 C 
BRANCH   7   8
ATOM      8  C   UNL     1      53.213  29.753  51.943  1.00  0.00     0.006 C 
BRANCH   8   9
ATOM      9  C   UNL     1      53.991  30.972  52.456  1.00  0.00     0.053 C 
BRANCH   9  10
ATOM     10  C   UNL     1      54.133  30.954  53.947  1.00  0.00     0.041 C 
ATOM     11  O   UNL     1      54.259  29.861  54.560  1.00  0.00    -0.550 OA
ATOM     12  O   UNL     1      54.157  32.148  54.656  1.00  0.00    -0.550 OA
ENDBRANCH   9  10
ENDBRANCH   8   9
ENDBRANCH   7   8
ENDBRANCH   6   7
ENDBRANCH   5   6
ENDBRANCH   4   5
ENDBRANCH   3   4
ENDBRANCH   1   3
BRANCH   2  13
ATOM     13  C   UNL     1      58.665  25.311  50.104  1.00  0.00     0.027 C 
BRANCH  13  14
ATOM     14  C   UNL     1      60.149  25.730  50.066  1.00  0.00     0.004 C 
BRANCH  14  15
ATOM     15  C   UNL     1      60.366  27.221  49.753  1.00  0.00     0.000 C 
BRANCH  15  16
ATOM     16  C   UNL     1      59.078  27.930  49.302  1.00  0.00     0.000 C 
BRANCH  16  17
ATOM     17  C   UNL     1      58.615  29.003  50.302  1.00  0.00    -0.000 C 
BRANCH  17  18
ATOM     18  C   UNL     1      59.468  29.020  51.583  1.00  0.00    -0.000 C 
BRANCH  18  19
ATOM     19  C   UNL     1      58.621  28.862  52.855  1.00  0.00    -0.003 C 
ATOM     20  C   UNL     1      57.120  28.973  52.586  1.00  0.00     0.004 C 
ENDBRANCH  18  19
ENDBRANCH  17  18
ENDBRANCH  16  17
ENDBRANCH  15  16
ENDBRANCH  14  15
ENDBRANCH  13  14
ENDBRANCH   2  13
TORSDOF 15
ENDMDL
MODEL 9
REMARK VINA RESULT:    -3.027      1.612      3.974
REMARK INTER + INTRA:          -8.518
REMARK INTER:                  -5.945
REMARK INTRA:                  -2.573
REMARK UNBOUND:                -2.835
REMARK SMILES CCCCCCCCC=CCCCCCCCC(=O)[O-]
REMARK SMILES IDX 10 1 9 2 11 3 12 4 13 5 14 6 15 7 16 8 17 9 18 10 19 11
REMARK SMILES IDX 20 12 8 13 7 14 6 15 5 16 4 17 3 18 2 19 1 20
REMARK H PARENT
REMARK Flexibility Score: inf
ROOT
ATOM      1  C   UNL     1      58.789  25.061  50.761  1.00  0.00    -0.031 C 
ATOM      2  C   UNL     1      58.855  25.867  49.685  1.00  0.00    -0.031 C 
ENDROOT
BRANCH   1   3
ATOM      3  C   UNL     1      59.366  25.391  52.115  1.00  0.00     0.027 C 
BRANCH   3   4
ATOM      4  C   UNL     1      59.778  24.111  52.850  1.00  0.00     0.004 C 
BRANCH   4   5
ATOM      5  C   UNL     1      59.659  22.886  51.935  1.00  0.00     0.000 C 
BRANCH   5   6
ATOM      6  C   UNL     1      61.039  22.278  51.648  1.00  0.00     0.000 C 
BRANCH   6   7
ATOM      7  C   UNL     1      61.716  22.900  50.415  1.00  0.00     0.000 C 
BRANCH   7   8
ATOM      8  C   UNL     1      62.912  23.794  50.784  1.00  0.00     0.006 C 
BRANCH   8   9
ATOM      9  C   UNL     1      62.672  25.264  50.415  1.00  0.00     0.053 C 
BRANCH   9  10
ATOM     10  C   UNL     1      62.943  26.179  51.569  1.00  0.00     0.041 C 
ATOM     11  O   UNL     1      63.675  25.802  52.521  1.00  0.00    -0.550 OA
ATOM     12  O   UNL     1      62.410  27.463  51.577  1.00  0.00    -0.550 OA
ENDBRANCH   9  10
ENDBRANCH   8   9
ENDBRANCH   7   8
ENDBRANCH   6   7
ENDBRANCH   5   6
ENDBRANCH   4   5
ENDBRANCH   3   4
ENDBRANCH   1   3
BRANCH   2  13
ATOM     13  C   UNL     1      59.589  27.185  49.647  1.00  0.00     0.027 C 
BRANCH  13  14
ATOM     14  C   UNL     1      58.642  28.388  49.836  1.00  0.00     0.004 C 
BRANCH  14  15
ATOM     15  C   UNL     1      58.516  28.857  51.295  1.00  0.00     0.000 C 
BRANCH  15  16
ATOM     16  C   UNL     1      57.056  28.952  51.769  1.00  0.00     0.000 C 
BRANCH  16  17
ATOM     17  C   UNL     1      56.229  27.717  51.375  1.00  0.00    -0.000 C 
BRANCH  17  18
ATOM     18  C   UNL     1      54.929  28.090  50.640  1.00  0.00    -0.000 C 
BRANCH  18  19
ATOM     19  C   UNL     1      54.160  26.858  50.141  1.00  0.00    -0.003 C 
ATOM     20  C   UNL     1      55.046  25.618  50.013  1.00  0.00     0.004 C 
ENDBRANCH  18  19
ENDBRANCH  17  18
ENDBRANCH  16  17
ENDBRANCH  15  16
ENDBRANCH  14  15
ENDBRANCH  13  14
ENDBRANCH   2  13
TORSDOF 15
ENDMDL
