MODEL 1
REMARK VINA RESULT:    -4.458      0.000      0.000
REMARK INTER + INTRA:          -8.548
REMARK INTER:                  -7.063
REMARK INTRA:                  -1.484
REMARK UNBOUND:                -1.484
REMARK SMILES CCCCCCCCCCCC(=O)[O-]
REMARK SMILES IDX 7 1 8 2 9 3 10 4 11 5 12 6 13 7 14 8 6 9 5 10 4 11 3 12 2 13
REMARK SMILES IDX 1 14
REMARK H PARENT
REMARK Flexibility Score: inf
ROOT
ATOM      1  C   UNL     1       5.623  49.762  10.328  1.00  0.00     0.000 C 
ENDROOT
BRANCH   1   2
ATOM      2  C   UNL     1       6.394  49.049   9.202  1.00  0.00     0.000 C 
BRANCH   2   3
ATOM      3  C   UNL     1       6.332  47.510   9.235  1.00  0.00     0.000 C 
BRANCH   3   4
ATOM      4  C   UNL     1       5.124  46.974  10.016  1.00  0.00     0.006 C 
BRANCH   4   5
ATOM      5  C   UNL     1       4.498  45.772   9.301  1.00  0.00     0.053 C 
BRANCH   5   6
ATOM      6  C   UNL     1       4.231  44.666  10.270  1.00  0.00     0.041 C 
ATOM      7  O   UNL     1       4.016  44.924  11.484  1.00  0.00    -0.550 OA
ATOM      8  O   UNL     1       4.170  43.351   9.825  1.00  0.00    -0.550 OA
ENDBRANCH   5   6
ENDBRANCH   4   5
ENDBRANCH   3   4
ENDBRANCH   2   3
ENDBRANCH   1   2
BRANCH   1   9
ATOM      9  C   UNL     1       4.569  50.751   9.801  1.00  0.00     0.000 C 
BRANCH   9  10
ATOM     10  C   UNL     1       4.529  50.825   8.263  1.00  0.00    -0.000 C 
BRANCH  10  11
ATOM     11  C   UNL     1       3.237  50.302   7.609  1.00  0.00    -0.000 C 
BRANCH  11  12
ATOM     12  C   UNL     1       3.273  48.789   7.334  1.00  0.00    -0.000 C 
BRANCH  12  13
ATOM     13  C   UNL     1       1.998  48.074   7.809  1.00  0.00    -0.003 C 
ATOM     14  C   UNL     1       1.718  48.291   9.296  1.00  0.00     0.004 C 
ENDBRANCH  12  13
ENDBRANCH  11  12
ENDBRANCH  10  11
ENDBRANCH   9  10
ENDBRANCH   1   9
TORSDOF 10
ENDMDL
MODEL 2
REMARK VINA RESULT:    -4.436      0.972      3.204
REMARK INTER + INTRA:          -8.514
REMARK INTER:                  -7.047
REMARK INTRA:                  -1.467
REMARK UNBOUND:                -1.484
REMARK SMILES CCCCCCCCCCCC(=O)[O-]
REMARK SMILES IDX 7 1 8 2 9 3 10 4 11 5 12 6 13 7 14 8 6 9 5 10 4 11 3 12 2 13
REMARK SMILES IDX 1 14
REMARK H PARENT
REMARK Flexibility Score: inf
ROOT
ATOM      1  C   UNL     1       3.395  48.128   7.455  1.00  0.00     0.000 C 
ENDROOT
BRANCH   1   2
ATOM      2  C   UNL     1       2.139  47.408   7.980  1.00  0.00     0.000 C 
BRANCH   2   3
ATOM      3  C   UNL     1       2.328  46.636   9.300  1.00  0.00     0.000 C 
BRANCH   3   4
ATOM      4  C   UNL     1       3.707  45.969   9.414  1.00  0.00     0.006 C 
BRANCH   4   5
ATOM      5  C   UNL     1       4.167  45.909  10.874  1.00  0.00     0.053 C 
BRANCH   5   6
ATOM      6  C   UNL     1       4.010  44.524  11.416  1.00  0.00     0.041 C 
ATOM      7  O   UNL     1       4.200  44.297  12.640  1.00  0.00    -0.550 OA
ATOM      8  O   UNL     1       3.604  43.492  10.580  1.00  0.00    -0.550 OA
ENDBRANCH   5   6
ENDBRANCH   4   5
ENDBRANCH   3   4
ENDBRANCH   2   3
ENDBRANCH   1   2
BRANCH   1   9
ATOM      9  C   UNL     1       3.218  49.653   7.363  1.00  0.00     0.000 C 
BRANCH   9  10
ATOM     10  C   UNL     1       4.193  50.427   8.270  1.00  0.00    -0.000 C 
BRANCH  10  11
ATOM     11  C   UNL     1       4.060  50.143   9.778  1.00  0.00    -0.000 C 
BRANCH  11  12
ATOM     12  C   UNL     1       5.301  49.454  10.371  1.00  0.00    -0.000 C 
BRANCH  12  13
ATOM     13  C   UNL     1       6.417  49.258   9.332  1.00  0.00    -0.003 C 
ATOM     14  C   UNL     1       6.898  47.809   9.247  1.00  0.00     0.004 C 
ENDBRANCH  12  13
ENDBRANCH  11  12
ENDBRANCH  10  11
ENDBRANCH   9  10
ENDBRANCH   1   9
TORSDOF 10
ENDMDL
MODEL 3
REMARK VINA RESULT:    -4.392      3.699      7.185
REMARK INTER + INTRA:          -8.444
REMARK INTER:                  -7.921
REMARK INTRA:                  -0.524
REMARK UNBOUND:                -1.484
REMARK SMILES CCCCCCCCCCCC(=O)[O-]
REMARK SMILES IDX 7 1 8 2 9 3 10 4 11 5 12 6 13 7 14 8 6 9 5 10 4 11 3 12 2 13
REMARK SMILES IDX 1 14
REMARK H PARENT
REMARK Flexibility Score: inf
ROOT
ATOM      1  C   UNL     1       2.591  43.237   9.597  1.00  0.00     0.000 C 
ENDROOT
BRANCH   1   2
ATOM      2  C   UNL     1       3.969  43.887   9.372  1.00  0.00     0.000 C 
BRANCH   2   3
ATOM      3  C   UNL     1       4.205  45.206  10.131  1.00  0.00     0.000 C 
BRANCH   3   4
ATOM      4  C   UNL     1       4.281  46.428   9.204  1.00  0.00     0.006 C 
BRANCH   4   5
ATOM      5  C   UNL     1       4.813  47.653   9.954  1.00  0.00     0.053 C 
BRANCH   5   6
ATOM      6  C   UNL     1       6.091  48.129   9.340  1.00  0.00     0.041 C 
ATOM      7  O   UNL     1       7.062  47.340   9.205  1.00  0.00    -0.550 OA
ATOM      8  O   UNL     1       6.194  49.433   8.872  1.00  0.00    -0.550 OA
ENDBRANCH   5   6
ENDBRANCH   4   5
ENDBRANCH   3   4
ENDBRANCH   2   3
ENDBRANCH   1   2
BRANCH   1   9
ATOM      9  C   UNL     1       1.886  43.749  10.865  1.00  0.00     0.000 C 
BRANCH   9  10
ATOM     10  C   UNL     1       1.958  42.752  12.037  1.00  0.00    -0.000 C 
BRANCH  10  11
ATOM     11  C   UNL     1       2.754  41.463  11.761  1.00  0.00    -0.000 C 
BRANCH  11  12
ATOM     12  C   UNL     1       2.377  40.311  12.707  1.00  0.00    -0.000 C 
BRANCH  12  13
ATOM     13  C   UNL     1       3.475  39.237  12.793  1.00  0.00    -0.003 C 
ATOM     14  C   UNL     1       4.821  39.803  13.245  1.00  0.00     0.004 C 
ENDBRANCH  12  13
ENDBRANCH  11  12
ENDBRANCH  10  11
ENDBRANCH   9  10
ENDBRANCH   1   9
TORSDOF 10
ENDMDL
MODEL 4
REMARK VINA RESULT:    -4.367      2.918      5.560
REMARK INTER + INTRA:          -8.404
REMARK INTER:                  -6.947
REMARK INTRA:                  -1.457
REMARK UNBOUND:                -1.484
REMARK SMILES CCCCCCCCCCCC(=O)[O-]
REMARK SMILES IDX 7 1 8 2 9 3 10 4 11 5 12 6 13 7 14 8 6 9 5 10 4 11 3 12 2 13
REMARK SMILES IDX 1 14
REMARK H PARENT
REMARK Flexibility Score: inf
ROOT
ATOM      1  C   UNL     1       0.383  46.258  10.098  1.00  0.00     0.000 C 
ENDROOT
BRANCH   1   2
ATOM      2  C   UNL     1       1.414  46.884   9.142  1.00  0.00     0.000 C 
BRANCH   2   3
ATOM      3  C   UNL     1       2.785  47.200   9.769  1.00  0.00     0.000 C 
BRANCH   3   4
ATOM      4  C   UNL     1       3.953  46.533   9.028  1.00  0.00     0.006 C 
BRANCH   4   5
ATOM      5  C   UNL     1       5.243  46.617   9.850  1.00  0.00     0.053 C 
BRANCH   5   6
ATOM      6  C   UNL     1       6.194  47.594   9.236  1.00  0.00     0.041 C 
ATOM      7  O   UNL     1       5.757  48.606   8.628  1.00  0.00    -0.550 OA
ATOM      8  O   UNL     1       7.564  47.413   9.376  1.00  0.00    -0.550 OA
ENDBRANCH   5   6
ENDBRANCH   4   5
ENDBRANCH   3   4
ENDBRANCH   2   3
ENDBRANCH   1   2
BRANCH   1   9
ATOM      9  C   UNL     1       0.532  44.732  10.226  1.00  0.00     0.000 C 
BRANCH   9  10
ATOM     10  C   UNL     1       1.016  44.063   8.926  1.00  0.00    -0.000 C 
BRANCH  10  11
ATOM     11  C   UNL     1       2.244  43.146   9.072  1.00  0.00    -0.000 C 
BRANCH  11  12
ATOM     12  C   UNL     1       2.535  42.759  10.532  1.00  0.00    -0.000 C 
BRANCH  12  13
ATOM     13  C   UNL     1       3.905  43.264  11.013  1.00  0.00    -0.003 C 
ATOM     14  C   UNL     1       3.806  44.150  12.256  1.00  0.00     0.004 C 
ENDBRANCH  12  13
ENDBRANCH  11  12
ENDBRANCH  10  11
ENDBRANCH   9  10
ENDBRANCH   1   9
TORSDOF 10
ENDMDL
MODEL 5
REMARK VINA RESULT:    -4.347      3.129      5.614
REMARK INTER + INTRA:          -8.373
REMARK INTER:                  -7.692
REMARK INTRA:                  -0.681
REMARK UNBOUND:                -1.484
REMARK SMILES CCCCCCCCCCCC(=O)[O-]
REMARK SMILES IDX 7 1 8 2 9 3 10 4 11 5 12 6 13 7 14 8 6 9 5 10 4 11 3 12 2 13
REMARK SMILES IDX 1 14
REMARK H PARENT
REMARK Flexibility Score: inf
ROOT
ATOM      1  C   UNL     1       2.737  43.978   9.747  1.00  0.00     0.000 C 
ENDROOT
BRANCH   1   2
ATOM      2  C   UNL     1       1.857  44.123  11.001  1.00  0.00     0.000 C 
BRANCH   2   3
ATOM      3  C   UNL     1       1.966  42.970  12.017  1.00  0.00     0.000 C 
BRANCH   3   4
ATOM      4  C   UNL     1       2.641  41.718  11.436  1.00  0.00     0.006 C 
BRANCH   4   5
ATOM      5  C   UNL     1       3.867  41.322  12.264  1.00  0.00     0.053 C 
BRANCH   5   6
ATOM      6  C   UNL     1       3.744  39.910  12.740  1.00  0.00     0.041 C 
ATOM      7  O   UNL     1       2.635  39.317  12.685  1.00  0.00    -0.550 OA
ATOM      8  O   UNL     1       4.866  39.231  13.199  1.00  0.00    -0.550 OA
ENDBRANCH   5   6
ENDBRANCH   4   5
ENDBRANCH   3   4
ENDBRANCH   2   3
ENDBRANCH   1   2
BRANCH   1   9
ATOM      9  C   UNL     1       4.106  44.666   9.892  1.00  0.00     0.000 C 
BRANCH   9  10
ATOM     10  C   UNL     1       4.083  45.851  10.875  1.00  0.00    -0.000 C 
BRANCH  10  11
ATOM     11  C   UNL     1       4.585  47.191  10.306  1.00  0.00    -0.000 C 
BRANCH  11  12
ATOM     12  C   UNL     1       5.569  47.017   9.137  1.00  0.00    -0.000 C 
BRANCH  12  13
ATOM     13  C   UNL     1       6.725  48.030   9.184  1.00  0.00    -0.003 C 
ATOM     14  C   UNL     1       6.309  49.374   9.781  1.00  0.00     0.004 C 
ENDBRANCH  12  13
ENDBRANCH  11  12
ENDBRANCH  10  11
ENDBRANCH   9  10
ENDBRANCH   1   9
TORSDOF 10
ENDMDL
MODEL 6
REMARK VINA RESULT:    -4.344      1.891      3.678
REMARK INTER + INTRA:          -8.367
REMARK INTER:                  -7.351
REMARK INTRA:                  -1.017
REMARK UNBOUND:                -1.484
REMARK SMILES CCCCCCCCCCCC(=O)[O-]
REMARK SMILES IDX 7 1 8 2 9 3 10 4 11 5 12 6 13 7 14 8 6 9 5 10 4 11 3 12 2 13
REMARK SMILES IDX 1 14
REMARK H PARENT
REMARK Flexibility Score: inf
ROOT
ATOM      1  C   UNL     1       2.490  46.951  10.063  1.00  0.00     0.000 C 
ENDROOT
BRANCH   1   2
ATOM      2  C   UNL     1       3.760  46.164  10.437  1.00  0.00     0.000 C 
BRANCH   2   3
ATOM      3  C   UNL     1       4.241  45.152   9.381  1.00  0.00     0.000 C 
BRANCH   3   4
ATOM      4  C   UNL     1       4.154  43.696   9.860  1.00  0.00     0.006 C 
BRANCH   4   5
ATOM      5  C   UNL     1       2.743  43.135   9.660  1.00  0.00     0.053 C 
BRANCH   5   6
ATOM      6  C   UNL     1       2.112  42.823  10.979  1.00  0.00     0.041 C 
ATOM      7  O   UNL     1       1.179  43.544  11.423  1.00  0.00    -0.550 OA
ATOM      8  O   UNL     1       2.518  41.706  11.698  1.00  0.00    -0.550 OA
ENDBRANCH   5   6
ENDBRANCH   4   5
ENDBRANCH   3   4
ENDBRANCH   2   3
ENDBRANCH   1   2
BRANCH   1   9
ATOM      9  C   UNL     1       2.763  48.442   9.801  1.00  0.00     0.000 C 
BRANCH   9  10
ATOM     10  C   UNL     1       3.713  49.071  10.838  1.00  0.00    -0.000 C 
BRANCH  10  11
ATOM     11  C   UNL     1       4.584  50.230  10.319  1.00  0.00    -0.000 C 
BRANCH  11  12
ATOM     12  C   UNL     1       6.073  49.859  10.209  1.00  0.00    -0.000 C 
BRANCH  12  13
ATOM     13  C   UNL     1       6.369  48.972   8.988  1.00  0.00    -0.003 C 
ATOM     14  C   UNL     1       7.070  47.666   9.363  1.00  0.00     0.004 C 
ENDBRANCH  12  13
ENDBRANCH  11  12
ENDBRANCH  10  11
ENDBRANCH   9  10
ENDBRANCH   1   9
TORSDOF 10
ENDMDL
MODEL 7
REMARK VINA RESULT:    -4.302      1.740      3.237
REMARK INTER + INTRA:          -8.301
REMARK INTER:                  -7.382
REMARK INTRA:                  -0.919
REMARK UNBOUND:                -1.484
REMARK SMILES CCCCCCCCCCCC(=O)[O-]
REMARK SMILES IDX 7 1 8 2 9 3 10 4 11 5 12 6 13 7 14 8 6 9 5 10 4 11 3 12 2 13
REMARK SMILES IDX 1 14
REMARK H PARENT
REMARK Flexibility Score: inf
ROOT
ATOM      1  C   UNL     1       5.340  46.957   9.001  1.00  0.00     0.000 C 
ENDROOT
BRANCH   1   2
ATOM      2  C   UNL     1       4.823  46.063  10.142  1.00  0.00     0.000 C 
BRANCH   2   3
ATOM      3  C   UNL     1       3.550  45.257   9.820  1.00  0.00     0.000 C 
BRANCH   3   4
ATOM      4  C   UNL     1       3.827  43.766   9.579  1.00  0.00     0.006 C 
BRANCH   4   5
ATOM      5  C   UNL     1       2.580  42.923   9.866  1.00  0.00     0.053 C 
BRANCH   5   6
ATOM      6  C   UNL     1       2.523  42.545  11.311  1.00  0.00     0.041 C 
ATOM      7  O   UNL     1       1.475  42.744  11.978  1.00  0.00    -0.550 OA
ATOM      8  O   UNL     1       3.613  41.926  11.911  1.00  0.00    -0.550 OA
ENDBRANCH   5   6
ENDBRANCH   4   5
ENDBRANCH   3   4
ENDBRANCH   2   3
ENDBRANCH   1   2
BRANCH   1   9
ATOM      9  C   UNL     1       6.618  47.728   9.375  1.00  0.00     0.000 C 
BRANCH   9  10
ATOM     10  C   UNL     1       6.489  49.247   9.158  1.00  0.00    -0.000 C 
BRANCH  10  11
ATOM     11  C   UNL     1       5.880  50.034  10.333  1.00  0.00    -0.000 C 
BRANCH  11  12
ATOM     12  C   UNL     1       4.434  50.487  10.067  1.00  0.00    -0.000 C 
BRANCH  12  13
ATOM     13  C   UNL     1       3.397  49.558  10.719  1.00  0.00    -0.003 C 
ATOM     14  C   UNL     1       2.325  49.085   9.736  1.00  0.00     0.004 C 
ENDBRANCH  12  13
ENDBRANCH  11  12
ENDBRANCH  10  11
ENDBRANCH   9  10
ENDBRANCH   1   9
TORSDOF 10
ENDMDL
MODEL 8
REMARK VINA RESULT:    -4.211      3.225      5.562
REMARK INTER + INTRA:          -8.156
REMARK INTER:                  -6.893
REMARK INTRA:                  -1.263
REMARK UNBOUND:                -1.484
REMARK SMILES CCCCCCCCCCCC(=O)[O-]
REMARK SMILES IDX 7 1 8 2 9 3 10 4 11 5 12 6 13 7 14 8 6 9 5 10 4 11 3 12 2 13
REMARK SMILES IDX 1 14
REMARK H PARENT
REMARK Flexibility Score: inf
ROOT
ATOM      1  C   UNL     1       4.224  44.758   9.874  1.00  0.00     0.000 C 
ENDROOT
BRANCH   1   2
ATOM      2  C   UNL     1       4.200  46.192   9.316  1.00  0.00     0.000 C 
BRANCH   2   3
ATOM      3  C   UNL     1       3.457  47.224  10.185  1.00  0.00     0.000 C 
BRANCH   3   4
ATOM      4  C   UNL     1       4.320  48.444  10.541  1.00  0.00     0.006 C 
BRANCH   4   5
ATOM      5  C   UNL     1       5.539  48.542   9.617  1.00  0.00     0.053 C 
BRANCH   5   6
ATOM      6  C   UNL     1       5.377  49.676   8.656  1.00  0.00     0.041 C 
ATOM      7  O   UNL     1       4.347  49.756   7.937  1.00  0.00    -0.550 OA
ATOM      8  O   UNL     1       6.343  50.672   8.588  1.00  0.00    -0.550 OA
ENDBRANCH   5   6
ENDBRANCH   4   5
ENDBRANCH   3   4
ENDBRANCH   2   3
ENDBRANCH   1   2
BRANCH   1   9
ATOM      9  C   UNL     1       4.220  44.713  11.412  1.00  0.00     0.000 C 
BRANCH   9  10
ATOM     10  C   UNL     1       3.288  43.627  11.980  1.00  0.00    -0.000 C 
BRANCH  10  11
ATOM     11  C   UNL     1       2.059  43.292  11.116  1.00  0.00    -0.000 C 
BRANCH  11  12
ATOM     12  C   UNL     1       0.872  44.236  11.368  1.00  0.00    -0.000 C 
BRANCH  12  13
ATOM     13  C   UNL     1       0.407  44.952  10.089  1.00  0.00    -0.003 C 
ATOM     14  C   UNL     1       0.850  44.233   8.815  1.00  0.00     0.004 C 
ENDBRANCH  12  13
ENDBRANCH  11  12
ENDBRANCH  10  11
ENDBRANCH   9  10
ENDBRANCH   1   9
TORSDOF 10
ENDMDL
MODEL 9
REMARK VINA RESULT:    -4.208      1.838      2.999
REMARK INTER + INTRA:          -8.152
REMARK INTER:                  -7.100
REMARK INTRA:                  -1.051
REMARK UNBOUND:                -1.484
REMARK SMILES CCCCCCCCCCCC(=O)[O-]
REMARK SMILES IDX 7 1 8 2 9 3 10 4 11 5 12 6 13 7 14 8 6 9 5 10 4 11 3 12 2 13
REMARK SMILES IDX 1 14
REMARK H PARENT
REMARK Flexibility Score: inf
ROOT
ATOM      1  C   UNL     1       4.585  47.169  10.517  1.00  0.00     0.000 C 
ENDROOT
BRANCH   1   2
ATOM      2  C   UNL     1       3.578  46.005  10.477  1.00  0.00     0.000 C 
BRANCH   2   3
ATOM      3  C   UNL     1       3.826  44.959   9.374  1.00  0.00     0.000 C 
BRANCH   3   4
ATOM      4  C   UNL     1       3.976  43.532   9.921  1.00  0.00     0.006 C 
BRANCH   4   5
ATOM      5  C   UNL     1       2.629  42.803   9.930  1.00  0.00     0.053 C 
BRANCH   5   6
ATOM      6  C   UNL     1       2.207  42.499  11.332  1.00  0.00     0.041 C 
ATOM      7  O   UNL     1       1.398  43.255  11.929  1.00  0.00    -0.550 OA
ATOM      8  O   UNL     1       2.670  41.350  11.962  1.00  0.00    -0.550 OA
ENDBRANCH   5   6
ENDBRANCH   4   5
ENDBRANCH   3   4
ENDBRANCH   2   3
ENDBRANCH   1   2
BRANCH   1   9
ATOM      9  C   UNL     1       5.597  47.127   9.359  1.00  0.00     0.000 C 
BRANCH   9  10
ATOM     10  C   UNL     1       5.960  48.526   8.826  1.00  0.00    -0.000 C 
BRANCH  10  11
ATOM     11  C   UNL     1       4.791  49.328   8.224  1.00  0.00    -0.000 C 
BRANCH  11  12
ATOM     12  C   UNL     1       3.832  48.458   7.393  1.00  0.00    -0.000 C 
BRANCH  12  13
ATOM     13  C   UNL     1       2.357  48.706   7.748  1.00  0.00    -0.003 C 
ATOM     14  C   UNL     1       1.516  47.430   7.704  1.00  0.00     0.004 C 
ENDBRANCH  12  13
ENDBRANCH  11  12
ENDBRANCH  10  11
ENDBRANCH   9  10
ENDBRANCH   1   9
TORSDOF 10
ENDMDL
