MODEL 1
REMARK VINA RESULT:    -3.405      0.000      0.000
REMARK INTER + INTRA:          -6.919
REMARK INTER:                  -5.395
REMARK INTRA:                  -1.524
REMARK UNBOUND:                -1.524
REMARK SMILES CCCCCCCCCCCC(=O)[O-]
REMARK SMILES IDX 7 1 8 2 9 3 10 4 11 5 12 6 13 7 14 8 6 9 5 10 4 11 3 12 2 13
REMARK SMILES IDX 1 14
REMARK H PARENT
REMARK Flexibility Score: inf
ROOT
ATOM      1  C   UNL     1     196.685 195.518 200.661  1.00  0.00     0.000 C 
ENDROOT
BRANCH   1   2
ATOM      2  C   UNL     1     195.756 194.558 201.419  1.00  0.00     0.000 C 
BRANCH   2   3
ATOM      3  C   UNL     1     194.702 193.959 200.482  1.00  0.00     0.000 C 
BRANCH   3   4
ATOM      4  C   UNL     1     194.589 194.770 199.186  1.00  0.00     0.006 C 
BRANCH   4   5
ATOM      5  C   UNL     1     193.128 194.925 198.759  1.00  0.00     0.053 C 
BRANCH   5   6
ATOM      6  C   UNL     1     192.828 194.045 197.587  1.00  0.00     0.041 C 
ATOM      7  O   UNL     1     192.962 192.797 197.680  1.00  0.00    -0.550 OA
ATOM      8  O   UNL     1     192.352 194.600 196.406  1.00  0.00    -0.550 OA
ENDBRANCH   5   6
ENDBRANCH   4   5
ENDBRANCH   3   4
ENDBRANCH   2   3
ENDBRANCH   1   2
BRANCH   1   9
ATOM      9  C   UNL     1     196.974 196.815 201.438  1.00  0.00     0.000 C 
BRANCH   9  10
ATOM     10  C   UNL     1     195.754 197.464 202.125  1.00  0.00    -0.000 C 
BRANCH  10  11
ATOM     11  C   UNL     1     194.925 198.409 201.232  1.00  0.00    -0.000 C 
BRANCH  11  12
ATOM     12  C   UNL     1     193.501 197.891 200.929  1.00  0.00    -0.000 C 
BRANCH  12  13
ATOM     13  C   UNL     1     192.959 196.932 202.002  1.00  0.00    -0.003 C 
ATOM     14  C   UNL     1     191.478 196.608 201.814  1.00  0.00     0.004 C 
ENDBRANCH  12  13
ENDBRANCH  11  12
ENDBRANCH  10  11
ENDBRANCH   9  10
ENDBRANCH   1   9
TORSDOF 10
ENDMDL
MODEL 2
REMARK VINA RESULT:    -3.398     14.009     16.370
REMARK INTER + INTRA:          -6.908
REMARK INTER:                  -5.650
REMARK INTRA:                  -1.258
REMARK UNBOUND:                -1.524
REMARK SMILES CCCCCCCCCCCC(=O)[O-]
REMARK SMILES IDX 7 1 8 2 9 3 10 4 11 5 12 6 13 7 14 8 6 9 5 10 4 11 3 12 2 13
REMARK SMILES IDX 1 14
REMARK H PARENT
REMARK Flexibility Score: inf
ROOT
ATOM      1  C   UNL     1     182.722 183.382 201.967  1.00  0.00     0.000 C 
ENDROOT
BRANCH   1   2
ATOM      2  C   UNL     1     182.976 183.813 200.515  1.00  0.00     0.000 C 
BRANCH   2   3
ATOM      3  C   UNL     1     184.452 184.164 200.295  1.00  0.00     0.000 C 
BRANCH   3   4
ATOM      4  C   UNL     1     184.876 183.886 198.849  1.00  0.00     0.006 C 
BRANCH   4   5
ATOM      5  C   UNL     1     186.056 184.772 198.442  1.00  0.00     0.053 C 
BRANCH   5   6
ATOM      6  C   UNL     1     186.009 185.066 196.975  1.00  0.00     0.041 C 
ATOM      7  O   UNL     1     185.361 186.057 196.548  1.00  0.00    -0.550 OA
ATOM      8  O   UNL     1     186.722 184.273 196.085  1.00  0.00    -0.550 OA
ENDBRANCH   5   6
ENDBRANCH   4   5
ENDBRANCH   3   4
ENDBRANCH   2   3
ENDBRANCH   1   2
BRANCH   1   9
ATOM      9  C   UNL     1     182.507 181.865 202.117  1.00  0.00     0.000 C 
BRANCH   9  10
ATOM     10  C   UNL     1     183.792 181.010 202.125  1.00  0.00    -0.000 C 
BRANCH  10  11
ATOM     11  C   UNL     1     184.107 180.289 200.799  1.00  0.00    -0.000 C 
BRANCH  11  12
ATOM     12  C   UNL     1     185.609 180.277 200.437  1.00  0.00    -0.000 C 
BRANCH  12  13
ATOM     13  C   UNL     1     186.481 181.078 201.419  1.00  0.00    -0.003 C 
ATOM     14  C   UNL     1     187.517 181.952 200.716  1.00  0.00     0.004 C 
ENDBRANCH  12  13
ENDBRANCH  11  12
ENDBRANCH  10  11
ENDBRANCH   9  10
ENDBRANCH   1   9
TORSDOF 10
ENDMDL
MODEL 3
REMARK VINA RESULT:    -3.326      2.231      4.197
REMARK INTER + INTRA:          -6.794
REMARK INTER:                  -5.512
REMARK INTRA:                  -1.282
REMARK UNBOUND:                -1.524
REMARK SMILES CCCCCCCCCCCC(=O)[O-]
REMARK SMILES IDX 7 1 8 2 9 3 10 4 11 5 12 6 13 7 14 8 6 9 5 10 4 11 3 12 2 13
REMARK SMILES IDX 1 14
REMARK H PARENT
REMARK Flexibility Score: inf
ROOT
ATOM      1  C   UNL     1     198.126 195.457 201.196  1.00  0.00     0.000 C 
ENDROOT
BRANCH   1   2
ATOM      2  C   UNL     1     197.632 196.909 201.114  1.00  0.00     0.000 C 
BRANCH   2   3
ATOM      3  C   UNL     1     196.505 197.165 202.121  1.00  0.00     0.000 C 
BRANCH   3   4
ATOM      4  C   UNL     1     195.376 197.987 201.489  1.00  0.00     0.006 C 
BRANCH   4   5
ATOM      5  C   UNL     1     194.020 197.615 202.095  1.00  0.00     0.053 C 
BRANCH   5   6
ATOM      6  C   UNL     1     192.955 197.627 201.043  1.00  0.00     0.041 C 
ATOM      7  O   UNL     1     193.179 198.152 199.921  1.00  0.00    -0.550 OA
ATOM      8  O   UNL     1     191.732 197.015 201.286  1.00  0.00    -0.550 OA
ENDBRANCH   5   6
ENDBRANCH   4   5
ENDBRANCH   3   4
ENDBRANCH   2   3
ENDBRANCH   1   2
BRANCH   1   9
ATOM      9  C   UNL     1     197.069 194.493 201.764  1.00  0.00     0.000 C 
BRANCH   9  10
ATOM     10  C   UNL     1     196.235 193.728 200.714  1.00  0.00    -0.000 C 
BRANCH  10  11
ATOM     11  C   UNL     1     194.805 194.262 200.498  1.00  0.00    -0.000 C 
BRANCH  11  12
ATOM     12  C   UNL     1     194.584 194.910 199.113  1.00  0.00    -0.000 C 
BRANCH  12  13
ATOM     13  C   UNL     1     193.131 194.816 198.618  1.00  0.00    -0.003 C 
ATOM     14  C   UNL     1     192.796 193.453 198.017  1.00  0.00     0.004 C 
ENDBRANCH  12  13
ENDBRANCH  11  12
ENDBRANCH  10  11
ENDBRANCH   9  10
ENDBRANCH   1   9
TORSDOF 10
ENDMDL
MODEL 4
REMARK VINA RESULT:    -3.297     14.254     16.379
REMARK INTER + INTRA:          -6.749
REMARK INTER:                  -5.560
REMARK INTRA:                  -1.189
REMARK UNBOUND:                -1.524
REMARK SMILES CCCCCCCCCCCC(=O)[O-]
REMARK SMILES IDX 7 1 8 2 9 3 10 4 11 5 12 6 13 7 14 8 6 9 5 10 4 11 3 12 2 13
REMARK SMILES IDX 1 14
REMARK H PARENT
REMARK Flexibility Score: inf
ROOT
ATOM      1  C   UNL     1     186.769 181.718 198.361  1.00  0.00     0.000 C 
ENDROOT
BRANCH   1   2
ATOM      2  C   UNL     1     185.936 183.008 198.361  1.00  0.00     0.000 C 
BRANCH   2   3
ATOM      3  C   UNL     1     185.936 183.664 199.746  1.00  0.00     0.000 C 
BRANCH   3   4
ATOM      4  C   UNL     1     184.616 184.399 200.008  1.00  0.00     0.006 C 
BRANCH   4   5
ATOM      5  C   UNL     1     183.873 184.680 198.700  1.00  0.00     0.053 C 
BRANCH   5   6
ATOM      6  C   UNL     1     183.992 186.124 198.329  1.00  0.00     0.041 C 
ATOM      7  O   UNL     1     184.990 186.531 197.679  1.00  0.00    -0.550 OA
ATOM      8  O   UNL     1     182.977 187.013 198.660  1.00  0.00    -0.550 OA
ENDBRANCH   5   6
ENDBRANCH   4   5
ENDBRANCH   3   4
ENDBRANCH   2   3
ENDBRANCH   1   2
BRANCH   1   9
ATOM      9  C   UNL     1     186.781 181.010 199.728  1.00  0.00     0.000 C 
BRANCH   9  10
ATOM     10  C   UNL     1     185.625 180.017 199.971  1.00  0.00    -0.000 C 
BRANCH  10  11
ATOM     11  C   UNL     1     185.382 179.644 201.448  1.00  0.00    -0.000 C 
BRANCH  11  12
ATOM     12  C   UNL     1     184.264 180.469 202.123  1.00  0.00    -0.000 C 
BRANCH  12  13
ATOM     13  C   UNL     1     183.264 181.076 201.124  1.00  0.00    -0.003 C 
ATOM     14  C   UNL     1     182.255 182.010 201.789  1.00  0.00     0.004 C 
ENDBRANCH  12  13
ENDBRANCH  11  12
ENDBRANCH  10  11
ENDBRANCH   9  10
ENDBRANCH   1   9
TORSDOF 10
ENDMDL
MODEL 5
REMARK VINA RESULT:    -3.297     15.190     17.027
REMARK INTER + INTRA:          -6.748
REMARK INTER:                  -5.435
REMARK INTRA:                  -1.312
REMARK UNBOUND:                -1.524
REMARK SMILES CCCCCCCCCCCC(=O)[O-]
REMARK SMILES IDX 7 1 8 2 9 3 10 4 11 5 12 6 13 7 14 8 6 9 5 10 4 11 3 12 2 13
REMARK SMILES IDX 1 14
REMARK H PARENT
REMARK Flexibility Score: inf
ROOT
ATOM      1  C   UNL     1     184.333 179.919 201.179  1.00  0.00     0.000 C 
ENDROOT
BRANCH   1   2
ATOM      2  C   UNL     1     183.746 181.020 202.074  1.00  0.00     0.000 C 
BRANCH   2   3
ATOM      3  C   UNL     1     182.668 181.817 201.331  1.00  0.00     0.000 C 
BRANCH   3   4
ATOM      4  C   UNL     1     182.269 183.071 202.116  1.00  0.00     0.006 C 
BRANCH   4   5
ATOM      5  C   UNL     1     181.095 183.790 201.446  1.00  0.00     0.053 C 
BRANCH   5   6
ATOM      6  C   UNL     1     181.403 185.243 201.268  1.00  0.00     0.041 C 
ATOM      7  O   UNL     1     182.403 185.753 201.838  1.00  0.00    -0.550 OA
ATOM      8  O   UNL     1     180.613 186.023 200.433  1.00  0.00    -0.550 OA
ENDBRANCH   5   6
ENDBRANCH   4   5
ENDBRANCH   3   4
ENDBRANCH   2   3
ENDBRANCH   1   2
BRANCH   1   9
ATOM      9  C   UNL     1     185.869 179.964 201.096  1.00  0.00     0.000 C 
BRANCH   9  10
ATOM     10  C   UNL     1     186.448 180.895 200.010  1.00  0.00    -0.000 C 
BRANCH  10  11
ATOM     11  C   UNL     1     186.939 182.267 200.516  1.00  0.00    -0.000 C 
BRANCH  11  12
ATOM     12  C   UNL     1     185.941 183.418 200.258  1.00  0.00    -0.000 C 
BRANCH  12  13
ATOM     13  C   UNL     1     185.122 183.241 198.968  1.00  0.00    -0.003 C 
ATOM     14  C   UNL     1     183.969 184.236 198.856  1.00  0.00     0.004 C 
ENDBRANCH  12  13
ENDBRANCH  11  12
ENDBRANCH  10  11
ENDBRANCH   9  10
ENDBRANCH   1   9
TORSDOF 10
ENDMDL
MODEL 6
REMARK VINA RESULT:    -3.296     14.266     16.734
REMARK INTER + INTRA:          -6.747
REMARK INTER:                  -5.369
REMARK INTRA:                  -1.378
REMARK UNBOUND:                -1.524
REMARK SMILES CCCCCCCCCCCC(=O)[O-]
REMARK SMILES IDX 7 1 8 2 9 3 10 4 11 5 12 6 13 7 14 8 6 9 5 10 4 11 3 12 2 13
REMARK SMILES IDX 1 14
REMARK H PARENT
REMARK Flexibility Score: inf
ROOT
ATOM      1  C   UNL     1     181.094 183.393 201.341  1.00  0.00     0.000 C 
ENDROOT
BRANCH   1   2
ATOM      2  C   UNL     1     182.266 184.295 200.927  1.00  0.00     0.000 C 
BRANCH   2   3
ATOM      3  C   UNL     1     182.514 184.217 199.416  1.00  0.00     0.000 C 
BRANCH   3   4
ATOM      4  C   UNL     1     183.990 183.939 199.113  1.00  0.00     0.006 C 
BRANCH   4   5
ATOM      5  C   UNL     1     184.893 184.495 200.216  1.00  0.00     0.053 C 
BRANCH   5   6
ATOM      6  C   UNL     1     185.772 185.580 199.677  1.00  0.00     0.041 C 
ATOM      7  O   UNL     1     185.276 186.523 199.008  1.00  0.00    -0.550 OA
ATOM      8  O   UNL     1     187.133 185.574 199.956  1.00  0.00    -0.550 OA
ENDBRANCH   5   6
ENDBRANCH   4   5
ENDBRANCH   3   4
ENDBRANCH   2   3
ENDBRANCH   1   2
BRANCH   1   9
ATOM      9  C   UNL     1     181.427 181.893 201.247  1.00  0.00     0.000 C 
BRANCH   9  10
ATOM     10  C   UNL     1     182.766 181.468 201.886  1.00  0.00    -0.000 C 
BRANCH  10  11
ATOM     11  C   UNL     1     183.698 180.649 200.970  1.00  0.00    -0.000 C 
BRANCH  11  12
ATOM     12  C   UNL     1     185.194 181.003 201.125  1.00  0.00    -0.000 C 
BRANCH  12  13
ATOM     13  C   UNL     1     186.005 180.812 199.832  1.00  0.00    -0.003 C 
ATOM     14  C   UNL     1     187.242 181.705 199.771  1.00  0.00     0.004 C 
ENDBRANCH  12  13
ENDBRANCH  11  12
ENDBRANCH  10  11
ENDBRANCH   9  10
ENDBRANCH   1   9
TORSDOF 10
ENDMDL
MODEL 7
REMARK VINA RESULT:    -3.283      1.314      2.089
REMARK INTER + INTRA:          -6.726
REMARK INTER:                  -5.368
REMARK INTRA:                  -1.359
REMARK UNBOUND:                -1.524
REMARK SMILES CCCCCCCCCCCC(=O)[O-]
REMARK SMILES IDX 7 1 8 2 9 3 10 4 11 5 12 6 13 7 14 8 6 9 5 10 4 11 3 12 2 13
REMARK SMILES IDX 1 14
REMARK H PARENT
REMARK Flexibility Score: inf
ROOT
ATOM      1  C   UNL     1     197.051 197.155 201.577  1.00  0.00     0.000 C 
ENDROOT
BRANCH   1   2
ATOM      2  C   UNL     1     196.931 195.796 200.872  1.00  0.00     0.000 C 
BRANCH   2   3
ATOM      3  C   UNL     1     195.970 194.869 201.623  1.00  0.00     0.000 C 
BRANCH   3   4
ATOM      4  C   UNL     1     194.898 194.305 200.683  1.00  0.00     0.006 C 
BRANCH   4   5
ATOM      5  C   UNL     1     195.271 194.544 199.217  1.00  0.00     0.053 C 
BRANCH   5   6
ATOM      6  C   UNL     1     194.593 193.544 198.335  1.00  0.00     0.041 C 
ATOM      7  O   UNL     1     193.395 193.221 198.547  1.00  0.00    -0.550 OA
ATOM      8  O   UNL     1     195.269 193.006 197.247  1.00  0.00    -0.550 OA
ENDBRANCH   5   6
ENDBRANCH   4   5
ENDBRANCH   3   4
ENDBRANCH   2   3
ENDBRANCH   1   2
BRANCH   1   9
ATOM      9  C   UNL     1     195.708 197.670 202.125  1.00  0.00     0.000 C 
BRANCH   9  10
ATOM     10  C   UNL     1     195.013 198.750 201.269  1.00  0.00    -0.000 C 
BRANCH  10  11
ATOM     11  C   UNL     1     194.025 198.213 200.214  1.00  0.00    -0.000 C 
BRANCH  11  12
ATOM     12  C   UNL     1     192.801 197.489 200.818  1.00  0.00    -0.000 C 
BRANCH  12  13
ATOM     13  C   UNL     1     192.067 196.586 199.812  1.00  0.00    -0.003 C 
ATOM     14  C   UNL     1     191.999 197.192 198.412  1.00  0.00     0.004 C 
ENDBRANCH  12  13
ENDBRANCH  11  12
ENDBRANCH  10  11
ENDBRANCH   9  10
ENDBRANCH   1   9
TORSDOF 10
ENDMDL
