MODEL 1
REMARK VINA RESULT:    -5.506      0.000      0.000
REMARK INTER + INTRA:         -12.467
REMARK INTER:                 -10.012
REMARK INTRA:                  -2.455
REMARK UNBOUND:                -2.455
REMARK SMILES CCCCCCCCCCCCCCCC(=O)[O-]
REMARK SMILES IDX 9 1 10 2 11 3 12 4 13 5 14 6 15 7 16 8 17 9 18 10 8 11 7 12
REMARK SMILES IDX 6 13 5 14 4 15 3 16 2 17 1 18
REMARK H PARENT
REMARK Flexibility Score: inf
ROOT
ATOM      1  C   UNL     1      18.935  12.865  -1.036  1.00  0.00     0.000 C 
ENDROOT
BRANCH   1   2
ATOM      2  C   UNL     1      19.042  13.724   0.234  1.00  0.00     0.000 C 
BRANCH   2   3
ATOM      3  C   UNL     1      19.809  15.035  -0.003  1.00  0.00     0.000 C 
BRANCH   3   4
ATOM      4  C   UNL     1      20.690  15.429   1.194  1.00  0.00     0.000 C 
BRANCH   4   5
ATOM      5  C   UNL     1      22.059  15.981   0.765  1.00  0.00     0.000 C 
BRANCH   5   6
ATOM      6  C   UNL     1      23.223  15.350   1.551  1.00  0.00     0.006 C 
BRANCH   6   7
ATOM      7  C   UNL     1      22.734  14.547   2.764  1.00  0.00     0.053 C 
BRANCH   7   8
ATOM      8  C   UNL     1      23.659  13.415   3.092  1.00  0.00     0.041 C 
ATOM      9  O   UNL     1      24.745  13.284   2.468  1.00  0.00    -0.550 OA
ATOM     10  O   UNL     1      23.336  12.522   4.106  1.00  0.00    -0.550 OA
ENDBRANCH   7   8
ENDBRANCH   6   7
ENDBRANCH   5   6
ENDBRANCH   4   5
ENDBRANCH   3   4
ENDBRANCH   2   3
ENDBRANCH   1   2
BRANCH   1  11
ATOM     11  C   UNL     1      19.753  13.475  -2.181  1.00  0.00     0.000 C 
BRANCH  11  12
ATOM     12  C   UNL     1      20.405  12.377  -3.035  1.00  0.00    -0.000 C 
BRANCH  12  13
ATOM     13  C   UNL     1      21.938  12.485  -3.074  1.00  0.00    -0.000 C 
BRANCH  13  14
ATOM     14  C   UNL     1      22.499  13.330  -1.917  1.00  0.00    -0.000 C 
BRANCH  14  15
ATOM     15  C   UNL     1      23.203  12.483  -0.841  1.00  0.00    -0.000 C 
BRANCH  15  16
ATOM     16  C   UNL     1      22.273  11.875   0.224  1.00  0.00    -0.000 C 
BRANCH  16  17
ATOM     17  C   UNL     1      21.760  10.478  -0.155  1.00  0.00    -0.003 C 
ATOM     18  C   UNL     1      22.525   9.390   0.594  1.00  0.00     0.004 C 
ENDBRANCH  16  17
ENDBRANCH  15  16
ENDBRANCH  14  15
ENDBRANCH  13  14
ENDBRANCH  12  13
ENDBRANCH  11  12
ENDBRANCH   1  11
TORSDOF 14
ENDMDL
MODEL 2
REMARK VINA RESULT:    -5.489      1.571      3.266
REMARK INTER + INTRA:         -12.437
REMARK INTER:                 -10.216
REMARK INTRA:                  -2.220
REMARK UNBOUND:                -2.455
REMARK SMILES CCCCCCCCCCCCCCCC(=O)[O-]
REMARK SMILES IDX 9 1 10 2 11 3 12 4 13 5 14 6 15 7 16 8 17 9 18 10 8 11 7 12
REMARK SMILES IDX 6 13 5 14 4 15 3 16 2 17 1 18
REMARK H PARENT
REMARK Flexibility Score: inf
ROOT
ATOM      1  C   UNL     1      20.284  15.633   0.158  1.00  0.00     0.000 C 
ENDROOT
BRANCH   1   2
ATOM      2  C   UNL     1      21.242  15.909   1.327  1.00  0.00     0.000 C 
BRANCH   2   3
ATOM      3  C   UNL     1      22.719  15.753   0.928  1.00  0.00     0.000 C 
BRANCH   3   4
ATOM      4  C   UNL     1      23.010  14.401   0.255  1.00  0.00     0.000 C 
BRANCH   4   5
ATOM      5  C   UNL     1      23.684  13.399   1.206  1.00  0.00     0.000 C 
BRANCH   5   6
ATOM      6  C   UNL     1      22.764  12.219   1.569  1.00  0.00     0.006 C 
BRANCH   6   7
ATOM      7  C   UNL     1      21.885  12.524   2.789  1.00  0.00     0.053 C 
BRANCH   7   8
ATOM      8  C   UNL     1      22.694  13.023   3.949  1.00  0.00     0.041 C 
ATOM      9  O   UNL     1      23.382  12.219   4.631  1.00  0.00    -0.550 OA
ATOM     10  O   UNL     1      22.710  14.377   4.255  1.00  0.00    -0.550 OA
ENDBRANCH   7   8
ENDBRANCH   6   7
ENDBRANCH   5   6
ENDBRANCH   4   5
ENDBRANCH   3   4
ENDBRANCH   2   3
ENDBRANCH   1   2
BRANCH   1  11
ATOM     11  C   UNL     1      19.261  14.553   0.530  1.00  0.00     0.000 C 
BRANCH  11  12
ATOM     12  C   UNL     1      18.989  13.621  -0.661  1.00  0.00    -0.000 C 
BRANCH  12  13
ATOM     13  C   UNL     1      19.456  12.178  -0.406  1.00  0.00    -0.000 C 
BRANCH  13  14
ATOM     14  C   UNL     1      20.638  11.774  -1.305  1.00  0.00    -0.000 C 
BRANCH  14  15
ATOM     15  C   UNL     1      21.053  12.886  -2.285  1.00  0.00    -0.000 C 
BRANCH  15  16
ATOM     16  C   UNL     1      21.354  12.414  -3.719  1.00  0.00    -0.000 C 
BRANCH  16  17
ATOM     17  C   UNL     1      22.857  12.349  -4.025  1.00  0.00    -0.003 C 
ATOM     18  C   UNL     1      23.592  13.548  -3.431  1.00  0.00     0.004 C 
ENDBRANCH  16  17
ENDBRANCH  15  16
ENDBRANCH  14  15
ENDBRANCH  13  14
ENDBRANCH  12  13
ENDBRANCH  11  12
ENDBRANCH   1  11
TORSDOF 14
ENDMDL
MODEL 3
REMARK VINA RESULT:    -5.369      1.530      2.091
REMARK INTER + INTRA:         -12.217
REMARK INTER:                 -10.026
REMARK INTRA:                  -2.192
REMARK UNBOUND:                -2.455
REMARK SMILES CCCCCCCCCCCCCCCC(=O)[O-]
REMARK SMILES IDX 9 1 10 2 11 3 12 4 13 5 14 6 15 7 16 8 17 9 18 10 8 11 7 12
REMARK SMILES IDX 6 13 5 14 4 15 3 16 2 17 1 18
REMARK H PARENT
REMARK Flexibility Score: inf
ROOT
ATOM      1  C   UNL     1      20.064  13.716   0.659  1.00  0.00     0.000 C 
ENDROOT
BRANCH   1   2
ATOM      2  C   UNL     1      19.670  15.038  -0.017  1.00  0.00     0.000 C 
BRANCH   2   3
ATOM      3  C   UNL     1      20.499  16.229   0.490  1.00  0.00     0.000 C 
BRANCH   3   4
ATOM      4  C   UNL     1      21.929  15.828   0.889  1.00  0.00     0.000 C 
BRANCH   4   5
ATOM      5  C   UNL     1      22.307  16.307   2.300  1.00  0.00     0.000 C 
BRANCH   5   6
ATOM      6  C   UNL     1      22.013  15.251   3.380  1.00  0.00     0.006 C 
BRANCH   6   7
ATOM      7  C   UNL     1      23.170  14.257   3.548  1.00  0.00     0.053 C 
BRANCH   7   8
ATOM      8  C   UNL     1      22.691  12.919   4.024  1.00  0.00     0.041 C 
ATOM      9  O   UNL     1      22.083  12.147   3.236  1.00  0.00    -0.550 OA
ATOM     10  O   UNL     1      22.941  12.514   5.329  1.00  0.00    -0.550 OA
ENDBRANCH   7   8
ENDBRANCH   6   7
ENDBRANCH   5   6
ENDBRANCH   4   5
ENDBRANCH   3   4
ENDBRANCH   2   3
ENDBRANCH   1   2
BRANCH   1  11
ATOM     11  C   UNL     1      19.757  12.521  -0.252  1.00  0.00     0.000 C 
BRANCH  11  12
ATOM     12  C   UNL     1      19.547  12.977  -1.704  1.00  0.00    -0.000 C 
BRANCH  12  13
ATOM     13  C   UNL     1      20.328  12.121  -2.715  1.00  0.00    -0.000 C 
BRANCH  13  14
ATOM     14  C   UNL     1      21.599  12.824  -3.225  1.00  0.00    -0.000 C 
BRANCH  14  15
ATOM     15  C   UNL     1      22.862  12.419  -2.445  1.00  0.00    -0.000 C 
BRANCH  15  16
ATOM     16  C   UNL     1      23.223  13.337  -1.263  1.00  0.00    -0.000 C 
BRANCH  16  17
ATOM     17  C   UNL     1      23.541  12.561   0.023  1.00  0.00    -0.003 C 
ATOM     18  C   UNL     1      24.934  12.907   0.543  1.00  0.00     0.004 C 
ENDBRANCH  16  17
ENDBRANCH  15  16
ENDBRANCH  14  15
ENDBRANCH  13  14
ENDBRANCH  12  13
ENDBRANCH  11  12
ENDBRANCH   1  11
TORSDOF 14
ENDMDL
MODEL 4
REMARK VINA RESULT:    -5.323      1.689      3.195
REMARK INTER + INTRA:         -12.134
REMARK INTER:                 -10.024
REMARK INTRA:                  -2.109
REMARK UNBOUND:                -2.455
REMARK SMILES CCCCCCCCCCCCCCCC(=O)[O-]
REMARK SMILES IDX 9 1 10 2 11 3 12 4 13 5 14 6 15 7 16 8 17 9 18 10 8 11 7 12
REMARK SMILES IDX 6 13 5 14 4 15 3 16 2 17 1 18
REMARK H PARENT
REMARK Flexibility Score: inf
ROOT
ATOM      1  C   UNL     1      23.848  12.854  -1.195  1.00  0.00     0.000 C 
ENDROOT
BRANCH   1   2
ATOM      2  C   UNL     1      23.340  13.322   0.178  1.00  0.00     0.000 C 
BRANCH   2   3
ATOM      3  C   UNL     1      22.773  14.750   0.142  1.00  0.00     0.000 C 
BRANCH   3   4
ATOM      4  C   UNL     1      23.221  15.594   1.348  1.00  0.00     0.000 C 
BRANCH   4   5
ATOM      5  C   UNL     1      22.044  16.034   2.233  1.00  0.00     0.000 C 
BRANCH   5   6
ATOM      6  C   UNL     1      22.080  15.386   3.628  1.00  0.00     0.006 C 
BRANCH   6   7
ATOM      7  C   UNL     1      23.208  14.353   3.758  1.00  0.00     0.053 C 
BRANCH   7   8
ATOM      8  C   UNL     1      22.689  13.012   4.181  1.00  0.00     0.041 C 
ATOM      9  O   UNL     1      22.838  12.622   5.369  1.00  0.00    -0.550 OA
ATOM     10  O   UNL     1      22.015  12.208   3.271  1.00  0.00    -0.550 OA
ENDBRANCH   7   8
ENDBRANCH   6   7
ENDBRANCH   5   6
ENDBRANCH   4   5
ENDBRANCH   3   4
ENDBRANCH   2   3
ENDBRANCH   1   2
BRANCH   1  11
ATOM     11  C   UNL     1      22.975  13.416  -2.324  1.00  0.00     0.000 C 
BRANCH  11  12
ATOM     12  C   UNL     1      22.477  12.292  -3.245  1.00  0.00    -0.000 C 
BRANCH  12  13
ATOM     13  C   UNL     1      21.064  11.807  -2.882  1.00  0.00    -0.000 C 
BRANCH  13  14
ATOM     14  C   UNL     1      20.014  12.929  -2.967  1.00  0.00    -0.000 C 
BRANCH  14  15
ATOM     15  C   UNL     1      19.074  12.964  -1.749  1.00  0.00    -0.000 C 
BRANCH  15  16
ATOM     16  C   UNL     1      19.591  12.222  -0.503  1.00  0.00    -0.000 C 
BRANCH  16  17
ATOM     17  C   UNL     1      19.639  13.113   0.747  1.00  0.00    -0.003 C 
ATOM     18  C   UNL     1      19.193  14.537   0.425  1.00  0.00     0.004 C 
ENDBRANCH  16  17
ENDBRANCH  15  16
ENDBRANCH  14  15
ENDBRANCH  13  14
ENDBRANCH  12  13
ENDBRANCH  11  12
ENDBRANCH   1  11
TORSDOF 14
ENDMDL
MODEL 5
REMARK VINA RESULT:    -5.298      1.555      3.685
REMARK INTER + INTRA:         -12.088
REMARK INTER:                  -9.826
REMARK INTRA:                  -2.263
REMARK UNBOUND:                -2.455
REMARK SMILES CCCCCCCCCCCCCCCC(=O)[O-]
REMARK SMILES IDX 9 1 10 2 11 3 12 4 13 5 14 6 15 7 16 8 17 9 18 10 8 11 7 12
REMARK SMILES IDX 6 13 5 14 4 15 3 16 2 17 1 18
REMARK H PARENT
REMARK Flexibility Score: inf
ROOT
ATOM      1  C   UNL     1      22.345  12.637  -3.520  1.00  0.00     0.000 C 
ENDROOT
BRANCH   1   2
ATOM      2  C   UNL     1      23.545  12.875  -2.590  1.00  0.00     0.000 C 
BRANCH   2   3
ATOM      3  C   UNL     1      23.131  13.463  -1.231  1.00  0.00     0.000 C 
BRANCH   3   4
ATOM      4  C   UNL     1      23.512  12.552  -0.051  1.00  0.00     0.000 C 
BRANCH   4   5
ATOM      5  C   UNL     1      24.717  13.083   0.741  1.00  0.00     0.000 C 
BRANCH   5   6
ATOM      6  C   UNL     1      24.310  13.705   2.089  1.00  0.00     0.006 C 
BRANCH   6   7
ATOM      7  C   UNL     1      23.123  12.973   2.730  1.00  0.00     0.053 C 
BRANCH   7   8
ATOM      8  C   UNL     1      22.752  13.566   4.055  1.00  0.00     0.041 C 
ATOM      9  O   UNL     1      22.761  14.815   4.214  1.00  0.00    -0.550 OA
ATOM     10  O   UNL     1      22.369  12.741   5.104  1.00  0.00    -0.550 OA
ENDBRANCH   7   8
ENDBRANCH   6   7
ENDBRANCH   5   6
ENDBRANCH   4   5
ENDBRANCH   3   4
ENDBRANCH   2   3
ENDBRANCH   1   2
BRANCH   1  11
ATOM     11  C   UNL     1      21.206  11.929  -2.776  1.00  0.00     0.000 C 
BRANCH  11  12
ATOM     12  C   UNL     1      19.864  12.632  -3.028  1.00  0.00    -0.000 C 
BRANCH  12  13
ATOM     13  C   UNL     1      19.216  13.158  -1.736  1.00  0.00    -0.000 C 
BRANCH  13  14
ATOM     14  C   UNL     1      19.671  12.380  -0.489  1.00  0.00    -0.000 C 
BRANCH  14  15
ATOM     15  C   UNL     1      19.995  13.297   0.704  1.00  0.00    -0.000 C 
BRANCH  15  16
ATOM     16  C   UNL     1      20.035  14.801   0.380  1.00  0.00    -0.000 C 
BRANCH  16  17
ATOM     17  C   UNL     1      20.860  15.610   1.392  1.00  0.00    -0.003 C 
ATOM     18  C   UNL     1      22.077  16.246   0.726  1.00  0.00     0.004 C 
ENDBRANCH  16  17
ENDBRANCH  15  16
ENDBRANCH  14  15
ENDBRANCH  13  14
ENDBRANCH  12  13
ENDBRANCH  11  12
ENDBRANCH   1  11
TORSDOF 14
ENDMDL
MODEL 6
REMARK VINA RESULT:    -5.295      1.269      2.581
REMARK INTER + INTRA:         -12.083
REMARK INTER:                  -9.983
REMARK INTRA:                  -2.100
REMARK UNBOUND:                -2.455
REMARK SMILES CCCCCCCCCCCCCCCC(=O)[O-]
REMARK SMILES IDX 9 1 10 2 11 3 12 4 13 5 14 6 15 7 16 8 17 9 18 10 8 11 7 12
REMARK SMILES IDX 6 13 5 14 4 15 3 16 2 17 1 18
REMARK H PARENT
REMARK Flexibility Score: inf
ROOT
ATOM      1  C   UNL     1      19.283  13.868  -0.398  1.00  0.00     0.000 C 
ENDROOT
BRANCH   1   2
ATOM      2  C   UNL     1      19.370  15.146   0.451  1.00  0.00     0.000 C 
BRANCH   2   3
ATOM      3  C   UNL     1      20.604  15.163   1.367  1.00  0.00     0.000 C 
BRANCH   3   4
ATOM      4  C   UNL     1      21.787  15.928   0.752  1.00  0.00     0.000 C 
BRANCH   4   5
ATOM      5  C   UNL     1      23.067  15.820   1.597  1.00  0.00     0.000 C 
BRANCH   5   6
ATOM      6  C   UNL     1      22.827  15.114   2.943  1.00  0.00     0.006 C 
BRANCH   6   7
ATOM      7  C   UNL     1      23.581  13.781   3.041  1.00  0.00     0.053 C 
BRANCH   7   8
ATOM      8  C   UNL     1      22.785  12.743   3.772  1.00  0.00     0.041 C 
ATOM      9  O   UNL     1      21.885  12.098   3.172  1.00  0.00    -0.550 OA
ATOM     10  O   UNL     1      23.057  12.468   5.105  1.00  0.00    -0.550 OA
ENDBRANCH   7   8
ENDBRANCH   6   7
ENDBRANCH   5   6
ENDBRANCH   4   5
ENDBRANCH   3   4
ENDBRANCH   2   3
ENDBRANCH   1   2
BRANCH   1  11
ATOM     11  C   UNL     1      19.951  12.688   0.318  1.00  0.00     0.000 C 
BRANCH  11  12
ATOM     12  C   UNL     1      20.566  11.708  -0.694  1.00  0.00    -0.000 C 
BRANCH  12  13
ATOM     13  C   UNL     1      21.998  11.290  -0.322  1.00  0.00    -0.000 C 
BRANCH  13  14
ATOM     14  C   UNL     1      22.955  12.491  -0.217  1.00  0.00    -0.000 C 
BRANCH  14  15
ATOM     15  C   UNL     1      22.925  13.391  -1.465  1.00  0.00    -0.000 C 
BRANCH  15  16
ATOM     16  C   UNL     1      23.870  12.963  -2.602  1.00  0.00    -0.000 C 
BRANCH  16  17
ATOM     17  C   UNL     1      23.234  13.100  -3.994  1.00  0.00    -0.003 C 
ATOM     18  C   UNL     1      21.825  12.513  -4.014  1.00  0.00     0.004 C 
ENDBRANCH  16  17
ENDBRANCH  15  16
ENDBRANCH  14  15
ENDBRANCH  13  14
ENDBRANCH  12  13
ENDBRANCH  11  12
ENDBRANCH   1  11
TORSDOF 14
ENDMDL
MODEL 7
REMARK VINA RESULT:    -5.260      2.567      4.972
REMARK INTER + INTRA:         -12.019
REMARK INTER:                  -9.758
REMARK INTRA:                  -2.261
REMARK UNBOUND:                -2.455
REMARK SMILES CCCCCCCCCCCCCCCC(=O)[O-]
REMARK SMILES IDX 9 1 10 2 11 3 12 4 13 5 14 6 15 7 16 8 17 9 18 10 8 11 7 12
REMARK SMILES IDX 6 13 5 14 4 15 3 16 2 17 1 18
REMARK H PARENT
REMARK Flexibility Score: inf
ROOT
ATOM      1  C   UNL     1      20.370  15.665   0.381  1.00  0.00     0.000 C 
ENDROOT
BRANCH   1   2
ATOM      2  C   UNL     1      19.533  14.427   0.739  1.00  0.00     0.000 C 
BRANCH   2   3
ATOM      3  C   UNL     1      18.861  13.794  -0.490  1.00  0.00     0.000 C 
BRANCH   3   4
ATOM      4  C   UNL     1      19.607  12.547  -0.996  1.00  0.00     0.000 C 
BRANCH   4   5
ATOM      5  C   UNL     1      20.120  12.707  -2.436  1.00  0.00     0.000 C 
BRANCH   5   6
ATOM      6  C   UNL     1      21.581  12.251  -2.597  1.00  0.00     0.006 C 
BRANCH   6   7
ATOM      7  C   UNL     1      22.114  12.501  -4.014  1.00  0.00     0.053 C 
BRANCH   7   8
ATOM      8  C   UNL     1      23.596  12.294  -4.097  1.00  0.00     0.041 C 
ATOM      9  O   UNL     1      24.368  12.942  -3.343  1.00  0.00    -0.550 OA
ATOM     10  O   UNL     1      24.120  11.364  -4.986  1.00  0.00    -0.550 OA
ENDBRANCH   7   8
ENDBRANCH   6   7
ENDBRANCH   5   6
ENDBRANCH   4   5
ENDBRANCH   3   4
ENDBRANCH   2   3
ENDBRANCH   1   2
BRANCH   1  11
ATOM     11  C   UNL     1      21.418  15.950   1.463  1.00  0.00     0.000 C 
BRANCH  11  12
ATOM     12  C   UNL     1      22.834  15.649   0.949  1.00  0.00    -0.000 C 
BRANCH  12  13
ATOM     13  C   UNL     1      22.872  14.467  -0.034  1.00  0.00    -0.000 C 
BRANCH  13  14
ATOM     14  C   UNL     1      23.579  13.233   0.554  1.00  0.00    -0.000 C 
BRANCH  14  15
ATOM     15  C   UNL     1      22.597  12.131   0.992  1.00  0.00    -0.000 C 
BRANCH  15  16
ATOM     16  C   UNL     1      22.074  12.258   2.435  1.00  0.00    -0.000 C 
BRANCH  16  17
ATOM     17  C   UNL     1      23.132  12.794   3.410  1.00  0.00    -0.003 C 
ATOM     18  C   UNL     1      22.551  13.883   4.308  1.00  0.00     0.004 C 
ENDBRANCH  16  17
ENDBRANCH  15  16
ENDBRANCH  14  15
ENDBRANCH  13  14
ENDBRANCH  12  13
ENDBRANCH  11  12
ENDBRANCH   1  11
TORSDOF 14
ENDMDL
MODEL 8
REMARK VINA RESULT:    -5.210      2.497      5.141
REMARK INTER + INTRA:         -11.930
REMARK INTER:                  -9.552
REMARK INTRA:                  -2.378
REMARK UNBOUND:                -2.455
REMARK SMILES CCCCCCCCCCCCCCCC(=O)[O-]
REMARK SMILES IDX 9 1 10 2 11 3 12 4 13 5 14 6 15 7 16 8 17 9 18 10 8 11 7 12
REMARK SMILES IDX 6 13 5 14 4 15 3 16 2 17 1 18
REMARK H PARENT
REMARK Flexibility Score: inf
ROOT
ATOM      1  C   UNL     1      21.689  15.717   0.470  1.00  0.00     0.000 C 
ENDROOT
BRANCH   1   2
ATOM      2  C   UNL     1      20.170  15.749   0.702  1.00  0.00     0.000 C 
BRANCH   2   3
ATOM      3  C   UNL     1      19.463  14.500   0.155  1.00  0.00     0.000 C 
BRANCH   3   4
ATOM      4  C   UNL     1      20.233  13.843  -1.004  1.00  0.00     0.000 C 
BRANCH   4   5
ATOM      5  C   UNL     1      20.140  12.309  -0.982  1.00  0.00     0.000 C 
BRANCH   5   6
ATOM      6  C   UNL     1      20.920  11.654  -2.136  1.00  0.00     0.006 C 
BRANCH   6   7
ATOM      7  C   UNL     1      21.303  12.666  -3.224  1.00  0.00     0.053 C 
BRANCH   7   8
ATOM      8  C   UNL     1      22.773  12.640  -3.517  1.00  0.00     0.041 C 
ATOM      9  O   UNL     1      23.252  11.750  -4.268  1.00  0.00    -0.550 OA
ATOM     10  O   UNL     1      23.607  13.614  -2.984  1.00  0.00    -0.550 OA
ENDBRANCH   7   8
ENDBRANCH   6   7
ENDBRANCH   5   6
ENDBRANCH   4   5
ENDBRANCH   3   4
ENDBRANCH   2   3
ENDBRANCH   1   2
BRANCH   1  11
ATOM     11  C   UNL     1      22.450  15.993   1.772  1.00  0.00     0.000 C 
BRANCH  11  12
ATOM     12  C   UNL     1      21.763  15.310   2.965  1.00  0.00    -0.000 C 
BRANCH  12  13
ATOM     13  C   UNL     1      22.753  14.559   3.871  1.00  0.00    -0.000 C 
BRANCH  13  14
ATOM     14  C   UNL     1      22.618  13.031   3.753  1.00  0.00    -0.000 C 
BRANCH  14  15
ATOM     15  C   UNL     1      21.917  12.590   2.455  1.00  0.00    -0.000 C 
BRANCH  15  16
ATOM     16  C   UNL     1      22.788  11.765   1.491  1.00  0.00    -0.000 C 
BRANCH  16  17
ATOM     17  C   UNL     1      23.464  12.623   0.412  1.00  0.00    -0.003 C 
ATOM     18  C   UNL     1      24.753  13.250   0.936  1.00  0.00     0.004 C 
ENDBRANCH  16  17
ENDBRANCH  15  16
ENDBRANCH  14  15
ENDBRANCH  13  14
ENDBRANCH  12  13
ENDBRANCH  11  12
ENDBRANCH   1  11
TORSDOF 14
ENDMDL
MODEL 9
REMARK VINA RESULT:    -5.170      9.363     11.439
REMARK INTER + INTRA:         -11.857
REMARK INTER:                  -9.481
REMARK INTRA:                  -2.376
REMARK UNBOUND:                -2.455
REMARK SMILES CCCCCCCCCCCCCCCC(=O)[O-]
REMARK SMILES IDX 9 1 10 2 11 3 12 4 13 5 14 6 15 7 16 8 17 9 18 10 8 11 7 12
REMARK SMILES IDX 6 13 5 14 4 15 3 16 2 17 1 18
REMARK H PARENT
REMARK Flexibility Score: inf
ROOT
ATOM      1  C   UNL     1      15.102  18.951   0.249  1.00  0.00     0.000 C 
ENDROOT
BRANCH   1   2
ATOM      2  C   UNL     1      14.314  18.852   1.564  1.00  0.00     0.000 C 
BRANCH   2   3
ATOM      3  C   UNL     1      12.838  19.247   1.400  1.00  0.00     0.000 C 
BRANCH   3   4
ATOM      4  C   UNL     1      12.486  20.545   2.147  1.00  0.00     0.000 C 
BRANCH   4   5
ATOM      5  C   UNL     1      13.720  21.231   2.755  1.00  0.00     0.000 C 
BRANCH   5   6
ATOM      6  C   UNL     1      13.852  22.701   2.320  1.00  0.00     0.006 C 
BRANCH   6   7
ATOM      7  C   UNL     1      15.318  23.140   2.201  1.00  0.00     0.053 C 
BRANCH   7   8
ATOM      8  C   UNL     1      15.956  23.321   3.544  1.00  0.00     0.041 C 
ATOM      9  O   UNL     1      15.272  23.727   4.521  1.00  0.00    -0.550 OA
ATOM     10  O   UNL     1      17.298  23.012   3.725  1.00  0.00    -0.550 OA
ENDBRANCH   7   8
ENDBRANCH   6   7
ENDBRANCH   5   6
ENDBRANCH   4   5
ENDBRANCH   3   4
ENDBRANCH   2   3
ENDBRANCH   1   2
BRANCH   1  11
ATOM     11  C   UNL     1      16.228  19.986   0.360  1.00  0.00     0.000 C 
BRANCH  11  12
ATOM     12  C   UNL     1      16.418  20.737  -0.967  1.00  0.00    -0.000 C 
BRANCH  12  13
ATOM     13  C   UNL     1      15.423  21.896  -1.142  1.00  0.00    -0.000 C 
BRANCH  13  14
ATOM     14  C   UNL     1      14.223  21.515  -2.027  1.00  0.00    -0.000 C 
BRANCH  14  15
ATOM     15  C   UNL     1      12.868  21.812  -1.360  1.00  0.00    -0.000 C 
BRANCH  15  16
ATOM     16  C   UNL     1      11.700  20.926  -1.830  1.00  0.00    -0.000 C 
BRANCH  16  17
ATOM     17  C   UNL     1      12.093  19.970  -2.966  1.00  0.00    -0.003 C 
ATOM     18  C   UNL     1      12.004  18.514  -2.515  1.00  0.00     0.004 C 
ENDBRANCH  16  17
ENDBRANCH  15  16
ENDBRANCH  14  15
ENDBRANCH  13  14
ENDBRANCH  12  13
ENDBRANCH  11  12
ENDBRANCH   1  11
TORSDOF 14
ENDMDL
