MODEL 1
REMARK VINA RESULT:    -4.071      0.000      0.000
REMARK INTER + INTRA:          -9.533
REMARK INTER:                  -7.403
REMARK INTRA:                  -2.130
REMARK UNBOUND:                -2.130
REMARK SMILES CCCCCCCCCCCCCCCC(=O)[O-]
REMARK SMILES IDX 9 1 10 2 11 3 12 4 13 5 14 6 15 7 16 8 17 9 18 10 8 11 7 12
REMARK SMILES IDX 6 13 5 14 4 15 3 16 2 17 1 18
REMARK H PARENT
REMARK Flexibility Score: inf
ROOT
ATOM      1  C   UNL     1       0.747  13.991   9.133  1.00  0.00     0.000 C 
ENDROOT
BRANCH   1   2
ATOM      2  C   UNL     1       1.251  13.287   7.863  1.00  0.00     0.000 C 
BRANCH   2   3
ATOM      3  C   UNL     1       2.651  13.765   7.442  1.00  0.00     0.000 C 
BRANCH   3   4
ATOM      4  C   UNL     1       3.777  12.926   8.070  1.00  0.00     0.000 C 
BRANCH   4   5
ATOM      5  C   UNL     1       3.380  11.457   8.278  1.00  0.00     0.000 C 
BRANCH   5   6
ATOM      6  C   UNL     1       3.518  11.054   9.751  1.00  0.00     0.006 C 
BRANCH   6   7
ATOM      7  C   UNL     1       2.443  10.036  10.145  1.00  0.00     0.053 C 
BRANCH   7   8
ATOM      8  C   UNL     1       1.614  10.559  11.275  1.00  0.00     0.041 C 
ATOM      9  O   UNL     1       0.418  10.901  11.079  1.00  0.00    -0.550 OA
ATOM     10  O   UNL     1       2.150  10.630  12.555  1.00  0.00    -0.550 OA
ENDBRANCH   7   8
ENDBRANCH   6   7
ENDBRANCH   5   6
ENDBRANCH   4   5
ENDBRANCH   3   4
ENDBRANCH   2   3
ENDBRANCH   1   2
BRANCH   1  11
ATOM     11  C   UNL     1       1.245  15.440   9.245  1.00  0.00     0.000 C 
BRANCH  11  12
ATOM     12  C   UNL     1       1.948  15.676  10.591  1.00  0.00    -0.000 C 
BRANCH  12  13
ATOM     13  C   UNL     1       2.658  14.418  11.116  1.00  0.00    -0.000 C 
BRANCH  13  14
ATOM     14  C   UNL     1       3.172  14.586  12.554  1.00  0.00    -0.000 C 
BRANCH  14  15
ATOM     15  C   UNL     1       4.642  14.163  12.666  1.00  0.00    -0.000 C 
BRANCH  15  16
ATOM     16  C   UNL     1       5.277  14.010  11.276  1.00  0.00    -0.000 C 
BRANCH  16  17
ATOM     17  C   UNL     1       6.431  12.995  11.263  1.00  0.00    -0.003 C 
ATOM     18  C   UNL     1       6.581  12.254  12.590  1.00  0.00     0.004 C 
ENDBRANCH  16  17
ENDBRANCH  15  16
ENDBRANCH  14  15
ENDBRANCH  13  14
ENDBRANCH  12  13
ENDBRANCH  11  12
ENDBRANCH   1  11
TORSDOF 14
ENDMDL
MODEL 2
REMARK VINA RESULT:    -3.987      1.167      2.874
REMARK INTER + INTRA:          -9.381
REMARK INTER:                  -7.361
REMARK INTRA:                  -2.021
REMARK UNBOUND:                -2.130
REMARK SMILES CCCCCCCCCCCCCCCC(=O)[O-]
REMARK SMILES IDX 9 1 10 2 11 3 12 4 13 5 14 6 15 7 16 8 17 9 18 10 8 11 7 12
REMARK SMILES IDX 6 13 5 14 4 15 3 16 2 17 1 18
REMARK H PARENT
REMARK Flexibility Score: inf
ROOT
ATOM      1  C   UNL     1       2.768  14.991  11.560  1.00  0.00     0.000 C 
ENDROOT
BRANCH   1   2
ATOM      2  C   UNL     1       1.804  14.247  10.622  1.00  0.00     0.000 C 
BRANCH   2   3
ATOM      3  C   UNL     1       1.827  14.808   9.190  1.00  0.00     0.000 C 
BRANCH   3   4
ATOM      4  C   UNL     1       2.245  13.757   8.149  1.00  0.00     0.000 C 
BRANCH   4   5
ATOM      5  C   UNL     1       3.643  13.179   8.413  1.00  0.00     0.000 C 
BRANCH   5   6
ATOM      6  C   UNL     1       3.620  11.646   8.380  1.00  0.00     0.006 C 
BRANCH   6   7
ATOM      7  C   UNL     1       3.953  11.063   9.757  1.00  0.00     0.053 C 
BRANCH   7   8
ATOM      8  C   UNL     1       2.709  10.586  10.439  1.00  0.00     0.041 C 
ATOM      9  O   UNL     1       2.433  10.979  11.603  1.00  0.00    -0.550 OA
ATOM     10  O   UNL     1       1.832   9.741   9.771  1.00  0.00    -0.550 OA
ENDBRANCH   7   8
ENDBRANCH   6   7
ENDBRANCH   5   6
ENDBRANCH   4   5
ENDBRANCH   3   4
ENDBRANCH   2   3
ENDBRANCH   1   2
BRANCH   1  11
ATOM     11  C   UNL     1       3.126  14.174  12.811  1.00  0.00     0.000 C 
BRANCH  11  12
ATOM     12  C   UNL     1       4.630  13.861  12.849  1.00  0.00    -0.000 C 
BRANCH  12  13
ATOM     13  C   UNL     1       5.328  14.147  11.510  1.00  0.00    -0.000 C 
BRANCH  13  14
ATOM     14  C   UNL     1       6.523  13.215  11.255  1.00  0.00    -0.000 C 
BRANCH  14  15
ATOM     15  C   UNL     1       6.556  12.071  12.275  1.00  0.00    -0.000 C 
BRANCH  15  16
ATOM     16  C   UNL     1       7.995  11.784  12.731  1.00  0.00    -0.000 C 
BRANCH  16  17
ATOM     17  C   UNL     1       8.197  12.029  14.235  1.00  0.00    -0.003 C 
ATOM     18  C   UNL     1       6.901  11.899  15.034  1.00  0.00     0.004 C 
ENDBRANCH  16  17
ENDBRANCH  15  16
ENDBRANCH  14  15
ENDBRANCH  13  14
ENDBRANCH  12  13
ENDBRANCH  11  12
ENDBRANCH   1  11
TORSDOF 14
ENDMDL
MODEL 3
REMARK VINA RESULT:    -3.976      2.499      4.735
REMARK INTER + INTRA:          -9.361
REMARK INTER:                  -6.981
REMARK INTRA:                  -2.380
REMARK UNBOUND:                -2.130
REMARK SMILES CCCCCCCCCCCCCCCC(=O)[O-]
REMARK SMILES IDX 9 1 10 2 11 3 12 4 13 5 14 6 15 7 16 8 17 9 18 10 8 11 7 12
REMARK SMILES IDX 6 13 5 14 4 15 3 16 2 17 1 18
REMARK H PARENT
REMARK Flexibility Score: inf
ROOT
ATOM      1  C   UNL     1       2.113  13.667  11.704  1.00  0.00     0.000 C 
ENDROOT
BRANCH   1   2
ATOM      2  C   UNL     1       2.897  14.986  11.813  1.00  0.00     0.000 C 
BRANCH   2   3
ATOM      3  C   UNL     1       4.306  14.786  12.396  1.00  0.00     0.000 C 
BRANCH   3   4
ATOM      4  C   UNL     1       5.229  13.993  11.456  1.00  0.00     0.000 C 
BRANCH   4   5
ATOM      5  C   UNL     1       6.083  12.953  12.195  1.00  0.00     0.000 C 
BRANCH   5   6
ATOM      6  C   UNL     1       7.221  12.442  11.304  1.00  0.00     0.006 C 
BRANCH   6   7
ATOM      7  C   UNL     1       7.391  10.926  11.445  1.00  0.00     0.053 C 
BRANCH   7   8
ATOM      8  C   UNL     1       7.721  10.310  10.122  1.00  0.00     0.041 C 
ATOM      9  O   UNL     1       7.132   9.262   9.746  1.00  0.00    -0.550 OA
ATOM     10  O   UNL     1       8.648  10.917   9.285  1.00  0.00    -0.550 OA
ENDBRANCH   7   8
ENDBRANCH   6   7
ENDBRANCH   5   6
ENDBRANCH   4   5
ENDBRANCH   3   4
ENDBRANCH   2   3
ENDBRANCH   1   2
BRANCH   1  11
ATOM     11  C   UNL     1       1.175  13.634  10.487  1.00  0.00     0.000 C 
BRANCH  11  12
ATOM     12  C   UNL     1       1.517  14.762   9.502  1.00  0.00    -0.000 C 
BRANCH  12  13
ATOM     13  C   UNL     1       2.041  14.235   8.157  1.00  0.00    -0.000 C 
BRANCH  13  14
ATOM     14  C   UNL     1       3.432  13.594   8.274  1.00  0.00    -0.000 C 
BRANCH  14  15
ATOM     15  C   UNL     1       3.383  12.104   7.914  1.00  0.00    -0.000 C 
BRANCH  15  16
ATOM     16  C   UNL     1       4.368  11.298   8.775  1.00  0.00    -0.000 C 
BRANCH  16  17
ATOM     17  C   UNL     1       3.767  10.885  10.128  1.00  0.00    -0.003 C 
ATOM     18  C   UNL     1       2.433  10.154   9.984  1.00  0.00     0.004 C 
ENDBRANCH  16  17
ENDBRANCH  15  16
ENDBRANCH  14  15
ENDBRANCH  13  14
ENDBRANCH  12  13
ENDBRANCH  11  12
ENDBRANCH   1  11
TORSDOF 14
ENDMDL
MODEL 4
REMARK VINA RESULT:    -3.897      1.785      2.512
REMARK INTER + INTRA:          -9.217
REMARK INTER:                  -6.817
REMARK INTRA:                  -2.400
REMARK UNBOUND:                -2.130
REMARK SMILES CCCCCCCCCCCCCCCC(=O)[O-]
REMARK SMILES IDX 9 1 10 2 11 3 12 4 13 5 14 6 15 7 16 8 17 9 18 10 8 11 7 12
REMARK SMILES IDX 6 13 5 14 4 15 3 16 2 17 1 18
REMARK H PARENT
REMARK Flexibility Score: inf
ROOT
ATOM      1  C   UNL     1       2.784  13.598   7.526  1.00  0.00     0.000 C 
ENDROOT
BRANCH   1   2
ATOM      2  C   UNL     1       3.951  13.116   8.404  1.00  0.00     0.000 C 
BRANCH   2   3
ATOM      3  C   UNL     1       4.170  11.596   8.307  1.00  0.00     0.000 C 
BRANCH   3   4
ATOM      4  C   UNL     1       4.296  10.927   9.686  1.00  0.00     0.000 C 
BRANCH   4   5
ATOM      5  C   UNL     1       3.022  11.064  10.534  1.00  0.00     0.000 C 
BRANCH   5   6
ATOM      6  C   UNL     1       2.000   9.982  10.168  1.00  0.00     0.006 C 
BRANCH   6   7
ATOM      7  C   UNL     1       0.836  10.573   9.367  1.00  0.00     0.053 C 
BRANCH   7   8
ATOM      8  C   UNL     1       0.900  10.127   7.941  1.00  0.00     0.041 C 
ATOM      9  O   UNL     1       0.538  10.902   7.016  1.00  0.00    -0.550 OA
ATOM     10  O   UNL     1       1.402   8.870   7.629  1.00  0.00    -0.550 OA
ENDBRANCH   7   8
ENDBRANCH   6   7
ENDBRANCH   5   6
ENDBRANCH   4   5
ENDBRANCH   3   4
ENDBRANCH   2   3
ENDBRANCH   1   2
BRANCH   1  11
ATOM     11  C   UNL     1       1.877  14.607   8.247  1.00  0.00     0.000 C 
BRANCH  11  12
ATOM     12  C   UNL     1       1.635  14.181   9.704  1.00  0.00    -0.000 C 
BRANCH  12  13
ATOM     13  C   UNL     1       2.058  15.259  10.714  1.00  0.00    -0.000 C 
BRANCH  13  14
ATOM     14  C   UNL     1       2.712  14.666  11.971  1.00  0.00    -0.000 C 
BRANCH  14  15
ATOM     15  C   UNL     1       4.201  14.383  11.737  1.00  0.00    -0.000 C 
BRANCH  15  16
ATOM     16  C   UNL     1       4.822  13.672  12.948  1.00  0.00    -0.000 C 
BRANCH  16  17
ATOM     17  C   UNL     1       5.940  12.696  12.549  1.00  0.00    -0.003 C 
ATOM     18  C   UNL     1       6.706  13.150  11.308  1.00  0.00     0.004 C 
ENDBRANCH  16  17
ENDBRANCH  15  16
ENDBRANCH  14  15
ENDBRANCH  13  14
ENDBRANCH  12  13
ENDBRANCH  11  12
ENDBRANCH   1  11
TORSDOF 14
ENDMDL
MODEL 5
REMARK VINA RESULT:    -3.848      2.387      5.216
REMARK INTER + INTRA:          -9.127
REMARK INTER:                  -6.563
REMARK INTRA:                  -2.564
REMARK UNBOUND:                -2.130
REMARK SMILES CCCCCCCCCCCCCCCC(=O)[O-]
REMARK SMILES IDX 9 1 10 2 11 3 12 4 13 5 14 6 15 7 16 8 17 9 18 10 8 11 7 12
REMARK SMILES IDX 6 13 5 14 4 15 3 16 2 17 1 18
REMARK H PARENT
REMARK Flexibility Score: inf
ROOT
ATOM      1  C   UNL     1       1.972  13.171  12.150  1.00  0.00     0.000 C 
ENDROOT
BRANCH   1   2
ATOM      2  C   UNL     1       2.831  14.129  12.992  1.00  0.00     0.000 C 
BRANCH   2   3
ATOM      3  C   UNL     1       3.871  14.884  12.146  1.00  0.00     0.000 C 
BRANCH   3   4
ATOM      4  C   UNL     1       5.004  13.971  11.648  1.00  0.00     0.000 C 
BRANCH   4   5
ATOM      5  C   UNL     1       5.587  13.084  12.758  1.00  0.00     0.000 C 
BRANCH   5   6
ATOM      6  C   UNL     1       6.365  11.903  12.167  1.00  0.00     0.006 C 
BRANCH   6   7
ATOM      7  C   UNL     1       7.390  12.382  11.134  1.00  0.00     0.053 C 
BRANCH   7   8
ATOM      8  C   UNL     1       7.642  11.318  10.113  1.00  0.00     0.041 C 
ATOM      9  O   UNL     1       8.722  11.304   9.464  1.00  0.00    -0.550 OA
ATOM     10  O   UNL     1       6.703  10.315   9.909  1.00  0.00    -0.550 OA
ENDBRANCH   7   8
ENDBRANCH   6   7
ENDBRANCH   5   6
ENDBRANCH   4   5
ENDBRANCH   3   4
ENDBRANCH   2   3
ENDBRANCH   1   2
BRANCH   1  11
ATOM     11  C   UNL     1       1.993  11.731  12.686  1.00  0.00     0.000 C 
BRANCH  11  12
ATOM     12  C   UNL     1       2.031  10.718  11.531  1.00  0.00    -0.000 C 
BRANCH  12  13
ATOM     13  C   UNL     1       3.249  10.911  10.613  1.00  0.00    -0.000 C 
BRANCH  13  14
ATOM     14  C   UNL     1       2.852  11.228   9.163  1.00  0.00    -0.000 C 
BRANCH  14  15
ATOM     15  C   UNL     1       3.917  12.093   8.478  1.00  0.00    -0.000 C 
BRANCH  15  16
ATOM     16  C   UNL     1       3.449  13.551   8.364  1.00  0.00    -0.000 C 
BRANCH  16  17
ATOM     17  C   UNL     1       1.920  13.688   8.434  1.00  0.00    -0.003 C 
ATOM     18  C   UNL     1       1.472  15.050   8.962  1.00  0.00     0.004 C 
ENDBRANCH  16  17
ENDBRANCH  15  16
ENDBRANCH  14  15
ENDBRANCH  13  14
ENDBRANCH  12  13
ENDBRANCH  11  12
ENDBRANCH   1  11
TORSDOF 14
ENDMDL
MODEL 6
REMARK VINA RESULT:    -3.844      1.805      4.444
REMARK INTER + INTRA:          -9.120
REMARK INTER:                  -7.102
REMARK INTRA:                  -2.018
REMARK UNBOUND:                -2.130
REMARK SMILES CCCCCCCCCCCCCCCC(=O)[O-]
REMARK SMILES IDX 9 1 10 2 11 3 12 4 13 5 14 6 15 7 16 8 17 9 18 10 8 11 7 12
REMARK SMILES IDX 6 13 5 14 4 15 3 16 2 17 1 18
REMARK H PARENT
REMARK Flexibility Score: inf
ROOT
ATOM      1  C   UNL     1       6.753  12.923  11.664  1.00  0.00     0.000 C 
ENDROOT
BRANCH   1   2
ATOM      2  C   UNL     1       6.307  11.452  11.647  1.00  0.00     0.000 C 
BRANCH   2   3
ATOM      3  C   UNL     1       7.216  10.573  10.772  1.00  0.00     0.000 C 
BRANCH   3   4
ATOM      4  C   UNL     1       6.849  10.643   9.280  1.00  0.00     0.000 C 
BRANCH   4   5
ATOM      5  C   UNL     1       5.613   9.802   8.930  1.00  0.00     0.000 C 
BRANCH   5   6
ATOM      6  C   UNL     1       4.429  10.698   8.548  1.00  0.00     0.006 C 
BRANCH   6   7
ATOM      7  C   UNL     1       3.189  10.355   9.380  1.00  0.00     0.053 C 
BRANCH   7   8
ATOM      8  C   UNL     1       2.050   9.972   8.489  1.00  0.00     0.041 C 
ATOM      9  O   UNL     1       2.259   9.298   7.445  1.00  0.00    -0.550 OA
ATOM     10  O   UNL     1       0.750  10.320   8.835  1.00  0.00    -0.550 OA
ENDBRANCH   7   8
ENDBRANCH   6   7
ENDBRANCH   5   6
ENDBRANCH   4   5
ENDBRANCH   3   4
ENDBRANCH   2   3
ENDBRANCH   1   2
BRANCH   1  11
ATOM     11  C   UNL     1       5.784  13.845  10.908  1.00  0.00     0.000 C 
BRANCH  11  12
ATOM     12  C   UNL     1       4.329  13.392  11.108  1.00  0.00    -0.000 C 
BRANCH  12  13
ATOM     13  C   UNL     1       3.470  14.452  11.815  1.00  0.00    -0.000 C 
BRANCH  13  14
ATOM     14  C   UNL     1       2.031  14.500  11.280  1.00  0.00    -0.000 C 
BRANCH  14  15
ATOM     15  C   UNL     1       1.830  15.702  10.349  1.00  0.00    -0.000 C 
BRANCH  15  16
ATOM     16  C   UNL     1       1.162  15.272   9.034  1.00  0.00    -0.000 C 
BRANCH  16  17
ATOM     17  C   UNL     1       1.582  13.861   8.593  1.00  0.00    -0.003 C 
ATOM     18  C   UNL     1       2.678  13.876   7.528  1.00  0.00     0.004 C 
ENDBRANCH  16  17
ENDBRANCH  15  16
ENDBRANCH  14  15
ENDBRANCH  13  14
ENDBRANCH  12  13
ENDBRANCH  11  12
ENDBRANCH   1  11
TORSDOF 14
ENDMDL
MODEL 7
REMARK VINA RESULT:    -3.802      2.104      4.619
REMARK INTER + INTRA:          -9.043
REMARK INTER:                  -6.661
REMARK INTRA:                  -2.382
REMARK UNBOUND:                -2.130
REMARK SMILES CCCCCCCCCCCCCCCC(=O)[O-]
REMARK SMILES IDX 9 1 10 2 11 3 12 4 13 5 14 6 15 7 16 8 17 9 18 10 8 11 7 12
REMARK SMILES IDX 6 13 5 14 4 15 3 16 2 17 1 18
REMARK H PARENT
REMARK Flexibility Score: inf
ROOT
ATOM      1  C   UNL     1       6.682   9.941   9.570  1.00  0.00     0.000 C 
ENDROOT
BRANCH   1   2
ATOM      2  C   UNL     1       5.707  10.702   8.658  1.00  0.00     0.000 C 
BRANCH   2   3
ATOM      3  C   UNL     1       4.234  10.412   8.998  1.00  0.00     0.000 C 
BRANCH   3   4
ATOM      4  C   UNL     1       3.399  11.694   9.155  1.00  0.00     0.000 C 
BRANCH   4   5
ATOM      5  C   UNL     1       3.975  12.880   8.368  1.00  0.00     0.000 C 
BRANCH   5   6
ATOM      6  C   UNL     1       2.862  13.833   7.917  1.00  0.00     0.006 C 
BRANCH   6   7
ATOM      7  C   UNL     1       1.499  13.377   8.448  1.00  0.00     0.053 C 
BRANCH   7   8
ATOM      8  C   UNL     1       0.729  14.541   8.985  1.00  0.00     0.041 C 
ATOM      9  O   UNL     1       1.266  15.679   9.057  1.00  0.00    -0.550 OA
ATOM     10  O   UNL     1      -0.597  14.380   9.367  1.00  0.00    -0.550 OA
ENDBRANCH   7   8
ENDBRANCH   6   7
ENDBRANCH   5   6
ENDBRANCH   4   5
ENDBRANCH   3   4
ENDBRANCH   2   3
ENDBRANCH   1   2
BRANCH   1  11
ATOM     11  C   UNL     1       6.904  10.645  10.918  1.00  0.00     0.000 C 
BRANCH  11  12
ATOM     12  C   UNL     1       7.536  12.030  10.715  1.00  0.00    -0.000 C 
BRANCH  12  13
ATOM     13  C   UNL     1       6.627  13.172  11.195  1.00  0.00    -0.000 C 
BRANCH  13  14
ATOM     14  C   UNL     1       5.616  12.716  12.258  1.00  0.00    -0.000 C 
BRANCH  14  15
ATOM     15  C   UNL     1       4.804  13.903  12.790  1.00  0.00    -0.000 C 
BRANCH  15  16
ATOM     16  C   UNL     1       3.820  14.416  11.728  1.00  0.00    -0.000 C 
BRANCH  16  17
ATOM     17  C   UNL     1       2.370  14.451  12.236  1.00  0.00    -0.003 C 
ATOM     18  C   UNL     1       1.704  13.076  12.220  1.00  0.00     0.004 C 
ENDBRANCH  16  17
ENDBRANCH  15  16
ENDBRANCH  14  15
ENDBRANCH  13  14
ENDBRANCH  12  13
ENDBRANCH  11  12
ENDBRANCH   1  11
TORSDOF 14
ENDMDL
MODEL 8
REMARK VINA RESULT:    -3.772      1.217      2.351
REMARK INTER + INTRA:          -8.989
REMARK INTER:                  -6.861
REMARK INTRA:                  -2.128
REMARK UNBOUND:                -2.130
REMARK SMILES CCCCCCCCCCCCCCCC(=O)[O-]
REMARK SMILES IDX 9 1 10 2 11 3 12 4 13 5 14 6 15 7 16 8 17 9 18 10 8 11 7 12
REMARK SMILES IDX 6 13 5 14 4 15 3 16 2 17 1 18
REMARK H PARENT
REMARK Flexibility Score: inf
ROOT
ATOM      1  C   UNL     1       1.885  14.276  10.800  1.00  0.00     0.000 C 
ENDROOT
BRANCH   1   2
ATOM      2  C   UNL     1       1.540  14.781   9.390  1.00  0.00     0.000 C 
BRANCH   2   3
ATOM      3  C   UNL     1       1.671  13.680   8.323  1.00  0.00     0.000 C 
BRANCH   3   4
ATOM      4  C   UNL     1       3.055  13.667   7.653  1.00  0.00     0.000 C 
BRANCH   4   5
ATOM      5  C   UNL     1       3.940  12.509   8.137  1.00  0.00     0.000 C 
BRANCH   5   6
ATOM      6  C   UNL     1       3.088  11.326   8.611  1.00  0.00     0.006 C 
BRANCH   6   7
ATOM      7  C   UNL     1       3.486  10.894  10.026  1.00  0.00     0.053 C 
BRANCH   7   8
ATOM      8  C   UNL     1       2.278  10.484  10.808  1.00  0.00     0.041 C 
ATOM      9  O   UNL     1       1.205  10.197  10.215  1.00  0.00    -0.550 OA
ATOM     10  O   UNL     1       2.350  10.376  12.191  1.00  0.00    -0.550 OA
ENDBRANCH   7   8
ENDBRANCH   6   7
ENDBRANCH   5   6
ENDBRANCH   4   5
ENDBRANCH   3   4
ENDBRANCH   2   3
ENDBRANCH   1   2
BRANCH   1  11
ATOM     11  C   UNL     1       3.342  14.562  11.193  1.00  0.00     0.000 C 
BRANCH  11  12
ATOM     12  C   UNL     1       3.769  13.691  12.386  1.00  0.00    -0.000 C 
BRANCH  12  13
ATOM     13  C   UNL     1       5.286  13.451  12.430  1.00  0.00    -0.000 C 
BRANCH  13  14
ATOM     14  C   UNL     1       5.646  12.033  12.900  1.00  0.00    -0.000 C 
BRANCH  14  15
ATOM     15  C   UNL     1       7.078  11.665  12.492  1.00  0.00    -0.000 C 
BRANCH  15  16
ATOM     16  C   UNL     1       7.515  12.454  11.249  1.00  0.00    -0.000 C 
BRANCH  16  17
ATOM     17  C   UNL     1       8.185  11.564  10.191  1.00  0.00    -0.003 C 
ATOM     18  C   UNL     1       7.220  10.555   9.570  1.00  0.00     0.004 C 
ENDBRANCH  16  17
ENDBRANCH  15  16
ENDBRANCH  14  15
ENDBRANCH  13  14
ENDBRANCH  12  13
ENDBRANCH  11  12
ENDBRANCH   1  11
TORSDOF 14
ENDMDL
MODEL 9
REMARK VINA RESULT:    -3.766      2.278      2.944
REMARK INTER + INTRA:          -8.979
REMARK INTER:                  -7.305
REMARK INTRA:                  -1.674
REMARK UNBOUND:                -2.130
REMARK SMILES CCCCCCCCCCCCCCCC(=O)[O-]
REMARK SMILES IDX 9 1 10 2 11 3 12 4 13 5 14 6 15 7 16 8 17 9 18 10 8 11 7 12
REMARK SMILES IDX 6 13 5 14 4 15 3 16 2 17 1 18
REMARK H PARENT
REMARK Flexibility Score: inf
ROOT
ATOM      1  C   UNL     1       1.658  15.001   9.949  1.00  0.00     0.000 C 
ENDROOT
BRANCH   1   2
ATOM      2  C   UNL     1       1.726  14.435   8.521  1.00  0.00     0.000 C 
BRANCH   2   3
ATOM      3  C   UNL     1       2.989  13.591   8.283  1.00  0.00     0.000 C 
BRANCH   3   4
ATOM      4  C   UNL     1       2.667  12.169   7.794  1.00  0.00     0.000 C 
BRANCH   4   5
ATOM      5  C   UNL     1       2.514  11.163   8.944  1.00  0.00     0.000 C 
BRANCH   5   6
ATOM      6  C   UNL     1       3.866  10.879   9.610  1.00  0.00     0.006 C 
BRANCH   6   7
ATOM      7  C   UNL     1       4.962  10.668   8.560  1.00  0.00     0.053 C 
BRANCH   7   8
ATOM      8  C   UNL     1       5.325   9.219   8.466  1.00  0.00     0.041 C 
ATOM      9  O   UNL     1       4.497   8.386   8.012  1.00  0.00    -0.550 OA
ATOM     10  O   UNL     1       6.594   8.796   8.838  1.00  0.00    -0.550 OA
ENDBRANCH   7   8
ENDBRANCH   6   7
ENDBRANCH   5   6
ENDBRANCH   4   5
ENDBRANCH   3   4
ENDBRANCH   2   3
ENDBRANCH   1   2
BRANCH   1  11
ATOM     11  C   UNL     1       2.426  14.141  10.965  1.00  0.00     0.000 C 
BRANCH  11  12
ATOM     12  C   UNL     1       3.100  15.021  12.029  1.00  0.00    -0.000 C 
BRANCH  12  13
ATOM     13  C   UNL     1       4.555  14.610  12.302  1.00  0.00    -0.000 C 
BRANCH  13  14
ATOM     14  C   UNL     1       5.208  13.911  11.100  1.00  0.00    -0.000 C 
BRANCH  14  15
ATOM     15  C   UNL     1       6.460  13.135  11.527  1.00  0.00    -0.000 C 
BRANCH  15  16
ATOM     16  C   UNL     1       6.249  12.461  12.891  1.00  0.00    -0.000 C 
BRANCH  16  17
ATOM     17  C   UNL     1       7.552  11.895  13.477  1.00  0.00    -0.003 C 
ATOM     18  C   UNL     1       8.723  11.972  12.498  1.00  0.00     0.004 C 
ENDBRANCH  16  17
ENDBRANCH  15  16
ENDBRANCH  14  15
ENDBRANCH  13  14
ENDBRANCH  12  13
ENDBRANCH  11  12
ENDBRANCH   1  11
TORSDOF 14
ENDMDL
