MODEL 1
REMARK VINA RESULT:    -5.763      0.000      0.000
REMARK INTER + INTRA:          -5.907
REMARK INTER:                  -6.269
REMARK INTRA:                   0.361
REMARK UNBOUND:                 0.361
REMARK SMILES C[C@H]1[C@@H](C)CC[C@]2(C(=O)[O-])CC[C@]3(C)C(=CC[C@H]4[C@@]5(C)CC[C@@H](O)C(C)(C)[C@H]5CC[C@]43C)[C@@H]12
REMARK SMILES IDX 7 1 6 2 11 3 33 4 5 5 12 6 15 7 2 8 3 9 13 10 16 11 1 12
REMARK SMILES IDX 4 13 14 14 31 15 17 16 18 17 30 18 32 19 19 20 29 21 28 22
REMARK SMILES IDX 21 23 20 24 25 25 22 26 23 27 26 28 27 29 8 30 9 31 10 32
REMARK SMILES IDX 24 33
REMARK H PARENT 24 34
REMARK Flexibility Score: inf
ROOT
ATOM      1  C   UNL     1     214.090 203.610 165.084  1.00  0.00     0.017 C 
ATOM      2  C   UNL     1     214.027 205.125 165.453  1.00  0.00     0.014 C 
ATOM      3  C   UNL     1     214.961 203.370 163.799  1.00  0.00     0.014 C 
ATOM      4  C   UNL     1     212.619 203.162 164.818  1.00  0.00     0.030 C 
ATOM      5  C   UNL     1     213.074 205.397 166.646  1.00  0.00     0.004 C 
ATOM      6  C   UNL     1     214.189 203.364 162.450  1.00  0.00     0.013 C 
ATOM      7  C   UNL     1     212.569 202.005 163.815  1.00  0.00    -0.063 C 
ATOM      8  C   UNL     1     211.627 203.333 166.019  1.00  0.00    -0.003 C 
ATOM      9  C   UNL     1     211.637 204.855 166.412  1.00  0.00    -0.011 C 
ATOM     10  C   UNL     1     212.920 202.397 162.368  1.00  0.00    -0.006 C 
ATOM     11  C   UNL     1     212.746 200.753 164.236  1.00  0.00    -0.027 C 
ATOM     12  C   UNL     1     211.853 202.434 167.256  1.00  0.00     0.008 C 
ATOM     13  C   UNL     1     210.731 205.185 167.608  1.00  0.00     0.008 C 
ATOM     14  C   UNL     1     211.701 203.228 161.821  1.00  0.00     0.017 C 
ATOM     15  C   UNL     1     213.141 201.113 161.404  1.00  0.00    -0.020 C 
ATOM     16  C   UNL     1     213.698 199.807 163.580  1.00  0.00     0.032 C 
ATOM     17  C   UNL     1     214.086 200.048 162.092  1.00  0.00     0.006 C 
ATOM     18  C   UNL     1     211.781 200.390 161.108  1.00  0.00     0.008 C 
ATOM     19  C   UNL     1     213.750 201.631 160.049  1.00  0.00     0.012 C 
ATOM     20  C   UNL     1     214.265 198.653 161.310  1.00  0.00    -0.025 C 
ATOM     21  C   UNL     1     211.896 199.096 160.283  1.00  0.00     0.005 C 
ATOM     22  C   UNL     1     212.869 198.031 160.852  1.00  0.00     0.003 C 
ATOM     23  C   UNL     1     215.125 197.625 162.150  1.00  0.00     0.010 C 
ATOM     24  C   UNL     1     215.125 198.879 160.022  1.00  0.00     0.012 C 
ATOM     25  C   UNL     1     212.172 196.882 161.729  1.00  0.00    -0.006 C 
ATOM     26  C   UNL     1     214.637 196.183 162.029  1.00  0.00     0.033 C 
ATOM     27  C   UNL     1     213.213 196.051 162.575  1.00  0.00     0.120 C 
ATOM     28  C   UNL     1     211.015 197.401 162.632  1.00  0.00     0.014 C 
ATOM     29  C   UNL     1     211.495 195.874 160.749  1.00  0.00     0.014 C 
ENDROOT
BRANCH   1  30
ATOM     30  C   UNL     1     214.768 202.837 166.213  1.00  0.00     0.048 C 
ATOM     31  O   UNL     1     215.124 203.422 167.272  1.00  0.00    -0.550 OA
ATOM     32  O   UNL     1     215.123 201.505 166.050  1.00  0.00    -0.550 OA
ENDBRANCH   1  30
BRANCH  27  33
ATOM     33  O   UNL     1     213.212 196.417 163.935  1.00  0.00    -0.393 OA
ATOM     34  H   UNL     1     214.034 196.045 164.348  1.00  0.00     0.210 HD
ENDBRANCH  27  33
TORSDOF 2
ENDMDL
MODEL 2
REMARK VINA RESULT:    -4.657      4.948      8.722
REMARK INTER + INTRA:          -4.704
REMARK INTER:                  -5.204
REMARK INTRA:                   0.500
REMARK UNBOUND:                 0.361
REMARK SMILES C[C@H]1[C@@H](C)CC[C@]2(C(=O)[O-])CC[C@]3(C)C(=CC[C@H]4[C@@]5(C)CC[C@@H](O)C(C)(C)[C@H]5CC[C@]43C)[C@@H]12
REMARK SMILES IDX 7 1 6 2 11 3 33 4 5 5 12 6 15 7 2 8 3 9 13 10 16 11 1 12
REMARK SMILES IDX 4 13 14 14 31 15 17 16 18 17 30 18 32 19 19 20 29 21 28 22
REMARK SMILES IDX 21 23 20 24 25 25 22 26 23 27 26 28 27 29 8 30 9 31 10 32
REMARK SMILES IDX 24 33
REMARK H PARENT 24 34
REMARK Flexibility Score: inf
ROOT
ATOM      1  C   UNL     1     206.667 206.758 169.163  1.00  0.00     0.017 C 
ATOM      2  C   UNL     1     205.580 207.876 169.111  1.00  0.00     0.014 C 
ATOM      3  C   UNL     1     207.916 207.211 170.003  1.00  0.00     0.014 C 
ATOM      4  C   UNL     1     207.092 206.489 167.686  1.00  0.00     0.030 C 
ATOM      5  C   UNL     1     204.394 207.496 168.188  1.00  0.00     0.004 C 
ATOM      6  C   UNL     1     209.064 207.881 169.198  1.00  0.00     0.013 C 
ATOM      7  C   UNL     1     208.542 206.000 167.610  1.00  0.00    -0.063 C 
ATOM      8  C   UNL     1     205.949 206.018 166.724  1.00  0.00    -0.003 C 
ATOM      9  C   UNL     1     204.839 207.130 166.746  1.00  0.00    -0.011 C 
ATOM     10  C   UNL     1     209.597 207.074 167.927  1.00  0.00    -0.006 C 
ATOM     11  C   UNL     1     208.817 204.709 167.795  1.00  0.00    -0.027 C 
ATOM     12  C   UNL     1     205.343 204.618 166.978  1.00  0.00     0.008 C 
ATOM     13  C   UNL     1     203.621 206.799 165.869  1.00  0.00     0.008 C 
ATOM     14  C   UNL     1     209.621 208.054 166.695  1.00  0.00     0.017 C 
ATOM     15  C   UNL     1     211.084 206.458 168.123  1.00  0.00    -0.020 C 
ATOM     16  C   UNL     1     209.882 204.236 168.730  1.00  0.00     0.032 C 
ATOM     17  C   UNL     1     211.051 205.202 169.082  1.00  0.00     0.006 C 
ATOM     18  C   UNL     1     211.675 205.970 166.755  1.00  0.00     0.008 C 
ATOM     19  C   UNL     1     212.002 207.599 168.699  1.00  0.00     0.012 C 
ATOM     20  C   UNL     1     212.435 204.398 169.240  1.00  0.00    -0.025 C 
ATOM     21  C   UNL     1     213.045 205.274 166.847  1.00  0.00     0.005 C 
ATOM     22  C   UNL     1     213.115 204.077 167.833  1.00  0.00     0.003 C 
ATOM     23  C   UNL     1     212.251 203.095 170.119  1.00  0.00     0.010 C 
ATOM     24  C   UNL     1     213.449 205.255 170.069  1.00  0.00     0.012 C 
ATOM     25  C   UNL     1     212.927 202.635 167.156  1.00  0.00    -0.006 C 
ATOM     26  C   UNL     1     213.076 201.908 169.626  1.00  0.00     0.033 C 
ATOM     27  C   UNL     1     212.642 201.502 168.216  1.00  0.00     0.120 C 
ATOM     28  C   UNL     1     211.860 202.612 166.021  1.00  0.00     0.014 C 
ATOM     29  C   UNL     1     214.267 202.255 166.454  1.00  0.00     0.014 C 
ENDROOT
BRANCH   1  30
ATOM     30  C   UNL     1     206.101 205.526 169.868  1.00  0.00     0.048 C 
ATOM     31  O   UNL     1     206.837 204.535 170.124  1.00  0.00    -0.550 OA
ATOM     32  O   UNL     1     204.741 205.416 170.125  1.00  0.00    -0.550 OA
ENDBRANCH   1  30
BRANCH  27  33
ATOM     33  O   UNL     1     211.283 201.129 168.248  1.00  0.00    -0.393 OA
ATOM     34  H   UNL     1     211.159 200.510 169.015  1.00  0.00     0.210 HD
ENDBRANCH  27  33
TORSDOF 2
ENDMDL
MODEL 3
REMARK VINA RESULT:    -4.532      5.520      9.269
REMARK INTER + INTRA:          -4.568
REMARK INTER:                  -5.398
REMARK INTRA:                   0.830
REMARK UNBOUND:                 0.361
REMARK SMILES C[C@H]1[C@@H](C)CC[C@]2(C(=O)[O-])CC[C@]3(C)C(=CC[C@H]4[C@@]5(C)CC[C@@H](O)C(C)(C)[C@H]5CC[C@]43C)[C@@H]12
REMARK SMILES IDX 7 1 6 2 11 3 33 4 5 5 12 6 15 7 2 8 3 9 13 10 16 11 1 12
REMARK SMILES IDX 4 13 14 14 31 15 17 16 18 17 30 18 32 19 19 20 29 21 28 22
REMARK SMILES IDX 21 23 20 24 25 25 22 26 23 27 26 28 27 29 8 30 9 31 10 32
REMARK SMILES IDX 24 33
REMARK H PARENT 24 34
REMARK Flexibility Score: inf
ROOT
ATOM      1  C   UNL     1     212.157 204.994 166.932  1.00  0.00     0.017 C 
ATOM      2  C   UNL     1     213.665 205.391 166.996  1.00  0.00     0.014 C 
ATOM      3  C   UNL     1     211.268 206.197 166.452  1.00  0.00     0.014 C 
ATOM      4  C   UNL     1     211.751 204.579 168.381  1.00  0.00     0.030 C 
ATOM      5  C   UNL     1     214.544 204.257 167.582  1.00  0.00     0.004 C 
ATOM      6  C   UNL     1     210.680 207.094 167.577  1.00  0.00     0.013 C 
ATOM      7  C   UNL     1     210.264 204.848 168.634  1.00  0.00    -0.063 C 
ATOM      8  C   UNL     1     212.549 203.380 168.995  1.00  0.00    -0.003 C 
ATOM      9  C   UNL     1     214.068 203.780 168.982  1.00  0.00    -0.011 C 
ATOM     10  C   UNL     1     209.892 206.338 168.742  1.00  0.00    -0.006 C 
ATOM     11  C   UNL     1     209.354 203.952 168.253  1.00  0.00    -0.027 C 
ATOM     12  C   UNL     1     212.332 201.987 168.358  1.00  0.00     0.008 C 
ATOM     13  C   UNL     1     214.996 202.684 169.527  1.00  0.00     0.008 C 
ATOM     14  C   UNL     1     210.454 206.839 170.125  1.00  0.00     0.017 C 
ATOM     15  C   UNL     1     208.291 206.591 168.716  1.00  0.00    -0.020 C 
ATOM     16  C   UNL     1     208.139 204.320 167.464  1.00  0.00     0.032 C 
ATOM     17  C   UNL     1     207.612 205.782 167.539  1.00  0.00     0.006 C 
ATOM     18  C   UNL     1     207.622 206.103 170.048  1.00  0.00     0.008 C 
ATOM     19  C   UNL     1     208.054 208.139 168.562  1.00  0.00     0.012 C 
ATOM     20  C   UNL     1     206.005 205.819 167.492  1.00  0.00    -0.025 C 
ATOM     21  C   UNL     1     206.087 206.205 170.082  1.00  0.00     0.005 C 
ATOM     22  C   UNL     1     205.349 205.503 168.911  1.00  0.00     0.003 C 
ATOM     23  C   UNL     1     205.437 204.877 166.355  1.00  0.00     0.010 C 
ATOM     24  C   UNL     1     205.524 207.243 167.058  1.00  0.00     0.012 C 
ATOM     25  C   UNL     1     204.813 204.027 169.242  1.00  0.00    -0.006 C 
ATOM     26  C   UNL     1     204.153 204.151 166.752  1.00  0.00     0.033 C 
ATOM     27  C   UNL     1     204.407 203.226 167.945  1.00  0.00     0.120 C 
ATOM     28  C   UNL     1     205.787 203.192 170.125  1.00  0.00     0.014 C 
ATOM     29  C   UNL     1     203.516 204.167 170.098  1.00  0.00     0.014 C 
ENDROOT
BRANCH   1  30
ATOM     30  C   UNL     1     211.964 203.881 165.904  1.00  0.00     0.048 C 
ATOM     31  O   UNL     1     211.056 203.019 166.050  1.00  0.00    -0.550 OA
ATOM     32  O   UNL     1     212.861 203.716 164.857  1.00  0.00    -0.550 OA
ENDBRANCH   1  30
BRANCH  27  33
ATOM     33  O   UNL     1     205.376 202.270 167.581  1.00  0.00    -0.393 OA
ATOM     34  H   UNL     1     206.182 202.761 167.271  1.00  0.00     0.210 HD
ENDBRANCH  27  33
TORSDOF 2
ENDMDL
MODEL 4
REMARK VINA RESULT:    -3.460      2.808      5.088
REMARK INTER + INTRA:          -3.402
REMARK INTER:                  -3.929
REMARK INTRA:                   0.528
REMARK UNBOUND:                 0.361
REMARK SMILES C[C@H]1[C@@H](C)CC[C@]2(C(=O)[O-])CC[C@]3(C)C(=CC[C@H]4[C@@]5(C)CC[C@@H](O)C(C)(C)[C@H]5CC[C@]43C)[C@@H]12
REMARK SMILES IDX 7 1 6 2 11 3 33 4 5 5 12 6 15 7 2 8 3 9 13 10 16 11 1 12
REMARK SMILES IDX 4 13 14 14 31 15 17 16 18 17 30 18 32 19 19 20 29 21 28 22
REMARK SMILES IDX 21 23 20 24 25 25 22 26 23 27 26 28 27 29 8 30 9 31 10 32
REMARK SMILES IDX 24 33
REMARK H PARENT 24 34
REMARK Flexibility Score: inf
ROOT
ATOM      1  C   UNL     1     211.311 203.928 168.453  1.00  0.00     0.017 C 
ATOM      2  C   UNL     1     211.442 204.361 169.947  1.00  0.00     0.014 C 
ATOM      3  C   UNL     1     211.567 202.387 168.278  1.00  0.00     0.014 C 
ATOM      4  C   UNL     1     212.390 204.737 167.666  1.00  0.00     0.030 C 
ATOM      5  C   UNL     1     211.314 205.895 170.125  1.00  0.00     0.004 C 
ATOM      6  C   UNL     1     213.032 201.977 167.962  1.00  0.00     0.013 C 
ATOM      7  C   UNL     1     212.862 203.966 166.429  1.00  0.00    -0.063 C 
ATOM      8  C   UNL     1     212.259 206.296 167.739  1.00  0.00    -0.003 C 
ATOM      9  C   UNL     1     212.325 206.695 169.258  1.00  0.00    -0.011 C 
ATOM     10  C   UNL     1     213.727 202.730 166.736  1.00  0.00    -0.006 C 
ATOM     11  C   UNL     1     212.161 204.034 165.298  1.00  0.00    -0.027 C 
ATOM     12  C   UNL     1     211.035 206.936 167.045  1.00  0.00     0.008 C 
ATOM     13  C   UNL     1     212.176 208.204 169.503  1.00  0.00     0.008 C 
ATOM     14  C   UNL     1     215.125 203.271 167.217  1.00  0.00     0.017 C 
ATOM     15  C   UNL     1     213.959 201.786 165.439  1.00  0.00    -0.020 C 
ATOM     16  C   UNL     1     211.760 202.822 164.521  1.00  0.00     0.032 C 
ATOM     17  C   UNL     1     212.595 201.519 164.686  1.00  0.00     0.006 C 
ATOM     18  C   UNL     1     214.920 202.473 164.408  1.00  0.00     0.008 C 
ATOM     19  C   UNL     1     214.614 200.444 165.935  1.00  0.00     0.012 C 
ATOM     20  C   UNL     1     212.702 200.723 163.291  1.00  0.00    -0.025 C 
ATOM     21  C   UNL     1     215.125 201.701 163.093  1.00  0.00     0.005 C 
ATOM     22  C   UNL     1     213.824 201.329 162.333  1.00  0.00     0.003 C 
ATOM     23  C   UNL     1     211.297 200.626 162.570  1.00  0.00     0.010 C 
ATOM     24  C   UNL     1     213.074 199.229 163.566  1.00  0.00     0.012 C 
ATOM     25  C   UNL     1     213.419 202.342 161.156  1.00  0.00    -0.006 C 
ATOM     26  C   UNL     1     211.383 200.763 161.052  1.00  0.00     0.033 C 
ATOM     27  C   UNL     1     211.933 202.138 160.667  1.00  0.00     0.120 C 
ATOM     28  C   UNL     1     213.688 203.837 161.499  1.00  0.00     0.014 C 
ATOM     29  C   UNL     1     214.333 202.041 159.927  1.00  0.00     0.014 C 
ENDROOT
BRANCH   1  30
ATOM     30  C   UNL     1     209.885 204.184 167.969  1.00  0.00     0.048 C 
ATOM     31  O   UNL     1     209.566 203.978 166.767  1.00  0.00    -0.550 OA
ATOM     32  O   UNL     1     208.945 204.769 168.806  1.00  0.00    -0.550 OA
ENDBRANCH   1  30
BRANCH  27  33
ATOM     33  O   UNL     1     211.065 203.131 161.164  1.00  0.00    -0.393 OA
ATOM     34  H   UNL     1     210.236 203.105 160.618  1.00  0.00     0.210 HD
ENDBRANCH  27  33
TORSDOF 2
ENDMDL
MODEL 5
REMARK VINA RESULT:    -3.320      2.341      7.839
REMARK INTER + INTRA:          -3.250
REMARK INTER:                  -3.706
REMARK INTRA:                   0.456
REMARK UNBOUND:                 0.361
REMARK SMILES C[C@H]1[C@@H](C)CC[C@]2(C(=O)[O-])CC[C@]3(C)C(=CC[C@H]4[C@@]5(C)CC[C@@H](O)C(C)(C)[C@H]5CC[C@]43C)[C@@H]12
REMARK SMILES IDX 7 1 6 2 11 3 33 4 5 5 12 6 15 7 2 8 3 9 13 10 16 11 1 12
REMARK SMILES IDX 4 13 14 14 31 15 17 16 18 17 30 18 32 19 19 20 29 21 28 22
REMARK SMILES IDX 21 23 20 24 25 25 22 26 23 27 26 28 27 29 8 30 9 31 10 32
REMARK SMILES IDX 24 33
REMARK H PARENT 24 34
REMARK Flexibility Score: inf
ROOT
ATOM      1  C   UNL     1     213.736 201.863 162.557  1.00  0.00     0.017 C 
ATOM      2  C   UNL     1     214.717 200.949 161.757  1.00  0.00     0.014 C 
ATOM      3  C   UNL     1     214.401 203.241 162.916  1.00  0.00     0.014 C 
ATOM      4  C   UNL     1     213.383 201.088 163.865  1.00  0.00     0.030 C 
ATOM      5  C   UNL     1     214.124 199.540 161.498  1.00  0.00     0.004 C 
ATOM      6  C   UNL     1     215.118 203.306 164.293  1.00  0.00     0.013 C 
ATOM      7  C   UNL     1     213.054 202.056 165.006  1.00  0.00    -0.063 C 
ATOM      8  C   UNL     1     212.702 199.692 163.666  1.00  0.00    -0.003 C 
ATOM      9  C   UNL     1     213.680 198.819 162.800  1.00  0.00    -0.011 C 
ATOM     10  C   UNL     1     214.264 202.832 165.557  1.00  0.00    -0.006 C 
ATOM     11  C   UNL     1     211.824 202.558 165.116  1.00  0.00    -0.027 C 
ATOM     12  C   UNL     1     211.272 199.680 163.077  1.00  0.00     0.008 C 
ATOM     13  C   UNL     1     213.136 197.417 162.486  1.00  0.00     0.008 C 
ATOM     14  C   UNL     1     215.124 201.798 166.374  1.00  0.00     0.017 C 
ATOM     15  C   UNL     1     213.838 204.043 166.547  1.00  0.00    -0.020 C 
ATOM     16  C   UNL     1     211.561 204.018 165.296  1.00  0.00     0.032 C 
ATOM     17  C   UNL     1     212.679 204.909 165.910  1.00  0.00     0.006 C 
ATOM     18  C   UNL     1     213.296 203.490 167.910  1.00  0.00     0.008 C 
ATOM     19  C   UNL     1     215.122 204.911 166.820  1.00  0.00     0.012 C 
ATOM     20  C   UNL     1     212.052 206.052 166.853  1.00  0.00    -0.025 C 
ATOM     21  C   UNL     1     212.769 204.559 168.884  1.00  0.00     0.005 C 
ATOM     22  C   UNL     1     211.682 205.505 168.305  1.00  0.00     0.003 C 
ATOM     23  C   UNL     1     210.822 206.766 166.159  1.00  0.00     0.010 C 
ATOM     24  C   UNL     1     213.089 207.210 167.036  1.00  0.00     0.012 C 
ATOM     25  C   UNL     1     210.172 205.086 168.650  1.00  0.00    -0.006 C 
ATOM     26  C   UNL     1     209.695 207.113 167.129  1.00  0.00     0.033 C 
ATOM     27  C   UNL     1     209.116 205.843 167.756  1.00  0.00     0.120 C 
ATOM     28  C   UNL     1     209.927 203.548 168.613  1.00  0.00     0.014 C 
ATOM     29  C   UNL     1     209.882 205.503 170.125  1.00  0.00     0.014 C 
ENDROOT
BRANCH   1  30
ATOM     30  C   UNL     1     212.519 202.186 161.693  1.00  0.00     0.048 C 
ATOM     31  O   UNL     1     212.199 201.442 160.726  1.00  0.00    -0.550 OA
ATOM     32  O   UNL     1     211.815 203.369 161.870  1.00  0.00    -0.550 OA
ENDBRANCH   1  30
BRANCH  27  33
ATOM     33  O   UNL     1     208.598 205.026 166.731  1.00  0.00    -0.393 OA
ATOM     34  H   UNL     1     208.785 204.082 166.976  1.00  0.00     0.210 HD
ENDBRANCH  27  33
TORSDOF 2
ENDMDL
MODEL 6
REMARK VINA RESULT:    -3.276      2.384      8.204
REMARK INTER + INTRA:          -3.202
REMARK INTER:                  -3.556
REMARK INTRA:                   0.354
REMARK UNBOUND:                 0.361
REMARK SMILES C[C@H]1[C@@H](C)CC[C@]2(C(=O)[O-])CC[C@]3(C)C(=CC[C@H]4[C@@]5(C)CC[C@@H](O)C(C)(C)[C@H]5CC[C@]43C)[C@@H]12
REMARK SMILES IDX 7 1 6 2 11 3 33 4 5 5 12 6 15 7 2 8 3 9 13 10 16 11 1 12
REMARK SMILES IDX 4 13 14 14 31 15 17 16 18 17 30 18 32 19 19 20 29 21 28 22
REMARK SMILES IDX 21 23 20 24 25 25 22 26 23 27 26 28 27 29 8 30 9 31 10 32
REMARK SMILES IDX 24 33
REMARK H PARENT 24 34
REMARK Flexibility Score: inf
ROOT
ATOM      1  C   UNL     1     214.278 202.022 163.929  1.00  0.00     0.017 C 
ATOM      2  C   UNL     1     215.117 200.859 163.313  1.00  0.00     0.014 C 
ATOM      3  C   UNL     1     215.114 202.838 164.980  1.00  0.00     0.014 C 
ATOM      4  C   UNL     1     213.052 201.356 164.629  1.00  0.00     0.030 C 
ATOM      5  C   UNL     1     214.274 199.968 162.366  1.00  0.00     0.004 C 
ATOM      6  C   UNL     1     214.993 202.365 166.455  1.00  0.00     0.013 C 
ATOM      7  C   UNL     1     212.566 202.203 165.810  1.00  0.00    -0.063 C 
ATOM      8  C   UNL     1     212.114 200.511 163.702  1.00  0.00    -0.003 C 
ATOM      9  C   UNL     1     213.000 199.393 163.044  1.00  0.00    -0.011 C 
ATOM     10  C   UNL     1     213.510 202.208 167.026  1.00  0.00    -0.006 C 
ATOM     11  C   UNL     1     211.735 203.223 165.596  1.00  0.00    -0.027 C 
ATOM     12  C   UNL     1     211.298 201.278 162.635  1.00  0.00     0.008 C 
ATOM     13  C   UNL     1     212.226 198.491 162.070  1.00  0.00     0.008 C 
ATOM     14  C   UNL     1     213.385 200.789 167.695  1.00  0.00     0.017 C 
ATOM     15  C   UNL     1     213.113 203.332 168.125  1.00  0.00    -0.020 C 
ATOM     16  C   UNL     1     211.970 204.587 166.159  1.00  0.00     0.032 C 
ATOM     17  C   UNL     1     212.852 204.729 167.434  1.00  0.00     0.006 C 
ATOM     18  C   UNL     1     211.794 202.943 168.877  1.00  0.00     0.008 C 
ATOM     19  C   UNL     1     214.290 203.417 169.167  1.00  0.00     0.012 C 
ATOM     20  C   UNL     1     212.298 205.898 168.391  1.00  0.00    -0.025 C 
ATOM     21  C   UNL     1     211.275 203.996 169.873  1.00  0.00     0.005 C 
ATOM     22  C   UNL     1     211.070 205.418 169.287  1.00  0.00     0.003 C 
ATOM     23  C   UNL     1     211.956 207.206 167.568  1.00  0.00     0.010 C 
ATOM     24  C   UNL     1     213.434 206.366 169.360  1.00  0.00     0.012 C 
ATOM     25  C   UNL     1     209.565 205.750 168.839  1.00  0.00    -0.006 C 
ATOM     26  C   UNL     1     210.709 207.931 168.071  1.00  0.00     0.033 C 
ATOM     27  C   UNL     1     209.475 207.036 167.930  1.00  0.00     0.120 C 
ATOM     28  C   UNL     1     208.833 204.549 168.170  1.00  0.00     0.014 C 
ATOM     29  C   UNL     1     208.738 206.059 170.125  1.00  0.00     0.014 C 
ENDROOT
BRANCH   1  30
ATOM     30  C   UNL     1     213.889 203.009 162.830  1.00  0.00     0.048 C 
ATOM     31  O   UNL     1     214.137 202.757 161.620  1.00  0.00    -0.550 OA
ATOM     32  O   UNL     1     213.372 204.258 163.146  1.00  0.00    -0.550 OA
ENDBRANCH   1  30
BRANCH  27  33
ATOM     33  O   UNL     1     209.297 206.719 166.568  1.00  0.00    -0.393 OA
ATOM     34  H   UNL     1     208.477 206.164 166.494  1.00  0.00     0.210 HD
ENDBRANCH  27  33
TORSDOF 2
ENDMDL
MODEL 7
REMARK VINA RESULT:    -3.039      2.145      7.486
REMARK INTER + INTRA:          -2.944
REMARK INTER:                  -3.308
REMARK INTRA:                   0.363
REMARK UNBOUND:                 0.361
REMARK SMILES C[C@H]1[C@@H](C)CC[C@]2(C(=O)[O-])CC[C@]3(C)C(=CC[C@H]4[C@@]5(C)CC[C@@H](O)C(C)(C)[C@H]5CC[C@]43C)[C@@H]12
REMARK SMILES IDX 7 1 6 2 11 3 33 4 5 5 12 6 15 7 2 8 3 9 13 10 16 11 1 12
REMARK SMILES IDX 4 13 14 14 31 15 17 16 18 17 30 18 32 19 19 20 29 21 28 22
REMARK SMILES IDX 21 23 20 24 25 25 22 26 23 27 26 28 27 29 8 30 9 31 10 32
REMARK SMILES IDX 24 33
REMARK H PARENT 24 34
REMARK Flexibility Score: inf
ROOT
ATOM      1  C   UNL     1     212.185 201.674 161.594  1.00  0.00     0.017 C 
ATOM      2  C   UNL     1     212.489 201.393 160.090  1.00  0.00     0.014 C 
ATOM      3  C   UNL     1     211.605 203.120 161.801  1.00  0.00     0.014 C 
ATOM      4  C   UNL     1     213.544 201.534 162.350  1.00  0.00     0.030 C 
ATOM      5  C   UNL     1     213.174 200.018 159.879  1.00  0.00     0.004 C 
ATOM      6  C   UNL     1     212.649 204.229 162.109  1.00  0.00     0.013 C 
ATOM      7  C   UNL     1     213.572 202.422 163.599  1.00  0.00    -0.063 C 
ATOM      8  C   UNL     1     214.242 200.137 162.244  1.00  0.00    -0.003 C 
ATOM      9  C   UNL     1     214.472 199.850 160.716  1.00  0.00    -0.011 C 
ATOM     10  C   UNL     1     213.661 203.931 163.310  1.00  0.00    -0.006 C 
ATOM     11  C   UNL     1     213.034 201.984 164.737  1.00  0.00    -0.027 C 
ATOM     12  C   UNL     1     213.544 198.943 162.937  1.00  0.00     0.008 C 
ATOM     13  C   UNL     1     215.125 198.487 160.439  1.00  0.00     0.008 C 
ATOM     14  C   UNL     1     215.125 204.204 162.801  1.00  0.00     0.017 C 
ATOM     15  C   UNL     1     213.395 204.841 164.625  1.00  0.00    -0.020 C 
ATOM     16  C   UNL     1     212.077 202.800 165.544  1.00  0.00     0.032 C 
ATOM     17  C   UNL     1     212.108 204.349 165.400  1.00  0.00     0.006 C 
ATOM     18  C   UNL     1     214.596 204.742 165.629  1.00  0.00     0.008 C 
ATOM     19  C   UNL     1     213.246 206.334 164.152  1.00  0.00     0.012 C 
ATOM     20  C   UNL     1     211.816 205.066 166.811  1.00  0.00    -0.025 C 
ATOM     21  C   UNL     1     214.397 205.490 166.959  1.00  0.00     0.005 C 
ATOM     22  C   UNL     1     213.110 205.120 167.742  1.00  0.00     0.003 C 
ATOM     23  C   UNL     1     210.582 204.407 167.550  1.00  0.00     0.010 C 
ATOM     24  C   UNL     1     211.350 206.539 166.565  1.00  0.00     0.012 C 
ATOM     25  C   UNL     1     213.317 204.029 168.901  1.00  0.00    -0.006 C 
ATOM     26  C   UNL     1     210.759 204.315 169.064  1.00  0.00     0.033 C 
ATOM     27  C   UNL     1     211.953 203.423 169.411  1.00  0.00     0.120 C 
ATOM     28  C   UNL     1     214.317 202.897 168.521  1.00  0.00     0.014 C 
ATOM     29  C   UNL     1     213.967 204.745 170.125  1.00  0.00     0.014 C 
ENDROOT
BRANCH   1  30
ATOM     30  C   UNL     1     211.111 200.706 162.089  1.00  0.00     0.048 C 
ATOM     31  O   UNL     1     210.635 199.826 161.322  1.00  0.00    -0.550 OA
ATOM     32  O   UNL     1     210.544 200.855 163.347  1.00  0.00    -0.550 OA
ENDBRANCH   1  30
BRANCH  27  33
ATOM     33  O   UNL     1     211.717 202.130 168.902  1.00  0.00    -0.393 OA
ATOM     34  H   UNL     1     210.778 201.889 169.116  1.00  0.00     0.210 HD
ENDBRANCH  27  33
TORSDOF 2
ENDMDL
