MODEL 1
REMARK VINA RESULT:    -6.913      0.000      0.000
REMARK INTER + INTRA:          -8.347
REMARK INTER:                  -8.126
REMARK INTRA:                  -0.221
REMARK UNBOUND:                -0.221
REMARK SMILES O=c1c(O)c(-c2ccc(O)cc2)oc2cc(O)cc(O)c12
REMARK SMILES IDX 5 1 3 2 2 3 1 4 21 5 19 6 18 7 16 8 15 9 14 10 13 11 6 12
REMARK SMILES IDX 7 13 8 14 9 15 12 16 11 17 10 18 4 20 20 22 17 24
REMARK H PARENT 10 19 4 21 20 23 17 25
REMARK Flexibility Score: inf
ROOT
ATOM      1  C   UNL     1      12.814  10.474  12.880  1.00  0.00     0.180 A 
ATOM      2  C   UNL     1      12.482  10.697  14.231  1.00  0.00     0.208 A 
ATOM      3  C   UNL     1      11.227  10.277  14.698  1.00  0.00     0.238 A 
ATOM      4  O   UNL     1      10.922  10.460  15.908  1.00  0.00    -0.285 OA
ATOM      5  C   UNL     1      10.321   9.665  13.808  1.00  0.00     0.111 A 
ATOM      6  C   UNL     1       9.035   9.218  14.198  1.00  0.00     0.134 A 
ATOM      7  C   UNL     1       8.187   8.626  13.250  1.00  0.00     0.093 A 
ATOM      8  C   UNL     1       8.598   8.473  11.924  1.00  0.00     0.123 A 
ATOM      9  C   UNL     1       9.866   8.913  11.533  1.00  0.00     0.094 A 
ATOM     10  C   UNL     1      10.727   9.504  12.463  1.00  0.00     0.146 A 
ATOM     11  O   UNL     1      11.928   9.908  12.067  1.00  0.00    -0.452 OA
ENDROOT
BRANCH   1  12
ATOM     12  C   UNL     1      14.125  10.871  12.317  1.00  0.00     0.021 A 
ATOM     13  C   UNL     1      14.188  11.923  11.387  1.00  0.00     0.016 A 
ATOM     14  C   UNL     1      15.412  12.299  10.825  1.00  0.00     0.047 A 
ATOM     15  C   UNL     1      16.585  11.619  11.174  1.00  0.00     0.115 A 
ATOM     16  C   UNL     1      15.305  10.179  12.648  1.00  0.00     0.016 A 
ATOM     17  C   UNL     1      16.527  10.558  12.083  1.00  0.00     0.047 A 
BRANCH  15  18
ATOM     18  O   UNL     1      17.810  11.985  10.622  1.00  0.00    -0.508 OA
ATOM     19  H   UNL     1      18.675  11.892  11.143  1.00  0.00     0.293 HD
ENDBRANCH  15  18
ENDBRANCH   1  12
BRANCH   2  20
ATOM     20  O   UNL     1      13.378  11.350  15.080  1.00  0.00    -0.502 OA
ATOM     21  H   UNL     1      13.300  12.336  15.297  1.00  0.00     0.293 HD
ENDBRANCH   2  20
BRANCH   6  22
ATOM     22  O   UNL     1       8.595   9.356  15.515  1.00  0.00    -0.507 OA
ATOM     23  H   UNL     1       8.233   8.570  16.042  1.00  0.00     0.293 HD
ENDBRANCH   6  22
BRANCH   8  24
ATOM     24  O   UNL     1       7.736   7.883  11.002  1.00  0.00    -0.508 OA
ATOM     25  H   UNL     1       8.066   7.201  10.330  1.00  0.00     0.293 HD
ENDBRANCH   8  24
TORSDOF 5
ENDMDL
MODEL 2
REMARK VINA RESULT:    -6.486      1.250      2.948
REMARK INTER + INTRA:          -7.845
REMARK INTER:                  -7.634
REMARK INTRA:                  -0.211
REMARK UNBOUND:                -0.221
REMARK SMILES O=c1c(O)c(-c2ccc(O)cc2)oc2cc(O)cc(O)c12
REMARK SMILES IDX 5 1 3 2 2 3 1 4 21 5 19 6 18 7 16 8 15 9 14 10 13 11 6 12
REMARK SMILES IDX 7 13 8 14 9 15 12 16 11 17 10 18 4 20 20 22 17 24
REMARK H PARENT 10 19 4 21 20 23 17 25
REMARK Flexibility Score: inf
ROOT
ATOM      1  C   UNL     1      12.910  10.525  12.394  1.00  0.00     0.180 A 
ATOM      2  C   UNL     1      12.025   9.913  11.486  1.00  0.00     0.208 A 
ATOM      3  C   UNL     1      10.785   9.451  11.954  1.00  0.00     0.238 A 
ATOM      4  O   UNL     1       9.979   8.912  11.148  1.00  0.00    -0.285 OA
ATOM      5  C   UNL     1      10.462   9.587  13.320  1.00  0.00     0.111 A 
ATOM      6  C   UNL     1       9.236   9.143  13.873  1.00  0.00     0.134 A 
ATOM      7  C   UNL     1       8.992   9.307  15.245  1.00  0.00     0.093 A 
ATOM      8  C   UNL     1       9.946   9.903  16.072  1.00  0.00     0.123 A 
ATOM      9  C   UNL     1      11.159  10.343  15.531  1.00  0.00     0.094 A 
ATOM     10  C   UNL     1      11.420  10.191  14.166  1.00  0.00     0.146 A 
ATOM     11  O   UNL     1      12.577  10.622  13.677  1.00  0.00    -0.452 OA
ENDROOT
BRANCH   1  12
ATOM     12  C   UNL     1      14.228  11.055  11.972  1.00  0.00     0.021 A 
ATOM     13  C   UNL     1      14.285  12.226  11.198  1.00  0.00     0.016 A 
ATOM     14  C   UNL     1      15.516  12.731  10.769  1.00  0.00     0.047 A 
ATOM     15  C   UNL     1      16.703  12.064  11.095  1.00  0.00     0.115 A 
ATOM     16  C   UNL     1      15.422  10.378  12.279  1.00  0.00     0.016 A 
ATOM     17  C   UNL     1      16.652  10.886  11.848  1.00  0.00     0.047 A 
BRANCH  15  18
ATOM     18  O   UNL     1      17.936  12.558  10.674  1.00  0.00    -0.508 OA
ATOM     19  H   UNL     1      18.029  13.085   9.814  1.00  0.00     0.293 HD
ENDBRANCH  15  18
ENDBRANCH   1  12
BRANCH   2  20
ATOM     20  O   UNL     1      12.390   9.746  10.147  1.00  0.00    -0.502 OA
ATOM     21  H   UNL     1      13.209   9.219   9.870  1.00  0.00     0.293 HD
ENDBRANCH   2  20
BRANCH   6  22
ATOM     22  O   UNL     1       8.262   8.544  13.073  1.00  0.00    -0.507 OA
ATOM     23  H   UNL     1       8.421   7.654  12.616  1.00  0.00     0.293 HD
ENDBRANCH   6  22
BRANCH   8  24
ATOM     24  O   UNL     1       9.680  10.052  17.431  1.00  0.00    -0.508 OA
ATOM     25  H   UNL     1       8.787  10.397  17.761  1.00  0.00     0.293 HD
ENDBRANCH   8  24
TORSDOF 5
ENDMDL
MODEL 3
REMARK VINA RESULT:    -6.102      1.817      6.754
REMARK INTER + INTRA:          -7.394
REMARK INTER:                  -7.149
REMARK INTRA:                  -0.244
REMARK UNBOUND:                -0.221
REMARK SMILES O=c1c(O)c(-c2ccc(O)cc2)oc2cc(O)cc(O)c12
REMARK SMILES IDX 5 1 3 2 2 3 1 4 21 5 19 6 18 7 16 8 15 9 14 10 13 11 6 12
REMARK SMILES IDX 7 13 8 14 9 15 12 16 11 17 10 18 4 20 20 22 17 24
REMARK H PARENT 10 19 4 21 20 23 17 25
REMARK Flexibility Score: inf
ROOT
ATOM      1  C   UNL     1      12.604  10.353  12.494  1.00  0.00     0.180 A 
ATOM      2  C   UNL     1      12.872  11.674  12.085  1.00  0.00     0.208 A 
ATOM      3  C   UNL     1      14.079  11.948  11.423  1.00  0.00     0.238 A 
ATOM      4  O   UNL     1      14.325  13.125  11.042  1.00  0.00    -0.285 OA
ATOM      5  C   UNL     1      15.003  10.907  11.201  1.00  0.00     0.111 A 
ATOM      6  C   UNL     1      16.243  11.099  10.546  1.00  0.00     0.134 A 
ATOM      7  C   UNL     1      17.113  10.012  10.370  1.00  0.00     0.093 A 
ATOM      8  C   UNL     1      16.769   8.742  10.836  1.00  0.00     0.123 A 
ATOM      9  C   UNL     1      15.545   8.545  11.484  1.00  0.00     0.094 A 
ATOM     10  C   UNL     1      14.663   9.614  11.667  1.00  0.00     0.146 A 
ATOM     11  O   UNL     1      13.506   9.400  12.280  1.00  0.00    -0.452 OA
ENDROOT
BRANCH   1  12
ATOM     12  C   UNL     1      11.345   9.982  13.180  1.00  0.00     0.021 A 
ATOM     13  C   UNL     1      10.310   9.379  12.447  1.00  0.00     0.016 A 
ATOM     14  C   UNL     1       9.103   9.043  13.069  1.00  0.00     0.047 A 
ATOM     15  C   UNL     1       8.912   9.318  14.429  1.00  0.00     0.115 A 
ATOM     16  C   UNL     1      11.138  10.276  14.541  1.00  0.00     0.016 A 
ATOM     17  C   UNL     1       9.931   9.938  15.160  1.00  0.00     0.047 A 
BRANCH  15  18
ATOM     18  O   UNL     1       7.716   8.987  15.060  1.00  0.00    -0.508 OA
ATOM     19  H   UNL     1       7.515   8.036  15.347  1.00  0.00     0.293 HD
ENDBRANCH  15  18
ENDBRANCH   1  12
BRANCH   2  20
ATOM     20  O   UNL     1      11.961  12.697  12.361  1.00  0.00    -0.502 OA
ATOM     21  H   UNL     1      11.714  13.404  11.679  1.00  0.00     0.293 HD
ENDBRANCH   2  20
BRANCH   6  22
ATOM     22  O   UNL     1      16.616  12.356  10.069  1.00  0.00    -0.507 OA
ATOM     23  H   UNL     1      17.415  12.480   9.458  1.00  0.00     0.293 HD
ENDBRANCH   6  22
BRANCH   8  24
ATOM     24  O   UNL     1      17.652   7.680  10.651  1.00  0.00    -0.508 OA
ATOM     25  H   UNL     1      17.373   6.723  10.828  1.00  0.00     0.293 HD
ENDBRANCH   8  24
TORSDOF 5
ENDMDL
MODEL 4
REMARK VINA RESULT:    -5.827      5.041      7.100
REMARK INTER + INTRA:          -7.070
REMARK INTER:                  -6.777
REMARK INTRA:                  -0.294
REMARK UNBOUND:                -0.221
REMARK SMILES O=c1c(O)c(-c2ccc(O)cc2)oc2cc(O)cc(O)c12
REMARK SMILES IDX 5 1 3 2 2 3 1 4 21 5 19 6 18 7 16 8 15 9 14 10 13 11 6 12
REMARK SMILES IDX 7 13 8 14 9 15 12 16 11 17 10 18 4 20 20 22 17 24
REMARK H PARENT 10 19 4 21 20 23 17 25
REMARK Flexibility Score: inf
ROOT
ATOM      1  C   UNL     1      15.867   6.316  12.534  1.00  0.00     0.180 A 
ATOM      2  C   UNL     1      15.882   6.856  11.233  1.00  0.00     0.208 A 
ATOM      3  C   UNL     1      15.391   8.155  11.033  1.00  0.00     0.238 A 
ATOM      4  O   UNL     1      15.410   8.655   9.875  1.00  0.00    -0.285 OA
ATOM      5  C   UNL     1      14.875   8.881  12.126  1.00  0.00     0.111 A 
ATOM      6  C   UNL     1      14.357  10.194  12.009  1.00  0.00     0.134 A 
ATOM      7  C   UNL     1      13.853  10.847  13.144  1.00  0.00     0.093 A 
ATOM      8  C   UNL     1      13.856  10.215  14.389  1.00  0.00     0.123 A 
ATOM      9  C   UNL     1      14.367   8.919  14.512  1.00  0.00     0.094 A 
ATOM     10  C   UNL     1      14.876   8.252  13.393  1.00  0.00     0.146 A 
ATOM     11  O   UNL     1      15.359   7.024  13.537  1.00  0.00    -0.452 OA
ENDROOT
BRANCH   1  12
ATOM     12  C   UNL     1      16.386   4.959  12.828  1.00  0.00     0.021 A 
ATOM     13  C   UNL     1      15.487   3.884  12.931  1.00  0.00     0.016 A 
ATOM     14  C   UNL     1      15.952   2.600  13.231  1.00  0.00     0.047 A 
ATOM     15  C   UNL     1      17.317   2.378  13.446  1.00  0.00     0.115 A 
ATOM     16  C   UNL     1      17.754   4.733  13.066  1.00  0.00     0.016 A 
ATOM     17  C   UNL     1      18.215   3.448  13.366  1.00  0.00     0.047 A 
BRANCH  15  18
ATOM     18  O   UNL     1      17.793   1.103  13.745  1.00  0.00    -0.508 OA
ATOM     19  H   UNL     1      17.588   0.656  14.631  1.00  0.00     0.293 HD
ENDBRANCH  15  18
ENDBRANCH   1  12
BRANCH   2  20
ATOM     20  O   UNL     1      16.353   6.097  10.159  1.00  0.00    -0.502 OA
ATOM     21  H   UNL     1      17.341   5.982   9.967  1.00  0.00     0.293 HD
ENDBRANCH   2  20
BRANCH   6  22
ATOM     22  O   UNL     1      14.339  10.852  10.778  1.00  0.00    -0.507 OA
ATOM     23  H   UNL     1      15.030  10.662  10.062  1.00  0.00     0.293 HD
ENDBRANCH   6  22
BRANCH   8  24
ATOM     24  O   UNL     1      13.348  10.885  15.500  1.00  0.00    -0.508 OA
ATOM     25  H   UNL     1      13.524  10.558  16.442  1.00  0.00     0.293 HD
ENDBRANCH   8  24
TORSDOF 5
ENDMDL
MODEL 5
REMARK VINA RESULT:    -5.716     13.808     15.618
REMARK INTER + INTRA:          -6.940
REMARK INTER:                  -6.880
REMARK INTRA:                  -0.060
REMARK UNBOUND:                -0.221
REMARK SMILES O=c1c(O)c(-c2ccc(O)cc2)oc2cc(O)cc(O)c12
REMARK SMILES IDX 5 1 3 2 2 3 1 4 21 5 19 6 18 7 16 8 15 9 14 10 13 11 6 12
REMARK SMILES IDX 7 13 8 14 9 15 12 16 11 17 10 18 4 20 20 22 17 24
REMARK H PARENT 10 19 4 21 20 23 17 25
REMARK Flexibility Score: inf
ROOT
ATOM      1  C   UNL     1       3.885   6.179  24.291  1.00  0.00     0.180 A 
ATOM      2  C   UNL     1       3.846   6.205  22.883  1.00  0.00     0.208 A 
ATOM      3  C   UNL     1       3.623   5.006  22.189  1.00  0.00     0.238 A 
ATOM      4  O   UNL     1       3.574   5.019  20.929  1.00  0.00    -0.285 OA
ATOM      5  C   UNL     1       3.465   3.804  22.908  1.00  0.00     0.111 A 
ATOM      6  C   UNL     1       3.241   2.552  22.284  1.00  0.00     0.134 A 
ATOM      7  C   UNL     1       3.103   1.398  23.070  1.00  0.00     0.093 A 
ATOM      8  C   UNL     1       3.185   1.470  24.461  1.00  0.00     0.123 A 
ATOM      9  C   UNL     1       3.405   2.703  25.084  1.00  0.00     0.094 A 
ATOM     10  C   UNL     1       3.544   3.865  24.319  1.00  0.00     0.146 A 
ATOM     11  O   UNL     1       3.748   5.024  24.934  1.00  0.00    -0.452 OA
ENDROOT
BRANCH   1  12
ATOM     12  C   UNL     1       4.098   7.405  25.094  1.00  0.00     0.021 A 
ATOM     13  C   UNL     1       5.117   7.429  26.061  1.00  0.00     0.016 A 
ATOM     14  C   UNL     1       5.320   8.568  26.847  1.00  0.00     0.047 A 
ATOM     15  C   UNL     1       4.497   9.690  26.687  1.00  0.00     0.115 A 
ATOM     16  C   UNL     1       3.262   8.528  24.953  1.00  0.00     0.016 A 
ATOM     17  C   UNL     1       3.467   9.665  25.741  1.00  0.00     0.047 A 
BRANCH  15  18
ATOM     18  O   UNL     1       4.690  10.830  27.464  1.00  0.00    -0.508 OA
ATOM     19  H   UNL     1       5.440  10.887  28.143  1.00  0.00     0.293 HD
ENDBRANCH  15  18
ENDBRANCH   1  12
BRANCH   2  20
ATOM     20  O   UNL     1       4.054   7.402  22.193  1.00  0.00    -0.502 OA
ATOM     21  H   UNL     1       4.980   7.780  22.029  1.00  0.00     0.293 HD
ENDBRANCH   2  20
BRANCH   6  22
ATOM     22  O   UNL     1       3.154   2.447  20.895  1.00  0.00    -0.507 OA
ATOM     23  H   UNL     1       3.789   1.862  20.364  1.00  0.00     0.293 HD
ENDBRANCH   6  22
BRANCH   8  24
ATOM     24  O   UNL     1       3.046   0.309  25.219  1.00  0.00    -0.508 OA
ATOM     25  H   UNL     1       2.143   0.007  25.564  1.00  0.00     0.293 HD
ENDBRANCH   8  24
TORSDOF 5
ENDMDL
MODEL 6
REMARK VINA RESULT:    -5.617      3.877      6.947
REMARK INTER + INTRA:          -6.823
REMARK INTER:                  -6.537
REMARK INTRA:                  -0.286
REMARK UNBOUND:                -0.221
REMARK SMILES O=c1c(O)c(-c2ccc(O)cc2)oc2cc(O)cc(O)c12
REMARK SMILES IDX 5 1 3 2 2 3 1 4 21 5 19 6 18 7 16 8 15 9 14 10 13 11 6 12
REMARK SMILES IDX 7 13 8 14 9 15 12 16 11 17 10 18 4 20 20 22 17 24
REMARK H PARENT 10 19 4 21 20 23 17 25
REMARK Flexibility Score: inf
ROOT
ATOM      1  C   UNL     1      14.274   8.622  12.933  1.00  0.00     0.180 A 
ATOM      2  C   UNL     1      14.731   8.815  11.615  1.00  0.00     0.208 A 
ATOM      3  C   UNL     1      15.646   7.898  11.073  1.00  0.00     0.238 A 
ATOM      4  O   UNL     1      16.054   8.053   9.890  1.00  0.00    -0.285 OA
ATOM      5  C   UNL     1      16.103   6.822  11.862  1.00  0.00     0.111 A 
ATOM      6  C   UNL     1      17.027   5.857  11.394  1.00  0.00     0.134 A 
ATOM      7  C   UNL     1      17.440   4.819  12.243  1.00  0.00     0.093 A 
ATOM      8  C   UNL     1      16.949   4.729  13.547  1.00  0.00     0.123 A 
ATOM      9  C   UNL     1      16.036   5.678  14.015  1.00  0.00     0.094 A 
ATOM     10  C   UNL     1      15.610   6.719  13.184  1.00  0.00     0.146 A 
ATOM     11  O   UNL     1      14.739   7.605  13.651  1.00  0.00    -0.452 OA
ENDROOT
BRANCH   1  12
ATOM     12  C   UNL     1      13.295   9.536  13.567  1.00  0.00     0.021 A 
ATOM     13  C   UNL     1      13.748  10.518  14.463  1.00  0.00     0.016 A 
ATOM     14  C   UNL     1      12.839  11.375  15.092  1.00  0.00     0.047 A 
ATOM     15  C   UNL     1      11.467  11.252  14.842  1.00  0.00     0.115 A 
ATOM     16  C   UNL     1      11.914   9.403  13.337  1.00  0.00     0.016 A 
ATOM     17  C   UNL     1      11.008  10.262  13.967  1.00  0.00     0.047 A 
BRANCH  15  18
ATOM     18  O   UNL     1      10.552  12.101  15.461  1.00  0.00    -0.508 OA
ATOM     19  H   UNL     1      10.011  11.801  16.264  1.00  0.00     0.293 HD
ENDBRANCH  15  18
ENDBRANCH   1  12
BRANCH   2  20
ATOM     20  O   UNL     1      14.301   9.917  10.872  1.00  0.00    -0.502 OA
ATOM     21  H   UNL     1      14.426  10.870  11.193  1.00  0.00     0.293 HD
ENDBRANCH   2  20
BRANCH   6  22
ATOM     22  O   UNL     1      17.536   5.920  10.096  1.00  0.00    -0.507 OA
ATOM     23  H   UNL     1      17.380   5.178   9.424  1.00  0.00     0.293 HD
ENDBRANCH   6  22
BRANCH   8  24
ATOM     24  O   UNL     1      17.377   3.689  14.371  1.00  0.00    -0.508 OA
ATOM     25  H   UNL     1      17.284   2.720  14.092  1.00  0.00     0.293 HD
ENDBRANCH   8  24
TORSDOF 5
ENDMDL
MODEL 7
REMARK VINA RESULT:    -5.541      3.529      5.406
REMARK INTER + INTRA:          -6.734
REMARK INTER:                  -6.772
REMARK INTRA:                   0.038
REMARK UNBOUND:                -0.221
REMARK SMILES O=c1c(O)c(-c2ccc(O)cc2)oc2cc(O)cc(O)c12
REMARK SMILES IDX 5 1 3 2 2 3 1 4 21 5 19 6 18 7 16 8 15 9 14 10 13 11 6 12
REMARK SMILES IDX 7 13 8 14 9 15 12 16 11 17 10 18 4 20 20 22 17 24
REMARK H PARENT 10 19 4 21 20 23 17 25
REMARK Flexibility Score: inf
ROOT
ATOM      1  C   UNL     1      14.839   8.365  12.651  1.00  0.00     0.180 A 
ATOM      2  C   UNL     1      15.279   9.337  11.731  1.00  0.00     0.208 A 
ATOM      3  C   UNL     1      14.644  10.588  11.709  1.00  0.00     0.238 A 
ATOM      4  O   UNL     1      15.037  11.470  10.897  1.00  0.00    -0.285 OA
ATOM      5  C   UNL     1      13.571  10.839  12.588  1.00  0.00     0.111 A 
ATOM      6  C   UNL     1      12.874  12.072  12.627  1.00  0.00     0.134 A 
ATOM      7  C   UNL     1      11.810  12.241  13.525  1.00  0.00     0.093 A 
ATOM      8  C   UNL     1      11.429  11.207  14.382  1.00  0.00     0.123 A 
ATOM      9  C   UNL     1      12.113   9.987  14.349  1.00  0.00     0.094 A 
ATOM     10  C   UNL     1      13.178   9.799  13.462  1.00  0.00     0.146 A 
ATOM     11  O   UNL     1      13.814   8.633  13.453  1.00  0.00    -0.452 OA
ENDROOT
BRANCH   1  12
ATOM     12  C   UNL     1      15.471   7.029  12.746  1.00  0.00     0.021 A 
ATOM     13  C   UNL     1      15.599   6.242  11.590  1.00  0.00     0.016 A 
ATOM     14  C   UNL     1      16.171   4.968  11.661  1.00  0.00     0.047 A 
ATOM     15  C   UNL     1      16.607   4.460  12.891  1.00  0.00     0.115 A 
ATOM     16  C   UNL     1      15.892   6.504  13.982  1.00  0.00     0.016 A 
ATOM     17  C   UNL     1      16.463   5.230  14.049  1.00  0.00     0.047 A 
BRANCH  15  18
ATOM     18  O   UNL     1      17.180   3.192  12.974  1.00  0.00    -0.508 OA
ATOM     19  H   UNL     1      16.889   2.526  13.680  1.00  0.00     0.293 HD
ENDBRANCH  15  18
ENDBRANCH   1  12
BRANCH   2  20
ATOM     20  O   UNL     1      16.312   9.045  10.836  1.00  0.00    -0.502 OA
ATOM     21  H   UNL     1      16.264   8.271  10.184  1.00  0.00     0.293 HD
ENDBRANCH   2  20
BRANCH   6  22
ATOM     22  O   UNL     1      13.230  13.125  11.783  1.00  0.00    -0.507 OA
ATOM     23  H   UNL     1      12.858  13.206  10.845  1.00  0.00     0.293 HD
ENDBRANCH   6  22
BRANCH   8  24
ATOM     24  O   UNL     1      10.367  11.400  15.263  1.00  0.00    -0.508 OA
ATOM     25  H   UNL     1       9.496  11.817  14.959  1.00  0.00     0.293 HD
ENDBRANCH   8  24
TORSDOF 5
ENDMDL
MODEL 8
REMARK VINA RESULT:    -5.401      2.651      6.601
REMARK INTER + INTRA:          -6.570
REMARK INTER:                  -6.654
REMARK INTRA:                   0.085
REMARK UNBOUND:                -0.221
REMARK SMILES O=c1c(O)c(-c2ccc(O)cc2)oc2cc(O)cc(O)c12
REMARK SMILES IDX 5 1 3 2 2 3 1 4 21 5 19 6 18 7 16 8 15 9 14 10 13 11 6 12
REMARK SMILES IDX 7 13 8 14 9 15 12 16 11 17 10 18 4 20 20 22 17 24
REMARK H PARENT 10 19 4 21 20 23 17 25
REMARK Flexibility Score: inf
ROOT
ATOM      1  C   UNL     1      13.429   9.894  12.933  1.00  0.00     0.180 A 
ATOM      2  C   UNL     1      14.093  10.758  12.040  1.00  0.00     0.208 A 
ATOM      3  C   UNL     1      15.188  10.268  11.311  1.00  0.00     0.238 A 
ATOM      4  O   UNL     1      15.783  11.028  10.500  1.00  0.00    -0.285 OA
ATOM      5  C   UNL     1      15.611   8.937  11.500  1.00  0.00     0.111 A 
ATOM      6  C   UNL     1      16.708   8.367  10.808  1.00  0.00     0.134 A 
ATOM      7  C   UNL     1      17.073   7.036  11.059  1.00  0.00     0.093 A 
ATOM      8  C   UNL     1      16.368   6.267  11.986  1.00  0.00     0.123 A 
ATOM      9  C   UNL     1      15.284   6.823  12.673  1.00  0.00     0.094 A 
ATOM     10  C   UNL     1      14.902   8.147  12.435  1.00  0.00     0.146 A 
ATOM     11  O   UNL     1      13.867   8.650  13.097  1.00  0.00    -0.452 OA
ENDROOT
BRANCH   1  12
ATOM     12  C   UNL     1      12.255  10.332  13.724  1.00  0.00     0.021 A 
ATOM     13  C   UNL     1      11.094   9.541  13.731  1.00  0.00     0.016 A 
ATOM     14  C   UNL     1       9.966   9.947  14.451  1.00  0.00     0.047 A 
ATOM     15  C   UNL     1       9.980  11.155  15.160  1.00  0.00     0.115 A 
ATOM     16  C   UNL     1      12.255  11.555  14.420  1.00  0.00     0.016 A 
ATOM     17  C   UNL     1      11.125  11.957  15.139  1.00  0.00     0.047 A 
BRANCH  15  18
ATOM     18  O   UNL     1       8.863  11.569  15.882  1.00  0.00    -0.508 OA
ATOM     19  H   UNL     1       7.924  11.333  15.585  1.00  0.00     0.293 HD
ENDBRANCH  15  18
ENDBRANCH   1  12
BRANCH   2  20
ATOM     20  O   UNL     1      13.684  12.087  11.907  1.00  0.00    -0.502 OA
ATOM     21  H   UNL     1      12.975  12.373  11.243  1.00  0.00     0.293 HD
ENDBRANCH   2  20
BRANCH   6  22
ATOM     22  O   UNL     1      17.433   9.111   9.876  1.00  0.00    -0.507 OA
ATOM     23  H   UNL     1      18.383   8.866   9.621  1.00  0.00     0.293 HD
ENDBRANCH   6  22
BRANCH   8  24
ATOM     24  O   UNL     1      16.752   4.947  12.218  1.00  0.00    -0.508 OA
ATOM     25  H   UNL     1      16.836   4.279  11.462  1.00  0.00     0.293 HD
ENDBRANCH   8  24
TORSDOF 5
ENDMDL
MODEL 9
REMARK VINA RESULT:    -5.117     13.536     15.630
REMARK INTER + INTRA:          -6.236
REMARK INTER:                  -6.089
REMARK INTRA:                  -0.147
REMARK UNBOUND:                -0.221
REMARK SMILES O=c1c(O)c(-c2ccc(O)cc2)oc2cc(O)cc(O)c12
REMARK SMILES IDX 5 1 3 2 2 3 1 4 21 5 19 6 18 7 16 8 15 9 14 10 13 11 6 12
REMARK SMILES IDX 7 13 8 14 9 15 12 16 11 17 10 18 4 20 20 22 17 24
REMARK H PARENT 10 19 4 21 20 23 17 25
REMARK Flexibility Score: inf
ROOT
ATOM      1  C   UNL     1       4.333   7.802  25.921  1.00  0.00     0.180 A 
ATOM      2  C   UNL     1       3.965   6.739  26.768  1.00  0.00     0.208 A 
ATOM      3  C   UNL     1       3.644   5.497  26.197  1.00  0.00     0.238 A 
ATOM      4  O   UNL     1       3.324   4.534  26.945  1.00  0.00    -0.285 OA
ATOM      5  C   UNL     1       3.677   5.346  24.796  1.00  0.00     0.111 A 
ATOM      6  C   UNL     1       3.364   4.130  24.140  1.00  0.00     0.134 A 
ATOM      7  C   UNL     1       3.411   4.062  22.740  1.00  0.00     0.093 A 
ATOM      8  C   UNL     1       3.762   5.182  21.984  1.00  0.00     0.123 A 
ATOM      9  C   UNL     1       4.073   6.386  22.625  1.00  0.00     0.094 A 
ATOM     10  C   UNL     1       4.034   6.474  24.020  1.00  0.00     0.146 A 
ATOM     11  O   UNL     1       4.338   7.627  24.604  1.00  0.00    -0.452 OA
ENDROOT
BRANCH   1  12
ATOM     12  C   UNL     1       4.703   9.136  26.450  1.00  0.00     0.021 A 
ATOM     13  C   UNL     1       3.948  10.260  26.076  1.00  0.00     0.016 A 
ATOM     14  C   UNL     1       4.293  11.532  26.543  1.00  0.00     0.047 A 
ATOM     15  C   UNL     1       5.405  11.697  27.378  1.00  0.00     0.115 A 
ATOM     16  C   UNL     1       5.831   9.312  27.271  1.00  0.00     0.016 A 
ATOM     17  C   UNL     1       6.173  10.585  27.737  1.00  0.00     0.047 A 
BRANCH  15  18
ATOM     18  O   UNL     1       5.758  12.959  27.852  1.00  0.00    -0.508 OA
ATOM     19  H   UNL     1       6.001  13.110  28.824  1.00  0.00     0.293 HD
ENDBRANCH  15  18
ENDBRANCH   1  12
BRANCH   2  20
ATOM     20  O   UNL     1       3.893   6.929  28.150  1.00  0.00    -0.502 OA
ATOM     21  H   UNL     1       4.376   7.685  28.620  1.00  0.00     0.293 HD
ENDBRANCH   2  20
BRANCH   6  22
ATOM     22  O   UNL     1       3.008   2.993  24.868  1.00  0.00    -0.507 OA
ATOM     23  H   UNL     1       3.526   2.126  24.788  1.00  0.00     0.293 HD
ENDBRANCH   6  22
BRANCH   8  24
ATOM     24  O   UNL     1       3.800   5.089  20.594  1.00  0.00    -0.508 OA
ATOM     25  H   UNL     1       3.417   5.818  20.004  1.00  0.00     0.293 HD
ENDBRANCH   8  24
TORSDOF 5
ENDMDL
