MODEL 1
REMARK VINA RESULT:    -5.662      0.000      0.000
REMARK INTER + INTRA:         -12.518
REMARK INTER:                 -10.296
REMARK INTRA:                  -2.222
REMARK UNBOUND:                -2.222
REMARK SMILES CCCCCCCCCCCCCCCC(=O)[O-]
REMARK SMILES IDX 9 1 10 2 11 3 12 4 13 5 14 6 15 7 16 8 17 9 18 10 8 11 7 12
REMARK SMILES IDX 6 13 5 14 4 15 3 16 2 17 1 18
REMARK H PARENT
REMARK Flexibility Score: inf
ROOT
ATOM      1  C   UNL     1      15.138   1.086  19.712  1.00  0.00     0.000 C 
ENDROOT
BRANCH   1   2
ATOM      2  C   UNL     1      16.496   0.413  19.482  1.00  0.00     0.000 C 
BRANCH   2   3
ATOM      3  C   UNL     1      16.329  -1.090  19.221  1.00  0.00     0.000 C 
BRANCH   3   4
ATOM      4  C   UNL     1      17.101  -1.574  17.978  1.00  0.00     0.000 C 
BRANCH   4   5
ATOM      5  C   UNL     1      16.241  -1.773  16.717  1.00  0.00     0.000 C 
BRANCH   5   6
ATOM      6  C   UNL     1      16.271  -0.558  15.773  1.00  0.00     0.006 C 
BRANCH   6   7
ATOM      7  C   UNL     1      17.663   0.080  15.696  1.00  0.00     0.053 C 
BRANCH   7   8
ATOM      8  C   UNL     1      18.484  -0.515  14.592  1.00  0.00     0.041 C 
ATOM      9  O   UNL     1      18.446  -0.017  13.436  1.00  0.00    -0.550 OA
ATOM     10  O   UNL     1      19.267  -1.638  14.833  1.00  0.00    -0.550 OA
ENDBRANCH   7   8
ENDBRANCH   6   7
ENDBRANCH   5   6
ENDBRANCH   4   5
ENDBRANCH   3   4
ENDBRANCH   2   3
ENDBRANCH   1   2
BRANCH   1  11
ATOM     11  C   UNL     1      14.062   0.481  18.800  1.00  0.00     0.000 C 
BRANCH  11  12
ATOM     12  C   UNL     1      13.632   1.484  17.719  1.00  0.00    -0.000 C 
BRANCH  12  13
ATOM     13  C   UNL     1      14.442   2.790  17.764  1.00  0.00    -0.000 C 
BRANCH  13  14
ATOM     14  C   UNL     1      15.318   2.986  16.515  1.00  0.00    -0.000 C 
BRANCH  14  15
ATOM     15  C   UNL     1      14.571   2.651  15.212  1.00  0.00    -0.000 C 
BRANCH  15  16
ATOM     16  C   UNL     1      15.443   2.857  13.962  1.00  0.00    -0.000 C 
BRANCH  16  17
ATOM     17  C   UNL     1      15.166   1.810  12.872  1.00  0.00    -0.003 C 
ATOM     18  C   UNL     1      15.913   2.097  11.569  1.00  0.00     0.004 C 
ENDBRANCH  16  17
ENDBRANCH  15  16
ENDBRANCH  14  15
ENDBRANCH  13  14
ENDBRANCH  12  13
ENDBRANCH  11  12
ENDBRANCH   1  11
TORSDOF 14
ENDMDL
MODEL 2
REMARK VINA RESULT:    -5.626      2.398      5.879
REMARK INTER + INTRA:         -12.453
REMARK INTER:                 -10.865
REMARK INTRA:                  -1.588
REMARK UNBOUND:                -2.222
REMARK SMILES CCCCCCCCCCCCCCCC(=O)[O-]
REMARK SMILES IDX 9 1 10 2 11 3 12 4 13 5 14 6 15 7 16 8 17 9 18 10 8 11 7 12
REMARK SMILES IDX 6 13 5 14 4 15 3 16 2 17 1 18
REMARK H PARENT
REMARK Flexibility Score: inf
ROOT
ATOM      1  C   UNL     1      15.499   3.003  13.705  1.00  0.00     0.000 C 
ENDROOT
BRANCH   1   2
ATOM      2  C   UNL     1      14.995   2.637  15.106  1.00  0.00     0.000 C 
BRANCH   2   3
ATOM      3  C   UNL     1      13.461   2.649  15.160  1.00  0.00     0.000 C 
BRANCH   3   4
ATOM      4  C   UNL     1      12.911   3.153  16.507  1.00  0.00     0.000 C 
BRANCH   4   5
ATOM      5  C   UNL     1      13.959   3.784  17.442  1.00  0.00     0.000 C 
BRANCH   5   6
ATOM      6  C   UNL     1      13.905   3.218  18.872  1.00  0.00     0.006 C 
BRANCH   6   7
ATOM      7  C   UNL     1      13.956   1.685  18.890  1.00  0.00     0.053 C 
BRANCH   7   8
ATOM      8  C   UNL     1      15.310   1.181  19.287  1.00  0.00     0.041 C 
ATOM      9  O   UNL     1      15.481   0.646  20.414  1.00  0.00    -0.550 OA
ATOM     10  O   UNL     1      16.389   1.330  18.425  1.00  0.00    -0.550 OA
ENDBRANCH   7   8
ENDBRANCH   6   7
ENDBRANCH   5   6
ENDBRANCH   4   5
ENDBRANCH   3   4
ENDBRANCH   2   3
ENDBRANCH   1   2
BRANCH   1  11
ATOM     11  C   UNL     1      15.172   1.896  12.694  1.00  0.00     0.000 C 
BRANCH  11  12
ATOM     12  C   UNL     1      15.967   2.089  11.393  1.00  0.00    -0.000 C 
BRANCH  12  13
ATOM     13  C   UNL     1      16.902   0.907  11.089  1.00  0.00    -0.000 C 
BRANCH  13  14
ATOM     14  C   UNL     1      18.038   0.773  12.117  1.00  0.00    -0.000 C 
BRANCH  14  15
ATOM     15  C   UNL     1      17.873  -0.459  13.023  1.00  0.00    -0.000 C 
BRANCH  15  16
ATOM     16  C   UNL     1      18.723  -0.369  14.302  1.00  0.00    -0.000 C 
BRANCH  16  17
ATOM     17  C   UNL     1      17.875  -0.098  15.554  1.00  0.00    -0.003 C 
ATOM     18  C   UNL     1      16.448  -0.633  15.432  1.00  0.00     0.004 C 
ENDBRANCH  16  17
ENDBRANCH  15  16
ENDBRANCH  14  15
ENDBRANCH  13  14
ENDBRANCH  12  13
ENDBRANCH  11  12
ENDBRANCH   1  11
TORSDOF 14
ENDMDL
MODEL 3
REMARK VINA RESULT:    -5.583      2.833      4.360
REMARK INTER + INTRA:         -12.374
REMARK INTER:                 -10.477
REMARK INTRA:                  -1.897
REMARK UNBOUND:                -2.222
REMARK SMILES CCCCCCCCCCCCCCCC(=O)[O-]
REMARK SMILES IDX 9 1 10 2 11 3 12 4 13 5 14 6 15 7 16 8 17 9 18 10 8 11 7 12
REMARK SMILES IDX 6 13 5 14 4 15 3 16 2 17 1 18
REMARK H PARENT
REMARK Flexibility Score: inf
ROOT
ATOM      1  C   UNL     1      17.836   0.912  16.724  1.00  0.00     0.000 C 
ENDROOT
BRANCH   1   2
ATOM      2  C   UNL     1      17.715   0.685  18.235  1.00  0.00     0.000 C 
BRANCH   2   3
ATOM      3  C   UNL     1      17.266  -0.751  18.542  1.00  0.00     0.000 C 
BRANCH   3   4
ATOM      4  C   UNL     1      15.998  -0.810  19.416  1.00  0.00     0.000 C 
BRANCH   4   5
ATOM      5  C   UNL     1      15.704   0.469  20.220  1.00  0.00     0.000 C 
BRANCH   5   6
ATOM      6  C   UNL     1      14.259   0.969  20.043  1.00  0.00     0.006 C 
BRANCH   6   7
ATOM      7  C   UNL     1      13.929   1.276  18.577  1.00  0.00     0.053 C 
BRANCH   7   8
ATOM      8  C   UNL     1      13.585   2.721  18.378  1.00  0.00     0.041 C 
ATOM      9  O   UNL     1      13.913   3.574  19.244  1.00  0.00    -0.550 OA
ATOM     10  O   UNL     1      12.876   3.120  17.251  1.00  0.00    -0.550 OA
ENDBRANCH   7   8
ENDBRANCH   6   7
ENDBRANCH   5   6
ENDBRANCH   4   5
ENDBRANCH   3   4
ENDBRANCH   2   3
ENDBRANCH   1   2
BRANCH   1  11
ATOM     11  C   UNL     1      16.992  -0.104  15.944  1.00  0.00     0.000 C 
BRANCH  11  12
ATOM     12  C   UNL     1      15.695   0.539  15.429  1.00  0.00    -0.000 C 
BRANCH  12  13
ATOM     13  C   UNL     1      15.779   2.073  15.363  1.00  0.00    -0.000 C 
BRANCH  13  14
ATOM     14  C   UNL     1      15.148   2.644  14.082  1.00  0.00    -0.000 C 
BRANCH  14  15
ATOM     15  C   UNL     1      15.215   1.660  12.901  1.00  0.00    -0.000 C 
BRANCH  15  16
ATOM     16  C   UNL     1      15.793   2.303  11.629  1.00  0.00    -0.000 C 
BRANCH  16  17
ATOM     17  C   UNL     1      17.115   1.652  11.190  1.00  0.00    -0.003 C 
ATOM     18  C   UNL     1      17.578   0.548  12.142  1.00  0.00     0.004 C 
ENDBRANCH  16  17
ENDBRANCH  15  16
ENDBRANCH  14  15
ENDBRANCH  13  14
ENDBRANCH  12  13
ENDBRANCH  11  12
ENDBRANCH   1  11
TORSDOF 14
ENDMDL
MODEL 4
REMARK VINA RESULT:    -5.560      2.382      4.870
REMARK INTER + INTRA:         -12.332
REMARK INTER:                 -10.397
REMARK INTRA:                  -1.935
REMARK UNBOUND:                -2.222
REMARK SMILES CCCCCCCCCCCCCCCC(=O)[O-]
REMARK SMILES IDX 9 1 10 2 11 3 12 4 13 5 14 6 15 7 16 8 17 9 18 10 8 11 7 12
REMARK SMILES IDX 6 13 5 14 4 15 3 16 2 17 1 18
REMARK H PARENT
REMARK Flexibility Score: inf
ROOT
ATOM      1  C   UNL     1      14.817   2.647  15.445  1.00  0.00     0.000 C 
ENDROOT
BRANCH   1   2
ATOM      2  C   UNL     1      13.297   2.639  15.642  1.00  0.00     0.000 C 
BRANCH   2   3
ATOM      3  C   UNL     1      12.889   3.547  16.811  1.00  0.00     0.000 C 
BRANCH   3   4
ATOM      4  C   UNL     1      14.025   3.765  17.828  1.00  0.00     0.000 C 
BRANCH   4   5
ATOM      5  C   UNL     1      13.911   2.930  19.117  1.00  0.00     0.000 C 
BRANCH   5   6
ATOM      6  C   UNL     1      14.806   1.679  19.101  1.00  0.00     0.006 C 
BRANCH   6   7
ATOM      7  C   UNL     1      14.043   0.427  18.648  1.00  0.00     0.053 C 
BRANCH   7   8
ATOM      8  C   UNL     1      14.903  -0.799  18.713  1.00  0.00     0.041 C 
ATOM      9  O   UNL     1      15.877  -0.847  19.510  1.00  0.00    -0.550 OA
ATOM     10  O   UNL     1      14.647  -1.874  17.871  1.00  0.00    -0.550 OA
ENDBRANCH   7   8
ENDBRANCH   6   7
ENDBRANCH   5   6
ENDBRANCH   4   5
ENDBRANCH   3   4
ENDBRANCH   2   3
ENDBRANCH   1   2
BRANCH   1  11
ATOM     11  C   UNL     1      15.352   1.227  15.222  1.00  0.00     0.000 C 
BRANCH  11  12
ATOM     12  C   UNL     1      16.698   1.028  15.938  1.00  0.00    -0.000 C 
BRANCH  12  13
ATOM     13  C   UNL     1      17.559  -0.068  15.288  1.00  0.00    -0.000 C 
BRANCH  13  14
ATOM     14  C   UNL     1      17.127  -0.380  13.845  1.00  0.00    -0.000 C 
BRANCH  14  15
ATOM     15  C   UNL     1      18.147   0.110  12.803  1.00  0.00    -0.000 C 
BRANCH  15  16
ATOM     16  C   UNL     1      17.486   0.518  11.476  1.00  0.00    -0.000 C 
BRANCH  16  17
ATOM     17  C   UNL     1      17.203   2.027  11.399  1.00  0.00    -0.003 C 
ATOM     18  C   UNL     1      15.754   2.376  11.736  1.00  0.00     0.004 C 
ENDBRANCH  16  17
ENDBRANCH  15  16
ENDBRANCH  14  15
ENDBRANCH  13  14
ENDBRANCH  12  13
ENDBRANCH  11  12
ENDBRANCH   1  11
TORSDOF 14
ENDMDL
MODEL 5
REMARK VINA RESULT:    -5.552      1.367      4.366
REMARK INTER + INTRA:         -12.317
REMARK INTER:                 -10.420
REMARK INTRA:                  -1.898
REMARK UNBOUND:                -2.222
REMARK SMILES CCCCCCCCCCCCCCCC(=O)[O-]
REMARK SMILES IDX 9 1 10 2 11 3 12 4 13 5 14 6 15 7 16 8 17 9 18 10 8 11 7 12
REMARK SMILES IDX 6 13 5 14 4 15 3 16 2 17 1 18
REMARK H PARENT
REMARK Flexibility Score: inf
ROOT
ATOM      1  C   UNL     1      16.740  -1.779  17.059  1.00  0.00     0.000 C 
ENDROOT
BRANCH   1   2
ATOM      2  C   UNL     1      17.105  -0.458  16.372  1.00  0.00     0.000 C 
BRANCH   2   3
ATOM      3  C   UNL     1      15.890   0.139  15.648  1.00  0.00     0.000 C 
BRANCH   3   4
ATOM      4  C   UNL     1      15.818   1.674  15.760  1.00  0.00     0.000 C 
BRANCH   4   5
ATOM      5  C   UNL     1      15.042   2.372  14.628  1.00  0.00     0.000 C 
BRANCH   5   6
ATOM      6  C   UNL     1      14.921   1.505  13.362  1.00  0.00     0.006 C 
BRANCH   6   7
ATOM      7  C   UNL     1      15.603   2.153  12.150  1.00  0.00     0.053 C 
BRANCH   7   8
ATOM      8  C   UNL     1      16.792   1.361  11.696  1.00  0.00     0.041 C 
ATOM      9  O   UNL     1      17.175   1.426  10.498  1.00  0.00    -0.550 OA
ATOM     10  O   UNL     1      17.456   0.527  12.588  1.00  0.00    -0.550 OA
ENDBRANCH   7   8
ENDBRANCH   6   7
ENDBRANCH   5   6
ENDBRANCH   4   5
ENDBRANCH   3   4
ENDBRANCH   2   3
ENDBRANCH   1   2
BRANCH   1  11
ATOM     11  C   UNL     1      16.841  -1.653  18.585  1.00  0.00     0.000 C 
BRANCH  11  12
ATOM     12  C   UNL     1      17.071  -0.192  19.002  1.00  0.00    -0.000 C 
BRANCH  12  13
ATOM     13  C   UNL     1      15.936   0.360  19.880  1.00  0.00    -0.000 C 
BRANCH  13  14
ATOM     14  C   UNL     1      14.542  -0.003  19.341  1.00  0.00    -0.000 C 
BRANCH  14  15
ATOM     15  C   UNL     1      13.829   1.195  18.691  1.00  0.00    -0.000 C 
BRANCH  15  16
ATOM     16  C   UNL     1      14.440   2.543  19.110  1.00  0.00    -0.000 C 
BRANCH  16  17
ATOM     17  C   UNL     1      13.546   3.736  18.732  1.00  0.00    -0.003 C 
ATOM     18  C   UNL     1      12.876   3.567  17.369  1.00  0.00     0.004 C 
ENDBRANCH  16  17
ENDBRANCH  15  16
ENDBRANCH  14  15
ENDBRANCH  13  14
ENDBRANCH  12  13
ENDBRANCH  11  12
ENDBRANCH   1  11
TORSDOF 14
ENDMDL
MODEL 6
REMARK VINA RESULT:    -5.552      1.125      4.355
REMARK INTER + INTRA:         -12.317
REMARK INTER:                 -10.544
REMARK INTRA:                  -1.773
REMARK UNBOUND:                -2.222
REMARK SMILES CCCCCCCCCCCCCCCC(=O)[O-]
REMARK SMILES IDX 9 1 10 2 11 3 12 4 13 5 14 6 15 7 16 8 17 9 18 10 8 11 7 12
REMARK SMILES IDX 6 13 5 14 4 15 3 16 2 17 1 18
REMARK H PARENT
REMARK Flexibility Score: inf
ROOT
ATOM      1  C   UNL     1      13.678   1.718  17.608  1.00  0.00     0.000 C 
ENDROOT
BRANCH   1   2
ATOM      2  C   UNL     1      14.649   2.905  17.642  1.00  0.00     0.000 C 
BRANCH   2   3
ATOM      3  C   UNL     1      15.504   2.952  16.368  1.00  0.00     0.000 C 
BRANCH   3   4
ATOM      4  C   UNL     1      14.825   2.276  15.162  1.00  0.00     0.000 C 
BRANCH   4   5
ATOM      5  C   UNL     1      15.290   2.786  13.785  1.00  0.00     0.000 C 
BRANCH   5   6
ATOM      6  C   UNL     1      15.364   1.670  12.728  1.00  0.00     0.006 C 
BRANCH   6   7
ATOM      7  C   UNL     1      16.154   2.102  11.486  1.00  0.00     0.053 C 
BRANCH   7   8
ATOM      8  C   UNL     1      17.276   1.155  11.186  1.00  0.00     0.041 C 
ATOM      9  O   UNL     1      17.461   0.745  10.010  1.00  0.00    -0.550 OA
ATOM     10  O   UNL     1      18.096   0.700  12.212  1.00  0.00    -0.550 OA
ENDBRANCH   7   8
ENDBRANCH   6   7
ENDBRANCH   5   6
ENDBRANCH   4   5
ENDBRANCH   3   4
ENDBRANCH   2   3
ENDBRANCH   1   2
BRANCH   1  11
ATOM     11  C   UNL     1      13.690   0.959  18.941  1.00  0.00     0.000 C 
BRANCH  11  12
ATOM     12  C   UNL     1      14.764   1.521  19.884  1.00  0.00    -0.000 C 
BRANCH  12  13
ATOM     13  C   UNL     1      15.785   0.457  20.322  1.00  0.00    -0.000 C 
BRANCH  13  14
ATOM     14  C   UNL     1      16.688  -0.006  19.166  1.00  0.00    -0.000 C 
BRANCH  14  15
ATOM     15  C   UNL     1      16.577  -1.516  18.898  1.00  0.00    -0.000 C 
BRANCH  15  16
ATOM     16  C   UNL     1      17.045  -1.900  17.484  1.00  0.00    -0.000 C 
BRANCH  16  17
ATOM     17  C   UNL     1      16.356  -1.069  16.390  1.00  0.00    -0.003 C 
ATOM     18  C   UNL     1      17.349  -0.338  15.486  1.00  0.00     0.004 C 
ENDBRANCH  16  17
ENDBRANCH  15  16
ENDBRANCH  14  15
ENDBRANCH  13  14
ENDBRANCH  12  13
ENDBRANCH  11  12
ENDBRANCH   1  11
TORSDOF 14
ENDMDL
MODEL 7
REMARK VINA RESULT:    -5.545      1.660      5.130
REMARK INTER + INTRA:         -12.304
REMARK INTER:                 -10.579
REMARK INTRA:                  -1.725
REMARK UNBOUND:                -2.222
REMARK SMILES CCCCCCCCCCCCCCCC(=O)[O-]
REMARK SMILES IDX 9 1 10 2 11 3 12 4 13 5 14 6 15 7 16 8 17 9 18 10 8 11 7 12
REMARK SMILES IDX 6 13 5 14 4 15 3 16 2 17 1 18
REMARK H PARENT
REMARK Flexibility Score: inf
ROOT
ATOM      1  C   UNL     1      15.505   1.869  12.076  1.00  0.00     0.000 C 
ENDROOT
BRANCH   1   2
ATOM      2  C   UNL     1      16.973   2.015  11.656  1.00  0.00     0.000 C 
BRANCH   2   3
ATOM      3  C   UNL     1      17.752   0.719  11.920  1.00  0.00     0.000 C 
BRANCH   3   4
ATOM      4  C   UNL     1      17.232  -0.057  13.145  1.00  0.00     0.000 C 
BRANCH   4   5
ATOM      5  C   UNL     1      18.277  -0.309  14.246  1.00  0.00     0.000 C 
BRANCH   5   6
ATOM      6  C   UNL     1      17.727  -0.062  15.662  1.00  0.00     0.006 C 
BRANCH   6   7
ATOM      7  C   UNL     1      16.337  -0.681  15.859  1.00  0.00     0.053 C 
BRANCH   7   8
ATOM      8  C   UNL     1      16.380  -1.849  16.797  1.00  0.00     0.041 C 
ATOM      9  O   UNL     1      15.355  -2.171  17.454  1.00  0.00    -0.550 OA
ATOM     10  O   UNL     1      17.560  -2.563  16.967  1.00  0.00    -0.550 OA
ENDBRANCH   7   8
ENDBRANCH   6   7
ENDBRANCH   5   6
ENDBRANCH   4   5
ENDBRANCH   3   4
ENDBRANCH   2   3
ENDBRANCH   1   2
BRANCH   1  11
ATOM     11  C   UNL     1      15.161   2.830  13.221  1.00  0.00     0.000 C 
BRANCH  11  12
ATOM     12  C   UNL     1      14.353   2.114  14.314  1.00  0.00    -0.000 C 
BRANCH  12  13
ATOM     13  C   UNL     1      14.637   2.668  15.720  1.00  0.00    -0.000 C 
BRANCH  13  14
ATOM     14  C   UNL     1      13.361   3.138  16.438  1.00  0.00    -0.000 C 
BRANCH  14  15
ATOM     15  C   UNL     1      13.280   2.636  17.890  1.00  0.00    -0.000 C 
BRANCH  15  16
ATOM     16  C   UNL     1      13.921   1.250  18.072  1.00  0.00    -0.000 C 
BRANCH  16  17
ATOM     17  C   UNL     1      14.453   1.030  19.497  1.00  0.00    -0.003 C 
ATOM     18  C   UNL     1      15.926   0.621  19.523  1.00  0.00     0.004 C 
ENDBRANCH  16  17
ENDBRANCH  15  16
ENDBRANCH  14  15
ENDBRANCH  13  14
ENDBRANCH  12  13
ENDBRANCH  11  12
ENDBRANCH   1  11
TORSDOF 14
ENDMDL
MODEL 8
REMARK VINA RESULT:    -5.501      1.607      3.198
REMARK INTER + INTRA:         -12.224
REMARK INTER:                 -10.565
REMARK INTRA:                  -1.659
REMARK UNBOUND:                -2.222
REMARK SMILES CCCCCCCCCCCCCCCC(=O)[O-]
REMARK SMILES IDX 9 1 10 2 11 3 12 4 13 5 14 6 15 7 16 8 17 9 18 10 8 11 7 12
REMARK SMILES IDX 6 13 5 14 4 15 3 16 2 17 1 18
REMARK H PARENT
REMARK Flexibility Score: inf
ROOT
ATOM      1  C   UNL     1      13.263   3.156  17.826  1.00  0.00     0.000 C 
ENDROOT
BRANCH   1   2
ATOM      2  C   UNL     1      13.969   2.395  18.953  1.00  0.00     0.000 C 
BRANCH   2   3
ATOM      3  C   UNL     1      13.690   0.888  18.859  1.00  0.00     0.000 C 
BRANCH   3   4
ATOM      4  C   UNL     1      14.438   0.070  19.928  1.00  0.00     0.000 C 
BRANCH   4   5
ATOM      5  C   UNL     1      15.864   0.559  20.240  1.00  0.00     0.000 C 
BRANCH   5   6
ATOM      6  C   UNL     1      16.905   0.058  19.224  1.00  0.00     0.006 C 
BRANCH   6   7
ATOM      7  C   UNL     1      16.806  -1.455  18.992  1.00  0.00     0.053 C 
BRANCH   7   8
ATOM      8  C   UNL     1      16.673  -1.785  17.536  1.00  0.00     0.041 C 
ATOM      9  O   UNL     1      15.588  -2.236  17.086  1.00  0.00    -0.550 OA
ATOM     10  O   UNL     1      17.759  -1.623  16.684  1.00  0.00    -0.550 OA
ENDBRANCH   7   8
ENDBRANCH   6   7
ENDBRANCH   5   6
ENDBRANCH   4   5
ENDBRANCH   3   4
ENDBRANCH   2   3
ENDBRANCH   1   2
BRANCH   1  11
ATOM     11  C   UNL     1      13.686   2.623  16.451  1.00  0.00     0.000 C 
BRANCH  11  12
ATOM     12  C   UNL     1      15.155   2.967  16.157  1.00  0.00    -0.000 C 
BRANCH  12  13
ATOM     13  C   UNL     1      16.045   1.718  16.044  1.00  0.00    -0.000 C 
BRANCH  13  14
ATOM     14  C   UNL     1      15.507   0.700  15.025  1.00  0.00    -0.000 C 
BRANCH  14  15
ATOM     15  C   UNL     1      16.116   0.887  13.624  1.00  0.00    -0.000 C 
BRANCH  15  16
ATOM     16  C   UNL     1      15.338   1.905  12.773  1.00  0.00    -0.000 C 
BRANCH  16  17
ATOM     17  C   UNL     1      15.923   2.059  11.360  1.00  0.00    -0.003 C 
ATOM     18  C   UNL     1      17.235   1.297  11.175  1.00  0.00     0.004 C 
ENDBRANCH  16  17
ENDBRANCH  15  16
ENDBRANCH  14  15
ENDBRANCH  13  14
ENDBRANCH  12  13
ENDBRANCH  11  12
ENDBRANCH   1  11
TORSDOF 14
ENDMDL
MODEL 9
REMARK VINA RESULT:    -5.491      1.484      2.025
REMARK INTER + INTRA:         -12.206
REMARK INTER:                 -10.878
REMARK INTRA:                  -1.328
REMARK UNBOUND:                -2.222
REMARK SMILES CCCCCCCCCCCCCCCC(=O)[O-]
REMARK SMILES IDX 9 1 10 2 11 3 12 4 13 5 14 6 15 7 16 8 17 9 18 10 8 11 7 12
REMARK SMILES IDX 6 13 5 14 4 15 3 16 2 17 1 18
REMARK H PARENT
REMARK Flexibility Score: inf
ROOT
ATOM      1  C   UNL     1      13.968   1.815  19.169  1.00  0.00     0.000 C 
ENDROOT
BRANCH   1   2
ATOM      2  C   UNL     1      14.758   1.603  20.465  1.00  0.00     0.000 C 
BRANCH   2   3
ATOM      3  C   UNL     1      15.493   0.255  20.447  1.00  0.00     0.000 C 
BRANCH   3   4
ATOM      4  C   UNL     1      16.103  -0.079  19.073  1.00  0.00     0.000 C 
BRANCH   4   5
ATOM      5  C   UNL     1      17.557   0.389  18.877  1.00  0.00     0.000 C 
BRANCH   5   6
ATOM      6  C   UNL     1      17.779   1.109  17.535  1.00  0.00     0.006 C 
BRANCH   6   7
ATOM      7  C   UNL     1      17.503   0.195  16.335  1.00  0.00     0.053 C 
BRANCH   7   8
ATOM      8  C   UNL     1      18.488  -0.933  16.260  1.00  0.00     0.041 C 
ATOM      9  O   UNL     1      19.660  -0.722  15.852  1.00  0.00    -0.550 OA
ATOM     10  O   UNL     1      18.100  -2.221  16.609  1.00  0.00    -0.550 OA
ENDBRANCH   7   8
ENDBRANCH   6   7
ENDBRANCH   5   6
ENDBRANCH   4   5
ENDBRANCH   3   4
ENDBRANCH   2   3
ENDBRANCH   1   2
BRANCH   1  11
ATOM     11  C   UNL     1      13.766   3.309  18.885  1.00  0.00     0.000 C 
BRANCH  11  12
ATOM     12  C   UNL     1      13.207   3.529  17.470  1.00  0.00    -0.000 C 
BRANCH  12  13
ATOM     13  C   UNL     1      13.344   2.284  16.578  1.00  0.00    -0.000 C 
BRANCH  13  14
ATOM     14  C   UNL     1      13.585   2.640  15.102  1.00  0.00    -0.000 C 
BRANCH  14  15
ATOM     15  C   UNL     1      15.075   2.605  14.720  1.00  0.00    -0.000 C 
BRANCH  15  16
ATOM     16  C   UNL     1      15.319   3.008  13.256  1.00  0.00    -0.000 C 
BRANCH  16  17
ATOM     17  C   UNL     1      15.524   1.793  12.338  1.00  0.00    -0.003 C 
ATOM     18  C   UNL     1      16.521   2.062  11.211  1.00  0.00     0.004 C 
ENDBRANCH  16  17
ENDBRANCH  15  16
ENDBRANCH  14  15
ENDBRANCH  13  14
ENDBRANCH  12  13
ENDBRANCH  11  12
ENDBRANCH   1  11
TORSDOF 14
ENDMDL
