MODEL 1
REMARK VINA RESULT:    -6.697      0.000      0.000
REMARK INTER + INTRA:          -8.392
REMARK INTER:                  -8.068
REMARK INTRA:                  -0.325
REMARK UNBOUND:                -0.325
REMARK SMILES O=c1c(O)c(-c2ccc(O)c(O)c2)oc2cc(O)cc(O)c12
REMARK SMILES IDX 5 1 3 2 2 3 1 4 22 5 20 6 19 7 17 8 16 9 15 10 14 11 6 12
REMARK SMILES IDX 7 13 8 14 9 15 13 16 11 17 10 18 12 20 4 22 21 24 18 26
REMARK H PARENT 10 19 12 21 4 23 21 25 18 27
REMARK Flexibility Score: inf
ROOT
ATOM      1  C   UNL     1     -29.784 -12.045 -35.915  1.00  0.00     0.180 A 
ATOM      2  C   UNL     1     -28.422 -11.979 -36.268  1.00  0.00     0.208 A 
ATOM      3  C   UNL     1     -28.037 -12.369 -37.561  1.00  0.00     0.238 A 
ATOM      4  O   UNL     1     -26.819 -12.325 -37.884  1.00  0.00    -0.285 OA
ATOM      5  C   UNL     1     -29.016 -12.798 -38.480  1.00  0.00     0.111 A 
ATOM      6  C   UNL     1     -28.711 -13.204 -39.802  1.00  0.00     0.134 A 
ATOM      7  C   UNL     1     -29.745 -13.608 -40.661  1.00  0.00     0.093 A 
ATOM      8  C   UNL     1     -31.073 -13.614 -40.224  1.00  0.00     0.123 A 
ATOM      9  C   UNL     1     -31.379 -13.215 -38.921  1.00  0.00     0.094 A 
ATOM     10  C   UNL     1     -30.363 -12.810 -38.049  1.00  0.00     0.146 A 
ATOM     11  O   UNL     1     -30.682 -12.441 -36.814  1.00  0.00    -0.452 OA
ENDROOT
BRANCH   1  12
ATOM     12  C   UNL     1     -30.267 -11.669 -34.566  1.00  0.00     0.025 A 
ATOM     13  C   UNL     1     -30.616 -10.345 -34.258  1.00  0.00     0.016 A 
ATOM     14  C   UNL     1     -31.047 -10.011 -32.972  1.00  0.00     0.051 A 
ATOM     15  C   UNL     1     -31.124 -10.983 -31.969  1.00  0.00     0.157 A 
ATOM     16  C   UNL     1     -30.321 -12.642 -33.557  1.00  0.00     0.062 A 
ATOM     17  C   UNL     1     -30.752 -12.317 -32.264  1.00  0.00     0.158 A 
BRANCH  15  18
ATOM     18  O   UNL     1     -31.566 -10.584 -30.706  1.00  0.00    -0.504 OA
ATOM     19  H   UNL     1     -32.223  -9.833 -30.549  1.00  0.00     0.293 HD
ENDBRANCH  15  18
BRANCH  17  20
ATOM     20  O   UNL     1     -30.794 -13.339 -31.313  1.00  0.00    -0.504 OA
ATOM     21  H   UNL     1     -30.639 -13.197 -30.326  1.00  0.00     0.293 HD
ENDBRANCH  17  20
ENDBRANCH   1  12
BRANCH   2  22
ATOM     22  O   UNL     1     -27.479 -11.505 -35.354  1.00  0.00    -0.502 OA
ATOM     23  H   UNL     1     -26.744 -12.092 -34.979  1.00  0.00     0.293 HD
ENDBRANCH   2  22
BRANCH   6  24
ATOM     24  O   UNL     1     -27.395 -13.208 -40.267  1.00  0.00    -0.507 OA
ATOM     25  H   UNL     1     -26.606 -13.257 -39.633  1.00  0.00     0.293 HD
ENDBRANCH   6  24
BRANCH   8  26
ATOM     26  O   UNL     1     -32.099 -14.014 -41.076  1.00  0.00    -0.508 OA
ATOM     27  H   UNL     1     -33.072 -13.949 -40.802  1.00  0.00     0.293 HD
ENDBRANCH   8  26
TORSDOF 6
ENDMDL
MODEL 2
REMARK VINA RESULT:    -6.002      7.615      9.303
REMARK INTER + INTRA:          -7.555
REMARK INTER:                  -7.230
REMARK INTRA:                  -0.325
REMARK UNBOUND:                -0.325
REMARK SMILES O=c1c(O)c(-c2ccc(O)c(O)c2)oc2cc(O)cc(O)c12
REMARK SMILES IDX 5 1 3 2 2 3 1 4 22 5 20 6 19 7 17 8 16 9 15 10 14 11 6 12
REMARK SMILES IDX 7 13 8 14 9 15 13 16 11 17 10 18 12 20 4 22 21 24 18 26
REMARK H PARENT 10 19 12 21 4 23 21 25 18 27
REMARK Flexibility Score: inf
ROOT
ATOM      1  C   UNL     1     -21.804 -11.035 -34.036  1.00  0.00     0.180 A 
ATOM      2  C   UNL     1     -22.796 -11.372 -34.976  1.00  0.00     0.208 A 
ATOM      3  C   UNL     1     -22.429 -11.529 -36.323  1.00  0.00     0.238 A 
ATOM      4  O   UNL     1     -23.311 -11.819 -37.176  1.00  0.00    -0.285 OA
ATOM      5  C   UNL     1     -21.080 -11.366 -36.701  1.00  0.00     0.111 A 
ATOM      6  C   UNL     1     -20.628 -11.511 -38.035  1.00  0.00     0.134 A 
ATOM      7  C   UNL     1     -19.266 -11.343 -38.329  1.00  0.00     0.093 A 
ATOM      8  C   UNL     1     -18.352 -11.035 -37.317  1.00  0.00     0.123 A 
ATOM      9  C   UNL     1     -18.793 -10.890 -36.000  1.00  0.00     0.094 A 
ATOM     10  C   UNL     1     -20.146 -11.052 -35.687  1.00  0.00     0.146 A 
ATOM     11  O   UNL     1     -20.539 -10.904 -34.426  1.00  0.00    -0.452 OA
ENDROOT
BRANCH   1  12
ATOM     12  C   UNL     1     -22.115 -10.833 -32.602  1.00  0.00     0.025 A 
ATOM     13  C   UNL     1     -22.112 -11.905 -31.696  1.00  0.00     0.016 A 
ATOM     14  C   UNL     1     -22.432 -11.694 -30.353  1.00  0.00     0.051 A 
ATOM     15  C   UNL     1     -22.772 -10.418 -29.891  1.00  0.00     0.157 A 
ATOM     16  C   UNL     1     -22.479  -9.557 -32.146  1.00  0.00     0.062 A 
ATOM     17  C   UNL     1     -22.800  -9.335 -30.801  1.00  0.00     0.158 A 
BRANCH  15  18
ATOM     18  O   UNL     1     -23.077 -10.274 -28.536  1.00  0.00    -0.504 OA
ATOM     19  H   UNL     1     -24.016 -10.267 -28.166  1.00  0.00     0.293 HD
ENDBRANCH  15  18
BRANCH  17  20
ATOM     20  O   UNL     1     -23.139  -8.036 -30.417  1.00  0.00    -0.504 OA
ATOM     21  H   UNL     1     -23.762  -7.818 -29.653  1.00  0.00     0.293 HD
ENDBRANCH  17  20
ENDBRANCH   1  12
BRANCH   2  22
ATOM     22  O   UNL     1     -24.117 -11.575 -34.568  1.00  0.00    -0.502 OA
ATOM     23  H   UNL     1     -24.812 -10.838 -34.592  1.00  0.00     0.293 HD
ENDBRANCH   2  22
BRANCH   6  24
ATOM     24  O   UNL     1     -21.517 -11.820 -39.066  1.00  0.00    -0.507 OA
ATOM     25  H   UNL     1     -21.327 -11.562 -40.027  1.00  0.00     0.293 HD
ENDBRANCH   6  24
BRANCH   8  26
ATOM     26  O   UNL     1     -17.000 -10.868 -37.608  1.00  0.00    -0.508 OA
ATOM     27  H   UNL     1     -16.685 -10.202 -38.304  1.00  0.00     0.293 HD
ENDBRANCH   8  26
TORSDOF 6
ENDMDL
MODEL 3
REMARK VINA RESULT:    -5.931      9.353     13.447
REMARK INTER + INTRA:          -7.470
REMARK INTER:                  -7.145
REMARK INTRA:                  -0.325
REMARK UNBOUND:                -0.325
REMARK SMILES O=c1c(O)c(-c2ccc(O)c(O)c2)oc2cc(O)cc(O)c12
REMARK SMILES IDX 5 1 3 2 2 3 1 4 22 5 20 6 19 7 17 8 16 9 15 10 14 11 6 12
REMARK SMILES IDX 7 13 8 14 9 15 13 16 11 17 10 18 12 20 4 22 21 24 18 26
REMARK H PARENT 10 19 12 21 4 23 21 25 18 27
REMARK Flexibility Score: inf
ROOT
ATOM      1  C   UNL     1     -23.585  -9.342 -27.877  1.00  0.00     0.180 A 
ATOM      2  C   UNL     1     -24.951  -9.356 -27.538  1.00  0.00     0.208 A 
ATOM      3  C   UNL     1     -25.320  -9.160 -26.197  1.00  0.00     0.238 A 
ATOM      4  O   UNL     1     -26.540  -9.182 -25.880  1.00  0.00    -0.285 OA
ATOM      5  C   UNL     1     -24.323  -8.937 -25.226  1.00  0.00     0.111 A 
ATOM      6  C   UNL     1     -24.611  -8.727 -23.855  1.00  0.00     0.134 A 
ATOM      7  C   UNL     1     -23.562  -8.500 -22.951  1.00  0.00     0.093 A 
ATOM      8  C   UNL     1     -22.234  -8.479 -23.391  1.00  0.00     0.123 A 
ATOM      9  C   UNL     1     -21.945  -8.686 -24.742  1.00  0.00     0.094 A 
ATOM     10  C   UNL     1     -22.976  -8.915 -25.658  1.00  0.00     0.146 A 
ATOM     11  O   UNL     1     -22.672  -9.113 -26.936  1.00  0.00    -0.452 OA
ENDROOT
BRANCH   1  12
ATOM     12  C   UNL     1     -23.115  -9.560 -29.265  1.00  0.00     0.025 A 
ATOM     13  C   UNL     1     -22.955  -8.489 -30.158  1.00  0.00     0.016 A 
ATOM     14  C   UNL     1     -22.534  -8.721 -31.469  1.00  0.00     0.051 A 
ATOM     15  C   UNL     1     -22.278 -10.022 -31.917  1.00  0.00     0.157 A 
ATOM     16  C   UNL     1     -22.881 -10.867 -29.718  1.00  0.00     0.062 A 
ATOM     17  C   UNL     1     -22.458 -11.110 -31.031  1.00  0.00     0.158 A 
BRANCH  15  18
ATOM     18  O   UNL     1     -21.855 -10.185 -33.238  1.00  0.00    -0.504 OA
ATOM     19  H   UNL     1     -21.574  -9.424 -33.840  1.00  0.00     0.293 HD
ENDBRANCH  15  18
BRANCH  17  20
ATOM     20  O   UNL     1     -22.231 -12.435 -31.408  1.00  0.00    -0.504 OA
ATOM     21  H   UNL     1     -21.862 -12.711 -32.307  1.00  0.00     0.293 HD
ENDBRANCH  17  20
ENDBRANCH   1  12
BRANCH   2  22
ATOM     22  O   UNL     1     -25.922  -9.531 -28.527  1.00  0.00    -0.502 OA
ATOM     23  H   UNL     1     -26.273 -10.445 -28.787  1.00  0.00     0.293 HD
ENDBRANCH   2  22
BRANCH   6  24
ATOM     24  O   UNL     1     -25.925  -8.742 -23.387  1.00  0.00    -0.507 OA
ATOM     25  H   UNL     1     -26.138  -8.733 -22.396  1.00  0.00     0.293 HD
ENDBRANCH   6  24
BRANCH   8  26
ATOM     26  O   UNL     1     -21.193  -8.254 -22.495  1.00  0.00    -0.508 OA
ATOM     27  H   UNL     1     -20.231  -8.180 -22.806  1.00  0.00     0.293 HD
ENDBRANCH   8  26
TORSDOF 6
ENDMDL
MODEL 4
REMARK VINA RESULT:    -5.052      7.535      9.108
REMARK INTER + INTRA:          -6.410
REMARK INTER:                  -6.115
REMARK INTRA:                  -0.296
REMARK UNBOUND:                -0.325
REMARK SMILES O=c1c(O)c(-c2ccc(O)c(O)c2)oc2cc(O)cc(O)c12
REMARK SMILES IDX 5 1 3 2 2 3 1 4 22 5 20 6 19 7 17 8 16 9 15 10 14 11 6 12
REMARK SMILES IDX 7 13 8 14 9 15 13 16 11 17 10 18 12 20 4 22 21 24 18 26
REMARK H PARENT 10 19 12 21 4 23 21 25 18 27
REMARK Flexibility Score: inf
ROOT
ATOM      1  C   UNL     1     -22.000 -10.654 -33.916  1.00  0.00     0.180 A 
ATOM      2  C   UNL     1     -22.996 -11.140 -34.783  1.00  0.00     0.208 A 
ATOM      3  C   UNL     1     -22.645 -11.473 -36.101  1.00  0.00     0.238 A 
ATOM      4  O   UNL     1     -23.532 -11.899 -36.890  1.00  0.00    -0.285 OA
ATOM      5  C   UNL     1     -21.307 -11.333 -36.522  1.00  0.00     0.111 A 
ATOM      6  C   UNL     1     -20.870 -11.650 -37.832  1.00  0.00     0.134 A 
ATOM      7  C   UNL     1     -19.518 -11.492 -38.171  1.00  0.00     0.093 A 
ATOM      8  C   UNL     1     -18.596 -11.026 -37.227  1.00  0.00     0.123 A 
ATOM      9  C   UNL     1     -19.022 -10.712 -35.935  1.00  0.00     0.094 A 
ATOM     10  C   UNL     1     -20.366 -10.860 -35.578  1.00  0.00     0.146 A 
ATOM     11  O   UNL     1     -20.744 -10.549 -34.343  1.00  0.00    -0.452 OA
ENDROOT
BRANCH   1  12
ATOM     12  C   UNL     1     -22.294 -10.264 -32.518  1.00  0.00     0.025 A 
ATOM     13  C   UNL     1     -22.431  -8.916 -32.148  1.00  0.00     0.016 A 
ATOM     14  C   UNL     1     -22.686  -8.572 -30.819  1.00  0.00     0.051 A 
ATOM     15  C   UNL     1     -22.796  -9.559 -29.833  1.00  0.00     0.157 A 
ATOM     16  C   UNL     1     -22.381 -11.254 -31.528  1.00  0.00     0.062 A 
ATOM     17  C   UNL     1     -22.637 -10.920 -30.192  1.00  0.00     0.158 A 
BRANCH  15  18
ATOM     18  O   UNL     1     -23.056  -9.149 -28.525  1.00  0.00    -0.504 OA
ATOM     19  H   UNL     1     -22.541  -8.423 -28.047  1.00  0.00     0.293 HD
ENDBRANCH  15  18
BRANCH  17  20
ATOM     20  O   UNL     1     -22.723 -11.959 -29.264  1.00  0.00    -0.504 OA
ATOM     21  H   UNL     1     -22.724 -12.938 -29.512  1.00  0.00     0.293 HD
ENDBRANCH  17  20
ENDBRANCH   1  12
BRANCH   2  22
ATOM     22  O   UNL     1     -24.305 -11.315 -34.327  1.00  0.00    -0.502 OA
ATOM     23  H   UNL     1     -24.515 -11.733 -33.428  1.00  0.00     0.293 HD
ENDBRANCH   2  22
BRANCH   6  24
ATOM     24  O   UNL     1     -21.766 -12.118 -38.794  1.00  0.00    -0.507 OA
ATOM     25  H   UNL     1     -21.922 -11.621 -39.664  1.00  0.00     0.293 HD
ENDBRANCH   6  24
BRANCH   8  26
ATOM     26  O   UNL     1     -17.254 -10.870 -37.563  1.00  0.00    -0.508 OA
ATOM     27  H   UNL     1     -16.520 -11.342 -37.047  1.00  0.00     0.293 HD
ENDBRANCH   8  26
TORSDOF 6
ENDMDL
MODEL 5
REMARK VINA RESULT:    -4.754      4.323     10.082
REMARK INTER + INTRA:          -6.051
REMARK INTER:                  -5.737
REMARK INTRA:                  -0.314
REMARK UNBOUND:                -0.325
REMARK SMILES O=c1c(O)c(-c2ccc(O)c(O)c2)oc2cc(O)cc(O)c12
REMARK SMILES IDX 5 1 3 2 2 3 1 4 22 5 20 6 19 7 17 8 16 9 15 10 14 11 6 12
REMARK SMILES IDX 7 13 8 14 9 15 13 16 11 17 10 18 12 20 4 22 21 24 18 26
REMARK H PARENT 10 19 12 21 4 23 21 25 18 27
REMARK Flexibility Score: inf
ROOT
ATOM      1  C   UNL     1     -31.899 -11.192 -29.531  1.00  0.00     0.180 A 
ATOM      2  C   UNL     1     -31.033 -11.068 -28.428  1.00  0.00     0.208 A 
ATOM      3  C   UNL     1     -31.570 -10.701 -27.183  1.00  0.00     0.238 A 
ATOM      4  O   UNL     1     -30.802 -10.576 -26.190  1.00  0.00    -0.285 OA
ATOM      5  C   UNL     1     -32.957 -10.483 -27.058  1.00  0.00     0.111 A 
ATOM      6  C   UNL     1     -33.576 -10.114 -25.839  1.00  0.00     0.134 A 
ATOM      7  C   UNL     1     -34.966  -9.925 -25.795  1.00  0.00     0.093 A 
ATOM      8  C   UNL     1     -35.746 -10.098 -26.943  1.00  0.00     0.123 A 
ATOM      9  C   UNL     1     -35.139 -10.462 -28.147  1.00  0.00     0.094 A 
ATOM     10  C   UNL     1     -33.756 -10.653 -28.213  1.00  0.00     0.146 A 
ATOM     11  O   UNL     1     -33.205 -10.993 -29.373  1.00  0.00    -0.452 OA
ENDROOT
BRANCH   1  12
ATOM     12  C   UNL     1     -31.408 -11.557 -30.880  1.00  0.00     0.025 A 
ATOM     13  C   UNL     1     -31.205 -12.897 -31.246  1.00  0.00     0.016 A 
ATOM     14  C   UNL     1     -30.719 -13.215 -32.516  1.00  0.00     0.051 A 
ATOM     15  C   UNL     1     -30.414 -12.208 -33.437  1.00  0.00     0.157 A 
ATOM     16  C   UNL     1     -31.082 -10.544 -31.794  1.00  0.00     0.062 A 
ATOM     17  C   UNL     1     -30.594 -10.853 -33.070  1.00  0.00     0.158 A 
BRANCH  15  18
ATOM     18  O   UNL     1     -29.936 -12.593 -34.691  1.00  0.00    -0.504 OA
ATOM     19  H   UNL     1     -30.352 -12.308 -35.566  1.00  0.00     0.293 HD
ENDBRANCH  15  18
BRANCH  17  20
ATOM     20  O   UNL     1     -30.303  -9.793 -33.932  1.00  0.00    -0.504 OA
ATOM     21  H   UNL     1     -30.997  -9.303 -34.477  1.00  0.00     0.293 HD
ENDBRANCH  17  20
ENDBRANCH   1  12
BRANCH   2  22
ATOM     22  O   UNL     1     -29.670 -11.337 -28.567  1.00  0.00    -0.502 OA
ATOM     23  H   UNL     1     -29.261 -11.627 -29.447  1.00  0.00     0.293 HD
ENDBRANCH   2  22
BRANCH   6  24
ATOM     24  O   UNL     1     -32.825  -9.935 -24.677  1.00  0.00    -0.507 OA
ATOM     25  H   UNL     1     -31.812  -9.895 -24.698  1.00  0.00     0.293 HD
ENDBRANCH   6  24
BRANCH   8  26
ATOM     26  O   UNL     1     -37.125  -9.912 -26.899  1.00  0.00    -0.508 OA
ATOM     27  H   UNL     1     -37.723 -10.192 -27.668  1.00  0.00     0.293 HD
ENDBRANCH   8  26
TORSDOF 6
ENDMDL
MODEL 6
REMARK VINA RESULT:    -4.414     10.091     14.214
REMARK INTER + INTRA:          -5.642
REMARK INTER:                  -5.326
REMARK INTRA:                  -0.317
REMARK UNBOUND:                -0.325
REMARK SMILES O=c1c(O)c(-c2ccc(O)c(O)c2)oc2cc(O)cc(O)c12
REMARK SMILES IDX 5 1 3 2 2 3 1 4 22 5 20 6 19 7 17 8 16 9 15 10 14 11 6 12
REMARK SMILES IDX 7 13 8 14 9 15 13 16 11 17 10 18 12 20 4 22 21 24 18 26
REMARK H PARENT 10 19 12 21 4 23 21 25 18 27
REMARK Flexibility Score: inf
ROOT
ATOM      1  C   UNL     1     -23.398  -9.316 -27.035  1.00  0.00     0.180 A 
ATOM      2  C   UNL     1     -24.658  -8.947 -26.526  1.00  0.00     0.208 A 
ATOM      3  C   UNL     1     -24.775  -8.641 -25.160  1.00  0.00     0.238 A 
ATOM      4  O   UNL     1     -25.900  -8.320 -24.691  1.00  0.00    -0.285 OA
ATOM      5  C   UNL     1     -23.633  -8.690 -24.335  1.00  0.00     0.111 A 
ATOM      6  C   UNL     1     -23.664  -8.392 -22.951  1.00  0.00     0.134 A 
ATOM      7  C   UNL     1     -22.482  -8.454 -22.199  1.00  0.00     0.093 A 
ATOM      8  C   UNL     1     -21.271  -8.806 -22.804  1.00  0.00     0.123 A 
ATOM      9  C   UNL     1     -21.234  -9.101 -24.169  1.00  0.00     0.094 A 
ATOM     10  C   UNL     1     -22.402  -9.047 -24.934  1.00  0.00     0.146 A 
ATOM     11  O   UNL     1     -22.340  -9.337 -26.229  1.00  0.00    -0.452 OA
ENDROOT
BRANCH   1  12
ATOM     12  C   UNL     1     -23.198  -9.672 -28.459  1.00  0.00     0.025 A 
ATOM     13  C   UNL     1     -23.195 -11.009 -28.885  1.00  0.00     0.016 A 
ATOM     14  C   UNL     1     -22.980 -11.320 -30.229  1.00  0.00     0.051 A 
ATOM     15  C   UNL     1     -22.752 -10.310 -31.169  1.00  0.00     0.157 A 
ATOM     16  C   UNL     1     -22.947  -8.657 -29.395  1.00  0.00     0.062 A 
ATOM     17  C   UNL     1     -22.731  -8.959 -30.746  1.00  0.00     0.158 A 
BRANCH  15  18
ATOM     18  O   UNL     1     -22.549 -10.688 -32.498  1.00  0.00    -0.504 OA
ATOM     19  H   UNL     1     -22.481 -11.646 -32.808  1.00  0.00     0.293 HD
ENDBRANCH  15  18
BRANCH  17  20
ATOM     20  O   UNL     1     -22.501  -7.898 -31.623  1.00  0.00    -0.504 OA
ATOM     21  H   UNL     1     -21.775  -7.893 -32.324  1.00  0.00     0.293 HD
ENDBRANCH  17  20
ENDBRANCH   1  12
BRANCH   2  22
ATOM     22  O   UNL     1     -25.764  -8.860 -27.374  1.00  0.00    -0.502 OA
ATOM     23  H   UNL     1     -25.673  -8.692 -28.369  1.00  0.00     0.293 HD
ENDBRANCH   2  22
BRANCH   6  24
ATOM     24  O   UNL     1     -24.858  -8.037 -22.320  1.00  0.00    -0.507 OA
ATOM     25  H   UNL     1     -25.312  -7.150 -22.501  1.00  0.00     0.293 HD
ENDBRANCH   6  24
BRANCH   8  26
ATOM     26  O   UNL     1     -20.096  -8.866 -22.058  1.00  0.00    -0.508 OA
ATOM     27  H   UNL     1     -19.756  -8.065 -21.539  1.00  0.00     0.293 HD
ENDBRANCH   8  26
TORSDOF 6
ENDMDL
MODEL 7
REMARK VINA RESULT:    -4.224      3.404      9.045
REMARK INTER + INTRA:          -5.413
REMARK INTER:                  -5.104
REMARK INTRA:                  -0.309
REMARK UNBOUND:                -0.325
REMARK SMILES O=c1c(O)c(-c2ccc(O)c(O)c2)oc2cc(O)cc(O)c12
REMARK SMILES IDX 5 1 3 2 2 3 1 4 22 5 20 6 19 7 17 8 16 9 15 10 14 11 6 12
REMARK SMILES IDX 7 13 8 14 9 15 13 16 11 17 10 18 12 20 4 22 21 24 18 26
REMARK H PARENT 10 19 12 21 4 23 21 25 18 27
REMARK Flexibility Score: inf
ROOT
ATOM      1  C   UNL     1     -31.125 -11.178 -30.752  1.00  0.00     0.180 A 
ATOM      2  C   UNL     1     -30.094 -11.064 -29.800  1.00  0.00     0.208 A 
ATOM      3  C   UNL     1     -30.435 -10.936 -28.444  1.00  0.00     0.238 A 
ATOM      4  O   UNL     1     -29.521 -10.821 -27.583  1.00  0.00    -0.285 OA
ATOM      5  C   UNL     1     -31.792 -10.943 -28.063  1.00  0.00     0.111 A 
ATOM      6  C   UNL     1     -32.219 -10.823 -26.718  1.00  0.00     0.134 A 
ATOM      7  C   UNL     1     -33.590 -10.850 -26.418  1.00  0.00     0.093 A 
ATOM      8  C   UNL     1     -34.539 -10.995 -27.436  1.00  0.00     0.123 A 
ATOM      9  C   UNL     1     -34.122 -11.113 -28.764  1.00  0.00     0.094 A 
ATOM     10  C   UNL     1     -32.762 -11.087 -29.083  1.00  0.00     0.146 A 
ATOM     11  O   UNL     1     -32.394 -11.197 -30.355  1.00  0.00    -0.452 OA
ENDROOT
BRANCH   1  12
ATOM     12  C   UNL     1     -30.847 -11.298 -32.202  1.00  0.00     0.025 A 
ATOM     13  C   UNL     1     -30.923 -10.186 -33.055  1.00  0.00     0.016 A 
ATOM     14  C   UNL     1     -30.680 -10.329 -34.423  1.00  0.00     0.051 A 
ATOM     15  C   UNL     1     -30.370 -11.580 -34.967  1.00  0.00     0.157 A 
ATOM     16  C   UNL     1     -30.558 -12.558 -32.748  1.00  0.00     0.062 A 
ATOM     17  C   UNL     1     -30.312 -12.712 -34.119  1.00  0.00     0.158 A 
BRANCH  15  18
ATOM     18  O   UNL     1     -30.133 -11.654 -36.341  1.00  0.00    -0.504 OA
ATOM     19  H   UNL     1     -29.751 -10.897 -36.890  1.00  0.00     0.293 HD
ENDBRANCH  15  18
BRANCH  17  20
ATOM     20  O   UNL     1     -30.018 -13.992 -34.590  1.00  0.00    -0.504 OA
ATOM     21  H   UNL     1     -29.778 -14.771 -33.994  1.00  0.00     0.293 HD
ENDBRANCH  17  20
ENDBRANCH   1  12
BRANCH   2  22
ATOM     22  O   UNL     1     -28.756 -11.108 -30.199  1.00  0.00    -0.502 OA
ATOM     23  H   UNL     1     -28.170 -10.282 -30.226  1.00  0.00     0.293 HD
ENDBRANCH   2  22
BRANCH   6  24
ATOM     24  O   UNL     1     -31.296 -10.679 -25.681  1.00  0.00    -0.507 OA
ATOM     25  H   UNL     1     -31.346  -9.906 -25.027  1.00  0.00     0.293 HD
ENDBRANCH   6  24
BRANCH   8  26
ATOM     26  O   UNL     1     -35.899 -11.022 -27.139  1.00  0.00    -0.508 OA
ATOM     27  H   UNL     1     -36.602 -10.955 -27.866  1.00  0.00     0.293 HD
ENDBRANCH   8  26
TORSDOF 6
ENDMDL
