MODEL 1
REMARK VINA RESULT:    -4.255      0.000      0.000
REMARK INTER + INTRA:          -9.555
REMARK INTER:                  -7.738
REMARK INTRA:                  -1.817
REMARK UNBOUND:                -1.817
REMARK SMILES CCCCCCCCCCCCCCCC(=O)[O-]
REMARK SMILES IDX 9 1 10 2 11 3 12 4 13 5 14 6 15 7 16 8 17 9 18 10 8 11 7 12
REMARK SMILES IDX 6 13 5 14 4 15 3 16 2 17 1 18
REMARK H PARENT
REMARK Flexibility Score: inf
ROOT
ATOM      1  C   UNL     1      -2.873  57.648  48.807  1.00  0.00     0.000 C 
ENDROOT
BRANCH   1   2
ATOM      2  C   UNL     1      -2.250  59.051  48.872  1.00  0.00     0.000 C 
BRANCH   2   3
ATOM      3  C   UNL     1      -3.338  60.135  48.837  1.00  0.00     0.000 C 
BRANCH   3   4
ATOM      4  C   UNL     1      -3.825  60.454  47.411  1.00  0.00     0.000 C 
BRANCH   4   5
ATOM      5  C   UNL     1      -3.746  61.939  47.013  1.00  0.00     0.000 C 
BRANCH   5   6
ATOM      6  C   UNL     1      -4.125  62.184  45.543  1.00  0.00     0.006 C 
BRANCH   6   7
ATOM      7  C   UNL     1      -2.984  61.823  44.582  1.00  0.00     0.053 C 
BRANCH   7   8
ATOM      8  C   UNL     1      -2.152  63.017  44.230  1.00  0.00     0.041 C 
ATOM      9  O   UNL     1      -2.699  64.133  44.024  1.00  0.00    -0.550 OA
ATOM     10  O   UNL     1      -0.774  62.893  44.099  1.00  0.00    -0.550 OA
ENDBRANCH   7   8
ENDBRANCH   6   7
ENDBRANCH   5   6
ENDBRANCH   4   5
ENDBRANCH   3   4
ENDBRANCH   2   3
ENDBRANCH   1   2
BRANCH   1  11
ATOM     11  C   UNL     1      -1.963  56.625  48.107  1.00  0.00     0.000 C 
BRANCH  11  12
ATOM     12  C   UNL     1      -2.569  56.097  46.795  1.00  0.00    -0.000 C 
BRANCH  12  13
ATOM     13  C   UNL     1      -3.740  56.960  46.299  1.00  0.00    -0.000 C 
BRANCH  13  14
ATOM     14  C   UNL     1      -3.348  57.871  45.121  1.00  0.00    -0.000 C 
BRANCH  14  15
ATOM     15  C   UNL     1      -1.856  57.767  44.762  1.00  0.00    -0.000 C 
BRANCH  15  16
ATOM     16  C   UNL     1      -1.052  58.994  45.223  1.00  0.00    -0.000 C 
BRANCH  16  17
ATOM     17  C   UNL     1       0.220  59.212  44.388  1.00  0.00    -0.003 C 
ATOM     18  C   UNL     1       0.496  58.065  43.416  1.00  0.00     0.004 C 
ENDBRANCH  16  17
ENDBRANCH  15  16
ENDBRANCH  14  15
ENDBRANCH  13  14
ENDBRANCH  12  13
ENDBRANCH  11  12
ENDBRANCH   1  11
TORSDOF 14
ENDMDL
MODEL 2
REMARK VINA RESULT:    -4.141      1.447      1.977
REMARK INTER + INTRA:          -9.346
REMARK INTER:                  -7.580
REMARK INTRA:                  -1.767
REMARK UNBOUND:                -1.817
REMARK SMILES CCCCCCCCCCCCCCCC(=O)[O-]
REMARK SMILES IDX 9 1 10 2 11 3 12 4 13 5 14 6 15 7 16 8 17 9 18 10 8 11 7 12
REMARK SMILES IDX 6 13 5 14 4 15 3 16 2 17 1 18
REMARK H PARENT
REMARK Flexibility Score: inf
ROOT
ATOM      1  C   UNL     1      -2.377  59.108  48.493  1.00  0.00     0.000 C 
ENDROOT
BRANCH   1   2
ATOM      2  C   UNL     1      -3.672  59.935  48.495  1.00  0.00     0.000 C 
BRANCH   2   3
ATOM      3  C   UNL     1      -3.985  60.467  47.089  1.00  0.00     0.000 C 
BRANCH   3   4
ATOM      4  C   UNL     1      -3.742  61.982  46.950  1.00  0.00     0.000 C 
BRANCH   4   5
ATOM      5  C   UNL     1      -2.905  62.398  45.727  1.00  0.00     0.000 C 
BRANCH   5   6
ATOM      6  C   UNL     1      -1.876  61.332  45.315  1.00  0.00     0.006 C 
BRANCH   6   7
ATOM      7  C   UNL     1      -0.694  61.936  44.544  1.00  0.00     0.053 C 
BRANCH   7   8
ATOM      8  C   UNL     1       0.431  62.317  45.458  1.00  0.00     0.041 C 
ATOM      9  O   UNL     1       0.605  63.521  45.781  1.00  0.00    -0.550 OA
ATOM     10  O   UNL     1       1.305  61.346  45.930  1.00  0.00    -0.550 OA
ENDBRANCH   7   8
ENDBRANCH   6   7
ENDBRANCH   5   6
ENDBRANCH   4   5
ENDBRANCH   3   4
ENDBRANCH   2   3
ENDBRANCH   1   2
BRANCH   1  11
ATOM     11  C   UNL     1      -2.632  57.604  48.678  1.00  0.00     0.000 C 
BRANCH  11  12
ATOM     12  C   UNL     1      -2.283  56.787  47.422  1.00  0.00    -0.000 C 
BRANCH  12  13
ATOM     13  C   UNL     1      -3.285  57.012  46.278  1.00  0.00    -0.000 C 
BRANCH  13  14
ATOM     14  C   UNL     1      -2.651  57.714  45.064  1.00  0.00    -0.000 C 
BRANCH  14  15
ATOM     15  C   UNL     1      -1.117  57.786  45.155  1.00  0.00    -0.000 C 
BRANCH  15  16
ATOM     16  C   UNL     1      -0.445  57.803  43.771  1.00  0.00    -0.000 C 
BRANCH  16  17
ATOM     17  C   UNL     1       0.936  58.475  43.796  1.00  0.00    -0.003 C 
ATOM     18  C   UNL     1       2.028  57.614  43.161  1.00  0.00     0.004 C 
ENDBRANCH  16  17
ENDBRANCH  15  16
ENDBRANCH  14  15
ENDBRANCH  13  14
ENDBRANCH  12  13
ENDBRANCH  11  12
ENDBRANCH   1  11
TORSDOF 14
ENDMDL
MODEL 3
REMARK VINA RESULT:    -4.118      1.404      4.281
REMARK INTER + INTRA:          -9.306
REMARK INTER:                  -7.690
REMARK INTRA:                  -1.616
REMARK UNBOUND:                -1.817
REMARK SMILES CCCCCCCCCCCCCCCC(=O)[O-]
REMARK SMILES IDX 9 1 10 2 11 3 12 4 13 5 14 6 15 7 16 8 17 9 18 10 8 11 7 12
REMARK SMILES IDX 6 13 5 14 4 15 3 16 2 17 1 18
REMARK H PARENT
REMARK Flexibility Score: inf
ROOT
ATOM      1  C   UNL     1      -1.672  56.860  46.892  1.00  0.00     0.000 C 
ENDROOT
BRANCH   1   2
ATOM      2  C   UNL     1      -2.701  57.176  45.797  1.00  0.00     0.000 C 
BRANCH   2   3
ATOM      3  C   UNL     1      -2.031  57.856  44.594  1.00  0.00     0.000 C 
BRANCH   3   4
ATOM      4  C   UNL     1      -0.574  58.270  44.871  1.00  0.00     0.000 C 
BRANCH   4   5
ATOM      5  C   UNL     1       0.390  58.100  43.683  1.00  0.00     0.000 C 
BRANCH   5   6
ATOM      6  C   UNL     1       1.479  59.184  43.635  1.00  0.00     0.006 C 
BRANCH   6   7
ATOM      7  C   UNL     1       0.898  60.577  43.359  1.00  0.00     0.053 C 
BRANCH   7   8
ATOM      8  C   UNL     1       1.232  61.547  44.450  1.00  0.00     0.041 C 
ATOM      9  O   UNL     1       1.400  62.767  44.185  1.00  0.00    -0.550 OA
ATOM     10  O   UNL     1       1.386  61.100  45.757  1.00  0.00    -0.550 OA
ENDBRANCH   7   8
ENDBRANCH   6   7
ENDBRANCH   5   6
ENDBRANCH   4   5
ENDBRANCH   3   4
ENDBRANCH   2   3
ENDBRANCH   1   2
BRANCH   1  11
ATOM     11  C   UNL     1      -2.310  56.247  48.150  1.00  0.00     0.000 C 
BRANCH  11  12
ATOM     12  C   UNL     1      -2.514  57.281  49.271  1.00  0.00    -0.000 C 
BRANCH  12  13
ATOM     13  C   UNL     1      -2.189  58.713  48.818  1.00  0.00    -0.000 C 
BRANCH  13  14
ATOM     14  C   UNL     1      -3.419  59.639  48.850  1.00  0.00    -0.000 C 
BRANCH  14  15
ATOM     15  C   UNL     1      -3.965  59.948  47.446  1.00  0.00    -0.000 C 
BRANCH  15  16
ATOM     16  C   UNL     1      -3.766  61.420  47.048  1.00  0.00    -0.000 C 
BRANCH  16  17
ATOM     17  C   UNL     1      -3.846  61.635  45.528  1.00  0.00    -0.003 C 
ATOM     18  C   UNL     1      -2.485  61.528  44.841  1.00  0.00     0.004 C 
ENDBRANCH  16  17
ENDBRANCH  15  16
ENDBRANCH  14  15
ENDBRANCH  13  14
ENDBRANCH  12  13
ENDBRANCH  11  12
ENDBRANCH   1  11
TORSDOF 14
ENDMDL
MODEL 4
REMARK VINA RESULT:    -4.109      2.865      5.422
REMARK INTER + INTRA:          -9.289
REMARK INTER:                  -7.143
REMARK INTRA:                  -2.146
REMARK UNBOUND:                -1.817
REMARK SMILES CCCCCCCCCCCCCCCC(=O)[O-]
REMARK SMILES IDX 9 1 10 2 11 3 12 4 13 5 14 6 15 7 16 8 17 9 18 10 8 11 7 12
REMARK SMILES IDX 6 13 5 14 4 15 3 16 2 17 1 18
REMARK H PARENT
REMARK Flexibility Score: inf
ROOT
ATOM      1  C   UNL     1      -1.644  59.665  45.535  1.00  0.00     0.000 C 
ENDROOT
BRANCH   1   2
ATOM      2  C   UNL     1      -3.044  59.185  45.122  1.00  0.00     0.000 C 
BRANCH   2   3
ATOM      3  C   UNL     1      -4.113  59.718  46.087  1.00  0.00     0.000 C 
BRANCH   3   4
ATOM      4  C   UNL     1      -3.514  60.418  47.322  1.00  0.00     0.000 C 
BRANCH   4   5
ATOM      5  C   UNL     1      -3.567  59.600  48.625  1.00  0.00     0.000 C 
BRANCH   5   6
ATOM      6  C   UNL     1      -2.260  58.840  48.908  1.00  0.00     0.006 C 
BRANCH   6   7
ATOM      7  C   UNL     1      -2.485  57.326  49.027  1.00  0.00     0.053 C 
BRANCH   7   8
ATOM      8  C   UNL     1      -2.402  56.643  47.696  1.00  0.00     0.041 C 
ATOM      9  O   UNL     1      -3.453  56.346  47.070  1.00  0.00    -0.550 OA
ATOM     10  O   UNL     1      -1.164  56.309  47.161  1.00  0.00    -0.550 OA
ENDBRANCH   7   8
ENDBRANCH   6   7
ENDBRANCH   5   6
ENDBRANCH   4   5
ENDBRANCH   3   4
ENDBRANCH   2   3
ENDBRANCH   1   2
BRANCH   1  11
ATOM     11  C   UNL     1      -0.523  59.000  44.719  1.00  0.00     0.000 C 
BRANCH  11  12
ATOM     12  C   UNL     1       0.572  59.996  44.300  1.00  0.00    -0.000 C 
BRANCH  12  13
ATOM     13  C   UNL     1       1.078  60.845  45.477  1.00  0.00    -0.000 C 
BRANCH  13  14
ATOM     14  C   UNL     1       0.990  62.356  45.201  1.00  0.00    -0.000 C 
BRANCH  14  15
ATOM     15  C   UNL     1      -0.090  62.708  44.163  1.00  0.00    -0.000 C 
BRANCH  15  16
ATOM     16  C   UNL     1      -1.042  63.811  44.655  1.00  0.00    -0.000 C 
BRANCH  16  17
ATOM     17  C   UNL     1      -2.403  63.256  45.105  1.00  0.00    -0.003 C 
ATOM     18  C   UNL     1      -3.233  62.707  43.945  1.00  0.00     0.004 C 
ENDBRANCH  16  17
ENDBRANCH  15  16
ENDBRANCH  14  15
ENDBRANCH  13  14
ENDBRANCH  12  13
ENDBRANCH  11  12
ENDBRANCH   1  11
TORSDOF 14
ENDMDL
MODEL 5
REMARK VINA RESULT:    -4.098      2.219      4.478
REMARK INTER + INTRA:          -9.268
REMARK INTER:                  -7.531
REMARK INTRA:                  -1.737
REMARK UNBOUND:                -1.817
REMARK SMILES CCCCCCCCCCCCCCCC(=O)[O-]
REMARK SMILES IDX 9 1 10 2 11 3 12 4 13 5 14 6 15 7 16 8 17 9 18 10 8 11 7 12
REMARK SMILES IDX 6 13 5 14 4 15 3 16 2 17 1 18
REMARK H PARENT
REMARK Flexibility Score: inf
ROOT
ATOM      1  C   UNL     1      -2.236  58.811  48.868  1.00  0.00     0.000 C 
ENDROOT
BRANCH   1   2
ATOM      2  C   UNL     1      -2.548  57.323  49.098  1.00  0.00     0.000 C 
BRANCH   2   3
ATOM      3  C   UNL     1      -2.752  56.594  47.762  1.00  0.00     0.000 C 
BRANCH   3   4
ATOM      4  C   UNL     1      -1.519  56.665  46.842  1.00  0.00     0.000 C 
BRANCH   4   5
ATOM      5  C   UNL     1      -1.731  57.436  45.527  1.00  0.00     0.000 C 
BRANCH   5   6
ATOM      6  C   UNL     1      -0.458  58.148  45.039  1.00  0.00     0.006 C 
BRANCH   6   7
ATOM      7  C   UNL     1      -0.137  57.820  43.574  1.00  0.00     0.053 C 
BRANCH   7   8
ATOM      8  C   UNL     1       1.286  58.140  43.231  1.00  0.00     0.041 C 
ATOM      9  O   UNL     1       1.614  59.316  42.922  1.00  0.00    -0.550 OA
ATOM     10  O   UNL     1       2.244  57.134  43.223  1.00  0.00    -0.550 OA
ENDBRANCH   7   8
ENDBRANCH   6   7
ENDBRANCH   5   6
ENDBRANCH   4   5
ENDBRANCH   3   4
ENDBRANCH   2   3
ENDBRANCH   1   2
BRANCH   1  11
ATOM     11  C   UNL     1      -3.502  59.661  48.671  1.00  0.00     0.000 C 
BRANCH  11  12
ATOM     12  C   UNL     1      -3.781  59.968  47.190  1.00  0.00    -0.000 C 
BRANCH  12  13
ATOM     13  C   UNL     1      -3.887  61.476  46.912  1.00  0.00    -0.000 C 
BRANCH  13  14
ATOM     14  C   UNL     1      -2.633  62.042  46.221  1.00  0.00    -0.000 C 
BRANCH  14  15
ATOM     15  C   UNL     1      -2.414  61.455  44.817  1.00  0.00    -0.000 C 
BRANCH  15  16
ATOM     16  C   UNL     1      -0.973  61.649  44.315  1.00  0.00    -0.000 C 
BRANCH  16  17
ATOM     17  C   UNL     1      -0.061  62.284  45.377  1.00  0.00    -0.003 C 
ATOM     18  C   UNL     1       1.158  61.423  45.705  1.00  0.00     0.004 C 
ENDBRANCH  16  17
ENDBRANCH  15  16
ENDBRANCH  14  15
ENDBRANCH  13  14
ENDBRANCH  12  13
ENDBRANCH  11  12
ENDBRANCH   1  11
TORSDOF 14
ENDMDL
MODEL 6
REMARK VINA RESULT:    -4.071      1.428      4.579
REMARK INTER + INTRA:          -9.220
REMARK INTER:                  -7.286
REMARK INTRA:                  -1.934
REMARK UNBOUND:                -1.817
REMARK SMILES CCCCCCCCCCCCCCCC(=O)[O-]
REMARK SMILES IDX 9 1 10 2 11 3 12 4 13 5 14 6 15 7 16 8 17 9 18 10 8 11 7 12
REMARK SMILES IDX 6 13 5 14 4 15 3 16 2 17 1 18
REMARK H PARENT
REMARK Flexibility Score: inf
ROOT
ATOM      1  C   UNL     1      -1.611  58.762  44.956  1.00  0.00     0.000 C 
ENDROOT
BRANCH   1   2
ATOM      2  C   UNL     1      -0.474  57.740  45.101  1.00  0.00     0.000 C 
BRANCH   2   3
ATOM      3  C   UNL     1       0.554  57.899  43.971  1.00  0.00     0.000 C 
BRANCH   3   4
ATOM      4  C   UNL     1       0.735  59.361  43.523  1.00  0.00     0.000 C 
BRANCH   4   5
ATOM      5  C   UNL     1       2.072  60.007  43.929  1.00  0.00     0.000 C 
BRANCH   5   6
ATOM      6  C   UNL     1       1.900  61.411  44.533  1.00  0.00     0.006 C 
BRANCH   6   7
ATOM      7  C   UNL     1       0.701  61.488  45.488  1.00  0.00     0.053 C 
BRANCH   7   8
ATOM      8  C   UNL     1      -0.293  62.520  45.053  1.00  0.00     0.041 C 
ATOM      9  O   UNL     1      -0.308  63.656  45.597  1.00  0.00    -0.550 OA
ATOM     10  O   UNL     1      -1.224  62.219  44.066  1.00  0.00    -0.550 OA
ENDBRANCH   7   8
ENDBRANCH   6   7
ENDBRANCH   5   6
ENDBRANCH   4   5
ENDBRANCH   3   4
ENDBRANCH   2   3
ENDBRANCH   1   2
BRANCH   1  11
ATOM     11  C   UNL     1      -2.993  58.101  44.827  1.00  0.00     0.000 C 
BRANCH  11  12
ATOM     12  C   UNL     1      -4.072  58.823  45.652  1.00  0.00    -0.000 C 
BRANCH  12  13
ATOM     13  C   UNL     1      -3.708  60.287  45.945  1.00  0.00    -0.000 C 
BRANCH  13  14
ATOM     14  C   UNL     1      -3.523  60.563  47.449  1.00  0.00    -0.000 C 
BRANCH  14  15
ATOM     15  C   UNL     1      -3.617  59.286  48.302  1.00  0.00    -0.000 C 
BRANCH  15  16
ATOM     16  C   UNL     1      -2.256  58.859  48.875  1.00  0.00    -0.000 C 
BRANCH  16  17
ATOM     17  C   UNL     1      -2.217  57.369  49.250  1.00  0.00    -0.003 C 
ATOM     18  C   UNL     1      -2.364  56.448  48.039  1.00  0.00     0.004 C 
ENDBRANCH  16  17
ENDBRANCH  15  16
ENDBRANCH  14  15
ENDBRANCH  13  14
ENDBRANCH  12  13
ENDBRANCH  11  12
ENDBRANCH   1  11
TORSDOF 14
ENDMDL
MODEL 7
REMARK VINA RESULT:    -4.060      1.839      3.671
REMARK INTER + INTRA:          -9.200
REMARK INTER:                  -7.291
REMARK INTRA:                  -1.909
REMARK UNBOUND:                -1.817
REMARK SMILES CCCCCCCCCCCCCCCC(=O)[O-]
REMARK SMILES IDX 9 1 10 2 11 3 12 4 13 5 14 6 15 7 16 8 17 9 18 10 8 11 7 12
REMARK SMILES IDX 6 13 5 14 4 15 3 16 2 17 1 18
REMARK H PARENT
REMARK Flexibility Score: inf
ROOT
ATOM      1  C   UNL     1      -3.646  60.816  47.005  1.00  0.00     0.000 C 
ENDROOT
BRANCH   1   2
ATOM      2  C   UNL     1      -3.769  62.346  46.934  1.00  0.00     0.000 C 
BRANCH   2   3
ATOM      3  C   UNL     1      -4.016  62.810  45.491  1.00  0.00     0.000 C 
BRANCH   3   4
ATOM      4  C   UNL     1      -3.089  62.123  44.471  1.00  0.00     0.000 C 
BRANCH   4   5
ATOM      5  C   UNL     1      -1.954  63.006  43.923  1.00  0.00     0.000 C 
BRANCH   5   6
ATOM      6  C   UNL     1      -0.643  62.856  44.714  1.00  0.00     0.006 C 
BRANCH   6   7
ATOM      7  C   UNL     1      -0.465  61.439  45.276  1.00  0.00     0.053 C 
BRANCH   7   8
ATOM      8  C   UNL     1       0.925  60.924  45.060  1.00  0.00     0.041 C 
ATOM      9  O   UNL     1       1.919  61.626  45.385  1.00  0.00    -0.550 OA
ATOM     10  O   UNL     1       1.124  59.680  44.474  1.00  0.00    -0.550 OA
ENDBRANCH   7   8
ENDBRANCH   6   7
ENDBRANCH   5   6
ENDBRANCH   4   5
ENDBRANCH   3   4
ENDBRANCH   2   3
ENDBRANCH   1   2
BRANCH   1  11
ATOM     11  C   UNL     1      -3.383  60.306  48.431  1.00  0.00     0.000 C 
BRANCH  11  12
ATOM     12  C   UNL     1      -3.555  58.782  48.554  1.00  0.00    -0.000 C 
BRANCH  12  13
ATOM     13  C   UNL     1      -2.256  58.076  48.977  1.00  0.00    -0.000 C 
BRANCH  13  14
ATOM     14  C   UNL     1      -2.233  56.589  48.579  1.00  0.00    -0.000 C 
BRANCH  14  15
ATOM     15  C   UNL     1      -2.386  56.379  47.063  1.00  0.00    -0.000 C 
BRANCH  15  16
ATOM     16  C   UNL     1      -1.319  57.135  46.253  1.00  0.00    -0.000 C 
BRANCH  16  17
ATOM     17  C   UNL     1      -1.932  58.049  45.181  1.00  0.00    -0.003 C 
ATOM     18  C   UNL     1      -3.411  57.759  44.928  1.00  0.00     0.004 C 
ENDBRANCH  16  17
ENDBRANCH  15  16
ENDBRANCH  14  15
ENDBRANCH  13  14
ENDBRANCH  12  13
ENDBRANCH  11  12
ENDBRANCH   1  11
TORSDOF 14
ENDMDL
MODEL 8
REMARK VINA RESULT:    -4.035     13.160     15.023
REMARK INTER + INTRA:          -9.154
REMARK INTER:                  -7.811
REMARK INTRA:                  -1.343
REMARK UNBOUND:                -1.817
REMARK SMILES CCCCCCCCCCCCCCCC(=O)[O-]
REMARK SMILES IDX 9 1 10 2 11 3 12 4 13 5 14 6 15 7 16 8 17 9 18 10 8 11 7 12
REMARK SMILES IDX 6 13 5 14 4 15 3 16 2 17 1 18
REMARK H PARENT
REMARK Flexibility Score: inf
ROOT
ATOM      1  C   UNL     1       5.972  59.966  57.356  1.00  0.00     0.000 C 
ENDROOT
BRANCH   1   2
ATOM      2  C   UNL     1       6.752  58.768  56.790  1.00  0.00     0.000 C 
BRANCH   2   3
ATOM      3  C   UNL     1       7.867  59.237  55.844  1.00  0.00     0.000 C 
BRANCH   3   4
ATOM      4  C   UNL     1       7.691  60.696  55.383  1.00  0.00     0.000 C 
BRANCH   4   5
ATOM      5  C   UNL     1       8.904  61.299  54.651  1.00  0.00     0.000 C 
BRANCH   5   6
ATOM      6  C   UNL     1       8.673  61.457  53.139  1.00  0.00     0.006 C 
BRANCH   6   7
ATOM      7  C   UNL     1       7.180  61.479  52.780  1.00  0.00     0.053 C 
BRANCH   7   8
ATOM      8  C   UNL     1       6.927  62.207  51.496  1.00  0.00     0.041 C 
ATOM      9  O   UNL     1       7.862  62.826  50.923  1.00  0.00    -0.550 OA
ATOM     10  O   UNL     1       5.651  62.226  50.945  1.00  0.00    -0.550 OA
ENDBRANCH   7   8
ENDBRANCH   6   7
ENDBRANCH   5   6
ENDBRANCH   4   5
ENDBRANCH   3   4
ENDBRANCH   2   3
ENDBRANCH   1   2
BRANCH   1  11
ATOM     11  C   UNL     1       5.854  59.928  58.888  1.00  0.00     0.000 C 
BRANCH  11  12
ATOM     12  C   UNL     1       6.270  61.256  59.545  1.00  0.00    -0.000 C 
BRANCH  12  13
ATOM     13  C   UNL     1       7.394  61.967  58.775  1.00  0.00    -0.000 C 
BRANCH  13  14
ATOM     14  C   UNL     1       8.613  62.282  59.660  1.00  0.00    -0.000 C 
BRANCH  14  15
ATOM     15  C   UNL     1       9.839  62.727  58.845  1.00  0.00    -0.000 C 
BRANCH  15  16
ATOM     16  C   UNL     1       9.629  64.088  58.161  1.00  0.00    -0.000 C 
BRANCH  16  17
ATOM     17  C   UNL     1      10.225  64.134  56.746  1.00  0.00    -0.003 C 
ATOM     18  C   UNL     1      10.304  65.551  56.179  1.00  0.00     0.004 C 
ENDBRANCH  16  17
ENDBRANCH  15  16
ENDBRANCH  14  15
ENDBRANCH  13  14
ENDBRANCH  12  13
ENDBRANCH  11  12
ENDBRANCH   1  11
TORSDOF 14
ENDMDL
MODEL 9
REMARK VINA RESULT:    -3.995      1.268      3.126
REMARK INTER + INTRA:          -9.082
REMARK INTER:                  -7.023
REMARK INTRA:                  -2.059
REMARK UNBOUND:                -1.817
REMARK SMILES CCCCCCCCCCCCCCCC(=O)[O-]
REMARK SMILES IDX 9 1 10 2 11 3 12 4 13 5 14 6 15 7 16 8 17 9 18 10 8 11 7 12
REMARK SMILES IDX 6 13 5 14 4 15 3 16 2 17 1 18
REMARK H PARENT
REMARK Flexibility Score: inf
ROOT
ATOM      1  C   UNL     1      -3.662  60.539  47.270  1.00  0.00     0.000 C 
ENDROOT
BRANCH   1   2
ATOM      2  C   UNL     1      -3.769  62.072  47.263  1.00  0.00     0.000 C 
BRANCH   2   3
ATOM      3  C   UNL     1      -4.120  62.590  45.861  1.00  0.00     0.000 C 
BRANCH   3   4
ATOM      4  C   UNL     1      -3.327  61.889  44.743  1.00  0.00     0.000 C 
BRANCH   4   5
ATOM      5  C   UNL     1      -2.652  62.833  43.732  1.00  0.00     0.000 C 
BRANCH   5   6
ATOM      6  C   UNL     1      -1.118  62.729  43.747  1.00  0.00     0.006 C 
BRANCH   6   7
ATOM      7  C   UNL     1      -0.541  62.876  45.162  1.00  0.00     0.053 C 
BRANCH   7   8
ATOM      8  C   UNL     1      -0.471  64.310  45.590  1.00  0.00     0.041 C 
ATOM      9  O   UNL     1       0.500  65.030  45.235  1.00  0.00    -0.550 OA
ATOM     10  O   UNL     1      -1.462  64.844  46.404  1.00  0.00    -0.550 OA
ENDBRANCH   7   8
ENDBRANCH   6   7
ENDBRANCH   5   6
ENDBRANCH   4   5
ENDBRANCH   3   4
ENDBRANCH   2   3
ENDBRANCH   1   2
BRANCH   1  11
ATOM     11  C   UNL     1      -3.410  59.967  48.675  1.00  0.00     0.000 C 
BRANCH  11  12
ATOM     12  C   UNL     1      -2.232  58.978  48.707  1.00  0.00    -0.000 C 
BRANCH  12  13
ATOM     13  C   UNL     1      -2.695  57.515  48.806  1.00  0.00    -0.000 C 
BRANCH  13  14
ATOM     14  C   UNL     1      -2.441  56.724  47.510  1.00  0.00    -0.000 C 
BRANCH  14  15
ATOM     15  C   UNL     1      -3.516  56.979  46.440  1.00  0.00    -0.000 C 
BRANCH  15  16
ATOM     16  C   UNL     1      -2.948  57.666  45.187  1.00  0.00    -0.000 C 
BRANCH  16  17
ATOM     17  C   UNL     1      -1.414  57.749  45.206  1.00  0.00    -0.003 C 
ATOM     18  C   UNL     1      -0.896  59.185  45.154  1.00  0.00     0.004 C 
ENDBRANCH  16  17
ENDBRANCH  15  16
ENDBRANCH  14  15
ENDBRANCH  13  14
ENDBRANCH  12  13
ENDBRANCH  11  12
ENDBRANCH   1  11
TORSDOF 14
ENDMDL
