MODEL 1
REMARK VINA RESULT:    -5.331      0.000      0.000
REMARK INTER + INTRA:          -8.980
REMARK INTER:                  -8.448
REMARK INTRA:                  -0.533
REMARK UNBOUND:                -0.533
REMARK SMILES CCCCCCCCCCCC(=O)[O-]
REMARK SMILES IDX 7 1 8 2 9 3 10 4 11 5 12 6 13 7 14 8 6 9 5 10 4 11 3 12 2 13
REMARK SMILES IDX 1 14
REMARK H PARENT
REMARK Flexibility Score: inf
ROOT
ATOM      1  C   UNL     1       2.999  43.022   9.581  1.00  0.00     0.000 C 
ENDROOT
BRANCH   1   2
ATOM      2  C   UNL     1       1.939  43.289  10.665  1.00  0.00     0.000 C 
BRANCH   2   3
ATOM      3  C   UNL     1       2.110  42.470  11.958  1.00  0.00     0.000 C 
BRANCH   3   4
ATOM      4  C   UNL     1       3.034  41.257  11.781  1.00  0.00     0.006 C 
BRANCH   4   5
ATOM      5  C   UNL     1       2.596  40.099  12.682  1.00  0.00     0.053 C 
BRANCH   5   6
ATOM      6  C   UNL     1       3.635  39.021  12.691  1.00  0.00     0.041 C 
ATOM      7  O   UNL     1       3.449  37.956  12.044  1.00  0.00    -0.550 OA
ATOM      8  O   UNL     1       4.829  39.212  13.375  1.00  0.00    -0.550 OA
ENDBRANCH   5   6
ENDBRANCH   4   5
ENDBRANCH   3   4
ENDBRANCH   2   3
ENDBRANCH   1   2
BRANCH   1   9
ATOM      9  C   UNL     1       3.938  44.216   9.354  1.00  0.00     0.000 C 
BRANCH   9  10
ATOM     10  C   UNL     1       4.400  44.813  10.689  1.00  0.00    -0.000 C 
BRANCH  10  11
ATOM     11  C   UNL     1       4.485  46.344  10.607  1.00  0.00    -0.000 C 
BRANCH  11  12
ATOM     12  C   UNL     1       5.020  46.845   9.253  1.00  0.00    -0.000 C 
BRANCH  12  13
ATOM     13  C   UNL     1       6.425  47.471   9.304  1.00  0.00    -0.003 C 
ATOM     14  C   UNL     1       6.414  48.983   9.083  1.00  0.00     0.004 C 
ENDBRANCH  12  13
ENDBRANCH  11  12
ENDBRANCH  10  11
ENDBRANCH   9  10
ENDBRANCH   1   9
TORSDOF 10
ENDMDL
MODEL 2
REMARK VINA RESULT:    -5.248      4.238      6.763
REMARK INTER + INTRA:          -8.848
REMARK INTER:                  -7.698
REMARK INTRA:                  -1.150
REMARK UNBOUND:                -0.533
REMARK SMILES CCCCCCCCCCCC(=O)[O-]
REMARK SMILES IDX 7 1 8 2 9 3 10 4 11 5 12 6 13 7 14 8 6 9 5 10 4 11 3 12 2 13
REMARK SMILES IDX 1 14
REMARK H PARENT
REMARK Flexibility Score: inf
ROOT
ATOM      1  C   UNL     1       1.092  46.053  10.082  1.00  0.00     0.000 C 
ENDROOT
BRANCH   1   2
ATOM      2  C   UNL     1       2.499  46.591   9.761  1.00  0.00     0.000 C 
BRANCH   2   3
ATOM      3  C   UNL     1       2.602  47.408   8.460  1.00  0.00     0.000 C 
BRANCH   3   4
ATOM      4  C   UNL     1       4.050  47.750   8.081  1.00  0.00     0.006 C 
BRANCH   4   5
ATOM      5  C   UNL     1       5.038  47.119   9.066  1.00  0.00     0.053 C 
BRANCH   5   6
ATOM      6  C   UNL     1       6.278  47.949   9.169  1.00  0.00     0.041 C 
ATOM      7  O   UNL     1       7.354  47.435   9.576  1.00  0.00    -0.550 OA
ATOM      8  O   UNL     1       6.260  49.279   8.768  1.00  0.00    -0.550 OA
ENDBRANCH   5   6
ENDBRANCH   4   5
ENDBRANCH   3   4
ENDBRANCH   2   3
ENDBRANCH   1   2
BRANCH   1   9
ATOM      9  C   UNL     1       1.066  44.532  10.288  1.00  0.00     0.000 C 
BRANCH   9  10
ATOM     10  C   UNL     1       1.615  43.801   9.057  1.00  0.00    -0.000 C 
BRANCH  10  11
ATOM     11  C   UNL     1       2.579  42.677   9.467  1.00  0.00    -0.000 C 
BRANCH  11  12
ATOM     12  C   UNL     1       3.956  43.201   9.913  1.00  0.00    -0.000 C 
BRANCH  12  13
ATOM     13  C   UNL     1       4.267  43.011  11.409  1.00  0.00    -0.003 C 
ATOM     14  C   UNL     1       4.376  44.332  12.169  1.00  0.00     0.004 C 
ENDBRANCH  12  13
ENDBRANCH  11  12
ENDBRANCH  10  11
ENDBRANCH   9  10
ENDBRANCH   1   9
TORSDOF 10
ENDMDL
MODEL 3
REMARK VINA RESULT:    -5.233      1.613      3.011
REMARK INTER + INTRA:          -8.825
REMARK INTER:                  -7.761
REMARK INTRA:                  -1.064
REMARK UNBOUND:                -0.533
REMARK SMILES CCCCCCCCCCCC(=O)[O-]
REMARK SMILES IDX 7 1 8 2 9 3 10 4 11 5 12 6 13 7 14 8 6 9 5 10 4 11 3 12 2 13
REMARK SMILES IDX 1 14
REMARK H PARENT
REMARK Flexibility Score: inf
ROOT
ATOM      1  C   UNL     1       4.124  44.573  11.513  1.00  0.00     0.000 C 
ENDROOT
BRANCH   1   2
ATOM      2  C   UNL     1       4.163  43.416  10.498  1.00  0.00     0.000 C 
BRANCH   2   3
ATOM      3  C   UNL     1       2.918  42.511  10.494  1.00  0.00     0.000 C 
BRANCH   3   4
ATOM      4  C   UNL     1       2.839  41.598  11.726  1.00  0.00     0.006 C 
BRANCH   4   5
ATOM      5  C   UNL     1       4.205  40.982  12.041  1.00  0.00     0.053 C 
BRANCH   5   6
ATOM      6  C   UNL     1       4.039  39.656  12.716  1.00  0.00     0.041 C 
ATOM      7  O   UNL     1       3.069  38.911  12.418  1.00  0.00    -0.550 OA
ATOM      8  O   UNL     1       4.983  39.222  13.638  1.00  0.00    -0.550 OA
ENDBRANCH   5   6
ENDBRANCH   4   5
ENDBRANCH   3   4
ENDBRANCH   2   3
ENDBRANCH   1   2
BRANCH   1   9
ATOM      9  C   UNL     1       4.386  45.943  10.870  1.00  0.00     0.000 C 
BRANCH   9  10
ATOM     10  C   UNL     1       4.203  45.880   9.349  1.00  0.00    -0.000 C 
BRANCH  10  11
ATOM     11  C   UNL     1       3.327  47.040   8.851  1.00  0.00    -0.000 C 
BRANCH  11  12
ATOM     12  C   UNL     1       1.958  47.102   9.551  1.00  0.00    -0.000 C 
BRANCH  12  13
ATOM     13  C   UNL     1       0.985  45.969   9.173  1.00  0.00    -0.003 C 
ATOM     14  C   UNL     1       0.503  45.168  10.381  1.00  0.00     0.004 C 
ENDBRANCH  12  13
ENDBRANCH  11  12
ENDBRANCH  10  11
ENDBRANCH   9  10
ENDBRANCH   1   9
TORSDOF 10
ENDMDL
MODEL 4
REMARK VINA RESULT:    -5.209      4.241      6.504
REMARK INTER + INTRA:          -8.788
REMARK INTER:                  -7.471
REMARK INTRA:                  -1.317
REMARK UNBOUND:                -0.533
REMARK SMILES CCCCCCCCCCCC(=O)[O-]
REMARK SMILES IDX 7 1 8 2 9 3 10 4 11 5 12 6 13 7 14 8 6 9 5 10 4 11 3 12 2 13
REMARK SMILES IDX 1 14
REMARK H PARENT
REMARK Flexibility Score: inf
ROOT
ATOM      1  C   UNL     1       4.255  43.215  10.926  1.00  0.00     0.000 C 
ENDROOT
BRANCH   1   2
ATOM      2  C   UNL     1       4.482  44.522  11.707  1.00  0.00     0.000 C 
BRANCH   2   3
ATOM      3  C   UNL     1       4.105  45.808  10.949  1.00  0.00     0.000 C 
BRANCH   3   4
ATOM      4  C   UNL     1       4.749  45.894   9.558  1.00  0.00     0.006 C 
BRANCH   4   5
ATOM      5  C   UNL     1       4.603  47.302   8.973  1.00  0.00     0.053 C 
BRANCH   5   6
ATOM      6  C   UNL     1       5.922  48.010   8.978  1.00  0.00     0.041 C 
ATOM      7  O   UNL     1       5.991  49.222   8.642  1.00  0.00    -0.550 OA
ATOM      8  O   UNL     1       7.066  47.347   9.401  1.00  0.00    -0.550 OA
ENDBRANCH   5   6
ENDBRANCH   4   5
ENDBRANCH   3   4
ENDBRANCH   2   3
ENDBRANCH   1   2
BRANCH   1   9
ATOM      9  C   UNL     1       2.769  42.888  10.723  1.00  0.00     0.000 C 
BRANCH   9  10
ATOM     10  C   UNL     1       2.382  42.981   9.242  1.00  0.00    -0.000 C 
BRANCH  10  11
ATOM     11  C   UNL     1       1.348  44.093   9.011  1.00  0.00    -0.000 C 
BRANCH  11  12
ATOM     12  C   UNL     1       0.810  44.695  10.321  1.00  0.00    -0.000 C 
BRANCH  12  13
ATOM     13  C   UNL     1       0.056  46.027  10.159  1.00  0.00    -0.003 C 
ATOM     14  C   UNL     1       0.905  47.120   9.513  1.00  0.00     0.004 C 
ENDBRANCH  12  13
ENDBRANCH  11  12
ENDBRANCH  10  11
ENDBRANCH   9  10
ENDBRANCH   1   9
TORSDOF 10
ENDMDL
MODEL 5
REMARK VINA RESULT:    -5.114      2.333      3.398
REMARK INTER + INTRA:          -8.636
REMARK INTER:                  -7.732
REMARK INTRA:                  -0.905
REMARK UNBOUND:                -0.533
REMARK SMILES CCCCCCCCCCCC(=O)[O-]
REMARK SMILES IDX 7 1 8 2 9 3 10 4 11 5 12 6 13 7 14 8 6 9 5 10 4 11 3 12 2 13
REMARK SMILES IDX 1 14
REMARK H PARENT
REMARK Flexibility Score: inf
ROOT
ATOM      1  C   UNL     1       0.976  46.206   9.483  1.00  0.00     0.000 C 
ENDROOT
BRANCH   1   2
ATOM      2  C   UNL     1       1.147  44.777  10.031  1.00  0.00     0.000 C 
BRANCH   2   3
ATOM      3  C   UNL     1       1.562  43.725   8.986  1.00  0.00     0.000 C 
BRANCH   3   4
ATOM      4  C   UNL     1       2.706  42.821   9.468  1.00  0.00     0.006 C 
BRANCH   4   5
ATOM      5  C   UNL     1       3.833  43.650  10.091  1.00  0.00     0.053 C 
BRANCH   5   6
ATOM      6  C   UNL     1       4.110  43.191  11.489  1.00  0.00     0.041 C 
ATOM      7  O   UNL     1       4.430  44.025  12.378  1.00  0.00    -0.550 OA
ATOM      8  O   UNL     1       3.967  41.851  11.822  1.00  0.00    -0.550 OA
ENDBRANCH   5   6
ENDBRANCH   4   5
ENDBRANCH   3   4
ENDBRANCH   2   3
ENDBRANCH   1   2
BRANCH   1   9
ATOM      9  C   UNL     1       2.270  47.030   9.545  1.00  0.00     0.000 C 
BRANCH   9  10
ATOM     10  C   UNL     1       2.597  47.643   8.178  1.00  0.00    -0.000 C 
BRANCH  10  11
ATOM     11  C   UNL     1       4.115  47.785   7.987  1.00  0.00    -0.000 C 
BRANCH  11  12
ATOM     12  C   UNL     1       4.928  47.055   9.071  1.00  0.00    -0.000 C 
BRANCH  12  13
ATOM     13  C   UNL     1       6.283  47.702   9.409  1.00  0.00    -0.003 C 
ATOM     14  C   UNL     1       6.397  49.143   8.914  1.00  0.00     0.004 C 
ENDBRANCH  12  13
ENDBRANCH  11  12
ENDBRANCH  10  11
ENDBRANCH   9  10
ENDBRANCH   1   9
TORSDOF 10
ENDMDL
MODEL 6
REMARK VINA RESULT:    -5.091      4.135      7.351
REMARK INTER + INTRA:          -8.601
REMARK INTER:                  -8.036
REMARK INTRA:                  -0.564
REMARK UNBOUND:                -0.533
REMARK SMILES CCCCCCCCCCCC(=O)[O-]
REMARK SMILES IDX 7 1 8 2 9 3 10 4 11 5 12 6 13 7 14 8 6 9 5 10 4 11 3 12 2 13
REMARK SMILES IDX 1 14
REMARK H PARENT
REMARK Flexibility Score: inf
ROOT
ATOM      1  C   UNL     1       1.778  44.456   9.672  1.00  0.00     0.000 C 
ENDROOT
BRANCH   1   2
ATOM      2  C   UNL     1       2.391  45.851   9.449  1.00  0.00     0.000 C 
BRANCH   2   3
ATOM      3  C   UNL     1       3.639  46.157  10.295  1.00  0.00     0.000 C 
BRANCH   3   4
ATOM      4  C   UNL     1       4.910  46.326   9.449  1.00  0.00     0.006 C 
BRANCH   4   5
ATOM      5  C   UNL     1       4.951  47.710   8.795  1.00  0.00     0.053 C 
BRANCH   5   6
ATOM      6  C   UNL     1       6.297  48.337   8.981  1.00  0.00     0.041 C 
ATOM      7  O   UNL     1       6.468  49.559   8.727  1.00  0.00    -0.550 OA
ATOM      8  O   UNL     1       7.352  47.585   9.482  1.00  0.00    -0.550 OA
ENDBRANCH   5   6
ENDBRANCH   4   5
ENDBRANCH   3   4
ENDBRANCH   2   3
ENDBRANCH   1   2
BRANCH   1   9
ATOM      9  C   UNL     1       1.094  44.314  11.039  1.00  0.00     0.000 C 
BRANCH   9  10
ATOM     10  C   UNL     1       1.561  43.042  11.758  1.00  0.00    -0.000 C 
BRANCH  10  11
ATOM     11  C   UNL     1       2.634  42.309  10.939  1.00  0.00    -0.000 C 
BRANCH  11  12
ATOM     12  C   UNL     1       3.694  41.620  11.817  1.00  0.00    -0.000 C 
BRANCH  12  13
ATOM     13  C   UNL     1       3.371  40.164  12.198  1.00  0.00    -0.003 C 
ATOM     14  C   UNL     1       4.506  39.481  12.960  1.00  0.00     0.004 C 
ENDBRANCH  12  13
ENDBRANCH  11  12
ENDBRANCH  10  11
ENDBRANCH   9  10
ENDBRANCH   1   9
TORSDOF 10
ENDMDL
MODEL 7
REMARK VINA RESULT:    -5.062      1.124      1.485
REMARK INTER + INTRA:          -8.554
REMARK INTER:                  -7.877
REMARK INTRA:                  -0.677
REMARK UNBOUND:                -0.533
REMARK SMILES CCCCCCCCCCCC(=O)[O-]
REMARK SMILES IDX 7 1 8 2 9 3 10 4 11 5 12 6 13 7 14 8 6 9 5 10 4 11 3 12 2 13
REMARK SMILES IDX 1 14
REMARK H PARENT
REMARK Flexibility Score: inf
ROOT
ATOM      1  C   UNL     1       1.832  43.693   9.168  1.00  0.00     0.000 C 
ENDROOT
BRANCH   1   2
ATOM      2  C   UNL     1       2.652  42.469   9.617  1.00  0.00     0.000 C 
BRANCH   2   3
ATOM      3  C   UNL     1       3.965  42.799  10.349  1.00  0.00     0.000 C 
BRANCH   3   4
ATOM      4  C   UNL     1       4.050  42.162  11.744  1.00  0.00     0.006 C 
BRANCH   4   5
ATOM      5  C   UNL     1       3.046  41.014  11.883  1.00  0.00     0.053 C 
BRANCH   5   6
ATOM      6  C   UNL     1       3.698  39.820  12.508  1.00  0.00     0.041 C 
ATOM      7  O   UNL     1       3.140  38.692  12.454  1.00  0.00    -0.550 OA
ATOM      8  O   UNL     1       4.945  39.943  13.106  1.00  0.00    -0.550 OA
ENDBRANCH   5   6
ENDBRANCH   4   5
ENDBRANCH   3   4
ENDBRANCH   2   3
ENDBRANCH   1   2
BRANCH   1   9
ATOM      9  C   UNL     1       1.705  44.763  10.261  1.00  0.00     0.000 C 
BRANCH   9  10
ATOM     10  C   UNL     1       2.228  46.118   9.767  1.00  0.00    -0.000 C 
BRANCH  10  11
ATOM     11  C   UNL     1       3.710  46.301  10.129  1.00  0.00    -0.000 C 
BRANCH  11  12
ATOM     12  C   UNL     1       4.516  47.004   9.023  1.00  0.00    -0.000 C 
BRANCH  12  13
ATOM     13  C   UNL     1       5.968  47.350   9.400  1.00  0.00    -0.003 C 
ATOM     14  C   UNL     1       6.365  48.772   9.005  1.00  0.00     0.004 C 
ENDBRANCH  12  13
ENDBRANCH  11  12
ENDBRANCH  10  11
ENDBRANCH   9  10
ENDBRANCH   1   9
TORSDOF 10
ENDMDL
MODEL 8
REMARK VINA RESULT:    -5.047      3.884      7.364
REMARK INTER + INTRA:          -8.530
REMARK INTER:                  -7.928
REMARK INTRA:                  -0.602
REMARK UNBOUND:                -0.533
REMARK SMILES CCCCCCCCCCCC(=O)[O-]
REMARK SMILES IDX 7 1 8 2 9 3 10 4 11 5 12 6 13 7 14 8 6 9 5 10 4 11 3 12 2 13
REMARK SMILES IDX 1 14
REMARK H PARENT
REMARK Flexibility Score: inf
ROOT
ATOM      1  C   UNL     1       2.792  42.887   9.726  1.00  0.00     0.000 C 
ENDROOT
BRANCH   1   2
ATOM      2  C   UNL     1       3.955  43.873   9.509  1.00  0.00     0.000 C 
BRANCH   2   3
ATOM      3  C   UNL     1       4.405  44.636  10.767  1.00  0.00     0.000 C 
BRANCH   3   4
ATOM      4  C   UNL     1       4.289  46.160  10.617  1.00  0.00     0.006 C 
BRANCH   4   5
ATOM      5  C   UNL     1       4.759  46.611   9.230  1.00  0.00     0.053 C 
BRANCH   5   6
ATOM      6  C   UNL     1       3.692  47.408   8.549  1.00  0.00     0.041 C 
ATOM      7  O   UNL     1       3.983  48.163   7.584  1.00  0.00    -0.550 OA
ATOM      8  O   UNL     1       2.367  47.282   8.948  1.00  0.00    -0.550 OA
ENDBRANCH   5   6
ENDBRANCH   4   5
ENDBRANCH   3   4
ENDBRANCH   2   3
ENDBRANCH   1   2
BRANCH   1   9
ATOM      9  C   UNL     1       1.802  43.357  10.801  1.00  0.00     0.000 C 
BRANCH   9  10
ATOM     10  C   UNL     1       1.881  42.467  12.048  1.00  0.00    -0.000 C 
BRANCH  10  11
ATOM     11  C   UNL     1       2.935  41.363  11.871  1.00  0.00    -0.000 C 
BRANCH  11  12
ATOM     12  C   UNL     1       2.627  40.102  12.697  1.00  0.00    -0.000 C 
BRANCH  12  13
ATOM     13  C   UNL     1       3.604  38.932  12.479  1.00  0.00    -0.003 C 
ATOM     14  C   UNL     1       2.909  37.649  12.027  1.00  0.00     0.004 C 
ENDBRANCH  12  13
ENDBRANCH  11  12
ENDBRANCH  10  11
ENDBRANCH   9  10
ENDBRANCH   1   9
TORSDOF 10
ENDMDL
MODEL 9
REMARK VINA RESULT:    -4.955      4.167      5.053
REMARK INTER + INTRA:          -8.385
REMARK INTER:                  -7.613
REMARK INTRA:                  -0.772
REMARK UNBOUND:                -0.533
REMARK SMILES CCCCCCCCCCCC(=O)[O-]
REMARK SMILES IDX 7 1 8 2 9 3 10 4 11 5 12 6 13 7 14 8 6 9 5 10 4 11 3 12 2 13
REMARK SMILES IDX 1 14
REMARK H PARENT
REMARK Flexibility Score: inf
ROOT
ATOM      1  C   UNL     1       2.945  43.867  11.894  1.00  0.00     0.000 C 
ENDROOT
BRANCH   1   2
ATOM      2  C   UNL     1       2.146  42.960  10.940  1.00  0.00     0.000 C 
BRANCH   2   3
ATOM      3  C   UNL     1       2.299  43.292   9.445  1.00  0.00     0.000 C 
BRANCH   3   4
ATOM      4  C   UNL     1       1.104  44.073   8.880  1.00  0.00     0.006 C 
BRANCH   4   5
ATOM      5  C   UNL     1       0.829  45.330   9.710  1.00  0.00     0.053 C 
BRANCH   5   6
ATOM      6  C   UNL     1       1.034  46.560   8.883  1.00  0.00     0.041 C 
ATOM      7  O   UNL     1       0.808  46.535   7.644  1.00  0.00    -0.550 OA
ATOM      8  O   UNL     1       1.427  47.747   9.487  1.00  0.00    -0.550 OA
ENDBRANCH   5   6
ENDBRANCH   4   5
ENDBRANCH   3   4
ENDBRANCH   2   3
ENDBRANCH   1   2
BRANCH   1   9
ATOM      9  C   UNL     1       4.318  44.265  11.334  1.00  0.00     0.000 C 
BRANCH   9  10
ATOM     10  C   UNL     1       4.333  45.739  10.911  1.00  0.00    -0.000 C 
BRANCH  10  11
ATOM     11  C   UNL     1       4.586  45.877   9.402  1.00  0.00    -0.000 C 
BRANCH  11  12
ATOM     12  C   UNL     1       4.888  47.324   8.974  1.00  0.00    -0.000 C 
BRANCH  12  13
ATOM     13  C   UNL     1       6.343  47.774   9.195  1.00  0.00    -0.003 C 
ATOM     14  C   UNL     1       6.538  49.279   9.014  1.00  0.00     0.004 C 
ENDBRANCH  12  13
ENDBRANCH  11  12
ENDBRANCH  10  11
ENDBRANCH   9  10
ENDBRANCH   1   9
TORSDOF 10
ENDMDL
