MODEL 1
REMARK VINA RESULT:    -4.680      0.000      0.000
REMARK INTER + INTRA:          -9.242
REMARK INTER:                  -8.510
REMARK INTRA:                  -0.731
REMARK UNBOUND:                -0.731
REMARK SMILES CCCCCCCCCCCCCCCC(=O)[O-]
REMARK SMILES IDX 9 1 10 2 11 3 12 4 13 5 14 6 15 7 16 8 17 9 18 10 8 11 7 12
REMARK SMILES IDX 6 13 5 14 4 15 3 16 2 17 1 18
REMARK H PARENT
REMARK Flexibility Score: inf
ROOT
ATOM      1  C   UNL     1       9.500  78.948   3.025  1.00  0.00     0.000 C 
ENDROOT
BRANCH   1   2
ATOM      2  C   UNL     1      10.206  79.842   1.990  1.00  0.00     0.000 C 
BRANCH   2   3
ATOM      3  C   UNL     1      11.683  80.107   2.331  1.00  0.00     0.000 C 
BRANCH   3   4
ATOM      4  C   UNL     1      12.579  80.120   1.073  1.00  0.00     0.000 C 
BRANCH   4   5
ATOM      5  C   UNL     1      14.085  80.000   1.380  1.00  0.00     0.000 C 
BRANCH   5   6
ATOM      6  C   UNL     1      14.881  79.137   0.386  1.00  0.00     0.006 C 
BRANCH   6   7
ATOM      7  C   UNL     1      14.166  78.966  -0.960  1.00  0.00     0.053 C 
BRANCH   7   8
ATOM      8  C   UNL     1      13.973  77.515  -1.264  1.00  0.00     0.041 C 
ATOM      9  O   UNL     1      13.973  77.112  -2.458  1.00  0.00    -0.550 OA
ATOM     10  O   UNL     1      13.842  76.598  -0.228  1.00  0.00    -0.550 OA
ENDBRANCH   7   8
ENDBRANCH   6   7
ENDBRANCH   5   6
ENDBRANCH   4   5
ENDBRANCH   3   4
ENDBRANCH   2   3
ENDBRANCH   1   2
BRANCH   1  11
ATOM     11  C   UNL     1       7.963  79.046   3.027  1.00  0.00     0.000 C 
BRANCH  11  12
ATOM     12  C   UNL     1       7.410  79.834   1.826  1.00  0.00    -0.000 C 
BRANCH  12  13
ATOM     13  C   UNL     1       6.313  79.066   1.072  1.00  0.00    -0.000 C 
BRANCH  13  14
ATOM     14  C   UNL     1       5.914  77.758   1.774  1.00  0.00    -0.000 C 
BRANCH  14  15
ATOM     15  C   UNL     1       5.324  76.756   0.772  1.00  0.00    -0.000 C 
BRANCH  15  16
ATOM     16  C   UNL     1       5.477  75.292   1.225  1.00  0.00    -0.000 C 
BRANCH  16  17
ATOM     17  C   UNL     1       5.448  74.257   0.086  1.00  0.00    -0.003 C 
ATOM     18  C   UNL     1       4.849  74.807  -1.208  1.00  0.00     0.004 C 
ENDBRANCH  16  17
ENDBRANCH  15  16
ENDBRANCH  14  15
ENDBRANCH  13  14
ENDBRANCH  12  13
ENDBRANCH  11  12
ENDBRANCH   1  11
TORSDOF 14
ENDMDL
MODEL 2
REMARK VINA RESULT:    -4.638      3.190      7.611
REMARK INTER + INTRA:          -9.165
REMARK INTER:                  -8.132
REMARK INTRA:                  -1.033
REMARK UNBOUND:                -0.731
REMARK SMILES CCCCCCCCCCCCCCCC(=O)[O-]
REMARK SMILES IDX 9 1 10 2 11 3 12 4 13 5 14 6 15 7 16 8 17 9 18 10 8 11 7 12
REMARK SMILES IDX 6 13 5 14 4 15 3 16 2 17 1 18
REMARK H PARENT
REMARK Flexibility Score: inf
ROOT
ATOM      1  C   UNL     1       9.488  78.901   3.134  1.00  0.00     0.000 C 
ENDROOT
BRANCH   1   2
ATOM      2  C   UNL     1       8.014  79.274   3.374  1.00  0.00     0.000 C 
BRANCH   2   3
ATOM      3  C   UNL     1       7.416  80.125   2.239  1.00  0.00     0.000 C 
BRANCH   3   4
ATOM      4  C   UNL     1       6.317  79.368   1.461  1.00  0.00     0.000 C 
BRANCH   4   5
ATOM      5  C   UNL     1       6.280  77.855   1.749  1.00  0.00     0.000 C 
BRANCH   5   6
ATOM      6  C   UNL     1       5.333  77.047   0.845  1.00  0.00     0.006 C 
BRANCH   6   7
ATOM      7  C   UNL     1       5.496  75.531   1.016  1.00  0.00     0.053 C 
BRANCH   7   8
ATOM      8  C   UNL     1       4.973  74.814  -0.187  1.00  0.00     0.041 C 
ATOM      9  O   UNL     1       3.951  75.244  -0.786  1.00  0.00    -0.550 OA
ATOM     10  O   UNL     1       5.642  73.700  -0.678  1.00  0.00    -0.550 OA
ENDBRANCH   7   8
ENDBRANCH   6   7
ENDBRANCH   5   6
ENDBRANCH   4   5
ENDBRANCH   3   4
ENDBRANCH   2   3
ENDBRANCH   1   2
BRANCH   1  11
ATOM     11  C   UNL     1      10.260  79.864   2.213  1.00  0.00     0.000 C 
BRANCH  11  12
ATOM     12  C   UNL     1      10.902  79.157   1.007  1.00  0.00    -0.000 C 
BRANCH  12  13
ATOM     13  C   UNL     1      12.043  79.976   0.382  1.00  0.00    -0.000 C 
BRANCH  13  14
ATOM     14  C   UNL     1      13.355  79.867   1.176  1.00  0.00    -0.000 C 
BRANCH  14  15
ATOM     15  C   UNL     1      14.338  78.914   0.481  1.00  0.00    -0.000 C 
BRANCH  15  16
ATOM     16  C   UNL     1      14.150  78.865  -1.046  1.00  0.00    -0.000 C 
BRANCH  16  17
ATOM     17  C   UNL     1      13.946  77.455  -1.628  1.00  0.00    -0.003 C 
ATOM     18  C   UNL     1      13.296  76.487  -0.639  1.00  0.00     0.004 C 
ENDBRANCH  16  17
ENDBRANCH  15  16
ENDBRANCH  14  15
ENDBRANCH  13  14
ENDBRANCH  12  13
ENDBRANCH  11  12
ENDBRANCH   1  11
TORSDOF 14
ENDMDL
MODEL 3
REMARK VINA RESULT:    -4.417      3.397      7.640
REMARK INTER + INTRA:          -8.763
REMARK INTER:                  -7.866
REMARK INTRA:                  -0.897
REMARK UNBOUND:                -0.731
REMARK SMILES CCCCCCCCCCCCCCCC(=O)[O-]
REMARK SMILES IDX 9 1 10 2 11 3 12 4 13 5 14 6 15 7 16 8 17 9 18 10 8 11 7 12
REMARK SMILES IDX 6 13 5 14 4 15 3 16 2 17 1 18
REMARK H PARENT
REMARK Flexibility Score: inf
ROOT
ATOM      1  C   UNL     1       8.448  78.897   2.917  1.00  0.00     0.000 C 
ENDROOT
BRANCH   1   2
ATOM      2  C   UNL     1       7.595  80.016   2.292  1.00  0.00     0.000 C 
BRANCH   2   3
ATOM      3  C   UNL     1       6.281  79.500   1.679  1.00  0.00     0.000 C 
BRANCH   3   4
ATOM      4  C   UNL     1       5.962  78.053   2.118  1.00  0.00     0.000 C 
BRANCH   4   5
ATOM      5  C   UNL     1       5.762  77.076   0.942  1.00  0.00     0.000 C 
BRANCH   5   6
ATOM      6  C   UNL     1       5.267  75.676   1.341  1.00  0.00     0.006 C 
BRANCH   6   7
ATOM      7  C   UNL     1       5.556  74.616   0.272  1.00  0.00     0.053 C 
BRANCH   7   8
ATOM      8  C   UNL     1       4.661  74.813  -0.910  1.00  0.00     0.041 C 
ATOM      9  O   UNL     1       3.493  75.258  -0.753  1.00  0.00    -0.550 OA
ATOM     10  O   UNL     1       5.134  74.554  -2.191  1.00  0.00    -0.550 OA
ENDBRANCH   7   8
ENDBRANCH   6   7
ENDBRANCH   5   6
ENDBRANCH   4   5
ENDBRANCH   3   4
ENDBRANCH   2   3
ENDBRANCH   1   2
BRANCH   1  11
ATOM     11  C   UNL     1       9.904  79.289   3.230  1.00  0.00     0.000 C 
BRANCH  11  12
ATOM     12  C   UNL     1      10.592  80.023   2.066  1.00  0.00    -0.000 C 
BRANCH  12  13
ATOM     13  C   UNL     1      11.089  79.061   0.975  1.00  0.00    -0.000 C 
BRANCH  13  14
ATOM     14  C   UNL     1      11.299  79.758  -0.379  1.00  0.00    -0.000 C 
BRANCH  14  15
ATOM     15  C   UNL     1      12.784  79.764  -0.768  1.00  0.00    -0.000 C 
BRANCH  15  16
ATOM     16  C   UNL     1      13.655  78.912   0.174  1.00  0.00    -0.000 C 
BRANCH  16  17
ATOM     17  C   UNL     1      14.354  77.716  -0.498  1.00  0.00    -0.003 C 
ATOM     18  C   UNL     1      13.390  76.814  -1.267  1.00  0.00     0.004 C 
ENDBRANCH  16  17
ENDBRANCH  15  16
ENDBRANCH  14  15
ENDBRANCH  13  14
ENDBRANCH  12  13
ENDBRANCH  11  12
ENDBRANCH   1  11
TORSDOF 14
ENDMDL
MODEL 4
REMARK VINA RESULT:    -3.996      1.195      1.824
REMARK INTER + INTRA:          -7.999
REMARK INTER:                  -7.266
REMARK INTRA:                  -0.733
REMARK UNBOUND:                -0.731
REMARK SMILES CCCCCCCCCCCCCCCC(=O)[O-]
REMARK SMILES IDX 9 1 10 2 11 3 12 4 13 5 14 6 15 7 16 8 17 9 18 10 8 11 7 12
REMARK SMILES IDX 6 13 5 14 4 15 3 16 2 17 1 18
REMARK H PARENT
REMARK Flexibility Score: inf
ROOT
ATOM      1  C   UNL     1       7.539  79.882   0.120  1.00  0.00     0.000 C 
ENDROOT
BRANCH   1   2
ATOM      2  C   UNL     1       9.029  80.097   0.447  1.00  0.00     0.000 C 
BRANCH   2   3
ATOM      3  C   UNL     1       9.968  79.560  -0.648  1.00  0.00     0.000 C 
BRANCH   3   4
ATOM      4  C   UNL     1      11.403  80.116  -0.508  1.00  0.00     0.000 C 
BRANCH   4   5
ATOM      5  C   UNL     1      12.135  79.635   0.760  1.00  0.00     0.000 C 
BRANCH   5   6
ATOM      6  C   UNL     1      13.477  78.930   0.504  1.00  0.00     0.006 C 
BRANCH   6   7
ATOM      7  C   UNL     1      13.795  78.779  -0.989  1.00  0.00     0.053 C 
BRANCH   7   8
ATOM      8  C   UNL     1      13.727  77.341  -1.391  1.00  0.00     0.041 C 
ATOM      9  O   UNL     1      14.027  76.996  -2.566  1.00  0.00    -0.550 OA
ATOM     10  O   UNL     1      13.380  76.373  -0.457  1.00  0.00    -0.550 OA
ENDBRANCH   7   8
ENDBRANCH   6   7
ENDBRANCH   5   6
ENDBRANCH   4   5
ENDBRANCH   3   4
ENDBRANCH   2   3
ENDBRANCH   1   2
BRANCH   1  11
ATOM     11  C   UNL     1       6.608  79.823   1.346  1.00  0.00     0.000 C 
BRANCH  11  12
ATOM     12  C   UNL     1       7.002  78.723   2.347  1.00  0.00    -0.000 C 
BRANCH  12  13
ATOM     13  C   UNL     1       5.926  77.633   2.479  1.00  0.00    -0.000 C 
BRANCH  13  14
ATOM     14  C   UNL     1       5.675  76.884   1.160  1.00  0.00    -0.000 C 
BRANCH  14  15
ATOM     15  C   UNL     1       5.259  75.430   1.426  1.00  0.00    -0.000 C 
BRANCH  15  16
ATOM     16  C   UNL     1       5.426  74.522   0.194  1.00  0.00    -0.000 C 
BRANCH  16  17
ATOM     17  C   UNL     1       4.479  74.841  -0.977  1.00  0.00    -0.003 C 
ATOM     18  C   UNL     1       5.180  74.826  -2.335  1.00  0.00     0.004 C 
ENDBRANCH  16  17
ENDBRANCH  15  16
ENDBRANCH  14  15
ENDBRANCH  13  14
ENDBRANCH  12  13
ENDBRANCH  11  12
ENDBRANCH   1  11
TORSDOF 14
ENDMDL
MODEL 5
REMARK VINA RESULT:    -3.747      1.207      2.473
REMARK INTER + INTRA:          -7.546
REMARK INTER:                  -7.147
REMARK INTRA:                  -0.399
REMARK UNBOUND:                -0.731
REMARK SMILES CCCCCCCCCCCCCCCC(=O)[O-]
REMARK SMILES IDX 9 1 10 2 11 3 12 4 13 5 14 6 15 7 16 8 17 9 18 10 8 11 7 12
REMARK SMILES IDX 6 13 5 14 4 15 3 16 2 17 1 18
REMARK H PARENT
REMARK Flexibility Score: inf
ROOT
ATOM      1  C   UNL     1       7.644  80.125   2.598  1.00  0.00     0.000 C 
ENDROOT
BRANCH   1   2
ATOM      2  C   UNL     1       8.343  79.097   3.506  1.00  0.00     0.000 C 
BRANCH   2   3
ATOM      3  C   UNL     1       9.610  78.497   2.871  1.00  0.00     0.000 C 
BRANCH   3   4
ATOM      4  C   UNL     1      10.428  79.552   2.093  1.00  0.00     0.000 C 
BRANCH   4   5
ATOM      5  C   UNL     1      10.063  79.643   0.598  1.00  0.00     0.000 C 
BRANCH   5   6
ATOM      6  C   UNL     1      11.246  79.937  -0.339  1.00  0.00     0.006 C 
BRANCH   6   7
ATOM      7  C   UNL     1      12.570  80.125   0.413  1.00  0.00     0.053 C 
BRANCH   7   8
ATOM      8  C   UNL     1      13.461  78.943   0.197  1.00  0.00     0.041 C 
ATOM      9  O   UNL     1      14.553  78.852   0.819  1.00  0.00    -0.550 OA
ATOM     10  O   UNL     1      13.063  77.918  -0.652  1.00  0.00    -0.550 OA
ENDBRANCH   7   8
ENDBRANCH   6   7
ENDBRANCH   5   6
ENDBRANCH   4   5
ENDBRANCH   3   4
ENDBRANCH   2   3
ENDBRANCH   1   2
BRANCH   1  11
ATOM     11  C   UNL     1       6.938  79.529   1.366  1.00  0.00     0.000 C 
BRANCH  11  12
ATOM     12  C   UNL     1       5.728  78.652   1.732  1.00  0.00    -0.000 C 
BRANCH  12  13
ATOM     13  C   UNL     1       5.659  77.364   0.896  1.00  0.00    -0.000 C 
BRANCH  13  14
ATOM     14  C   UNL     1       5.691  76.093   1.760  1.00  0.00    -0.000 C 
BRANCH  14  15
ATOM     15  C   UNL     1       5.323  74.856   0.928  1.00  0.00    -0.000 C 
BRANCH  15  16
ATOM     16  C   UNL     1       4.675  75.211  -0.423  1.00  0.00    -0.000 C 
BRANCH  16  17
ATOM     17  C   UNL     1       4.968  74.217  -1.561  1.00  0.00    -0.003 C 
ATOM     18  C   UNL     1       5.350  74.904  -2.872  1.00  0.00     0.004 C 
ENDBRANCH  16  17
ENDBRANCH  15  16
ENDBRANCH  14  15
ENDBRANCH  13  14
ENDBRANCH  12  13
ENDBRANCH  11  12
ENDBRANCH   1  11
TORSDOF 14
ENDMDL
MODEL 6
REMARK VINA RESULT:    -2.955      2.897      4.005
REMARK INTER + INTRA:          -6.104
REMARK INTER:                  -5.365
REMARK INTRA:                  -0.739
REMARK UNBOUND:                -0.731
REMARK SMILES CCCCCCCCCCCCCCCC(=O)[O-]
REMARK SMILES IDX 9 1 10 2 11 3 12 4 13 5 14 6 15 7 16 8 17 9 18 10 8 11 7 12
REMARK SMILES IDX 6 13 5 14 4 15 3 16 2 17 1 18
REMARK H PARENT
REMARK Flexibility Score: inf
ROOT
ATOM      1  C   UNL     1       9.469  78.972   2.758  1.00  0.00     0.000 C 
ENDROOT
BRANCH   1   2
ATOM      2  C   UNL     1      10.338  79.946   1.940  1.00  0.00     0.000 C 
BRANCH   2   3
ATOM      3  C   UNL     1      11.428  79.235   1.119  1.00  0.00     0.000 C 
BRANCH   3   4
ATOM      4  C   UNL     1      11.781  80.006  -0.173  1.00  0.00     0.000 C 
BRANCH   4   5
ATOM      5  C   UNL     1      13.288  80.021  -0.496  1.00  0.00     0.000 C 
BRANCH   5   6
ATOM      6  C   UNL     1      14.158  79.160   0.435  1.00  0.00     0.006 C 
BRANCH   6   7
ATOM      7  C   UNL     1      14.907  78.049  -0.310  1.00  0.00     0.053 C 
BRANCH   7   8
ATOM      8  C   UNL     1      13.939  77.161  -1.026  1.00  0.00     0.041 C 
ATOM      9  O   UNL     1      13.948  77.099  -2.284  1.00  0.00    -0.550 OA
ATOM     10  O   UNL     1      13.060  76.364  -0.303  1.00  0.00    -0.550 OA
ENDBRANCH   7   8
ENDBRANCH   6   7
ENDBRANCH   5   6
ENDBRANCH   4   5
ENDBRANCH   3   4
ENDBRANCH   2   3
ENDBRANCH   1   2
BRANCH   1  11
ATOM     11  C   UNL     1       7.964  79.298   2.770  1.00  0.00     0.000 C 
BRANCH  11  12
ATOM     12  C   UNL     1       7.208  78.599   3.913  1.00  0.00    -0.000 C 
BRANCH  12  13
ATOM     13  C   UNL     1       7.961  78.673   5.251  1.00  0.00    -0.000 C 
BRANCH  13  14
ATOM     14  C   UNL     1       7.273  77.867   6.364  1.00  0.00    -0.000 C 
BRANCH  14  15
ATOM     15  C   UNL     1       5.745  77.942   6.229  1.00  0.00    -0.000 C 
BRANCH  15  16
ATOM     16  C   UNL     1       5.009  77.556   7.526  1.00  0.00    -0.000 C 
BRANCH  16  17
ATOM     17  C   UNL     1       3.618  78.195   7.693  1.00  0.00    -0.003 C 
ATOM     18  C   UNL     1       2.654  77.835   6.563  1.00  0.00     0.004 C 
ENDBRANCH  16  17
ENDBRANCH  15  16
ENDBRANCH  14  15
ENDBRANCH  13  14
ENDBRANCH  12  13
ENDBRANCH  11  12
ENDBRANCH   1  11
TORSDOF 14
ENDMDL
MODEL 7
REMARK VINA RESULT:    -2.823      6.788     10.343
REMARK INTER + INTRA:          -5.866
REMARK INTER:                  -5.096
REMARK INTRA:                  -0.770
REMARK UNBOUND:                -0.731
REMARK SMILES CCCCCCCCCCCCCCCC(=O)[O-]
REMARK SMILES IDX 9 1 10 2 11 3 12 4 13 5 14 6 15 7 16 8 17 9 18 10 8 11 7 12
REMARK SMILES IDX 6 13 5 14 4 15 3 16 2 17 1 18
REMARK H PARENT
REMARK Flexibility Score: inf
ROOT
ATOM      1  C   UNL     1       7.379  77.924   6.220  1.00  0.00     0.000 C 
ENDROOT
BRANCH   1   2
ATOM      2  C   UNL     1       5.841  77.987   6.227  1.00  0.00     0.000 C 
BRANCH   2   3
ATOM      3  C   UNL     1       5.235  77.717   7.616  1.00  0.00     0.000 C 
BRANCH   3   4
ATOM      4  C   UNL     1       3.692  77.794   7.603  1.00  0.00     0.000 C 
BRANCH   4   5
ATOM      5  C   UNL     1       3.127  79.066   8.265  1.00  0.00     0.000 C 
BRANCH   5   6
ATOM      6  C   UNL     1       4.045  79.708   9.319  1.00  0.00     0.006 C 
BRANCH   6   7
ATOM      7  C   UNL     1       3.595  79.416  10.757  1.00  0.00     0.053 C 
BRANCH   7   8
ATOM      8  C   UNL     1       4.347  78.247  11.308  1.00  0.00     0.041 C 
ATOM      9  O   UNL     1       5.607  78.262  11.341  1.00  0.00    -0.550 OA
ATOM     10  O   UNL     1       3.657  77.160  11.831  1.00  0.00    -0.550 OA
ENDBRANCH   7   8
ENDBRANCH   6   7
ENDBRANCH   5   6
ENDBRANCH   4   5
ENDBRANCH   3   4
ENDBRANCH   2   3
ENDBRANCH   1   2
BRANCH   1  11
ATOM     11  C   UNL     1       8.056  78.732   5.097  1.00  0.00     0.000 C 
BRANCH  11  12
ATOM     12  C   UNL     1       7.324  78.616   3.748  1.00  0.00    -0.000 C 
BRANCH  12  13
ATOM     13  C   UNL     1       8.113  79.253   2.592  1.00  0.00    -0.000 C 
BRANCH  13  14
ATOM     14  C   UNL     1       9.622  78.975   2.681  1.00  0.00    -0.000 C 
BRANCH  14  15
ATOM     15  C   UNL     1      10.408  79.925   1.766  1.00  0.00    -0.000 C 
BRANCH  15  16
ATOM     16  C   UNL     1      10.931  79.237   0.491  1.00  0.00    -0.000 C 
BRANCH  16  17
ATOM     17  C   UNL     1      12.459  79.057   0.434  1.00  0.00    -0.003 C 
ATOM     18  C   UNL     1      13.204  79.955   1.421  1.00  0.00     0.004 C 
ENDBRANCH  16  17
ENDBRANCH  15  16
ENDBRANCH  14  15
ENDBRANCH  13  14
ENDBRANCH  12  13
ENDBRANCH  11  12
ENDBRANCH   1  11
TORSDOF 14
ENDMDL
MODEL 8
REMARK VINA RESULT:    -2.742      6.099      9.598
REMARK INTER + INTRA:          -5.718
REMARK INTER:                  -5.166
REMARK INTRA:                  -0.552
REMARK UNBOUND:                -0.731
REMARK SMILES CCCCCCCCCCCCCCCC(=O)[O-]
REMARK SMILES IDX 9 1 10 2 11 3 12 4 13 5 14 6 15 7 16 8 17 9 18 10 8 11 7 12
REMARK SMILES IDX 6 13 5 14 4 15 3 16 2 17 1 18
REMARK H PARENT
REMARK Flexibility Score: inf
ROOT
ATOM      1  C   UNL     1       7.655  78.644   3.462  1.00  0.00     0.000 C 
ENDROOT
BRANCH   1   2
ATOM      2  C   UNL     1       8.001  79.063   4.902  1.00  0.00     0.000 C 
BRANCH   2   3
ATOM      3  C   UNL     1       7.604  78.007   5.948  1.00  0.00     0.000 C 
BRANCH   3   4
ATOM      4  C   UNL     1       6.072  77.904   6.120  1.00  0.00     0.000 C 
BRANCH   4   5
ATOM      5  C   UNL     1       5.613  77.853   7.591  1.00  0.00     0.000 C 
BRANCH   5   6
ATOM      6  C   UNL     1       4.091  77.932   7.797  1.00  0.00     0.006 C 
BRANCH   6   7
ATOM      7  C   UNL     1       3.677  79.067   8.741  1.00  0.00     0.053 C 
BRANCH   7   8
ATOM      8  C   UNL     1       3.956  78.689  10.161  1.00  0.00     0.041 C 
ATOM      9  O   UNL     1       3.861  77.487  10.527  1.00  0.00    -0.550 OA
ATOM     10  O   UNL     1       4.370  79.655  11.070  1.00  0.00    -0.550 OA
ENDBRANCH   7   8
ENDBRANCH   6   7
ENDBRANCH   5   6
ENDBRANCH   4   5
ENDBRANCH   3   4
ENDBRANCH   2   3
ENDBRANCH   1   2
BRANCH   1  11
ATOM     11  C   UNL     1       7.697  79.782   2.426  1.00  0.00     0.000 C 
BRANCH  11  12
ATOM     12  C   UNL     1       8.946  79.731   1.529  1.00  0.00    -0.000 C 
BRANCH  12  13
ATOM     13  C   UNL     1      10.253  79.694   2.338  1.00  0.00    -0.000 C 
BRANCH  13  14
ATOM     14  C   UNL     1      11.504  79.715   1.446  1.00  0.00    -0.000 C 
BRANCH  14  15
ATOM     15  C   UNL     1      11.133  79.468  -0.023  1.00  0.00    -0.000 C 
BRANCH  15  16
ATOM     16  C   UNL     1      12.308  78.923  -0.856  1.00  0.00    -0.000 C 
BRANCH  16  17
ATOM     17  C   UNL     1      13.167  77.862  -0.145  1.00  0.00    -0.003 C 
ATOM     18  C   UNL     1      13.448  76.638  -1.015  1.00  0.00     0.004 C 
ENDBRANCH  16  17
ENDBRANCH  15  16
ENDBRANCH  14  15
ENDBRANCH  13  14
ENDBRANCH  12  13
ENDBRANCH  11  12
ENDBRANCH   1  11
TORSDOF 14
ENDMDL
MODEL 9
REMARK VINA RESULT:    -2.687      4.751      6.184
REMARK INTER + INTRA:          -5.618
REMARK INTER:                  -5.066
REMARK INTRA:                  -0.552
REMARK UNBOUND:                -0.731
REMARK SMILES CCCCCCCCCCCCCCCC(=O)[O-]
REMARK SMILES IDX 9 1 10 2 11 3 12 4 13 5 14 6 15 7 16 8 17 9 18 10 8 11 7 12
REMARK SMILES IDX 6 13 5 14 4 15 3 16 2 17 1 18
REMARK H PARENT
REMARK Flexibility Score: inf
ROOT
ATOM      1  C   UNL     1       7.997  79.120   5.049  1.00  0.00     0.000 C 
ENDROOT
BRANCH   1   2
ATOM      2  C   UNL     1       8.512  78.628   3.684  1.00  0.00     0.000 C 
BRANCH   2   3
ATOM      3  C   UNL     1       7.696  79.176   2.500  1.00  0.00     0.000 C 
BRANCH   3   4
ATOM      4  C   UNL     1       8.589  79.873   1.450  1.00  0.00     0.000 C 
BRANCH   4   5
ATOM      5  C   UNL     1      10.099  79.702   1.705  1.00  0.00     0.000 C 
BRANCH   5   6
ATOM      6  C   UNL     1      10.923  79.302   0.470  1.00  0.00     0.006 C 
BRANCH   6   7
ATOM      7  C   UNL     1      12.419  79.598   0.631  1.00  0.00     0.053 C 
BRANCH   7   8
ATOM      8  C   UNL     1      13.213  78.814  -0.365  1.00  0.00     0.041 C 
ATOM      9  O   UNL     1      14.136  79.370  -1.018  1.00  0.00    -0.550 OA
ATOM     10  O   UNL     1      12.968  77.457  -0.537  1.00  0.00    -0.550 OA
ENDBRANCH   7   8
ENDBRANCH   6   7
ENDBRANCH   5   6
ENDBRANCH   4   5
ENDBRANCH   3   4
ENDBRANCH   2   3
ENDBRANCH   1   2
BRANCH   1  11
ATOM     11  C   UNL     1       7.545  78.006   6.012  1.00  0.00     0.000 C 
BRANCH  11  12
ATOM     12  C   UNL     1       6.015  77.852   6.077  1.00  0.00    -0.000 C 
BRANCH  12  13
ATOM     13  C   UNL     1       5.486  77.827   7.520  1.00  0.00    -0.000 C 
BRANCH  13  14
ATOM     14  C   UNL     1       3.950  77.805   7.588  1.00  0.00    -0.000 C 
BRANCH  14  15
ATOM     15  C   UNL     1       3.426  78.936   8.484  1.00  0.00    -0.000 C 
BRANCH  15  16
ATOM     16  C   UNL     1       4.103  78.970   9.866  1.00  0.00    -0.000 C 
BRANCH  16  17
ATOM     17  C   UNL     1       3.858  77.725  10.737  1.00  0.00    -0.003 C 
ATOM     18  C   UNL     1       3.309  78.061  12.123  1.00  0.00     0.004 C 
ENDBRANCH  16  17
ENDBRANCH  15  16
ENDBRANCH  14  15
ENDBRANCH  13  14
ENDBRANCH  12  13
ENDBRANCH  11  12
ENDBRANCH   1  11
TORSDOF 14
ENDMDL
