MODEL 1
REMARK VINA RESULT:    -2.020      0.000      0.000
REMARK INTER + INTRA:          -1.887
REMARK INTER:                  -2.375
REMARK INTRA:                   0.488
REMARK UNBOUND:                 0.488
REMARK SMILES O=c1c(O)c(-c2ccc(O)cc2)oc2cc(O)cc(O)c12
REMARK SMILES IDX 5 1 3 2 2 3 1 4 21 5 19 6 18 7 16 8 15 9 14 10 13 11 6 12
REMARK SMILES IDX 7 13 8 14 9 15 12 16 11 17 10 18 4 20 20 22 17 24
REMARK H PARENT 10 19 4 21 20 23 17 25
REMARK Flexibility Score: inf
ROOT
ATOM      1  C   UNL     1      54.269   7.644   6.953  1.00  0.00     0.180 A 
ATOM      2  C   UNL     1      53.037   7.832   7.607  1.00  0.00     0.208 A 
ATOM      3  C   UNL     1      52.982   7.694   9.003  1.00  0.00     0.238 A 
ATOM      4  O   UNL     1      51.886   7.871   9.601  1.00  0.00    -0.285 OA
ATOM      5  C   UNL     1      54.148   7.349   9.715  1.00  0.00     0.111 A 
ATOM      6  C   UNL     1      54.177   7.185  11.122  1.00  0.00     0.134 A 
ATOM      7  C   UNL     1      55.378   6.832  11.757  1.00  0.00     0.093 A 
ATOM      8  C   UNL     1      56.547   6.640  11.014  1.00  0.00     0.123 A 
ATOM      9  C   UNL     1      56.524   6.801   9.627  1.00  0.00     0.094 A 
ATOM     10  C   UNL     1      55.338   7.154   8.976  1.00  0.00     0.146 A 
ATOM     11  O   UNL     1      55.346   7.305   7.656  1.00  0.00    -0.452 OA
ENDROOT
BRANCH   1  12
ATOM     12  C   UNL     1      54.412   7.792   5.487  1.00  0.00     0.021 A 
ATOM     13  C   UNL     1      53.270   7.730   4.670  1.00  0.00     0.016 A 
ATOM     14  C   UNL     1      53.385   7.845   3.281  1.00  0.00     0.047 A 
ATOM     15  C   UNL     1      54.641   8.008   2.690  1.00  0.00     0.115 A 
ATOM     16  C   UNL     1      55.675   7.935   4.884  1.00  0.00     0.016 A 
ATOM     17  C   UNL     1      55.787   8.050   3.495  1.00  0.00     0.047 A 
BRANCH  15  18
ATOM     18  O   UNL     1      54.740   8.122   1.305  1.00  0.00    -0.508 OA
ATOM     19  H   UNL     1      55.360   7.524   0.769  1.00  0.00     0.293 HD
ENDBRANCH  15  18
ENDBRANCH   1  12
BRANCH   2  20
ATOM     20  O   UNL     1      51.885   8.124   6.873  1.00  0.00    -0.502 OA
ATOM     21  H   UNL     1      51.403   7.426   6.320  1.00  0.00     0.293 HD
ENDBRANCH   2  20
BRANCH   6  22
ATOM     22  O   UNL     1      53.027   7.370  11.890  1.00  0.00    -0.507 OA
ATOM     23  H   UNL     1      52.104   7.395  11.472  1.00  0.00     0.293 HD
ENDBRANCH   6  22
BRANCH   8  24
ATOM     24  O   UNL     1      57.739   6.288  11.644  1.00  0.00    -0.508 OA
ATOM     25  H   UNL     1      58.017   6.708  12.523  1.00  0.00     0.293 HD
ENDBRANCH   8  24
TORSDOF 5
ENDMDL
MODEL 2
REMARK VINA RESULT:    -1.506      1.615      3.355
REMARK INTER + INTRA:          -1.283
REMARK INTER:                  -1.748
REMARK INTRA:                   0.466
REMARK UNBOUND:                 0.488
REMARK SMILES O=c1c(O)c(-c2ccc(O)cc2)oc2cc(O)cc(O)c12
REMARK SMILES IDX 5 1 3 2 2 3 1 4 21 5 19 6 18 7 16 8 15 9 14 10 13 11 6 12
REMARK SMILES IDX 7 13 8 14 9 15 12 16 11 17 10 18 4 20 20 22 17 24
REMARK H PARENT 10 19 4 21 20 23 17 25
REMARK Flexibility Score: inf
ROOT
ATOM      1  C   UNL     1      54.235   8.025   5.333  1.00  0.00     0.180 A 
ATOM      2  C   UNL     1      55.604   8.069   5.654  1.00  0.00     0.208 A 
ATOM      3  C   UNL     1      55.984   8.086   7.005  1.00  0.00     0.238 A 
ATOM      4  O   UNL     1      57.209   8.115   7.306  1.00  0.00    -0.285 OA
ATOM      5  C   UNL     1      54.993   8.080   8.008  1.00  0.00     0.111 A 
ATOM      6  C   UNL     1      55.291   8.101   9.392  1.00  0.00     0.134 A 
ATOM      7  C   UNL     1      54.247   8.102  10.329  1.00  0.00     0.093 A 
ATOM      8  C   UNL     1      52.913   8.084   9.909  1.00  0.00     0.123 A 
ATOM      9  C   UNL     1      52.613   8.063   8.545  1.00  0.00     0.094 A 
ATOM     10  C   UNL     1      53.640   8.060   7.596  1.00  0.00     0.146 A 
ATOM     11  O   UNL     1      53.327   8.035   6.305  1.00  0.00    -0.452 OA
ENDROOT
BRANCH   1  12
ATOM     12  C   UNL     1      53.756   7.985   3.933  1.00  0.00     0.021 A 
ATOM     13  C   UNL     1      52.378   8.078   3.670  1.00  0.00     0.016 A 
ATOM     14  C   UNL     1      51.902   8.020   2.356  1.00  0.00     0.047 A 
ATOM     15  C   UNL     1      52.792   7.854   1.292  1.00  0.00     0.115 A 
ATOM     16  C   UNL     1      54.644   7.796   2.859  1.00  0.00     0.016 A 
ATOM     17  C   UNL     1      54.165   7.739   1.546  1.00  0.00     0.047 A 
BRANCH  15  18
ATOM     18  O   UNL     1      52.303   7.797  -0.012  1.00  0.00    -0.508 OA
ATOM     19  H   UNL     1      51.842   8.594  -0.438  1.00  0.00     0.293 HD
ENDBRANCH  15  18
ENDBRANCH   1  12
BRANCH   2  20
ATOM     20  O   UNL     1      56.566   8.124   4.642  1.00  0.00    -0.502 OA
ATOM     21  H   UNL     1      56.850   8.996   4.210  1.00  0.00     0.293 HD
ENDBRANCH   2  20
BRANCH   6  22
ATOM     22  O   UNL     1      56.612   8.120   9.842  1.00  0.00    -0.507 OA
ATOM     23  H   UNL     1      56.984   7.387  10.435  1.00  0.00     0.293 HD
ENDBRANCH   6  22
BRANCH   8  24
ATOM     24  O   UNL     1      51.875   8.087  10.839  1.00  0.00    -0.508 OA
ATOM     25  H   UNL     1      51.189   8.832  10.864  1.00  0.00     0.293 HD
ENDBRANCH   8  24
TORSDOF 5
ENDMDL
MODEL 3
REMARK VINA RESULT:     0.078      4.600      5.875
REMARK INTER + INTRA:           0.580
REMARK INTER:                   0.858
REMARK INTRA:                  -0.279
REMARK UNBOUND:                 0.488
REMARK SMILES O=c1c(O)c(-c2ccc(O)cc2)oc2cc(O)cc(O)c12
REMARK SMILES IDX 5 1 3 2 2 3 1 4 21 5 19 6 18 7 16 8 15 9 14 10 13 11 6 12
REMARK SMILES IDX 7 13 8 14 9 15 12 16 11 17 10 18 4 20 20 22 17 24
REMARK H PARENT 10 19 4 21 20 23 17 25
REMARK Flexibility Score: inf
ROOT
ATOM      1  C   UNL     1      56.103   6.063  10.821  1.00  0.00     0.180 A 
ATOM      2  C   UNL     1      55.578   6.472  12.061  1.00  0.00     0.208 A 
ATOM      3  C   UNL     1      54.375   5.904  12.509  1.00  0.00     0.238 A 
ATOM      4  O   UNL     1      53.900   6.255  13.622  1.00  0.00    -0.285 OA
ATOM      5  C   UNL     1      53.710   4.956  11.704  1.00  0.00     0.111 A 
ATOM      6  C   UNL     1      52.492   4.339  12.080  1.00  0.00     0.134 A 
ATOM      7  C   UNL     1      51.888   3.411  11.219  1.00  0.00     0.093 A 
ATOM      8  C   UNL     1      52.477   3.089   9.991  1.00  0.00     0.123 A 
ATOM      9  C   UNL     1      53.678   3.694   9.617  1.00  0.00     0.094 A 
ATOM     10  C   UNL     1      54.297   4.620  10.461  1.00  0.00     0.146 A 
ATOM     11  O   UNL     1      55.442   5.177  10.082  1.00  0.00    -0.452 OA
ENDROOT
BRANCH   1  12
ATOM     12  C   UNL     1      57.376   6.601  10.290  1.00  0.00     0.021 A 
ATOM     13  C   UNL     1      57.347   7.582   9.284  1.00  0.00     0.016 A 
ATOM     14  C   UNL     1      58.537   8.088   8.752  1.00  0.00     0.047 A 
ATOM     15  C   UNL     1      59.769   7.611   9.206  1.00  0.00     0.115 A 
ATOM     16  C   UNL     1      58.620   6.110  10.728  1.00  0.00     0.016 A 
ATOM     17  C   UNL     1      59.808   6.618  10.194  1.00  0.00     0.047 A 
BRANCH  15  18
ATOM     18  O   UNL     1      60.947   8.125   8.667  1.00  0.00    -0.508 OA
ATOM     19  H   UNL     1      60.941   8.941   8.065  1.00  0.00     0.293 HD
ENDBRANCH  15  18
ENDBRANCH   1  12
BRANCH   2  20
ATOM     20  O   UNL     1      56.230   7.450  12.816  1.00  0.00    -0.502 OA
ATOM     21  H   UNL     1      57.054   7.247  13.370  1.00  0.00     0.293 HD
ENDBRANCH   2  20
BRANCH   6  22
ATOM     22  O   UNL     1      51.880   4.640  13.297  1.00  0.00    -0.507 OA
ATOM     23  H   UNL     1      51.598   5.585  13.533  1.00  0.00     0.293 HD
ENDBRANCH   6  22
BRANCH   8  24
ATOM     24  O   UNL     1      51.876   2.168   9.135  1.00  0.00    -0.508 OA
ATOM     25  H   UNL     1      50.955   2.330   8.745  1.00  0.00     0.293 HD
ENDBRANCH   8  24
TORSDOF 5
ENDMDL
