MODEL 1
REMARK VINA RESULT:     8.464      0.000      0.000
REMARK INTER + INTRA:           8.464
REMARK INTER:                   8.464
REMARK INTRA:                   0.000
REMARK UNBOUND:                 0.000
REMARK SMILES C=C1CC[C@@H]2C[C@H]1C2(C)C
REMARK SMILES IDX 9 1 8 2 5 3 4 4 3 5 2 6 1 7 7 8 6 9 10 10
REMARK H PARENT
REMARK Flexibility Score: inf
ROOT
ATOM      1  C   UNL     1      -1.820   5.030 -10.404  1.00  0.00     0.012 C 
ATOM      2  C   UNL     1      -0.501   5.669 -10.920  1.00  0.00    -0.026 C 
ATOM      3  C   UNL     1       0.825   4.889 -10.732  1.00  0.00    -0.004 C 
ATOM      4  C   UNL     1       0.836   4.118  -9.373  1.00  0.00     0.008 C 
ATOM      5  C   UNL     1       0.466   5.042  -8.150  1.00  0.00     0.031 C 
ATOM      6  C   UNL     1       0.017   6.444  -8.593  1.00  0.00    -0.074 C 
ATOM      7  C   UNL     1      -0.471   7.327  -7.716  1.00  0.00     0.008 C 
ATOM      8  C   UNL     1       0.156   6.783 -10.073  1.00  0.00     0.021 C 
ATOM      9  C   UNL     1       1.533   6.231 -10.479  1.00  0.00     0.012 C 
ATOM     10  C   UNL     1      -0.712   6.105 -12.392  1.00  0.00     0.012 C 
ENDROOT
TORSDOF 0
ENDMDL
MODEL 2
REMARK VINA RESULT:     9.256     10.315     11.618
REMARK INTER + INTRA:           9.256
REMARK INTER:                   9.256
REMARK INTRA:                   0.000
REMARK UNBOUND:                 0.000
REMARK SMILES C=C1CC[C@@H]2C[C@H]1C2(C)C
REMARK SMILES IDX 9 1 8 2 5 3 4 4 3 5 2 6 1 7 7 8 6 9 10 10
REMARK H PARENT
REMARK Flexibility Score: inf
ROOT
ATOM      1  C   UNL     1      10.999   6.566  -8.903  1.00  0.00     0.012 C 
ATOM      2  C   UNL     1      11.718   7.742  -8.188  1.00  0.00    -0.026 C 
ATOM      3  C   UNL     1      12.367   7.486  -6.804  1.00  0.00    -0.004 C 
ATOM      4  C   UNL     1      11.508   6.494  -5.956  1.00  0.00     0.008 C 
ATOM      5  C   UNL     1       9.993   6.922  -5.875  1.00  0.00     0.031 C 
ATOM      6  C   UNL     1       9.675   8.120  -6.785  1.00  0.00    -0.074 C 
ATOM      7  C   UNL     1       8.420   8.544  -6.963  1.00  0.00     0.008 C 
ATOM      8  C   UNL     1      10.854   8.804  -7.469  1.00  0.00     0.021 C 
ATOM      9  C   UNL     1      11.940   8.903  -6.385  1.00  0.00     0.012 C 
ATOM     10  C   UNL     1      12.716   8.384  -9.185  1.00  0.00     0.012 C 
ENDROOT
TORSDOF 0
ENDMDL
MODEL 3
REMARK VINA RESULT:     9.870      0.892      2.731
REMARK INTER + INTRA:           9.870
REMARK INTER:                   9.870
REMARK INTRA:                   0.000
REMARK UNBOUND:                 0.000
REMARK SMILES C=C1CC[C@@H]2C[C@H]1C2(C)C
REMARK SMILES IDX 9 1 8 2 5 3 4 4 3 5 2 6 1 7 7 8 6 9 10 10
REMARK H PARENT
REMARK Flexibility Score: inf
ROOT
ATOM      1  C   UNL     1       1.235   6.681 -11.526  1.00  0.00     0.012 C 
ATOM      2  C   UNL     1      -0.137   6.056 -11.154  1.00  0.00    -0.026 C 
ATOM      3  C   UNL     1      -0.821   6.497  -9.835  1.00  0.00    -0.004 C 
ATOM      4  C   UNL     1       0.234   6.738  -8.708  1.00  0.00     0.008 C 
ATOM      5  C   UNL     1       1.221   5.521  -8.533  1.00  0.00     0.031 C 
ATOM      6  C   UNL     1       1.027   4.451  -9.619  1.00  0.00    -0.074 C 
ATOM      7  C   UNL     1       1.859   3.411  -9.726  1.00  0.00     0.008 C 
ATOM      8  C   UNL     1      -0.157   4.627 -10.564  1.00  0.00     0.021 C 
ATOM      9  C   UNL     1      -1.326   5.055  -9.660  1.00  0.00     0.012 C 
ATOM     10  C   UNL     1      -1.084   6.196 -12.372  1.00  0.00     0.012 C 
ENDROOT
TORSDOF 0
ENDMDL
MODEL 4
REMARK VINA RESULT:    10.200      1.030      2.859
REMARK INTER + INTRA:          10.200
REMARK INTER:                  10.200
REMARK INTRA:                   0.000
REMARK UNBOUND:                 0.000
REMARK SMILES C=C1CC[C@@H]2C[C@H]1C2(C)C
REMARK SMILES IDX 9 1 8 2 5 3 4 4 3 5 2 6 1 7 7 8 6 9 10 10
REMARK H PARENT
REMARK Flexibility Score: inf
ROOT
ATOM      1  C   UNL     1       0.153   3.354  -9.068  1.00  0.00     0.012 C 
ATOM      2  C   UNL     1       1.161   4.412  -9.596  1.00  0.00    -0.026 C 
ATOM      3  C   UNL     1       1.348   5.726  -8.797  1.00  0.00    -0.004 C 
ATOM      4  C   UNL     1      -0.007   6.208  -8.185  1.00  0.00     0.008 C 
ATOM      5  C   UNL     1      -1.164   6.276  -9.254  1.00  0.00     0.031 C 
ATOM      6  C   UNL     1      -0.739   5.694 -10.611  1.00  0.00    -0.074 C 
ATOM      7  C   UNL     1      -1.618   5.534 -11.605  1.00  0.00     0.008 C 
ATOM      8  C   UNL     1       0.729   5.314 -10.776  1.00  0.00     0.021 C 
ATOM      9  C   UNL     1       1.513   6.470 -10.133  1.00  0.00     0.012 C 
ATOM     10  C   UNL     1       2.512   3.705  -9.871  1.00  0.00     0.012 C 
ENDROOT
TORSDOF 0
ENDMDL
MODEL 5
REMARK VINA RESULT:    10.330      0.969      3.076
REMARK INTER + INTRA:          10.330
REMARK INTER:                  10.330
REMARK INTRA:                   0.000
REMARK UNBOUND:                 0.000
REMARK SMILES C=C1CC[C@@H]2C[C@H]1C2(C)C
REMARK SMILES IDX 9 1 8 2 5 3 4 4 3 5 2 6 1 7 7 8 6 9 10 10
REMARK H PARENT
REMARK Flexibility Score: inf
ROOT
ATOM      1  C   UNL     1      -1.368   5.607  -8.494  1.00  0.00     0.012 C 
ATOM      2  C   UNL     1       0.023   6.275  -8.666  1.00  0.00    -0.026 C 
ATOM      3  C   UNL     1       0.394   6.876 -10.046  1.00  0.00    -0.004 C 
ATOM      4  C   UNL     1      -0.180   6.004 -11.210  1.00  0.00     0.008 C 
ATOM      5  C   UNL     1       0.191   4.479 -11.063  1.00  0.00     0.031 C 
ATOM      6  C   UNL     1       0.885   4.173  -9.727  1.00  0.00    -0.074 C 
ATOM      7  C   UNL     1       1.152   2.918  -9.354  1.00  0.00     0.008 C 
ATOM      8  C   UNL     1       1.259   5.363  -8.849  1.00  0.00     0.021 C 
ATOM      9  C   UNL     1       1.840   6.405  -9.819  1.00  0.00     0.012 C 
ATOM     10  C   UNL     1       0.220   7.297  -7.519  1.00  0.00     0.012 C 
ENDROOT
TORSDOF 0
ENDMDL
MODEL 6
REMARK VINA RESULT:    10.468      1.002      3.159
REMARK INTER + INTRA:          10.468
REMARK INTER:                  10.468
REMARK INTRA:                   0.000
REMARK UNBOUND:                 0.000
REMARK SMILES C=C1CC[C@@H]2C[C@H]1C2(C)C
REMARK SMILES IDX 9 1 8 2 5 3 4 4 3 5 2 6 1 7 7 8 6 9 10 10
REMARK H PARENT
REMARK Flexibility Score: inf
ROOT
ATOM      1  C   UNL     1       0.754   3.671  -9.755  1.00  0.00     0.012 C 
ATOM      2  C   UNL     1       1.110   5.175  -9.597  1.00  0.00    -0.026 C 
ATOM      3  C   UNL     1       0.178   6.074  -8.745  1.00  0.00    -0.004 C 
ATOM      4  C   UNL     1      -1.319   5.664  -8.928  1.00  0.00     0.008 C 
ATOM      5  C   UNL     1      -1.740   5.572 -10.444  1.00  0.00     0.031 C 
ATOM      6  C   UNL     1      -0.544   5.741 -11.394  1.00  0.00    -0.074 C 
ATOM      7  C   UNL     1      -0.671   5.557 -12.712  1.00  0.00     0.008 C 
ATOM      8  C   UNL     1       0.790   6.133 -10.768  1.00  0.00     0.021 C 
ATOM      9  C   UNL     1       0.441   7.220  -9.738  1.00  0.00     0.012 C 
ATOM     10  C   UNL     1       2.588   5.282  -9.145  1.00  0.00     0.012 C 
ENDROOT
TORSDOF 0
ENDMDL
MODEL 7
REMARK VINA RESULT:    10.614      0.973      3.256
REMARK INTER + INTRA:          10.614
REMARK INTER:                  10.614
REMARK INTRA:                   0.000
REMARK UNBOUND:                 0.000
REMARK SMILES C=C1CC[C@@H]2C[C@H]1C2(C)C
REMARK SMILES IDX 9 1 8 2 5 3 4 4 3 5 2 6 1 7 7 8 6 9 10 10
REMARK H PARENT
REMARK Flexibility Score: inf
ROOT
ATOM      1  C   UNL     1      -0.539   7.412  -8.957  1.00  0.00     0.012 C 
ATOM      2  C   UNL     1       0.155   6.022  -8.944  1.00  0.00    -0.026 C 
ATOM      3  C   UNL     1       1.483   5.848  -9.724  1.00  0.00    -0.004 C 
ATOM      4  C   UNL     1       1.470   6.677 -11.048  1.00  0.00     0.008 C 
ATOM      5  C   UNL     1       0.184   6.405 -11.919  1.00  0.00     0.031 C 
ATOM      6  C   UNL     1      -0.839   5.520 -11.190  1.00  0.00    -0.074 C 
ATOM      7  C   UNL     1      -2.051   5.291 -11.703  1.00  0.00     0.008 C 
ATOM      8  C   UNL     1      -0.408   4.911  -9.860  1.00  0.00     0.021 C 
ATOM      9  C   UNL     1       1.032   4.424 -10.094  1.00  0.00     0.012 C 
ATOM     10  C   UNL     1       0.282   5.554  -7.472  1.00  0.00     0.012 C 
ENDROOT
TORSDOF 0
ENDMDL
