MODEL 1
REMARK VINA RESULT:    -3.969      0.000      0.000
REMARK INTER + INTRA:         -10.524
REMARK INTER:                  -7.682
REMARK INTRA:                  -2.842
REMARK UNBOUND:                -2.842
REMARK SMILES CCCCCCCCCCCCCCCCCC(=O)[O-]
REMARK SMILES IDX 10 1 11 2 12 3 13 4 14 5 15 6 16 7 17 8 18 9 19 10 20 11
REMARK SMILES IDX 9 12 8 13 7 14 6 15 5 16 4 17 3 18 2 19 1 20
REMARK H PARENT
REMARK Flexibility Score: inf
ROOT
ATOM      1  C   UNL     1      31.372   6.964  32.735  1.00  0.00     0.000 C 
ENDROOT
BRANCH   1   2
ATOM      2  C   UNL     1      31.595   7.218  31.234  1.00  0.00     0.000 C 
BRANCH   2   3
ATOM      3  C   UNL     1      30.398   6.779  30.376  1.00  0.00     0.000 C 
BRANCH   3   4
ATOM      4  C   UNL     1      30.260   7.605  29.088  1.00  0.00     0.000 C 
BRANCH   4   5
ATOM      5  C   UNL     1      31.636   8.021  28.553  1.00  0.00     0.000 C 
BRANCH   5   6
ATOM      6  C   UNL     1      31.665   9.515  28.211  1.00  0.00     0.000 C 
BRANCH   6   7
ATOM      7  C   UNL     1      30.875  10.332  29.245  1.00  0.00     0.006 C 
BRANCH   7   8
ATOM      8  C   UNL     1      30.157  11.532  28.611  1.00  0.00     0.053 C 
BRANCH   8   9
ATOM      9  C   UNL     1      28.756  11.189  28.207  1.00  0.00     0.041 C 
ATOM     10  O   UNL     1      28.509  10.805  27.033  1.00  0.00    -0.550 OA
ATOM     11  O   UNL     1      27.727  11.261  29.138  1.00  0.00    -0.550 OA
ENDBRANCH   8   9
ENDBRANCH   7   8
ENDBRANCH   6   7
ENDBRANCH   5   6
ENDBRANCH   4   5
ENDBRANCH   3   4
ENDBRANCH   2   3
ENDBRANCH   1   2
BRANCH   1  12
ATOM     12  C   UNL     1      31.459   8.253  33.568  1.00  0.00     0.000 C 
BRANCH  12  13
ATOM     13  C   UNL     1      31.613   9.509  32.693  1.00  0.00    -0.000 C 
BRANCH  13  14
ATOM     14  C   UNL     1      32.476  10.596  33.360  1.00  0.00    -0.000 C 
BRANCH  14  15
ATOM     15  C   UNL     1      33.847  10.840  32.694  1.00  0.00    -0.000 C 
BRANCH  15  16
ATOM     16  C   UNL     1      33.876  10.671  31.164  1.00  0.00    -0.000 C 
BRANCH  16  17
ATOM     17  C   UNL     1      35.130   9.937  30.666  1.00  0.00    -0.000 C 
BRANCH  17  18
ATOM     18  C   UNL     1      34.856   8.467  30.303  1.00  0.00    -0.000 C 
BRANCH  18  19
ATOM     19  C   UNL     1      35.672   7.459  31.140  1.00  0.00    -0.003 C 
ATOM     20  C   UNL     1      35.124   7.304  32.558  1.00  0.00     0.004 C 
ENDBRANCH  18  19
ENDBRANCH  17  18
ENDBRANCH  16  17
ENDBRANCH  15  16
ENDBRANCH  14  15
ENDBRANCH  13  14
ENDBRANCH  12  13
ENDBRANCH   1  12
TORSDOF 16
ENDMDL
MODEL 2
REMARK VINA RESULT:    -3.897      1.338      3.185
REMARK INTER + INTRA:         -10.383
REMARK INTER:                  -7.655
REMARK INTRA:                  -2.728
REMARK UNBOUND:                -2.842
REMARK SMILES CCCCCCCCCCCCCCCCCC(=O)[O-]
REMARK SMILES IDX 10 1 11 2 12 3 13 4 14 5 15 6 16 7 17 8 18 9 19 10 20 11
REMARK SMILES IDX 9 12 8 13 7 14 6 15 5 16 4 17 3 18 2 19 1 20
REMARK H PARENT
REMARK Flexibility Score: inf
ROOT
ATOM      1  C   UNL     1      29.803   7.043  30.368  1.00  0.00     0.000 C 
ENDROOT
BRANCH   1   2
ATOM      2  C   UNL     1      30.995   6.638  31.254  1.00  0.00     0.000 C 
BRANCH   2   3
ATOM      3  C   UNL     1      31.109   7.502  32.520  1.00  0.00     0.000 C 
BRANCH   3   4
ATOM      4  C   UNL     1      32.446   8.255  32.601  1.00  0.00     0.000 C 
BRANCH   4   5
ATOM      5  C   UNL     1      32.219   9.769  32.698  1.00  0.00     0.000 C 
BRANCH   5   6
ATOM      6  C   UNL     1      30.739  10.117  32.503  1.00  0.00     0.000 C 
BRANCH   6   7
ATOM      7  C   UNL     1      30.526  10.908  31.203  1.00  0.00     0.006 C 
BRANCH   7   8
ATOM      8  C   UNL     1      29.089  10.786  30.678  1.00  0.00     0.053 C 
BRANCH   8   9
ATOM      9  C   UNL     1      28.782  11.838  29.656  1.00  0.00     0.041 C 
ATOM     10  O   UNL     1      28.954  11.603  28.431  1.00  0.00    -0.550 OA
ATOM     11  O   UNL     1      28.272  13.066  30.056  1.00  0.00    -0.550 OA
ENDBRANCH   8   9
ENDBRANCH   7   8
ENDBRANCH   6   7
ENDBRANCH   5   6
ENDBRANCH   4   5
ENDBRANCH   3   4
ENDBRANCH   2   3
ENDBRANCH   1   2
BRANCH   1  12
ATOM     12  C   UNL     1      30.142   6.992  28.870  1.00  0.00     0.000 C 
BRANCH  12  13
ATOM     13  C   UNL     1      30.480   8.379  28.295  1.00  0.00    -0.000 C 
BRANCH  13  14
ATOM     14  C   UNL     1      31.979   8.545  27.987  1.00  0.00    -0.000 C 
BRANCH  14  15
ATOM     15  C   UNL     1      32.795   9.266  29.082  1.00  0.00    -0.000 C 
BRANCH  15  16
ATOM     16  C   UNL     1      34.109   8.573  29.486  1.00  0.00    -0.000 C 
BRANCH  16  17
ATOM     17  C   UNL     1      35.063   9.500  30.256  1.00  0.00    -0.000 C 
BRANCH  17  18
ATOM     18  C   UNL     1      36.424   8.844  30.548  1.00  0.00    -0.000 C 
BRANCH  18  19
ATOM     19  C   UNL     1      36.564   8.327  31.995  1.00  0.00    -0.003 C 
ATOM     20  C   UNL     1      35.921   6.953  32.186  1.00  0.00     0.004 C 
ENDBRANCH  18  19
ENDBRANCH  17  18
ENDBRANCH  16  17
ENDBRANCH  15  16
ENDBRANCH  14  15
ENDBRANCH  13  14
ENDBRANCH  12  13
ENDBRANCH   1  12
TORSDOF 16
ENDMDL
MODEL 3
REMARK VINA RESULT:    -3.873      1.499      4.433
REMARK INTER + INTRA:         -10.337
REMARK INTER:                  -7.341
REMARK INTRA:                  -2.996
REMARK UNBOUND:                -2.842
REMARK SMILES CCCCCCCCCCCCCCCCCC(=O)[O-]
REMARK SMILES IDX 10 1 11 2 12 3 13 4 14 5 15 6 16 7 17 8 18 9 19 10 20 11
REMARK SMILES IDX 9 12 8 13 7 14 6 15 5 16 4 17 3 18 2 19 1 20
REMARK H PARENT
REMARK Flexibility Score: inf
ROOT
ATOM      1  C   UNL     1      34.043   8.544  30.195  1.00  0.00     0.000 C 
ENDROOT
BRANCH   1   2
ATOM      2  C   UNL     1      34.372   9.983  30.633  1.00  0.00     0.000 C 
BRANCH   2   3
ATOM      3  C   UNL     1      34.077  10.229  32.121  1.00  0.00     0.000 C 
BRANCH   3   4
ATOM      4  C   UNL     1      33.487  11.624  32.382  1.00  0.00     0.000 C 
BRANCH   4   5
ATOM      5  C   UNL     1      31.996  11.532  32.729  1.00  0.00     0.000 C 
BRANCH   5   6
ATOM      6  C   UNL     1      31.126  11.752  31.485  1.00  0.00     0.000 C 
BRANCH   6   7
ATOM      7  C   UNL     1      29.661  11.387  31.767  1.00  0.00     0.006 C 
BRANCH   7   8
ATOM      8  C   UNL     1      28.948  10.841  30.522  1.00  0.00     0.053 C 
BRANCH   8   9
ATOM      9  C   UNL     1      28.508  11.943  29.608  1.00  0.00     0.041 C 
ATOM     10  O   UNL     1      28.236  13.082  30.071  1.00  0.00    -0.550 OA
ATOM     11  O   UNL     1      28.430  11.721  28.239  1.00  0.00    -0.550 OA
ENDBRANCH   8   9
ENDBRANCH   7   8
ENDBRANCH   6   7
ENDBRANCH   5   6
ENDBRANCH   4   5
ENDBRANCH   3   4
ENDBRANCH   2   3
ENDBRANCH   1   2
BRANCH   1  12
ATOM     12  C   UNL     1      33.277   8.497  28.864  1.00  0.00     0.000 C 
BRANCH  12  13
ATOM     13  C   UNL     1      32.036   9.408  28.866  1.00  0.00    -0.000 C 
BRANCH  13  14
ATOM     14  C   UNL     1      30.794   8.722  28.271  1.00  0.00    -0.000 C 
BRANCH  14  15
ATOM     15  C   UNL     1      30.548   7.278  28.760  1.00  0.00    -0.000 C 
BRANCH  15  16
ATOM     16  C   UNL     1      29.873   7.156  30.138  1.00  0.00    -0.000 C 
BRANCH  16  17
ATOM     17  C   UNL     1      30.865   6.825  31.264  1.00  0.00    -0.000 C 
BRANCH  17  18
ATOM     18  C   UNL     1      31.039   7.982  32.263  1.00  0.00    -0.000 C 
BRANCH  18  19
ATOM     19  C   UNL     1      31.587   7.538  33.636  1.00  0.00    -0.003 C 
ATOM     20  C   UNL     1      33.025   7.026  33.549  1.00  0.00     0.004 C 
ENDBRANCH  18  19
ENDBRANCH  17  18
ENDBRANCH  16  17
ENDBRANCH  15  16
ENDBRANCH  14  15
ENDBRANCH  13  14
ENDBRANCH  12  13
ENDBRANCH   1  12
TORSDOF 16
ENDMDL
MODEL 4
REMARK VINA RESULT:    -3.861      3.453      6.115
REMARK INTER + INTRA:         -10.314
REMARK INTER:                  -7.655
REMARK INTRA:                  -2.659
REMARK UNBOUND:                -2.842
REMARK SMILES CCCCCCCCCCCCCCCCCC(=O)[O-]
REMARK SMILES IDX 10 1 11 2 12 3 13 4 14 5 15 6 16 7 17 8 18 9 19 10 20 11
REMARK SMILES IDX 9 12 8 13 7 14 6 15 5 16 4 17 3 18 2 19 1 20
REMARK H PARENT
REMARK Flexibility Score: inf
ROOT
ATOM      1  C   UNL     1      31.786   8.190  29.199  1.00  0.00     0.000 C 
ENDROOT
BRANCH   1   2
ATOM      2  C   UNL     1      30.536   7.455  29.714  1.00  0.00     0.000 C 
BRANCH   2   3
ATOM      3  C   UNL     1      30.795   6.700  31.027  1.00  0.00     0.000 C 
BRANCH   3   4
ATOM      4  C   UNL     1      31.098   7.644  32.201  1.00  0.00     0.000 C 
BRANCH   4   5
ATOM      5  C   UNL     1      32.332   7.173  32.980  1.00  0.00     0.000 C 
BRANCH   5   6
ATOM      6  C   UNL     1      33.539   8.076  32.699  1.00  0.00     0.000 C 
BRANCH   6   7
ATOM      7  C   UNL     1      34.591   7.341  31.855  1.00  0.00     0.006 C 
BRANCH   7   8
ATOM      8  C   UNL     1      35.199   8.243  30.772  1.00  0.00     0.053 C 
BRANCH   8   9
ATOM      9  C   UNL     1      36.697   8.218  30.806  1.00  0.00     0.041 C 
ATOM     10  O   UNL     1      37.301   7.380  31.527  1.00  0.00    -0.550 OA
ATOM     11  O   UNL     1      37.424   9.097  30.015  1.00  0.00    -0.550 OA
ENDBRANCH   8   9
ENDBRANCH   7   8
ENDBRANCH   6   7
ENDBRANCH   5   6
ENDBRANCH   4   5
ENDBRANCH   3   4
ENDBRANCH   2   3
ENDBRANCH   1   2
BRANCH   1  12
ATOM     12  C   UNL     1      31.442   9.287  28.179  1.00  0.00     0.000 C 
BRANCH  12  13
ATOM     13  C   UNL     1      29.947   9.306  27.816  1.00  0.00    -0.000 C 
BRANCH  13  14
ATOM     14  C   UNL     1      29.479  10.675  27.291  1.00  0.00    -0.000 C 
BRANCH  14  15
ATOM     15  C   UNL     1      28.508  11.433  28.221  1.00  0.00    -0.000 C 
BRANCH  15  16
ATOM     16  C   UNL     1      29.145  12.041  29.485  1.00  0.00    -0.000 C 
BRANCH  16  17
ATOM     17  C   UNL     1      28.812  11.255  30.762  1.00  0.00    -0.000 C 
BRANCH  17  18
ATOM     18  C   UNL     1      30.054  10.959  31.620  1.00  0.00    -0.000 C 
BRANCH  18  19
ATOM     19  C   UNL     1      31.223  11.936  31.376  1.00  0.00    -0.003 C 
ATOM     20  C   UNL     1      32.547  11.210  31.140  1.00  0.00     0.004 C 
ENDBRANCH  18  19
ENDBRANCH  17  18
ENDBRANCH  16  17
ENDBRANCH  15  16
ENDBRANCH  14  15
ENDBRANCH  13  14
ENDBRANCH  12  13
ENDBRANCH   1  12
TORSDOF 16
ENDMDL
MODEL 5
REMARK VINA RESULT:    -3.857      3.538      6.401
REMARK INTER + INTRA:         -10.307
REMARK INTER:                  -7.398
REMARK INTRA:                  -2.909
REMARK UNBOUND:                -2.842
REMARK SMILES CCCCCCCCCCCCCCCCCC(=O)[O-]
REMARK SMILES IDX 10 1 11 2 12 3 13 4 14 5 15 6 16 7 17 8 18 9 19 10 20 11
REMARK SMILES IDX 9 12 8 13 7 14 6 15 5 16 4 17 3 18 2 19 1 20
REMARK H PARENT
REMARK Flexibility Score: inf
ROOT
ATOM      1  C   UNL     1      31.362   8.205  32.396  1.00  0.00     0.000 C 
ENDROOT
BRANCH   1   2
ATOM      2  C   UNL     1      30.643   9.479  31.920  1.00  0.00     0.000 C 
BRANCH   2   3
ATOM      3  C   UNL     1      31.602  10.668  31.745  1.00  0.00     0.000 C 
BRANCH   3   4
ATOM      4  C   UNL     1      33.063  10.296  32.044  1.00  0.00     0.000 C 
BRANCH   4   5
ATOM      5  C   UNL     1      33.908  10.322  30.765  1.00  0.00     0.000 C 
BRANCH   5   6
ATOM      6  C   UNL     1      35.222   9.555  30.957  1.00  0.00     0.000 C 
BRANCH   6   7
ATOM      7  C   UNL     1      35.031   8.057  30.672  1.00  0.00     0.006 C 
BRANCH   7   8
ATOM      8  C   UNL     1      35.101   7.210  31.949  1.00  0.00     0.053 C 
BRANCH   8   9
ATOM      9  C   UNL     1      36.424   7.354  32.638  1.00  0.00     0.041 C 
ATOM     10  O   UNL     1      36.481   7.788  33.819  1.00  0.00    -0.550 OA
ATOM     11  O   UNL     1      37.591   6.977  31.987  1.00  0.00    -0.550 OA
ENDBRANCH   8   9
ENDBRANCH   7   8
ENDBRANCH   6   7
ENDBRANCH   5   6
ENDBRANCH   4   5
ENDBRANCH   3   4
ENDBRANCH   2   3
ENDBRANCH   1   2
BRANCH   1  12
ATOM     12  C   UNL     1      31.445   7.133  31.298  1.00  0.00     0.000 C 
BRANCH  12  13
ATOM     13  C   UNL     1      30.148   7.031  30.476  1.00  0.00    -0.000 C 
BRANCH  13  14
ATOM     14  C   UNL     1      30.375   7.279  28.974  1.00  0.00    -0.000 C 
BRANCH  14  15
ATOM     15  C   UNL     1      31.672   8.040  28.627  1.00  0.00    -0.000 C 
BRANCH  15  16
ATOM     16  C   UNL     1      31.482   9.508  28.204  1.00  0.00    -0.000 C 
BRANCH  16  17
ATOM     17  C   UNL     1      30.010   9.945  28.201  1.00  0.00    -0.000 C 
BRANCH  17  18
ATOM     18  C   UNL     1      29.834  11.449  28.477  1.00  0.00    -0.000 C 
BRANCH  18  19
ATOM     19  C   UNL     1      28.393  11.844  28.863  1.00  0.00    -0.003 C 
ATOM     20  C   UNL     1      28.103  11.607  30.345  1.00  0.00     0.004 C 
ENDBRANCH  18  19
ENDBRANCH  17  18
ENDBRANCH  16  17
ENDBRANCH  15  16
ENDBRANCH  14  15
ENDBRANCH  13  14
ENDBRANCH  12  13
ENDBRANCH   1  12
TORSDOF 16
ENDMDL
MODEL 6
REMARK VINA RESULT:    -3.854      1.211      3.032
REMARK INTER + INTRA:         -10.301
REMARK INTER:                  -7.690
REMARK INTRA:                  -2.611
REMARK UNBOUND:                -2.842
REMARK SMILES CCCCCCCCCCCCCCCCCC(=O)[O-]
REMARK SMILES IDX 10 1 11 2 12 3 13 4 14 5 15 6 16 7 17 8 18 9 19 10 20 11
REMARK SMILES IDX 9 12 8 13 7 14 6 15 5 16 4 17 3 18 2 19 1 20
REMARK H PARENT
REMARK Flexibility Score: inf
ROOT
ATOM      1  C   UNL     1      31.053   6.866  31.759  1.00  0.00     0.000 C 
ENDROOT
BRANCH   1   2
ATOM      2  C   UNL     1      30.629   8.243  32.299  1.00  0.00     0.000 C 
BRANCH   2   3
ATOM      3  C   UNL     1      31.733   8.916  33.131  1.00  0.00     0.000 C 
BRANCH   3   4
ATOM      4  C   UNL     1      31.871  10.415  32.825  1.00  0.00     0.000 C 
BRANCH   4   5
ATOM      5  C   UNL     1      31.073  10.796  31.572  1.00  0.00     0.000 C 
BRANCH   5   6
ATOM      6  C   UNL     1      31.273  12.274  31.219  1.00  0.00     0.000 C 
BRANCH   6   7
ATOM      7  C   UNL     1      30.191  12.758  30.241  1.00  0.00     0.006 C 
BRANCH   7   8
ATOM      8  C   UNL     1      30.256  12.026  28.894  1.00  0.00     0.053 C 
BRANCH   8   9
ATOM      9  C   UNL     1      28.918  11.479  28.497  1.00  0.00     0.041 C 
ATOM     10  O   UNL     1      28.744  11.003  27.344  1.00  0.00    -0.550 OA
ATOM     11  O   UNL     1      27.874  11.465  29.412  1.00  0.00    -0.550 OA
ENDBRANCH   8   9
ENDBRANCH   7   8
ENDBRANCH   6   7
ENDBRANCH   5   6
ENDBRANCH   4   5
ENDBRANCH   3   4
ENDBRANCH   2   3
ENDBRANCH   1   2
BRANCH   1  12
ATOM     12  C   UNL     1      30.623   6.651  30.299  1.00  0.00     0.000 C 
BRANCH  12  13
ATOM     13  C   UNL     1      30.067   7.933  29.654  1.00  0.00    -0.000 C 
BRANCH  13  14
ATOM     14  C   UNL     1      30.909   8.409  28.457  1.00  0.00    -0.000 C 
BRANCH  14  15
ATOM     15  C   UNL     1      32.423   8.125  28.569  1.00  0.00    -0.000 C 
BRANCH  15  16
ATOM     16  C   UNL     1      33.251   9.227  29.254  1.00  0.00    -0.000 C 
BRANCH  16  17
ATOM     17  C   UNL     1      34.151   8.690  30.377  1.00  0.00    -0.000 C 
BRANCH  17  18
ATOM     18  C   UNL     1      35.598   9.205  30.278  1.00  0.00    -0.000 C 
BRANCH  18  19
ATOM     19  C   UNL     1      36.637   8.259  30.917  1.00  0.00    -0.003 C 
ATOM     20  C   UNL     1      35.995   7.000  31.501  1.00  0.00     0.004 C 
ENDBRANCH  18  19
ENDBRANCH  17  18
ENDBRANCH  16  17
ENDBRANCH  15  16
ENDBRANCH  14  15
ENDBRANCH  13  14
ENDBRANCH  12  13
ENDBRANCH   1  12
TORSDOF 16
ENDMDL
MODEL 7
REMARK VINA RESULT:    -3.799      0.962      2.413
REMARK INTER + INTRA:         -10.194
REMARK INTER:                  -7.653
REMARK INTRA:                  -2.541
REMARK UNBOUND:                -2.842
REMARK SMILES CCCCCCCCCCCCCCCCCC(=O)[O-]
REMARK SMILES IDX 10 1 11 2 12 3 13 4 14 5 15 6 16 7 17 8 18 9 19 10 20 11
REMARK SMILES IDX 9 12 8 13 7 14 6 15 5 16 4 17 3 18 2 19 1 20
REMARK H PARENT
REMARK Flexibility Score: inf
ROOT
ATOM      1  C   UNL     1      31.360   8.146  33.512  1.00  0.00     0.000 C 
ENDROOT
BRANCH   1   2
ATOM      2  C   UNL     1      31.259   6.916  32.593  1.00  0.00     0.000 C 
BRANCH   2   3
ATOM      3  C   UNL     1      31.398   7.278  31.105  1.00  0.00     0.000 C 
BRANCH   3   4
ATOM      4  C   UNL     1      30.138   6.936  30.295  1.00  0.00     0.000 C 
BRANCH   4   5
ATOM      5  C   UNL     1      30.286   7.382  28.835  1.00  0.00     0.000 C 
BRANCH   5   6
ATOM      6  C   UNL     1      31.620   8.103  28.612  1.00  0.00     0.000 C 
BRANCH   6   7
ATOM      7  C   UNL     1      31.398   9.496  28.004  1.00  0.00     0.006 C 
BRANCH   7   8
ATOM      8  C   UNL     1      30.570  10.406  28.923  1.00  0.00     0.053 C 
BRANCH   8   9
ATOM      9  C   UNL     1      29.438  11.054  28.186  1.00  0.00     0.041 C 
ATOM     10  O   UNL     1      29.233  10.785  26.973  1.00  0.00    -0.550 OA
ATOM     11  O   UNL     1      28.588  11.929  28.850  1.00  0.00    -0.550 OA
ENDBRANCH   8   9
ENDBRANCH   7   8
ENDBRANCH   6   7
ENDBRANCH   5   6
ENDBRANCH   4   5
ENDBRANCH   3   4
ENDBRANCH   2   3
ENDBRANCH   1   2
BRANCH   1  12
ATOM     12  C   UNL     1      32.731   8.255  34.199  1.00  0.00     0.000 C 
BRANCH  12  13
ATOM     13  C   UNL     1      33.284   6.884  34.628  1.00  0.00    -0.000 C 
BRANCH  13  14
ATOM     14  C   UNL     1      34.747   6.673  34.199  1.00  0.00    -0.000 C 
BRANCH  14  15
ATOM     15  C   UNL     1      35.004   6.787  32.681  1.00  0.00    -0.000 C 
BRANCH  15  16
ATOM     16  C   UNL     1      36.406   7.289  32.287  1.00  0.00    -0.000 C 
BRANCH  16  17
ATOM     17  C   UNL     1      36.405   8.106  30.986  1.00  0.00    -0.000 C 
BRANCH  17  18
ATOM     18  C   UNL     1      35.005   8.228  30.360  1.00  0.00    -0.000 C 
BRANCH  18  19
ATOM     19  C   UNL     1      34.547   9.686  30.146  1.00  0.00    -0.003 C 
ATOM     20  C   UNL     1      33.739  10.221  31.329  1.00  0.00     0.004 C 
ENDBRANCH  18  19
ENDBRANCH  17  18
ENDBRANCH  16  17
ENDBRANCH  15  16
ENDBRANCH  14  15
ENDBRANCH  13  14
ENDBRANCH  12  13
ENDBRANCH   1  12
TORSDOF 16
ENDMDL
MODEL 8
REMARK VINA RESULT:    -3.791      0.858      1.772
REMARK INTER + INTRA:         -10.179
REMARK INTER:                  -7.282
REMARK INTRA:                  -2.897
REMARK UNBOUND:                -2.842
REMARK SMILES CCCCCCCCCCCCCCCCCC(=O)[O-]
REMARK SMILES IDX 10 1 11 2 12 3 13 4 14 5 15 6 16 7 17 8 18 9 19 10 20 11
REMARK SMILES IDX 9 12 8 13 7 14 6 15 5 16 4 17 3 18 2 19 1 20
REMARK H PARENT
REMARK Flexibility Score: inf
ROOT
ATOM      1  C   UNL     1      32.200   8.588  32.907  1.00  0.00     0.000 C 
ENDROOT
BRANCH   1   2
ATOM      2  C   UNL     1      31.348   7.382  32.473  1.00  0.00     0.000 C 
BRANCH   2   3
ATOM      3  C   UNL     1      31.525   7.039  30.985  1.00  0.00     0.000 C 
BRANCH   3   4
ATOM      4  C   UNL     1      30.183   6.860  30.258  1.00  0.00     0.000 C 
BRANCH   4   5
ATOM      5  C   UNL     1      30.229   7.483  28.857  1.00  0.00     0.000 C 
BRANCH   5   6
ATOM      6  C   UNL     1      31.587   8.145  28.594  1.00  0.00     0.000 C 
BRANCH   6   7
ATOM      7  C   UNL     1      31.415   9.632  28.247  1.00  0.00     0.006 C 
BRANCH   7   8
ATOM      8  C   UNL     1      30.289  10.291  29.055  1.00  0.00     0.053 C 
BRANCH   8   9
ATOM      9  C   UNL     1      29.340  11.042  28.172  1.00  0.00     0.041 C 
ATOM     10  O   UNL     1      29.344  10.851  26.928  1.00  0.00    -0.550 OA
ATOM     11  O   UNL     1      28.428  11.929  28.729  1.00  0.00    -0.550 OA
ENDBRANCH   8   9
ENDBRANCH   7   8
ENDBRANCH   6   7
ENDBRANCH   5   6
ENDBRANCH   4   5
ENDBRANCH   3   4
ENDBRANCH   2   3
ENDBRANCH   1   2
BRANCH   1  12
ATOM     12  C   UNL     1      31.581   9.928  32.478  1.00  0.00     0.000 C 
BRANCH  12  13
ATOM     13  C   UNL     1      32.640  10.944  32.016  1.00  0.00    -0.000 C 
BRANCH  13  14
ATOM     14  C   UNL     1      34.038  10.320  31.866  1.00  0.00    -0.000 C 
BRANCH  14  15
ATOM     15  C   UNL     1      34.471  10.031  30.412  1.00  0.00    -0.000 C 
BRANCH  15  16
ATOM     16  C   UNL     1      34.756   8.552  30.092  1.00  0.00    -0.000 C 
BRANCH  16  17
ATOM     17  C   UNL     1      35.955   7.990  30.871  1.00  0.00    -0.000 C 
BRANCH  17  18
ATOM     18  C   UNL     1      35.536   7.020  31.989  1.00  0.00    -0.000 C 
BRANCH  18  19
ATOM     19  C   UNL     1      36.369   7.166  33.281  1.00  0.00    -0.003 C 
ATOM     20  C   UNL     1      35.765   8.182  34.250  1.00  0.00     0.004 C 
ENDBRANCH  18  19
ENDBRANCH  17  18
ENDBRANCH  16  17
ENDBRANCH  15  16
ENDBRANCH  14  15
ENDBRANCH  13  14
ENDBRANCH  12  13
ENDBRANCH   1  12
TORSDOF 16
ENDMDL
MODEL 9
REMARK VINA RESULT:    -3.783      1.450      2.274
REMARK INTER + INTRA:         -10.163
REMARK INTER:                  -7.603
REMARK INTRA:                  -2.560
REMARK UNBOUND:                -2.842
REMARK SMILES CCCCCCCCCCCCCCCCCC(=O)[O-]
REMARK SMILES IDX 10 1 11 2 12 3 13 4 14 5 15 6 16 7 17 8 18 9 19 10 20 11
REMARK SMILES IDX 9 12 8 13 7 14 6 15 5 16 4 17 3 18 2 19 1 20
REMARK H PARENT
REMARK Flexibility Score: inf
ROOT
ATOM      1  C   UNL     1      32.446   7.380  32.473  1.00  0.00     0.000 C 
ENDROOT
BRANCH   1   2
ATOM      2  C   UNL     1      31.112   7.820  31.844  1.00  0.00     0.000 C 
BRANCH   2   3
ATOM      3  C   UNL     1      30.649   6.876  30.722  1.00  0.00     0.000 C 
BRANCH   3   4
ATOM      4  C   UNL     1      30.282   7.628  29.433  1.00  0.00     0.000 C 
BRANCH   4   5
ATOM      5  C   UNL     1      31.530   7.902  28.584  1.00  0.00     0.000 C 
BRANCH   5   6
ATOM      6  C   UNL     1      31.561   9.358  28.104  1.00  0.00     0.000 C 
BRANCH   6   7
ATOM      7  C   UNL     1      31.205  10.321  29.247  1.00  0.00     0.006 C 
BRANCH   7   8
ATOM      8  C   UNL     1      30.393  11.528  28.758  1.00  0.00     0.053 C 
BRANCH   8   9
ATOM      9  C   UNL     1      29.045  11.117  28.247  1.00  0.00     0.041 C 
ATOM     10  O   UNL     1      28.134  10.790  29.053  1.00  0.00    -0.550 OA
ATOM     11  O   UNL     1      28.786  11.129  26.883  1.00  0.00    -0.550 OA
ENDBRANCH   8   9
ENDBRANCH   7   8
ENDBRANCH   6   7
ENDBRANCH   5   6
ENDBRANCH   4   5
ENDBRANCH   3   4
ENDBRANCH   2   3
ENDBRANCH   1   2
BRANCH   1  12
ATOM     12  C   UNL     1      33.589   8.363  32.173  1.00  0.00     0.000 C 
BRANCH  12  13
ATOM     13  C   UNL     1      34.369   7.989  30.901  1.00  0.00    -0.000 C 
BRANCH  13  14
ATOM     14  C   UNL     1      34.722   9.213  30.038  1.00  0.00    -0.000 C 
BRANCH  14  15
ATOM     15  C   UNL     1      35.415  10.367  30.795  1.00  0.00    -0.000 C 
BRANCH  15  16
ATOM     16  C   UNL     1      36.900  10.581  30.450  1.00  0.00    -0.000 C 
BRANCH  16  17
ATOM     17  C   UNL     1      37.832   9.599  31.176  1.00  0.00    -0.000 C 
BRANCH  17  18
ATOM     18  C   UNL     1      37.609   9.581  32.699  1.00  0.00    -0.000 C 
BRANCH  18  19
ATOM     19  C   UNL     1      37.270   8.183  33.259  1.00  0.00    -0.003 C 
ATOM     20  C   UNL     1      37.670   7.062  32.300  1.00  0.00     0.004 C 
ENDBRANCH  18  19
ENDBRANCH  17  18
ENDBRANCH  16  17
ENDBRANCH  15  16
ENDBRANCH  14  15
ENDBRANCH  13  14
ENDBRANCH  12  13
ENDBRANCH   1  12
TORSDOF 16
ENDMDL
