MODEL 1
REMARK VINA RESULT:    51.685      0.000      0.000
REMARK INTER + INTRA:          56.566
REMARK INTER:                  56.218
REMARK INTRA:                   0.349
REMARK UNBOUND:                 0.349
REMARK SMILES C[C@H]1[C@H](C)CC[C@@]2(C(=O)[O-])CC[C@@]3(C)C(=CC[C@H]4[C@@]5(C)CC[C@H](O)C(C)(C)[C@H]5CC[C@]43C)[C@H]12
REMARK SMILES IDX 7 1 6 2 11 3 33 4 5 5 12 6 15 7 2 8 3 9 13 10 16 11 1 12
REMARK SMILES IDX 4 13 14 14 31 15 17 16 18 17 30 18 32 19 19 20 29 21 28 22
REMARK SMILES IDX 21 23 20 24 25 25 22 26 23 27 26 28 27 29 8 30 9 31 10 32
REMARK SMILES IDX 24 33
REMARK H PARENT 24 34
REMARK Flexibility Score: inf
ROOT
ATOM      1  C   UNL     1      11.912 -11.297 -24.774  1.00  0.00     0.017 C 
ATOM      2  C   UNL     1      11.719 -11.879 -23.365  1.00  0.00     0.014 C 
ATOM      3  C   UNL     1      13.413 -10.677 -24.785  1.00  0.00     0.014 C 
ATOM      4  C   UNL     1      11.879 -12.283 -25.941  1.00  0.00     0.030 C 
ATOM      5  C   UNL     1      10.609 -12.840 -23.269  1.00  0.00     0.004 C 
ATOM      6  C   UNL     1      14.257 -10.723 -26.145  1.00  0.00     0.013 C 
ATOM      7  C   UNL     1      12.009 -11.492 -27.269  1.00  0.00    -0.063 C 
ATOM      8  C   UNL     1      10.731 -13.370 -25.784  1.00  0.00    -0.003 C 
ATOM      9  C   UNL     1      10.762 -13.923 -24.303  1.00  0.00    -0.011 C 
ATOM     10  C   UNL     1      13.436 -10.946 -27.493  1.00  0.00    -0.006 C 
ATOM     11  C   UNL     1      10.964 -11.054 -28.007  1.00  0.00    -0.027 C 
ATOM     12  C   UNL     1      10.935 -14.529 -26.810  1.00  0.00     0.008 C 
ATOM     13  C   UNL     1       9.835 -15.125 -24.012  1.00  0.00     0.008 C 
ATOM     14  C   UNL     1      14.067 -12.075 -28.315  1.00  0.00     0.017 C 
ATOM     15  C   UNL     1      13.395  -9.499 -28.154  1.00  0.00    -0.020 C 
ATOM     16  C   UNL     1      11.088 -10.155 -29.223  1.00  0.00     0.032 C 
ATOM     17  C   UNL     1      12.287  -9.145 -29.254  1.00  0.00     0.006 C 
ATOM     18  C   UNL     1      12.915  -8.484 -26.987  1.00  0.00     0.008 C 
ATOM     19  C   UNL     1      14.882  -9.457 -28.893  1.00  0.00     0.012 C 
ATOM     20  C   UNL     1      12.010  -7.526 -29.599  1.00  0.00    -0.025 C 
ATOM     21  C   UNL     1      13.199  -7.067 -27.396  1.00  0.00     0.005 C 
ATOM     22  C   UNL     1      13.208  -6.761 -28.925  1.00  0.00     0.003 C 
ATOM     23  C   UNL     1      10.757  -6.740 -28.995  1.00  0.00     0.010 C 
ATOM     24  C   UNL     1      11.799  -7.383 -31.182  1.00  0.00     0.012 C 
ATOM     25  C   UNL     1      13.470  -5.218 -29.055  1.00  0.00    -0.006 C 
ATOM     26  C   UNL     1      10.876  -5.100 -29.130  1.00  0.00     0.033 C 
ATOM     27  C   UNL     1      12.143  -4.498 -28.491  1.00  0.00     0.120 C 
ATOM     28  C   UNL     1      13.780  -4.813 -30.526  1.00  0.00     0.014 C 
ATOM     29  C   UNL     1      14.662  -4.663 -28.241  1.00  0.00     0.014 C 
ENDROOT
BRANCH   1  30
ATOM     30  C   UNL     1      10.853 -10.195 -25.104  1.00  0.00     0.048 C 
ATOM     31  O   UNL     1      10.010  -9.750 -24.309  1.00  0.00    -0.550 OA
ATOM     32  O   UNL     1      10.043  -9.763 -24.061  1.00  0.00    -0.550 OA
ENDBRANCH   1  30
BRANCH  27  33
ATOM     33  O   UNL     1      12.291  -3.070 -28.435  1.00  0.00    -0.393 OA
ATOM     34  H   UNL     1      11.341  -2.754 -28.549  1.00  0.00     0.210 HD
ENDBRANCH  27  33
TORSDOF 2
ENDMDL
MODEL 2
REMARK VINA RESULT:    52.781      1.969      2.738
REMARK INTER + INTRA:          57.758
REMARK INTER:                  57.316
REMARK INTRA:                   0.443
REMARK UNBOUND:                 0.349
REMARK SMILES C[C@H]1[C@H](C)CC[C@@]2(C(=O)[O-])CC[C@@]3(C)C(=CC[C@H]4[C@@]5(C)CC[C@H](O)C(C)(C)[C@H]5CC[C@]43C)[C@H]12
REMARK SMILES IDX 7 1 6 2 11 3 33 4 5 5 12 6 15 7 2 8 3 9 13 10 16 11 1 12
REMARK SMILES IDX 4 13 14 14 31 15 17 16 18 17 30 18 32 19 19 20 29 21 28 22
REMARK SMILES IDX 21 23 20 24 25 25 22 26 23 27 26 28 27 29 8 30 9 31 10 32
REMARK SMILES IDX 24 33
REMARK H PARENT 24 34
REMARK Flexibility Score: inf
ROOT
ATOM      1  C   UNL     1      13.291 -12.685 -26.036  1.00  0.00     0.017 C 
ATOM      2  C   UNL     1      13.861 -13.868 -25.238  1.00  0.00     0.014 C 
ATOM      3  C   UNL     1      13.977 -12.781 -27.505  1.00  0.00     0.014 C 
ATOM      4  C   UNL     1      11.786 -12.687 -26.298  1.00  0.00     0.030 C 
ATOM      5  C   UNL     1      13.075 -14.209 -24.042  1.00  0.00     0.004 C 
ATOM      6  C   UNL     1      13.133 -12.315 -28.783  1.00  0.00     0.013 C 
ATOM      7  C   UNL     1      11.404 -11.379 -27.039  1.00  0.00    -0.063 C 
ATOM      8  C   UNL     1      10.950 -13.141 -25.026  1.00  0.00    -0.003 C 
ATOM      9  C   UNL     1      11.632 -14.428 -24.410  1.00  0.00    -0.011 C 
ATOM     10  C   UNL     1      11.875 -11.375 -28.510  1.00  0.00    -0.006 C 
ATOM     11  C   UNL     1      10.988 -10.245 -26.430  1.00  0.00    -0.027 C 
ATOM     12  C   UNL     1       9.470 -13.438 -25.424  1.00  0.00     0.008 C 
ATOM     13  C   UNL     1      10.852 -15.124 -23.271  1.00  0.00     0.008 C 
ATOM     14  C   UNL     1      10.638 -11.927 -29.225  1.00  0.00     0.017 C 
ATOM     15  C   UNL     1      12.382  -9.930 -28.941  1.00  0.00    -0.020 C 
ATOM     16  C   UNL     1      10.758  -8.924 -27.140  1.00  0.00     0.032 C 
ATOM     17  C   UNL     1      11.640  -8.619 -28.399  1.00  0.00     0.006 C 
ATOM     18  C   UNL     1      13.814  -9.719 -28.216  1.00  0.00     0.008 C 
ATOM     19  C   UNL     1      12.155 -10.003 -30.585  1.00  0.00     0.012 C 
ATOM     20  C   UNL     1      12.445  -7.151 -28.523  1.00  0.00    -0.025 C 
ATOM     21  C   UNL     1      14.538  -8.564 -28.844  1.00  0.00     0.005 C 
ATOM     22  C   UNL     1      13.662  -7.439 -29.477  1.00  0.00     0.003 C 
ATOM     23  C   UNL     1      13.182  -6.488 -27.269  1.00  0.00     0.010 C 
ATOM     24  C   UNL     1      11.380  -6.032 -28.950  1.00  0.00     0.012 C 
ATOM     25  C   UNL     1      14.667  -6.351 -29.999  1.00  0.00    -0.006 C 
ATOM     26  C   UNL     1      14.223  -5.275 -27.677  1.00  0.00     0.033 C 
ATOM     27  C   UNL     1      15.316  -5.684 -28.683  1.00  0.00     0.120 C 
ATOM     28  C   UNL     1      13.953  -5.300 -30.900  1.00  0.00     0.014 C 
ATOM     29  C   UNL     1      15.838  -6.872 -30.864  1.00  0.00     0.014 C 
ENDROOT
BRANCH   1  30
ATOM     30  C   UNL     1      13.614 -11.311 -25.360  1.00  0.00     0.048 C 
ATOM     31  O   UNL     1      14.717 -10.742 -25.385  1.00  0.00    -0.550 OA
ATOM     32  O   UNL     1      14.885 -10.789 -25.565  1.00  0.00    -0.550 OA
ENDBRANCH   1  30
BRANCH  27  33
ATOM     33  O   UNL     1      16.354  -4.748 -29.013  1.00  0.00    -0.393 OA
ATOM     34  H   UNL     1      16.454  -4.231 -28.154  1.00  0.00     0.210 HD
ENDBRANCH  27  33
TORSDOF 2
ENDMDL
