MODEL 1
REMARK VINA RESULT:    48.607      0.000      0.000
REMARK INTER + INTRA:          52.684
REMARK INTER:                  52.869
REMARK INTRA:                  -0.186
REMARK UNBOUND:                -0.186
REMARK SMILES CC1(C)CC[C@@]2(C(=O)[O-])CC[C@]3(C)C(=CC[C@H]4[C@]5(C)CC[C@@H](O)C(C)(C)[C@@H]5CC[C@@]43C)[C@H]2C1
REMARK SMILES IDX 6 1 5 2 10 3 32 4 4 5 11 6 14 7 33 8 2 9 12 10 15 11 1 12
REMARK SMILES IDX 3 13 13 14 30 15 16 16 17 17 29 18 31 19 18 20 28 21 27 22
REMARK SMILES IDX 20 23 19 24 24 25 21 26 22 27 25 28 26 29 7 30 8 31 9 32
REMARK SMILES IDX 23 33
REMARK H PARENT 23 34
REMARK Flexibility Score: inf
ROOT
ATOM      1  C   UNL     1      20.574  33.920  41.034  1.00  0.00     0.017 C 
ATOM      2  C   UNL     1      21.741  34.883  41.401  1.00  0.00     0.014 C 
ATOM      3  C   UNL     1      19.642  33.815  42.275  1.00  0.00     0.014 C 
ATOM      4  C   UNL     1      19.746  34.463  39.785  1.00  0.00     0.028 C 
ATOM      5  C   UNL     1      22.621  35.220  40.185  1.00  0.00     0.007 C 
ATOM      6  C   UNL     1      18.376  32.948  42.046  1.00  0.00     0.013 C 
ATOM      7  C   UNL     1      18.220  34.456  40.069  1.00  0.00    -0.064 C 
ATOM      8  C   UNL     1      20.289  35.827  39.264  1.00  0.00     0.015 C 
ATOM      9  C   UNL     1      21.821  35.839  38.993  1.00  0.00    -0.035 C 
ATOM     10  C   UNL     1      17.637  33.157  40.660  1.00  0.00    -0.006 C 
ATOM     11  C   UNL     1      17.508  35.611  40.098  1.00  0.00    -0.027 C 
ATOM     12  C   UNL     1      22.131  35.076  37.686  1.00  0.00     0.011 C 
ATOM     13  C   UNL     1      22.258  37.308  38.793  1.00  0.00     0.011 C 
ATOM     14  C   UNL     1      18.026  31.971  39.718  1.00  0.00     0.017 C 
ATOM     15  C   UNL     1      16.021  33.201  40.791  1.00  0.00    -0.020 C 
ATOM     16  C   UNL     1      16.068  35.719  40.491  1.00  0.00     0.032 C 
ATOM     17  C   UNL     1      15.568  34.561  41.388  1.00  0.00     0.006 C 
ATOM     18  C   UNL     1      15.524  32.110  41.769  1.00  0.00     0.008 C 
ATOM     19  C   UNL     1      15.356  32.990  39.394  1.00  0.00     0.012 C 
ATOM     20  C   UNL     1      14.022  34.698  41.838  1.00  0.00    -0.025 C 
ATOM     21  C   UNL     1      14.015  31.990  41.854  1.00  0.00     0.005 C 
ATOM     22  C   UNL     1      13.189  33.319  41.949  1.00  0.00     0.003 C 
ATOM     23  C   UNL     1      14.016  35.447  43.215  1.00  0.00     0.010 C 
ATOM     24  C   UNL     1      13.253  35.618  40.832  1.00  0.00     0.012 C 
ATOM     25  C   UNL     1      12.134  33.277  43.147  1.00  0.00    -0.006 C 
ATOM     26  C   UNL     1      14.088  34.488  44.402  1.00  0.00     0.033 C 
ATOM     27  C   UNL     1      12.863  33.551  44.510  1.00  0.00     0.120 C 
ATOM     28  C   UNL     1      10.968  34.290  42.909  1.00  0.00     0.014 C 
ATOM     29  C   UNL     1      11.406  31.895  43.227  1.00  0.00     0.014 C 
ENDROOT
BRANCH   1  30
ATOM     30  C   UNL     1      21.210  32.553  40.772  1.00  0.00     0.048 C 
ATOM     31  O   UNL     1      21.701  31.877  41.716  1.00  0.00    -0.550 OA
ATOM     32  O   UNL     1      21.150  31.978  39.510  1.00  0.00    -0.550 OA
ENDBRANCH   1  30
BRANCH  27  33
ATOM     33  O   UNL     1      11.968  34.073  45.465  1.00  0.00    -0.393 OA
ATOM     34  H   UNL     1      11.105  34.226  45.003  1.00  0.00     0.210 HD
ENDBRANCH  27  33
TORSDOF 2
ENDMDL
MODEL 2
REMARK VINA RESULT:    50.416      1.185      1.354
REMARK INTER + INTRA:          54.651
REMARK INTER:                  54.865
REMARK INTRA:                  -0.214
REMARK UNBOUND:                -0.186
REMARK SMILES CC1(C)CC[C@@]2(C(=O)[O-])CC[C@]3(C)C(=CC[C@H]4[C@]5(C)CC[C@@H](O)C(C)(C)[C@@H]5CC[C@@]43C)[C@H]2C1
REMARK SMILES IDX 6 1 5 2 10 3 32 4 4 5 11 6 14 7 33 8 2 9 12 10 15 11 1 12
REMARK SMILES IDX 3 13 13 14 30 15 16 16 17 17 29 18 31 19 18 20 28 21 27 22
REMARK SMILES IDX 20 23 19 24 24 25 21 26 22 27 25 28 26 29 7 30 8 31 9 32
REMARK SMILES IDX 23 33
REMARK H PARENT 23 34
REMARK Flexibility Score: inf
ROOT
ATOM      1  C   UNL     1      21.545  33.932  42.050  1.00  0.00     0.017 C 
ATOM      2  C   UNL     1      22.601  34.918  42.627  1.00  0.00     0.014 C 
ATOM      3  C   UNL     1      20.367  33.856  43.064  1.00  0.00     0.014 C 
ATOM      4  C   UNL     1      21.003  34.425  40.634  1.00  0.00     0.028 C 
ATOM      5  C   UNL     1      23.721  35.227  41.619  1.00  0.00     0.007 C 
ATOM      6  C   UNL     1      19.184  32.968  42.596  1.00  0.00     0.013 C 
ATOM      7  C   UNL     1      19.452  34.411  40.583  1.00  0.00    -0.064 C 
ATOM      8  C   UNL     1      21.640  35.778  40.198  1.00  0.00     0.015 C 
ATOM      9  C   UNL     1      23.195  35.798  40.262  1.00  0.00    -0.035 C 
ATOM     10  C   UNL     1      18.761  33.125  41.078  1.00  0.00    -0.006 C 
ATOM     11  C   UNL     1      18.746  35.558  40.420  1.00  0.00    -0.027 C 
ATOM     12  C   UNL     1      23.783  34.997  39.079  1.00  0.00     0.011 C 
ATOM     13  C   UNL     1      23.659  37.265  40.113  1.00  0.00     0.011 C 
ATOM     14  C   UNL     1      19.348  31.914  40.282  1.00  0.00     0.017 C 
ATOM     15  C   UNL     1      17.154  33.155  40.856  1.00  0.00    -0.020 C 
ATOM     16  C   UNL     1      17.255  35.663  40.489  1.00  0.00     0.032 C 
ATOM     17  C   UNL     1      16.577  34.528  41.296  1.00  0.00     0.006 C 
ATOM     18  C   UNL     1      16.462  32.090  41.740  1.00  0.00     0.008 C 
ATOM     19  C   UNL     1      16.807  32.893  39.357  1.00  0.00     0.012 C 
ATOM     20  C   UNL     1      14.970  34.663  41.397  1.00  0.00    -0.025 C 
ATOM     21  C   UNL     1      14.971  31.956  41.502  1.00  0.00     0.005 C 
ATOM     22  C   UNL     1      14.138  33.278  41.373  1.00  0.00     0.003 C 
ATOM     23  C   UNL     1      14.665  35.455  42.715  1.00  0.00     0.010 C 
ATOM     24  C   UNL     1      14.433  35.541  40.219  1.00  0.00     0.012 C 
ATOM     25  C   UNL     1      12.850  33.263  42.316  1.00  0.00    -0.006 C 
ATOM     26  C   UNL     1      14.482  34.535  43.921  1.00  0.00     0.033 C 
ATOM     27  C   UNL     1      13.267  33.589  43.794  1.00  0.00     0.120 C 
ATOM     28  C   UNL     1      11.759  34.255  41.798  1.00  0.00     0.014 C 
ATOM     29  C   UNL     1      12.127  31.876  42.283  1.00  0.00     0.014 C 
ENDROOT
BRANCH   1  30
ATOM     30  C   UNL     1      22.227  32.564  41.978  1.00  0.00     0.048 C 
ATOM     31  O   UNL     1      22.464  31.903  43.024  1.00  0.00    -0.550 OA
ATOM     32  O   UNL     1      22.490  31.972  40.750  1.00  0.00    -0.550 OA
ENDBRANCH   1  30
BRANCH  27  33
ATOM     33  O   UNL     1      12.185  34.130  44.515  1.00  0.00    -0.393 OA
ATOM     34  H   UNL     1      12.244  33.776  45.439  1.00  0.00     0.210 HD
ENDBRANCH  27  33
TORSDOF 2
ENDMDL
