MODEL 1
REMARK VINA RESULT:    -0.166      0.000      0.000
REMARK INTER + INTRA:          -0.040
REMARK INTER:                  -0.181
REMARK INTRA:                   0.141
REMARK UNBOUND:                 0.141
REMARK SMILES CC1(C)CC[C@]2(C(=O)[O-])CC[C@]3(C)C(=CC[C@H]4[C@@]5(C)CC[C@@H](O)C(C)(C)[C@@H]5CC[C@@]43C)[C@H]2C1
REMARK SMILES IDX 6 1 5 2 10 3 32 4 4 5 11 6 14 7 33 8 2 9 12 10 15 11 1 12
REMARK SMILES IDX 3 13 13 14 30 15 16 16 17 17 29 18 31 19 18 20 28 21 27 22
REMARK SMILES IDX 20 23 19 24 24 25 21 26 22 27 25 28 26 29 7 30 8 31 9 32
REMARK SMILES IDX 23 33
REMARK H PARENT 23 34
REMARK Flexibility Score: inf
ROOT
ATOM      1  C   UNL     1      99.970 -67.415  -2.200  1.00  0.00     0.017 C 
ATOM      2  C   UNL     1     100.045 -67.563  -3.757  1.00  0.00     0.014 C 
ATOM      3  C   UNL     1     100.018 -68.802  -1.505  1.00  0.00     0.014 C 
ATOM      4  C   UNL     1      98.612 -66.775  -1.771  1.00  0.00     0.028 C 
ATOM      5  C   UNL     1      98.685 -67.420  -4.463  1.00  0.00     0.007 C 
ATOM      6  C   UNL     1      99.880 -68.720   0.047  1.00  0.00     0.013 C 
ATOM      7  C   UNL     1      98.603 -66.578  -0.261  1.00  0.00    -0.064 C 
ATOM      8  C   UNL     1      98.216 -65.589  -2.675  1.00  0.00     0.015 C 
ATOM      9  C   UNL     1      97.973 -66.059  -4.153  1.00  0.00    -0.035 C 
ATOM     10  C   UNL     1      98.646 -67.881   0.584  1.00  0.00    -0.006 C 
ATOM     11  C   UNL     1      98.919 -65.361   0.243  1.00  0.00    -0.027 C 
ATOM     12  C   UNL     1      98.483 -64.974  -5.125  1.00  0.00     0.011 C 
ATOM     13  C   UNL     1      96.457 -66.240  -4.388  1.00  0.00     0.011 C 
ATOM     14  C   UNL     1      97.363 -68.725   0.301  1.00  0.00     0.017 C 
ATOM     15  C   UNL     1      98.718 -67.556   2.170  1.00  0.00    -0.020 C 
ATOM     16  C   UNL     1      99.276 -65.098   1.672  1.00  0.00     0.032 C 
ATOM     17  C   UNL     1      99.744 -66.377   2.402  1.00  0.00     0.006 C 
ATOM     18  C   UNL     1      99.113 -68.846   3.006  1.00  0.00     0.008 C 
ATOM     19  C   UNL     1      97.309 -67.085   2.671  1.00  0.00     0.012 C 
ATOM     20  C   UNL     1     100.287 -66.108   3.891  1.00  0.00    -0.025 C 
ATOM     21  C   UNL     1     100.273 -68.659   3.991  1.00  0.00     0.005 C 
ATOM     22  C   UNL     1     100.050 -67.367   4.793  1.00  0.00     0.003 C 
ATOM     23  C   UNL     1      99.599 -64.894   4.611  1.00  0.00     0.010 C 
ATOM     24  C   UNL     1     101.805 -65.772   3.726  1.00  0.00     0.012 C 
ATOM     25  C   UNL     1     100.674 -67.314   6.248  1.00  0.00    -0.006 C 
ATOM     26  C   UNL     1      99.544 -64.983   6.161  1.00  0.00     0.033 C 
ATOM     27  C   UNL     1     100.660 -65.832   6.798  1.00  0.00     0.120 C 
ATOM     28  C   UNL     1     102.124 -67.863   6.288  1.00  0.00     0.014 C 
ATOM     29  C   UNL     1      99.818 -68.221   7.182  1.00  0.00     0.014 C 
ENDROOT
BRANCH   1  30
ATOM     30  C   UNL     1     101.196 -66.608  -1.760  1.00  0.00     0.048 C 
ATOM     31  O   UNL     1     101.444 -65.476  -2.253  1.00  0.00    -0.550 OA
ATOM     32  O   UNL     1     102.125 -67.168  -0.889  1.00  0.00    -0.550 OA
ENDBRANCH   1  30
BRANCH  27  33
ATOM     33  O   UNL     1     100.495 -65.796   8.195  1.00  0.00    -0.393 OA
ATOM     34  H   UNL     1     100.920 -66.616   8.560  1.00  0.00     0.210 HD
ENDBRANCH  27  33
TORSDOF 2
ENDMDL
