MODEL 1
REMARK VINA RESULT:    -3.884      0.000      0.000
REMARK INTER + INTRA:         -12.601
REMARK INTER:                  -8.879
REMARK INTRA:                  -3.722
REMARK UNBOUND:                -3.722
REMARK SMILES CCCCCCCCCCCCCCCCCCCCCCCC(=O)[O-]
REMARK SMILES IDX 13 1 14 2 15 3 16 4 17 5 18 6 19 7 20 8 21 9 22 10 23 11
REMARK SMILES IDX 24 12 25 13 26 14 12 15 11 16 10 17 9 18 8 19 7 20 6 21 5 22
REMARK SMILES IDX 4 23 3 24 2 25 1 26
REMARK H PARENT
REMARK Flexibility Score: inf
ROOT
ATOM      1  C   UNL     1      13.112 -11.215 -24.068  1.00  0.00     0.000 C 
ENDROOT
BRANCH   1   2
ATOM      2  C   UNL     1      13.470  -9.724 -24.025  1.00  0.00     0.000 C 
BRANCH   2   3
ATOM      3  C   UNL     1      13.569  -9.139 -25.442  1.00  0.00     0.000 C 
BRANCH   3   4
ATOM      4  C   UNL     1      12.300  -9.382 -26.275  1.00  0.00     0.000 C 
BRANCH   4   5
ATOM      5  C   UNL     1      11.175  -8.384 -25.943  1.00  0.00     0.000 C 
BRANCH   5   6
ATOM      6  C   UNL     1      11.687  -7.151 -25.182  1.00  0.00     0.000 C 
BRANCH   6   7
ATOM      7  C   UNL     1      10.849  -6.839 -23.928  1.00  0.00     0.000 C 
BRANCH   7   8
ATOM      8  C   UNL     1      11.716  -6.643 -22.672  1.00  0.00     0.000 C 
BRANCH   8   9
ATOM      9  C   UNL     1      13.190  -6.348 -23.008  1.00  0.00     0.000 C 
BRANCH   9  10
ATOM     10  C   UNL     1      13.760  -5.179 -22.188  1.00  0.00     0.006 C 
BRANCH  10  11
ATOM     11  C   UNL     1      12.669  -4.309 -21.552  1.00  0.00     0.053 C 
BRANCH  11  12
ATOM     12  C   UNL     1      12.509  -3.031 -22.315  1.00  0.00     0.041 C 
ATOM     13  O   UNL     1      13.518  -2.456 -22.804  1.00  0.00    -0.550 OA
ATOM     14  O   UNL     1      11.255  -2.448 -22.439  1.00  0.00    -0.550 OA
ENDBRANCH  11  12
ENDBRANCH  10  11
ENDBRANCH   9  10
ENDBRANCH   8   9
ENDBRANCH   7   8
ENDBRANCH   6   7
ENDBRANCH   5   6
ENDBRANCH   4   5
ENDBRANCH   3   4
ENDBRANCH   2   3
ENDBRANCH   1   2
BRANCH   1  15
ATOM     15  C   UNL     1      12.047 -11.555 -23.020  1.00  0.00     0.000 C 
BRANCH  15  16
ATOM     16  C   UNL     1      11.024 -10.417 -22.879  1.00  0.00     0.000 C 
BRANCH  16  17
ATOM     17  C   UNL     1       9.604 -10.848 -23.304  1.00  0.00     0.000 C 
BRANCH  17  18
ATOM     18  C   UNL     1       9.581 -11.873 -24.456  1.00  0.00    -0.000 C 
BRANCH  18  19
ATOM     19  C   UNL     1       9.016 -11.345 -25.784  1.00  0.00    -0.000 C 
BRANCH  19  20
ATOM     20  C   UNL     1       9.539 -12.119 -27.005  1.00  0.00    -0.000 C 
BRANCH  20  21
ATOM     21  C   UNL     1      10.885 -12.783 -26.693  1.00  0.00    -0.000 C 
BRANCH  21  22
ATOM     22  C   UNL     1      11.114 -14.011 -27.580  1.00  0.00    -0.000 C 
BRANCH  22  23
ATOM     23  C   UNL     1      10.631 -15.289 -26.885  1.00  0.00    -0.000 C 
BRANCH  23  24
ATOM     24  C   UNL     1       9.314 -15.786 -27.494  1.00  0.00    -0.000 C 
BRANCH  24  25
ATOM     25  C   UNL     1       8.412 -16.407 -26.421  1.00  0.00    -0.003 C 
ATOM     26  C   UNL     1       8.027 -15.380 -25.361  1.00  0.00     0.004 C 
ENDBRANCH  24  25
ENDBRANCH  23  24
ENDBRANCH  22  23
ENDBRANCH  21  22
ENDBRANCH  20  21
ENDBRANCH  19  20
ENDBRANCH  18  19
ENDBRANCH  17  18
ENDBRANCH  16  17
ENDBRANCH  15  16
ENDBRANCH   1  15
TORSDOF 22
ENDMDL
MODEL 2
REMARK VINA RESULT:    -3.712      3.968     10.035
REMARK INTER + INTRA:         -12.207
REMARK INTER:                  -8.904
REMARK INTRA:                  -3.303
REMARK UNBOUND:                -3.722
REMARK SMILES CCCCCCCCCCCCCCCCCCCCCCCC(=O)[O-]
REMARK SMILES IDX 13 1 14 2 15 3 16 4 17 5 18 6 19 7 20 8 21 9 22 10 23 11
REMARK SMILES IDX 24 12 25 13 26 14 12 15 11 16 10 17 9 18 8 19 7 20 6 21 5 22
REMARK SMILES IDX 4 23 3 24 2 25 1 26
REMARK H PARENT
REMARK Flexibility Score: inf
ROOT
ATOM      1  C   UNL     1      13.041  -2.212 -24.387  1.00  0.00     0.000 C 
ENDROOT
BRANCH   1   2
ATOM      2  C   UNL     1      11.535  -2.408 -24.598  1.00  0.00     0.000 C 
BRANCH   2   3
ATOM      3  C   UNL     1      11.215  -2.687 -26.074  1.00  0.00     0.000 C 
BRANCH   3   4
ATOM      4  C   UNL     1      10.719  -4.122 -26.314  1.00  0.00     0.000 C 
BRANCH   4   5
ATOM      5  C   UNL     1      10.560  -4.919 -25.006  1.00  0.00     0.000 C 
BRANCH   5   6
ATOM      6  C   UNL     1       9.973  -6.321 -25.239  1.00  0.00     0.000 C 
BRANCH   6   7
ATOM      7  C   UNL     1      11.057  -7.376 -25.524  1.00  0.00     0.000 C 
BRANCH   7   8
ATOM      8  C   UNL     1      12.307  -7.193 -24.646  1.00  0.00     0.000 C 
BRANCH   8   9
ATOM      9  C   UNL     1      12.541  -8.379 -23.692  1.00  0.00     0.000 C 
BRANCH   9  10
ATOM     10  C   UNL     1      13.583  -9.373 -24.230  1.00  0.00     0.006 C 
BRANCH  10  11
ATOM     11  C   UNL     1      13.352 -10.806 -23.731  1.00  0.00     0.053 C 
BRANCH  11  12
ATOM     12  C   UNL     1      12.028 -11.317 -24.207  1.00  0.00     0.041 C 
ATOM     13  O   UNL     1      11.825 -11.498 -25.437  1.00  0.00    -0.550 OA
ATOM     14  O   UNL     1      11.002 -11.540 -23.298  1.00  0.00    -0.550 OA
ENDBRANCH  11  12
ENDBRANCH  10  11
ENDBRANCH   9  10
ENDBRANCH   8   9
ENDBRANCH   7   8
ENDBRANCH   6   7
ENDBRANCH   5   6
ENDBRANCH   4   5
ENDBRANCH   3   4
ENDBRANCH   2   3
ENDBRANCH   1   2
BRANCH   1  15
ATOM     15  C   UNL     1      13.468  -2.686 -22.993  1.00  0.00     0.000 C 
BRANCH  15  16
ATOM     16  C   UNL     1      13.534  -4.220 -22.925  1.00  0.00     0.000 C 
BRANCH  16  17
ATOM     17  C   UNL     1      13.107  -4.765 -21.545  1.00  0.00     0.000 C 
BRANCH  17  18
ATOM     18  C   UNL     1      11.711  -5.419 -21.536  1.00  0.00    -0.000 C 
BRANCH  18  19
ATOM     19  C   UNL     1      10.653  -4.680 -20.700  1.00  0.00    -0.000 C 
BRANCH  19  20
ATOM     20  C   UNL     1       9.863  -3.646 -21.517  1.00  0.00    -0.000 C 
BRANCH  20  21
ATOM     21  C   UNL     1      10.241  -2.219 -21.102  1.00  0.00    -0.000 C 
BRANCH  21  22
ATOM     22  C   UNL     1      11.077  -2.221 -19.817  1.00  0.00    -0.000 C 
BRANCH  22  23
ATOM     23  C   UNL     1      11.119  -0.825 -19.186  1.00  0.00    -0.000 C 
BRANCH  23  24
ATOM     24  C   UNL     1       9.915   0.017 -19.626  1.00  0.00    -0.000 C 
BRANCH  24  25
ATOM     25  C   UNL     1      10.082   1.480 -19.200  1.00  0.00    -0.003 C 
ATOM     26  C   UNL     1       8.870   1.968 -18.414  1.00  0.00     0.004 C 
ENDBRANCH  24  25
ENDBRANCH  23  24
ENDBRANCH  22  23
ENDBRANCH  21  22
ENDBRANCH  20  21
ENDBRANCH  19  20
ENDBRANCH  18  19
ENDBRANCH  17  18
ENDBRANCH  16  17
ENDBRANCH  15  16
ENDBRANCH   1  15
TORSDOF 22
ENDMDL
MODEL 3
REMARK VINA RESULT:    -3.659     14.763     16.771
REMARK INTER + INTRA:         -12.088
REMARK INTER:                  -8.535
REMARK INTRA:                  -3.553
REMARK UNBOUND:                -3.722
REMARK SMILES CCCCCCCCCCCCCCCCCCCCCCCC(=O)[O-]
REMARK SMILES IDX 13 1 14 2 15 3 16 4 17 5 18 6 19 7 20 8 21 9 22 10 23 11
REMARK SMILES IDX 24 12 25 13 26 14 12 15 11 16 10 17 9 18 8 19 7 20 6 21 5 22
REMARK SMILES IDX 4 23 3 24 2 25 1 26
REMARK H PARENT
REMARK Flexibility Score: inf
ROOT
ATOM      1  C   UNL     1      -4.281   0.799 -23.829  1.00  0.00     0.000 C 
ENDROOT
BRANCH   1   2
ATOM      2  C   UNL     1      -2.942   1.546 -23.875  1.00  0.00     0.000 C 
BRANCH   2   3
ATOM      3  C   UNL     1      -1.979   1.021 -22.800  1.00  0.00     0.000 C 
BRANCH   3   4
ATOM      4  C   UNL     1      -0.704   0.403 -23.396  1.00  0.00     0.000 C 
BRANCH   4   5
ATOM      5  C   UNL     1      -0.809  -1.123 -23.566  1.00  0.00     0.000 C 
BRANCH   5   6
ATOM      6  C   UNL     1      -1.217  -1.530 -24.992  1.00  0.00     0.000 C 
BRANCH   6   7
ATOM      7  C   UNL     1      -0.479  -0.719 -26.072  1.00  0.00     0.000 C 
BRANCH   7   8
ATOM      8  C   UNL     1      -1.443   0.012 -27.024  1.00  0.00     0.000 C 
BRANCH   8   9
ATOM      9  C   UNL     1      -1.971  -0.899 -28.148  1.00  0.00     0.000 C 
BRANCH   9  10
ATOM     10  C   UNL     1      -1.313  -0.603 -29.506  1.00  0.00     0.006 C 
BRANCH  10  11
ATOM     11  C   UNL     1      -1.193   0.899 -29.795  1.00  0.00     0.053 C 
BRANCH  11  12
ATOM     12  C   UNL     1      -1.213   1.149 -31.270  1.00  0.00     0.041 C 
ATOM     13  O   UNL     1      -1.930   2.069 -31.747  1.00  0.00    -0.550 OA
ATOM     14  O   UNL     1      -0.483   0.332 -32.123  1.00  0.00    -0.550 OA
ENDBRANCH  11  12
ENDBRANCH  10  11
ENDBRANCH   9  10
ENDBRANCH   8   9
ENDBRANCH   7   8
ENDBRANCH   6   7
ENDBRANCH   5   6
ENDBRANCH   4   5
ENDBRANCH   3   4
ENDBRANCH   2   3
ENDBRANCH   1   2
BRANCH   1  15
ATOM     15  C   UNL     1      -4.697   0.329 -25.227  1.00  0.00     0.000 C 
BRANCH  15  16
ATOM     16  C   UNL     1      -4.840  -1.200 -25.279  1.00  0.00     0.000 C 
BRANCH  16  17
ATOM     17  C   UNL     1      -5.083  -1.719 -26.713  1.00  0.00     0.000 C 
BRANCH  17  18
ATOM     18  C   UNL     1      -5.149  -3.256 -26.818  1.00  0.00    -0.000 C 
BRANCH  18  19
ATOM     19  C   UNL     1      -5.411  -3.987 -25.491  1.00  0.00    -0.000 C 
BRANCH  19  20
ATOM     20  C   UNL     1      -4.347  -5.050 -25.176  1.00  0.00    -0.000 C 
BRANCH  20  21
ATOM     21  C   UNL     1      -3.737  -5.610 -26.467  1.00  0.00    -0.000 C 
BRANCH  21  22
ATOM     22  C   UNL     1      -2.206  -5.580 -26.412  1.00  0.00    -0.000 C 
BRANCH  22  23
ATOM     23  C   UNL     1      -1.647  -4.437 -27.267  1.00  0.00    -0.000 C 
BRANCH  23  24
ATOM     24  C   UNL     1      -0.377  -4.872 -28.008  1.00  0.00    -0.000 C 
BRANCH  24  25
ATOM     25  C   UNL     1       0.365  -3.661 -28.585  1.00  0.00    -0.003 C 
ATOM     26  C   UNL     1       1.614  -4.090 -29.347  1.00  0.00     0.004 C 
ENDBRANCH  24  25
ENDBRANCH  23  24
ENDBRANCH  22  23
ENDBRANCH  21  22
ENDBRANCH  20  21
ENDBRANCH  19  20
ENDBRANCH  18  19
ENDBRANCH  17  18
ENDBRANCH  16  17
ENDBRANCH  15  16
ENDBRANCH   1  15
TORSDOF 22
ENDMDL
MODEL 4
REMARK VINA RESULT:    -3.626     15.473     18.083
REMARK INTER + INTRA:         -12.010
REMARK INTER:                  -8.597
REMARK INTRA:                  -3.414
REMARK UNBOUND:                -3.722
REMARK SMILES CCCCCCCCCCCCCCCCCCCCCCCC(=O)[O-]
REMARK SMILES IDX 13 1 14 2 15 3 16 4 17 5 18 6 19 7 20 8 21 9 22 10 23 11
REMARK SMILES IDX 24 12 25 13 26 14 12 15 11 16 10 17 9 18 8 19 7 20 6 21 5 22
REMARK SMILES IDX 4 23 3 24 2 25 1 26
REMARK H PARENT
REMARK Flexibility Score: inf
ROOT
ATOM      1  C   UNL     1      -0.453  -9.477 -14.260  1.00  0.00     0.000 C 
ENDROOT
BRANCH   1   2
ATOM      2  C   UNL     1      -0.580 -10.999 -14.126  1.00  0.00     0.000 C 
BRANCH   2   3
ATOM      3  C   UNL     1      -1.652 -11.550 -15.078  1.00  0.00     0.000 C 
BRANCH   3   4
ATOM      4  C   UNL     1      -2.050 -12.999 -14.749  1.00  0.00     0.000 C 
BRANCH   4   5
ATOM      5  C   UNL     1      -2.887 -13.650 -15.864  1.00  0.00     0.000 C 
BRANCH   5   6
ATOM      6  C   UNL     1      -3.409 -12.624 -16.884  1.00  0.00     0.000 C 
BRANCH   6   7
ATOM      7  C   UNL     1      -4.947 -12.593 -16.958  1.00  0.00     0.000 C 
BRANCH   7   8
ATOM      8  C   UNL     1      -5.539 -11.287 -16.399  1.00  0.00     0.000 C 
BRANCH   8   9
ATOM      9  C   UNL     1      -4.590 -10.086 -16.567  1.00  0.00     0.000 C 
BRANCH   9  10
ATOM     10  C   UNL     1      -4.896  -9.263 -17.830  1.00  0.00     0.006 C 
BRANCH  10  11
ATOM     11  C   UNL     1      -3.959  -8.060 -17.998  1.00  0.00     0.053 C 
BRANCH  11  12
ATOM     12  C   UNL     1      -4.723  -6.780 -17.855  1.00  0.00     0.041 C 
ATOM     13  O   UNL     1      -5.236  -6.469 -16.747  1.00  0.00    -0.550 OA
ATOM     14  O   UNL     1      -4.915  -5.959 -18.958  1.00  0.00    -0.550 OA
ENDBRANCH  11  12
ENDBRANCH  10  11
ENDBRANCH   9  10
ENDBRANCH   8   9
ENDBRANCH   7   8
ENDBRANCH   6   7
ENDBRANCH   5   6
ENDBRANCH   4   5
ENDBRANCH   3   4
ENDBRANCH   2   3
ENDBRANCH   1   2
BRANCH   1  15
ATOM     15  C   UNL     1      -1.277  -8.959 -15.445  1.00  0.00     0.000 C 
BRANCH  15  16
ATOM     16  C   UNL     1      -1.184  -7.429 -15.558  1.00  0.00     0.000 C 
BRANCH  16  17
ATOM     17  C   UNL     1       0.149  -6.879 -15.007  1.00  0.00     0.000 C 
BRANCH  17  18
ATOM     18  C   UNL     1      -0.022  -5.782 -13.937  1.00  0.00    -0.000 C 
BRANCH  18  19
ATOM     19  C   UNL     1       0.118  -4.342 -14.457  1.00  0.00    -0.000 C 
BRANCH  19  20
ATOM     20  C   UNL     1      -1.011  -3.420 -13.970  1.00  0.00    -0.000 C 
BRANCH  20  21
ATOM     21  C   UNL     1      -2.322  -4.199 -13.813  1.00  0.00    -0.000 C 
BRANCH  21  22
ATOM     22  C   UNL     1      -3.043  -4.342 -15.158  1.00  0.00    -0.000 C 
BRANCH  22  23
ATOM     23  C   UNL     1      -3.183  -2.984 -15.855  1.00  0.00    -0.000 C 
BRANCH  23  24
ATOM     24  C   UNL     1      -2.723  -3.063 -17.316  1.00  0.00    -0.000 C 
BRANCH  24  25
ATOM     25  C   UNL     1      -2.032  -4.401 -17.603  1.00  0.00    -0.003 C 
ATOM     26  C   UNL     1      -0.581  -4.194 -18.022  1.00  0.00     0.004 C 
ENDBRANCH  24  25
ENDBRANCH  23  24
ENDBRANCH  22  23
ENDBRANCH  21  22
ENDBRANCH  20  21
ENDBRANCH  19  20
ENDBRANCH  18  19
ENDBRANCH  17  18
ENDBRANCH  16  17
ENDBRANCH  15  16
ENDBRANCH   1  15
TORSDOF 22
ENDMDL
MODEL 5
REMARK VINA RESULT:    -3.601     15.970     17.399
REMARK INTER + INTRA:         -11.954
REMARK INTER:                  -9.683
REMARK INTRA:                  -2.272
REMARK UNBOUND:                -3.722
REMARK SMILES CCCCCCCCCCCCCCCCCCCCCCCC(=O)[O-]
REMARK SMILES IDX 13 1 14 2 15 3 16 4 17 5 18 6 19 7 20 8 21 9 22 10 23 11
REMARK SMILES IDX 24 12 25 13 26 14 12 15 11 16 10 17 9 18 8 19 7 20 6 21 5 22
REMARK SMILES IDX 4 23 3 24 2 25 1 26
REMARK H PARENT
REMARK Flexibility Score: inf
ROOT
ATOM      1  C   UNL     1       0.174  -9.070 -13.802  1.00  0.00     0.000 C 
ENDROOT
BRANCH   1   2
ATOM      2  C   UNL     1       0.381  -7.867 -12.873  1.00  0.00     0.000 C 
BRANCH   2   3
ATOM      3  C   UNL     1      -0.401  -6.643 -13.373  1.00  0.00     0.000 C 
BRANCH   3   4
ATOM      4  C   UNL     1      -0.830  -5.706 -12.231  1.00  0.00     0.000 C 
BRANCH   4   5
ATOM      5  C   UNL     1      -1.853  -4.650 -12.685  1.00  0.00     0.000 C 
BRANCH   5   6
ATOM      6  C   UNL     1      -1.739  -4.325 -14.184  1.00  0.00     0.000 C 
BRANCH   6   7
ATOM      7  C   UNL     1      -3.111  -4.133 -14.854  1.00  0.00     0.000 C 
BRANCH   7   8
ATOM      8  C   UNL     1      -3.064  -3.132 -16.023  1.00  0.00     0.000 C 
BRANCH   8   9
ATOM      9  C   UNL     1      -2.143  -1.931 -15.737  1.00  0.00     0.000 C 
BRANCH   9  10
ATOM     10  C   UNL     1      -2.919  -0.611 -15.599  1.00  0.00     0.006 C 
BRANCH  10  11
ATOM     11  C   UNL     1      -4.252  -0.622 -16.358  1.00  0.00     0.053 C 
BRANCH  11  12
ATOM     12  C   UNL     1      -4.577   0.749 -16.862  1.00  0.00     0.041 C 
ATOM     13  O   UNL     1      -3.652   1.564 -17.121  1.00  0.00    -0.550 OA
ATOM     14  O   UNL     1      -5.902   1.146 -16.992  1.00  0.00    -0.550 OA
ENDBRANCH  11  12
ENDBRANCH  10  11
ENDBRANCH   9  10
ENDBRANCH   8   9
ENDBRANCH   7   8
ENDBRANCH   6   7
ENDBRANCH   5   6
ENDBRANCH   4   5
ENDBRANCH   3   4
ENDBRANCH   2   3
ENDBRANCH   1   2
BRANCH   1  15
ATOM     15  C   UNL     1      -0.822  -8.738 -14.919  1.00  0.00     0.000 C 
BRANCH  15  16
ATOM     16  C   UNL     1      -1.581  -9.993 -15.377  1.00  0.00     0.000 C 
BRANCH  16  17
ATOM     17  C   UNL     1      -1.167 -11.251 -14.584  1.00  0.00     0.000 C 
BRANCH  17  18
ATOM     18  C   UNL     1      -2.009 -12.500 -14.910  1.00  0.00    -0.000 C 
BRANCH  18  19
ATOM     19  C   UNL     1      -2.274 -12.733 -16.406  1.00  0.00    -0.000 C 
BRANCH  19  20
ATOM     20  C   UNL     1      -3.767 -12.893 -16.730  1.00  0.00    -0.000 C 
BRANCH  20  21
ATOM     21  C   UNL     1      -4.593 -11.790 -16.057  1.00  0.00    -0.000 C 
BRANCH  21  22
ATOM     22  C   UNL     1      -5.536 -11.116 -17.060  1.00  0.00    -0.000 C 
BRANCH  22  23
ATOM     23  C   UNL     1      -4.844 -10.906 -18.411  1.00  0.00    -0.000 C 
BRANCH  23  24
ATOM     24  C   UNL     1      -3.997  -9.628 -18.405  1.00  0.00    -0.000 C 
BRANCH  24  25
ATOM     25  C   UNL     1      -4.827  -8.421 -17.954  1.00  0.00    -0.003 C 
ATOM     26  C   UNL     1      -4.168  -7.707 -16.778  1.00  0.00     0.004 C 
ENDBRANCH  24  25
ENDBRANCH  23  24
ENDBRANCH  22  23
ENDBRANCH  21  22
ENDBRANCH  20  21
ENDBRANCH  19  20
ENDBRANCH  18  19
ENDBRANCH  17  18
ENDBRANCH  16  17
ENDBRANCH  15  16
ENDBRANCH   1  15
TORSDOF 22
ENDMDL
MODEL 6
REMARK VINA RESULT:    -3.546     15.720     18.343
REMARK INTER + INTRA:         -11.829
REMARK INTER:                  -8.300
REMARK INTRA:                  -3.529
REMARK UNBOUND:                -3.722
REMARK SMILES CCCCCCCCCCCCCCCCCCCCCCCC(=O)[O-]
REMARK SMILES IDX 13 1 14 2 15 3 16 4 17 5 18 6 19 7 20 8 21 9 22 10 23 11
REMARK SMILES IDX 24 12 25 13 26 14 12 15 11 16 10 17 9 18 8 19 7 20 6 21 5 22
REMARK SMILES IDX 4 23 3 24 2 25 1 26
REMARK H PARENT
REMARK Flexibility Score: inf
ROOT
ATOM      1  C   UNL     1      -0.509 -10.438 -14.117  1.00  0.00     0.000 C 
ENDROOT
BRANCH   1   2
ATOM      2  C   UNL     1      -0.994 -11.223 -15.342  1.00  0.00     0.000 C 
BRANCH   2   3
ATOM      3  C   UNL     1      -1.727 -12.506 -14.920  1.00  0.00     0.000 C 
BRANCH   3   4
ATOM      4  C   UNL     1      -3.152 -12.590 -15.491  1.00  0.00     0.000 C 
BRANCH   4   5
ATOM      5  C   UNL     1      -3.608 -11.271 -16.140  1.00  0.00     0.000 C 
BRANCH   5   6
ATOM      6  C   UNL     1      -5.108 -11.270 -16.481  1.00  0.00     0.000 C 
BRANCH   6   7
ATOM      7  C   UNL     1      -5.372 -11.107 -17.989  1.00  0.00     0.000 C 
BRANCH   7   8
ATOM      8  C   UNL     1      -4.074 -11.086 -18.817  1.00  0.00     0.000 C 
BRANCH   8   9
ATOM      9  C   UNL     1      -3.894 -12.355 -19.670  1.00  0.00     0.000 C 
BRANCH   9  10
ATOM     10  C   UNL     1      -2.713 -13.220 -19.200  1.00  0.00     0.006 C 
BRANCH  10  11
ATOM     11  C   UNL     1      -3.161 -14.503 -18.488  1.00  0.00     0.053 C 
BRANCH  11  12
ATOM     12  C   UNL     1      -4.542 -14.885 -18.922  1.00  0.00     0.041 C 
ATOM     13  O   UNL     1      -5.541 -14.526 -18.242  1.00  0.00    -0.550 OA
ATOM     14  O   UNL     1      -4.723 -15.681 -20.045  1.00  0.00    -0.550 OA
ENDBRANCH  11  12
ENDBRANCH  10  11
ENDBRANCH   9  10
ENDBRANCH   8   9
ENDBRANCH   7   8
ENDBRANCH   6   7
ENDBRANCH   5   6
ENDBRANCH   4   5
ENDBRANCH   3   4
ENDBRANCH   2   3
ENDBRANCH   1   2
BRANCH   1  15
ATOM     15  C   UNL     1      -0.462  -8.934 -14.412  1.00  0.00     0.000 C 
BRANCH  15  16
ATOM     16  C   UNL     1      -0.775  -8.648 -15.889  1.00  0.00     0.000 C 
BRANCH  16  17
ATOM     17  C   UNL     1      -1.985  -7.706 -16.061  1.00  0.00     0.000 C 
BRANCH  17  18
ATOM     18  C   UNL     1      -2.872  -8.044 -17.275  1.00  0.00    -0.000 C 
BRANCH  18  19
ATOM     19  C   UNL     1      -4.337  -7.591 -17.156  1.00  0.00    -0.000 C 
BRANCH  19  20
ATOM     20  C   UNL     1      -5.031  -7.448 -18.519  1.00  0.00    -0.000 C 
BRANCH  20  21
ATOM     21  C   UNL     1      -5.232  -5.971 -18.877  1.00  0.00    -0.000 C 
BRANCH  21  22
ATOM     22  C   UNL     1      -3.903  -5.309 -19.256  1.00  0.00    -0.000 C 
BRANCH  22  23
ATOM     23  C   UNL     1      -3.753  -3.945 -18.574  1.00  0.00    -0.000 C 
BRANCH  23  24
ATOM     24  C   UNL     1      -2.805  -4.030 -17.371  1.00  0.00    -0.000 C 
BRANCH  24  25
ATOM     25  C   UNL     1      -3.591  -4.152 -16.060  1.00  0.00    -0.003 C 
ATOM     26  C   UNL     1      -2.653  -4.207 -14.858  1.00  0.00     0.004 C 
ENDBRANCH  24  25
ENDBRANCH  23  24
ENDBRANCH  22  23
ENDBRANCH  21  22
ENDBRANCH  20  21
ENDBRANCH  19  20
ENDBRANCH  18  19
ENDBRANCH  17  18
ENDBRANCH  16  17
ENDBRANCH  15  16
ENDBRANCH   1  15
TORSDOF 22
ENDMDL
MODEL 7
REMARK VINA RESULT:    -3.515      3.847      8.480
REMARK INTER + INTRA:         -11.758
REMARK INTER:                  -7.514
REMARK INTRA:                  -4.244
REMARK UNBOUND:                -3.722
REMARK SMILES CCCCCCCCCCCCCCCCCCCCCCCC(=O)[O-]
REMARK SMILES IDX 13 1 14 2 15 3 16 4 17 5 18 6 19 7 20 8 21 9 22 10 23 11
REMARK SMILES IDX 24 12 25 13 26 14 12 15 11 16 10 17 9 18 8 19 7 20 6 21 5 22
REMARK SMILES IDX 4 23 3 24 2 25 1 26
REMARK H PARENT
REMARK Flexibility Score: inf
ROOT
ATOM      1  C   UNL     1      11.112 -11.044 -23.232  1.00  0.00     0.000 C 
ENDROOT
BRANCH   1   2
ATOM      2  C   UNL     1      12.473 -11.291 -23.894  1.00  0.00     0.000 C 
BRANCH   2   3
ATOM      3  C   UNL     1      13.318 -10.009 -23.914  1.00  0.00     0.000 C 
BRANCH   3   4
ATOM      4  C   UNL     1      13.166  -9.218 -25.224  1.00  0.00     0.000 C 
BRANCH   4   5
ATOM      5  C   UNL     1      12.576  -7.814 -25.002  1.00  0.00     0.000 C 
BRANCH   5   6
ATOM      6  C   UNL     1      11.176  -7.659 -25.621  1.00  0.00     0.000 C 
BRANCH   6   7
ATOM      7  C   UNL     1      10.761  -8.883 -26.458  1.00  0.00     0.000 C 
BRANCH   7   8
ATOM      8  C   UNL     1       9.243  -9.135 -26.423  1.00  0.00     0.000 C 
BRANCH   8   9
ATOM      9  C   UNL     1       8.886 -10.534 -25.888  1.00  0.00     0.000 C 
BRANCH   9  10
ATOM     10  C   UNL     1       9.460 -11.664 -26.758  1.00  0.00     0.006 C 
BRANCH  10  11
ATOM     11  C   UNL     1       9.707 -12.956 -25.969  1.00  0.00     0.053 C 
BRANCH  11  12
ATOM     12  C   UNL     1      10.401 -13.967 -26.827  1.00  0.00     0.041 C 
ATOM     13  O   UNL     1      10.055 -15.177 -26.786  1.00  0.00    -0.550 OA
ATOM     14  O   UNL     1      11.467 -13.581 -27.630  1.00  0.00    -0.550 OA
ENDBRANCH  11  12
ENDBRANCH  10  11
ENDBRANCH   9  10
ENDBRANCH   8   9
ENDBRANCH   7   8
ENDBRANCH   6   7
ENDBRANCH   5   6
ENDBRANCH   4   5
ENDBRANCH   3   4
ENDBRANCH   2   3
ENDBRANCH   1   2
BRANCH   1  15
ATOM     15  C   UNL     1      11.192  -9.893 -22.223  1.00  0.00     0.000 C 
BRANCH  15  16
ATOM     16  C   UNL     1      10.046  -8.892 -22.432  1.00  0.00     0.000 C 
BRANCH  16  17
ATOM     17  C   UNL     1      10.372  -7.497 -21.857  1.00  0.00     0.000 C 
BRANCH  17  18
ATOM     18  C   UNL     1      11.814  -7.361 -21.328  1.00  0.00    -0.000 C 
BRANCH  18  19
ATOM     19  C   UNL     1      12.070  -6.126 -20.449  1.00  0.00    -0.000 C 
BRANCH  19  20
ATOM     20  C   UNL     1      13.417  -5.449 -20.748  1.00  0.00    -0.000 C 
BRANCH  20  21
ATOM     21  C   UNL     1      13.694  -5.429 -22.256  1.00  0.00    -0.000 C 
BRANCH  21  22
ATOM     22  C   UNL     1      13.302  -4.081 -22.871  1.00  0.00    -0.000 C 
BRANCH  22  23
ATOM     23  C   UNL     1      12.035  -4.213 -23.722  1.00  0.00    -0.000 C 
BRANCH  23  24
ATOM     24  C   UNL     1      11.210  -2.920 -23.689  1.00  0.00    -0.000 C 
BRANCH  24  25
ATOM     25  C   UNL     1      10.564  -2.715 -22.313  1.00  0.00    -0.003 C 
ATOM     26  C   UNL     1       9.597  -3.847 -21.984  1.00  0.00     0.004 C 
ENDBRANCH  24  25
ENDBRANCH  23  24
ENDBRANCH  22  23
ENDBRANCH  21  22
ENDBRANCH  20  21
ENDBRANCH  19  20
ENDBRANCH  18  19
ENDBRANCH  17  18
ENDBRANCH  16  17
ENDBRANCH  15  16
ENDBRANCH   1  15
TORSDOF 22
ENDMDL
MODEL 8
REMARK VINA RESULT:    -3.481     14.049     16.867
REMARK INTER + INTRA:         -11.679
REMARK INTER:                  -7.711
REMARK INTRA:                  -3.969
REMARK UNBOUND:                -3.722
REMARK SMILES CCCCCCCCCCCCCCCCCCCCCCCC(=O)[O-]
REMARK SMILES IDX 13 1 14 2 15 3 16 4 17 5 18 6 19 7 20 8 21 9 22 10 23 11
REMARK SMILES IDX 24 12 25 13 26 14 12 15 11 16 10 17 9 18 8 19 7 20 6 21 5 22
REMARK SMILES IDX 4 23 3 24 2 25 1 26
REMARK H PARENT
REMARK Flexibility Score: inf
ROOT
ATOM      1  C   UNL     1      -5.063  -9.254 -17.874  1.00  0.00     0.000 C 
ENDROOT
BRANCH   1   2
ATOM      2  C   UNL     1      -5.740 -10.630 -17.854  1.00  0.00     0.000 C 
BRANCH   2   3
ATOM      3  C   UNL     1      -5.466 -11.361 -16.531  1.00  0.00     0.000 C 
BRANCH   3   4
ATOM      4  C   UNL     1      -5.101 -12.840 -16.734  1.00  0.00     0.000 C 
BRANCH   4   5
ATOM      5  C   UNL     1      -5.327 -13.312 -18.182  1.00  0.00     0.000 C 
BRANCH   5   6
ATOM      6  C   UNL     1      -4.330 -14.403 -18.608  1.00  0.00     0.000 C 
BRANCH   6   7
ATOM      7  C   UNL     1      -3.319 -13.904 -19.657  1.00  0.00     0.000 C 
BRANCH   7   8
ATOM      8  C   UNL     1      -3.202 -12.370 -19.682  1.00  0.00     0.000 C 
BRANCH   8   9
ATOM      9  C   UNL     1      -2.114 -11.843 -18.728  1.00  0.00     0.000 C 
BRANCH   9  10
ATOM     10  C   UNL     1      -0.706 -11.910 -19.344  1.00  0.00     0.006 C 
BRANCH  10  11
ATOM     11  C   UNL     1       0.390 -11.446 -18.375  1.00  0.00     0.053 C 
BRANCH  11  12
ATOM     12  C   UNL     1       1.233 -10.386 -19.012  1.00  0.00     0.041 C 
ATOM     13  O   UNL     1       0.912  -9.172 -18.906  1.00  0.00    -0.550 OA
ATOM     14  O   UNL     1       2.343 -10.742 -19.767  1.00  0.00    -0.550 OA
ENDBRANCH  11  12
ENDBRANCH  10  11
ENDBRANCH   9  10
ENDBRANCH   8   9
ENDBRANCH   7   8
ENDBRANCH   6   7
ENDBRANCH   5   6
ENDBRANCH   4   5
ENDBRANCH   3   4
ENDBRANCH   2   3
ENDBRANCH   1   2
BRANCH   1  15
ATOM     15  C   UNL     1      -3.931  -9.183 -16.843  1.00  0.00     0.000 C 
BRANCH  15  16
ATOM     16  C   UNL     1      -3.357  -7.761 -16.747  1.00  0.00     0.000 C 
BRANCH  16  17
ATOM     17  C   UNL     1      -1.936  -7.740 -16.143  1.00  0.00     0.000 C 
BRANCH  17  18
ATOM     18  C   UNL     1      -1.270  -9.129 -16.067  1.00  0.00    -0.000 C 
BRANCH  18  19
ATOM     19  C   UNL     1      -0.484  -9.402 -14.774  1.00  0.00    -0.000 C 
BRANCH  19  20
ATOM     20  C   UNL     1      -0.844 -10.751 -14.132  1.00  0.00    -0.000 C 
BRANCH  20  21
ATOM     21  C   UNL     1      -1.609 -11.639 -15.120  1.00  0.00    -0.000 C 
BRANCH  21  22
ATOM     22  C   UNL     1      -0.895 -12.980 -15.323  1.00  0.00    -0.000 C 
BRANCH  22  23
ATOM     23  C   UNL     1      -1.898 -14.097 -15.629  1.00  0.00    -0.000 C 
BRANCH  23  24
ATOM     24  C   UNL     1      -2.724 -14.454 -14.387  1.00  0.00    -0.000 C 
BRANCH  24  25
ATOM     25  C   UNL     1      -1.822 -14.626 -13.159  1.00  0.00    -0.003 C 
ATOM     26  C   UNL     1      -2.602 -15.192 -11.977  1.00  0.00     0.004 C 
ENDBRANCH  24  25
ENDBRANCH  23  24
ENDBRANCH  22  23
ENDBRANCH  21  22
ENDBRANCH  20  21
ENDBRANCH  19  20
ENDBRANCH  18  19
ENDBRANCH  17  18
ENDBRANCH  16  17
ENDBRANCH  15  16
ENDBRANCH   1  15
TORSDOF 22
ENDMDL
MODEL 9
REMARK VINA RESULT:    -2.275     15.659     17.093
REMARK INTER + INTRA:          -8.922
REMARK INTER:                  -5.638
REMARK INTRA:                  -3.284
REMARK UNBOUND:                -3.722
REMARK SMILES CCCCCCCCCCCCCCCCCCCCCCCC(=O)[O-]
REMARK SMILES IDX 13 1 14 2 15 3 16 4 17 5 18 6 19 7 20 8 21 9 22 10 23 11
REMARK SMILES IDX 24 12 25 13 26 14 12 15 11 16 10 17 9 18 8 19 7 20 6 21 5 22
REMARK SMILES IDX 4 23 3 24 2 25 1 26
REMARK H PARENT
REMARK Flexibility Score: inf
ROOT
ATOM      1  C   UNL     1      -0.856  -8.681 -14.696  1.00  0.00     0.000 C 
ENDROOT
BRANCH   1   2
ATOM      2  C   UNL     1       0.040  -7.456 -14.477  1.00  0.00     0.000 C 
BRANCH   2   3
ATOM      3  C   UNL     1       0.966  -7.657 -13.268  1.00  0.00     0.000 C 
BRANCH   3   4
ATOM      4  C   UNL     1       0.528  -6.840 -12.042  1.00  0.00     0.000 C 
BRANCH   4   5
ATOM      5  C   UNL     1       0.099  -5.408 -12.408  1.00  0.00     0.000 C 
BRANCH   5   6
ATOM      6  C   UNL     1      -1.301  -5.058 -11.875  1.00  0.00     0.000 C 
BRANCH   6   7
ATOM      7  C   UNL     1      -2.211  -4.448 -12.957  1.00  0.00     0.000 C 
BRANCH   7   8
ATOM      8  C   UNL     1      -1.475  -4.223 -14.290  1.00  0.00     0.000 C 
BRANCH   8   9
ATOM      9  C   UNL     1      -2.294  -4.693 -15.506  1.00  0.00     0.000 C 
BRANCH   9  10
ATOM     10  C   UNL     1      -2.189  -3.728 -16.699  1.00  0.00     0.006 C 
BRANCH  10  11
ATOM     11  C   UNL     1      -3.544  -3.137 -17.108  1.00  0.00     0.053 C 
BRANCH  11  12
ATOM     12  C   UNL     1      -3.773  -1.829 -16.417  1.00  0.00     0.041 C 
ATOM     13  O   UNL     1      -4.945  -1.406 -16.234  1.00  0.00    -0.550 OA
ATOM     14  O   UNL     1      -2.690  -1.051 -16.027  1.00  0.00    -0.550 OA
ENDBRANCH  11  12
ENDBRANCH  10  11
ENDBRANCH   9  10
ENDBRANCH   8   9
ENDBRANCH   7   8
ENDBRANCH   6   7
ENDBRANCH   5   6
ENDBRANCH   4   5
ENDBRANCH   3   4
ENDBRANCH   2   3
ENDBRANCH   1   2
BRANCH   1  15
ATOM     15  C   UNL     1      -0.223  -9.940 -14.093  1.00  0.00     0.000 C 
BRANCH  15  16
ATOM     16  C   UNL     1      -1.005 -11.200 -14.495  1.00  0.00     0.000 C 
BRANCH  16  17
ATOM     17  C   UNL     1      -2.059 -10.914 -15.586  1.00  0.00     0.000 C 
BRANCH  17  18
ATOM     18  C   UNL     1      -2.202 -12.042 -16.628  1.00  0.00    -0.000 C 
BRANCH  18  19
ATOM     19  C   UNL     1      -3.648 -12.471 -16.926  1.00  0.00    -0.000 C 
BRANCH  19  20
ATOM     20  C   UNL     1      -4.678 -11.750 -16.043  1.00  0.00    -0.000 C 
BRANCH  20  21
ATOM     21  C   UNL     1      -5.873 -11.273 -16.879  1.00  0.00    -0.000 C 
BRANCH  21  22
ATOM     22  C   UNL     1      -5.435 -10.881 -18.294  1.00  0.00    -0.000 C 
BRANCH  22  23
ATOM     23  C   UNL     1      -5.220  -9.367 -18.404  1.00  0.00    -0.000 C 
BRANCH  23  24
ATOM     24  C   UNL     1      -3.764  -9.041 -18.759  1.00  0.00    -0.000 C 
BRANCH  24  25
ATOM     25  C   UNL     1      -3.141  -8.105 -17.717  1.00  0.00    -0.003 C 
ATOM     26  C   UNL     1      -4.164  -7.691 -16.665  1.00  0.00     0.004 C 
ENDBRANCH  24  25
ENDBRANCH  23  24
ENDBRANCH  22  23
ENDBRANCH  21  22
ENDBRANCH  20  21
ENDBRANCH  19  20
ENDBRANCH  18  19
ENDBRANCH  17  18
ENDBRANCH  16  17
ENDBRANCH  15  16
ENDBRANCH   1  15
TORSDOF 22
ENDMDL
