MODEL 1
REMARK VINA RESULT:    -3.973      0.000      0.000
REMARK INTER + INTRA:          -3.973
REMARK INTER:                  -3.973
REMARK INTRA:                   0.000
REMARK UNBOUND:                 0.000
REMARK SMILES CC1(C)C(=O)[C@@]2(C)CC[C@@H]1C2
REMARK SMILES IDX 1 1 2 2 10 3 9 4 8 5 6 6 11 7 4 8 5 9 7 10 3 11
REMARK H PARENT
REMARK Flexibility Score: inf
ROOT
ATOM      1  C   UNL     1     169.900 168.528 170.054  1.00  0.00     0.020 C 
ATOM      2  C   UNL     1     168.657 168.463 169.141  1.00  0.00     0.027 C 
ATOM      3  C   UNL     1     167.394 167.945 169.917  1.00  0.00     0.003 C 
ATOM      4  C   UNL     1     166.203 167.710 168.953  1.00  0.00     0.005 C 
ATOM      5  C   UNL     1     165.827 169.141 168.508  1.00  0.00     0.015 C 
ATOM      6  C   UNL     1     166.779 170.015 169.346  1.00  0.00     0.027 C 
ATOM      7  C   UNL     1     166.893 169.205 170.621  1.00  0.00     0.019 C 
ATOM      8  C   UNL     1     168.166 169.839 168.792  1.00  0.00     0.144 C 
ATOM      9  O   UNL     1     168.766 170.651 168.106  1.00  0.00    -0.298 OA
ATOM     10  C   UNL     1     166.333 171.466 169.546  1.00  0.00     0.020 C 
ATOM     11  C   UNL     1     169.003 167.648 167.875  1.00  0.00     0.020 C 
ENDROOT
TORSDOF 0
ENDMDL
MODEL 2
REMARK VINA RESULT:    -3.967      2.077      3.286
REMARK INTER + INTRA:          -3.967
REMARK INTER:                  -3.967
REMARK INTRA:                   0.000
REMARK UNBOUND:                 0.000
REMARK SMILES CC1(C)C(=O)[C@@]2(C)CC[C@@H]1C2
REMARK SMILES IDX 1 1 2 2 10 3 9 4 8 5 6 6 11 7 4 8 5 9 7 10 3 11
REMARK H PARENT
REMARK Flexibility Score: inf
ROOT
ATOM      1  C   UNL     1     166.762 169.864 170.067  1.00  0.00     0.020 C 
ATOM      2  C   UNL     1     166.824 168.605 169.178  1.00  0.00     0.027 C 
ATOM      3  C   UNL     1     167.361 167.360 169.971  1.00  0.00     0.003 C 
ATOM      4  C   UNL     1     167.592 166.153 169.028  1.00  0.00     0.005 C 
ATOM      5  C   UNL     1     166.159 165.758 168.608  1.00  0.00     0.015 C 
ATOM      6  C   UNL     1     165.288 166.720 169.439  1.00  0.00     0.027 C 
ATOM      7  C   UNL     1     166.113 166.865 170.701  1.00  0.00     0.019 C 
ATOM      8  C   UNL     1     165.448 168.097 168.856  1.00  0.00     0.144 C 
ATOM      9  O   UNL     1     164.622 168.679 168.169  1.00  0.00    -0.298 OA
ATOM     10  C   UNL     1     163.843 166.268 169.666  1.00  0.00     0.020 C 
ATOM     11  C   UNL     1     167.620 168.932 167.895  1.00  0.00     0.020 C 
ENDROOT
TORSDOF 0
ENDMDL
MODEL 3
REMARK VINA RESULT:    -3.963      2.107      3.359
REMARK INTER + INTRA:          -3.963
REMARK INTER:                  -3.963
REMARK INTRA:                   0.000
REMARK UNBOUND:                 0.000
REMARK SMILES CC1(C)C(=O)[C@@]2(C)CC[C@@H]1C2
REMARK SMILES IDX 1 1 2 2 10 3 9 4 8 5 6 6 11 7 4 8 5 9 7 10 3 11
REMARK H PARENT
REMARK Flexibility Score: inf
ROOT
ATOM      1  C   UNL     1     168.765 165.326 169.993  1.00  0.00     0.020 C 
ATOM      2  C   UNL     1     168.637 166.605 169.139  1.00  0.00     0.027 C 
ATOM      3  C   UNL     1     168.183 167.837 170.003  1.00  0.00     0.003 C 
ATOM      4  C   UNL     1     167.882 169.066 169.109  1.00  0.00     0.005 C 
ATOM      5  C   UNL     1     169.277 169.459 168.573  1.00  0.00     0.015 C 
ATOM      6  C   UNL     1     170.208 168.472 169.304  1.00  0.00     0.027 C 
ATOM      7  C   UNL     1     169.496 168.306 170.630  1.00  0.00     0.019 C 
ATOM      8  C   UNL     1     169.985 167.109 168.708  1.00  0.00     0.144 C 
ATOM      9  O   UNL     1     170.741 166.536 167.939  1.00  0.00    -0.298 OA
ATOM     10  C   UNL     1     171.671 168.908 169.412  1.00  0.00     0.020 C 
ATOM     11  C   UNL     1     167.728 166.312 167.925  1.00  0.00     0.020 C 
ENDROOT
TORSDOF 0
ENDMDL
MODEL 4
REMARK VINA RESULT:    -3.956      2.824      4.564
REMARK INTER + INTRA:          -3.956
REMARK INTER:                  -3.956
REMARK INTRA:                   0.000
REMARK UNBOUND:                 0.000
REMARK SMILES CC1(C)C(=O)[C@@]2(C)CC[C@@H]1C2
REMARK SMILES IDX 1 1 2 2 10 3 9 4 8 5 6 6 11 7 4 8 5 9 7 10 3 11
REMARK H PARENT
REMARK Flexibility Score: inf
ROOT
ATOM      1  C   UNL     1     165.560 166.837 170.196  1.00  0.00     0.020 C 
ATOM      2  C   UNL     1     166.680 166.873 169.134  1.00  0.00     0.027 C 
ATOM      3  C   UNL     1     168.013 167.466 169.717  1.00  0.00     0.003 C 
ATOM      4  C   UNL     1     169.070 167.667 168.602  1.00  0.00     0.005 C 
ATOM      5  C   UNL     1     169.432 166.220 168.198  1.00  0.00     0.015 C 
ATOM      6  C   UNL     1     168.615 165.378 169.197  1.00  0.00     0.027 C 
ATOM      7  C   UNL     1     168.632 166.263 170.427  1.00  0.00     0.019 C 
ATOM      8  C   UNL     1     167.166 165.489 168.809  1.00  0.00     0.144 C 
ATOM      9  O   UNL     1     166.511 164.623 168.251  1.00  0.00    -0.298 OA
ATOM     10  C   UNL     1     169.124 163.953 169.425  1.00  0.00     0.020 C 
ATOM     11  C   UNL     1     166.159 167.600 167.875  1.00  0.00     0.020 C 
ENDROOT
TORSDOF 0
ENDMDL
MODEL 5
REMARK VINA RESULT:    -3.913      1.733      3.101
REMARK INTER + INTRA:          -3.913
REMARK INTER:                  -3.913
REMARK INTRA:                   0.000
REMARK UNBOUND:                 0.000
REMARK SMILES CC1(C)C(=O)[C@@]2(C)CC[C@@H]1C2
REMARK SMILES IDX 1 1 2 2 10 3 9 4 8 5 6 6 11 7 4 8 5 9 7 10 3 11
REMARK H PARENT
REMARK Flexibility Score: inf
ROOT
ATOM      1  C   UNL     1     166.464 170.780 169.904  1.00  0.00     0.020 C 
ATOM      2  C   UNL     1     166.889 169.485 169.179  1.00  0.00     0.027 C 
ATOM      3  C   UNL     1     167.687 168.522 170.129  1.00  0.00     0.003 C 
ATOM      4  C   UNL     1     168.263 167.315 169.347  1.00  0.00     0.005 C 
ATOM      5  C   UNL     1     166.999 166.517 168.956  1.00  0.00     0.015 C 
ATOM      6  C   UNL     1     165.873 167.310 169.648  1.00  0.00     0.027 C 
ATOM      7  C   UNL     1     166.574 167.809 170.895  1.00  0.00     0.019 C 
ATOM      8  C   UNL     1     165.704 168.604 168.901  1.00  0.00     0.144 C 
ATOM      9  O   UNL     1     164.791 168.869 168.134  1.00  0.00    -0.298 OA
ATOM     10  C   UNL     1     164.583 166.529 169.906  1.00  0.00     0.020 C 
ATOM     11  C   UNL     1     167.634 169.856 167.878  1.00  0.00     0.020 C 
ENDROOT
TORSDOF 0
ENDMDL
MODEL 6
REMARK VINA RESULT:    -3.870      1.661      3.268
REMARK INTER + INTRA:          -3.870
REMARK INTER:                  -3.870
REMARK INTRA:                   0.000
REMARK UNBOUND:                 0.000
REMARK SMILES CC1(C)C(=O)[C@@]2(C)CC[C@@H]1C2
REMARK SMILES IDX 1 1 2 2 10 3 9 4 8 5 6 6 11 7 4 8 5 9 7 10 3 11
REMARK H PARENT
REMARK Flexibility Score: inf
ROOT
ATOM      1  C   UNL     1     165.873 167.284 170.225  1.00  0.00     0.020 C 
ATOM      2  C   UNL     1     166.445 168.171 169.100  1.00  0.00     0.027 C 
ATOM      3  C   UNL     1     167.010 169.526 169.660  1.00  0.00     0.003 C 
ATOM      4  C   UNL     1     167.413 170.482 168.509  1.00  0.00     0.005 C 
ATOM      5  C   UNL     1     168.638 169.779 167.883  1.00  0.00     0.015 C 
ATOM      6  C   UNL     1     168.842 168.568 168.813  1.00  0.00     0.027 C 
ATOM      7  C   UNL     1     168.403 169.131 170.149  1.00  0.00     0.019 C 
ATOM      8  C   UNL     1     167.721 167.599 168.551  1.00  0.00     0.144 C 
ATOM      9  O   UNL     1     167.816 166.553 167.928  1.00  0.00    -0.298 OA
ATOM     10  C   UNL     1     170.247 167.961 168.803  1.00  0.00     0.020 C 
ATOM     11  C   UNL     1     165.379 168.336 167.995  1.00  0.00     0.020 C 
ENDROOT
TORSDOF 0
ENDMDL
MODEL 7
REMARK VINA RESULT:    -3.854      1.710      2.992
REMARK INTER + INTRA:          -3.854
REMARK INTER:                  -3.854
REMARK INTRA:                   0.000
REMARK UNBOUND:                 0.000
REMARK SMILES CC1(C)C(=O)[C@@]2(C)CC[C@@H]1C2
REMARK SMILES IDX 1 1 2 2 10 3 9 4 8 5 6 6 11 7 4 8 5 9 7 10 3 11
REMARK H PARENT
REMARK Flexibility Score: inf
ROOT
ATOM      1  C   UNL     1     166.372 166.053 168.244  1.00  0.00     0.020 C 
ATOM      2  C   UNL     1     166.166 167.200 169.256  1.00  0.00     0.027 C 
ATOM      3  C   UNL     1     167.504 167.573 169.990  1.00  0.00     0.003 C 
ATOM      4  C   UNL     1     167.252 168.593 171.129  1.00  0.00     0.005 C 
ATOM      5  C   UNL     1     166.855 169.877 170.367  1.00  0.00     0.015 C 
ATOM      6  C   UNL     1     167.028 169.460 168.893  1.00  0.00     0.027 C 
ATOM      7  C   UNL     1     168.192 168.495 168.984  1.00  0.00     0.019 C 
ATOM      8  C   UNL     1     165.915 168.505 168.557  1.00  0.00     0.144 C 
ATOM      9  O   UNL     1     164.929 168.770 167.887  1.00  0.00    -0.298 OA
ATOM     10  C   UNL     1     167.224 170.611 167.903  1.00  0.00     0.020 C 
ATOM     11  C   UNL     1     165.003 166.834 170.204  1.00  0.00     0.020 C 
ENDROOT
TORSDOF 0
ENDMDL
MODEL 8
REMARK VINA RESULT:    -3.847      1.707      2.126
REMARK INTER + INTRA:          -3.847
REMARK INTER:                  -3.847
REMARK INTRA:                   0.000
REMARK UNBOUND:                 0.000
REMARK SMILES CC1(C)C(=O)[C@@]2(C)CC[C@@H]1C2
REMARK SMILES IDX 1 1 2 2 10 3 9 4 8 5 6 6 11 7 4 8 5 9 7 10 3 11
REMARK H PARENT
REMARK Flexibility Score: inf
ROOT
ATOM      1  C   UNL     1     168.218 165.843 170.101  1.00  0.00     0.020 C 
ATOM      2  C   UNL     1     167.264 166.400 169.023  1.00  0.00     0.027 C 
ATOM      3  C   UNL     1     165.889 166.845 169.640  1.00  0.00     0.003 C 
ATOM      4  C   UNL     1     164.877 167.230 168.531  1.00  0.00     0.005 C 
ATOM      5  C   UNL     1     165.478 168.526 167.944  1.00  0.00     0.015 C 
ATOM      6  C   UNL     1     166.697 168.774 168.853  1.00  0.00     0.027 C 
ATOM      7  C   UNL     1     166.201 168.240 170.181  1.00  0.00     0.019 C 
ATOM      8  C   UNL     1     167.732 167.735 168.518  1.00  0.00     0.144 C 
ATOM      9  O   UNL     1     168.752 167.929 167.875  1.00  0.00    -0.298 OA
ATOM     10  C   UNL     1     167.206 170.216 168.891  1.00  0.00     0.020 C 
ATOM     11  C   UNL     1     167.142 165.373 167.876  1.00  0.00     0.020 C 
ENDROOT
TORSDOF 0
ENDMDL
MODEL 9
REMARK VINA RESULT:    -3.793      2.173      2.826
REMARK INTER + INTRA:          -3.793
REMARK INTER:                  -3.793
REMARK INTRA:                   0.000
REMARK UNBOUND:                 0.000
REMARK SMILES CC1(C)C(=O)[C@@]2(C)CC[C@@H]1C2
REMARK SMILES IDX 1 1 2 2 10 3 9 4 8 5 6 6 11 7 4 8 5 9 7 10 3 11
REMARK H PARENT
REMARK Flexibility Score: inf
ROOT
ATOM      1  C   UNL     1     169.751 168.149 170.132  1.00  0.00     0.020 C 
ATOM      2  C   UNL     1     169.139 167.202 169.079  1.00  0.00     0.027 C 
ATOM      3  C   UNL     1     168.701 165.833 169.714  1.00  0.00     0.003 C 
ATOM      4  C   UNL     1     168.258 164.827 168.622  1.00  0.00     0.005 C 
ATOM      5  C   UNL     1     166.947 165.444 168.087  1.00  0.00     0.015 C 
ATOM      6  C   UNL     1     166.753 166.667 169.005  1.00  0.00     0.027 C 
ATOM      7  C   UNL     1     167.333 166.164 170.311  1.00  0.00     0.019 C 
ATOM      8  C   UNL     1     167.791 167.688 168.628  1.00  0.00     0.144 C 
ATOM      9  O   UNL     1     167.585 168.711 167.993  1.00  0.00    -0.298 OA
ATOM     10  C   UNL     1     165.320 167.195 169.101  1.00  0.00     0.020 C 
ATOM     11  C   UNL     1     170.117 167.067 167.892  1.00  0.00     0.020 C 
ENDROOT
TORSDOF 0
ENDMDL
