MODEL 1
REMARK VINA RESULT:    -5.877      0.000      0.000
REMARK INTER + INTRA:          -6.049
REMARK INTER:                  -6.049
REMARK INTRA:                   0.000
REMARK UNBOUND:                 0.000
REMARK SMILES O=c1ccc2ccc(O)cc2o1
REMARK SMILES IDX 6 1 7 2 8 3 10 4 11 5 5 6 4 7 3 8 2 9 1 10 12 11 9 12
REMARK H PARENT 9 13
REMARK Flexibility Score: inf
ROOT
ATOM      1  C   UNL     1       8.364   2.496  11.363  1.00  0.00     0.016 A 
ATOM      2  C   UNL     1       7.854   1.304  10.839  1.00  0.00     0.047 A 
ATOM      3  C   UNL     1       6.734   1.321  10.000  1.00  0.00     0.119 A 
ATOM      4  C   UNL     1       6.117   2.542   9.682  1.00  0.00     0.094 A 
ATOM      5  C   UNL     1       6.621   3.739  10.202  1.00  0.00     0.142 A 
ATOM      6  C   UNL     1       7.752   3.717  11.048  1.00  0.00     0.018 A 
ATOM      7  C   UNL     1       8.231   4.929  11.551  1.00  0.00     0.019 A 
ATOM      8  C   UNL     1       7.586   6.117  11.207  1.00  0.00     0.094 A 
ATOM      9  C   UNL     1       6.471   6.063  10.363  1.00  0.00     0.336 A 
ATOM     10  O   UNL     1       5.875   7.123  10.041  1.00  0.00    -0.246 OA
ATOM     11  O   UNL     1       6.034   4.895   9.898  1.00  0.00    -0.423 OA
ENDROOT
BRANCH   3  12
ATOM     12  O   UNL     1       6.240   0.123   9.488  1.00  0.00    -0.508 OA
ATOM     13  H   UNL     1       6.691  -0.762   9.684  1.00  0.00     0.293 HD
ENDBRANCH   3  12
TORSDOF 1
ENDMDL
MODEL 2
REMARK VINA RESULT:    -5.727      0.779      4.225
REMARK INTER + INTRA:          -5.895
REMARK INTER:                  -5.895
REMARK INTRA:                   0.000
REMARK UNBOUND:                 0.000
REMARK SMILES O=c1ccc2ccc(O)cc2o1
REMARK SMILES IDX 6 1 7 2 8 3 10 4 11 5 5 6 4 7 3 8 2 9 1 10 12 11 9 12
REMARK H PARENT 9 13
REMARK Flexibility Score: inf
ROOT
ATOM      1  C   UNL     1       8.213   4.924  11.565  1.00  0.00     0.016 A 
ATOM      2  C   UNL     1       7.586   6.131  11.240  1.00  0.00     0.047 A 
ATOM      3  C   UNL     1       6.485   6.148  10.376  1.00  0.00     0.119 A 
ATOM      4  C   UNL     1       6.005   4.946   9.832  1.00  0.00     0.094 A 
ATOM      5  C   UNL     1       6.625   3.733  10.153  1.00  0.00     0.142 A 
ATOM      6  C   UNL     1       7.736   3.722  11.026  1.00  0.00     0.018 A 
ATOM      7  C   UNL     1       8.334   2.495  11.327  1.00  0.00     0.019 A 
ATOM      8  C   UNL     1       7.822   1.327  10.763  1.00  0.00     0.094 A 
ATOM      9  C   UNL     1       6.718   1.414   9.908  1.00  0.00     0.336 A 
ATOM     10  O   UNL     1       6.241   0.372   9.389  1.00  0.00    -0.246 OA
ATOM     11  O   UNL     1       6.168   2.595   9.636  1.00  0.00    -0.423 OA
ENDROOT
BRANCH   3  12
ATOM     12  O   UNL     1       5.875   7.360  10.063  1.00  0.00    -0.508 OA
ATOM     13  H   UNL     1       5.317   7.471   9.225  1.00  0.00     0.293 HD
ENDBRANCH   3  12
TORSDOF 1
ENDMDL
MODEL 3
REMARK VINA RESULT:    -5.591      1.650      4.765
REMARK INTER + INTRA:          -5.754
REMARK INTER:                  -5.754
REMARK INTRA:                   0.000
REMARK UNBOUND:                 0.000
REMARK SMILES O=c1ccc2ccc(O)cc2o1
REMARK SMILES IDX 6 1 7 2 8 3 10 4 11 5 5 6 4 7 3 8 2 9 1 10 12 11 9 12
REMARK H PARENT 9 13
REMARK Flexibility Score: inf
ROOT
ATOM      1  C   UNL     1       5.982   4.833   9.738  1.00  0.00     0.016 A 
ATOM      2  C   UNL     1       6.358   6.114  10.153  1.00  0.00     0.047 A 
ATOM      3  C   UNL     1       7.450   6.288  11.012  1.00  0.00     0.119 A 
ATOM      4  C   UNL     1       8.172   5.170  11.459  1.00  0.00     0.094 A 
ATOM      5  C   UNL     1       7.803   3.885  11.048  1.00  0.00     0.142 A 
ATOM      6  C   UNL     1       6.701   3.715  10.181  1.00  0.00     0.018 A 
ATOM      7  C   UNL     1       6.356   2.418   9.788  1.00  0.00     0.019 A 
ATOM      8  C   UNL     1       7.104   1.339  10.258  1.00  0.00     0.094 A 
ATOM      9  C   UNL     1       8.184   1.583  11.114  1.00  0.00     0.336 A 
ATOM     10  O   UNL     1       8.871   0.623  11.548  1.00  0.00    -0.246 OA
ATOM     11  O   UNL     1       8.490   2.828  11.473  1.00  0.00    -0.423 OA
ENDROOT
BRANCH   3  12
ATOM     12  O   UNL     1       7.809   7.572  11.416  1.00  0.00    -0.508 OA
ATOM     13  H   UNL     1       8.318   7.733  12.277  1.00  0.00     0.293 HD
ENDBRANCH   3  12
TORSDOF 1
ENDMDL
MODEL 4
REMARK VINA RESULT:    -5.298      1.431      2.213
REMARK INTER + INTRA:          -5.453
REMARK INTER:                  -5.453
REMARK INTRA:                   0.000
REMARK UNBOUND:                 0.000
REMARK SMILES O=c1ccc2ccc(O)cc2o1
REMARK SMILES IDX 6 1 7 2 8 3 10 4 11 5 5 6 4 7 3 8 2 9 1 10 12 11 9 12
REMARK H PARENT 9 13
REMARK Flexibility Score: inf
ROOT
ATOM      1  C   UNL     1       6.263   2.449   9.642  1.00  0.00     0.016 A 
ATOM      2  C   UNL     1       7.002   1.339  10.060  1.00  0.00     0.047 A 
ATOM      3  C   UNL     1       8.090   1.497  10.926  1.00  0.00     0.119 A 
ATOM      4  C   UNL     1       8.443   2.778  11.378  1.00  0.00     0.094 A 
ATOM      5  C   UNL     1       7.709   3.895  10.965  1.00  0.00     0.142 A 
ATOM      6  C   UNL     1       6.612   3.731  10.091  1.00  0.00     0.018 A 
ATOM      7  C   UNL     1       5.898   4.866   9.696  1.00  0.00     0.019 A 
ATOM      8  C   UNL     1       6.286   6.118  10.171  1.00  0.00     0.094 A 
ATOM      9  C   UNL     1       7.383   6.205  11.035  1.00  0.00     0.336 A 
ATOM     10  O   UNL     1       7.749   7.326  11.476  1.00  0.00    -0.246 OA
ATOM     11  O   UNL     1       8.046   5.108  11.395  1.00  0.00    -0.423 OA
ENDROOT
BRANCH   3  12
ATOM     12  O   UNL     1       8.814   0.378  11.331  1.00  0.00    -0.508 OA
ATOM     13  H   UNL     1       9.805   0.434  11.536  1.00  0.00     0.293 HD
ENDBRANCH   3  12
TORSDOF 1
ENDMDL
MODEL 5
REMARK VINA RESULT:    -5.246     10.793     12.320
REMARK INTER + INTRA:          -5.399
REMARK INTER:                  -5.399
REMARK INTRA:                   0.000
REMARK UNBOUND:                 0.000
REMARK SMILES O=c1ccc2ccc(O)cc2o1
REMARK SMILES IDX 6 1 7 2 8 3 10 4 11 5 5 6 4 7 3 8 2 9 1 10 12 11 9 12
REMARK H PARENT 9 13
REMARK Flexibility Score: inf
ROOT
ATOM      1  C   UNL     1      10.658  -6.035  20.038  1.00  0.00     0.016 A 
ATOM      2  C   UNL     1       9.598  -6.943  20.125  1.00  0.00     0.047 A 
ATOM      3  C   UNL     1       8.327  -6.594  19.654  1.00  0.00     0.119 A 
ATOM      4  C   UNL     1       8.113  -5.326  19.091  1.00  0.00     0.094 A 
ATOM      5  C   UNL     1       9.167  -4.411  19.000  1.00  0.00     0.142 A 
ATOM      6  C   UNL     1      10.449  -4.768  19.477  1.00  0.00     0.018 A 
ATOM      7  C   UNL     1      11.482  -3.832  19.372  1.00  0.00     0.019 A 
ATOM      8  C   UNL     1      11.222  -2.585  18.805  1.00  0.00     0.094 A 
ATOM      9  C   UNL     1       9.928  -2.302  18.354  1.00  0.00     0.336 A 
ATOM     10  O   UNL     1       9.673  -1.182  17.839  1.00  0.00    -0.246 OA
ATOM     11  O   UNL     1       8.962  -3.210  18.466  1.00  0.00    -0.423 OA
ENDROOT
BRANCH   3  12
ATOM     12  O   UNL     1       7.283  -7.512  19.750  1.00  0.00    -0.508 OA
ATOM     13  H   UNL     1       6.381  -7.250  20.129  1.00  0.00     0.293 HD
ENDBRANCH   3  12
TORSDOF 1
ENDMDL
MODEL 6
REMARK VINA RESULT:    -4.903     12.256     13.196
REMARK INTER + INTRA:          -5.047
REMARK INTER:                  -5.047
REMARK INTRA:                   0.000
REMARK UNBOUND:                 0.000
REMARK SMILES O=c1ccc2ccc(O)cc2o1
REMARK SMILES IDX 6 1 7 2 8 3 10 4 11 5 5 6 4 7 3 8 2 9 1 10 12 11 9 12
REMARK H PARENT 9 13
REMARK Flexibility Score: inf
ROOT
ATOM      1  C   UNL     1       8.572  -4.214  18.724  1.00  0.00     0.016 A 
ATOM      2  C   UNL     1       7.865  -5.386  19.008  1.00  0.00     0.047 A 
ATOM      3  C   UNL     1       8.506  -6.468  19.623  1.00  0.00     0.119 A 
ATOM      4  C   UNL     1       9.867  -6.377  19.956  1.00  0.00     0.094 A 
ATOM      5  C   UNL     1      10.582  -5.208  19.676  1.00  0.00     0.142 A 
ATOM      6  C   UNL     1       9.930  -4.118  19.056  1.00  0.00     0.018 A 
ATOM      7  C   UNL     1      10.671  -2.964  18.788  1.00  0.00     0.019 A 
ATOM      8  C   UNL     1      12.020  -2.920  19.138  1.00  0.00     0.094 A 
ATOM      9  C   UNL     1      12.599  -4.037  19.751  1.00  0.00     0.336 A 
ATOM     10  O   UNL     1      13.815  -4.017  20.075  1.00  0.00    -0.246 OA
ATOM     11  O   UNL     1      11.871  -5.124  19.993  1.00  0.00    -0.423 OA
ENDROOT
BRANCH   3  12
ATOM     12  O   UNL     1       7.785  -7.629  19.897  1.00  0.00    -0.508 OA
ATOM     13  H   UNL     1       8.088  -8.533  19.556  1.00  0.00     0.293 HD
ENDBRANCH   3  12
TORSDOF 1
ENDMDL
MODEL 7
REMARK VINA RESULT:    -4.808     10.719     12.418
REMARK INTER + INTRA:          -4.949
REMARK INTER:                  -4.949
REMARK INTRA:                   0.000
REMARK UNBOUND:                 0.000
REMARK SMILES O=c1ccc2ccc(O)cc2o1
REMARK SMILES IDX 6 1 7 2 8 3 10 4 11 5 5 6 4 7 3 8 2 9 1 10 12 11 9 12
REMARK H PARENT 9 13
REMARK Flexibility Score: inf
ROOT
ATOM      1  C   UNL     1      10.515  -1.685  17.808  1.00  0.00     0.016 A 
ATOM      2  C   UNL     1      11.833  -1.226  17.878  1.00  0.00     0.047 A 
ATOM      3  C   UNL     1      12.814  -1.984  18.527  1.00  0.00     0.119 A 
ATOM      4  C   UNL     1      12.474  -3.215  19.112  1.00  0.00     0.094 A 
ATOM      5  C   UNL     1      11.157  -3.683  19.045  1.00  0.00     0.142 A 
ATOM      6  C   UNL     1      10.170  -2.913  18.389  1.00  0.00     0.018 A 
ATOM      7  C   UNL     1       8.864  -3.408  18.339  1.00  0.00     0.019 A 
ATOM      8  C   UNL     1       8.573  -4.635  18.933  1.00  0.00     0.094 A 
ATOM      9  C   UNL     1       9.601  -5.343  19.566  1.00  0.00     0.336 A 
ATOM     10  O   UNL     1       9.360  -6.453  20.108  1.00  0.00    -0.246 OA
ATOM     11  O   UNL     1      10.837  -4.849  19.599  1.00  0.00    -0.423 OA
ENDROOT
BRANCH   3  12
ATOM     12  O   UNL     1      14.122  -1.509  18.588  1.00  0.00    -0.508 OA
ATOM     13  H   UNL     1      14.395  -0.792  19.250  1.00  0.00     0.293 HD
ENDBRANCH   3  12
TORSDOF 1
ENDMDL
MODEL 8
REMARK VINA RESULT:    -4.803     10.175     12.268
REMARK INTER + INTRA:          -4.943
REMARK INTER:                  -4.943
REMARK INTRA:                   0.000
REMARK UNBOUND:                 0.000
REMARK SMILES O=c1ccc2ccc(O)cc2o1
REMARK SMILES IDX 6 1 7 2 8 3 10 4 11 5 5 6 4 7 3 8 2 9 1 10 12 11 9 12
REMARK H PARENT 9 13
REMARK Flexibility Score: inf
ROOT
ATOM      1  C   UNL     1      11.901  -2.958  19.244  1.00  0.00     0.016 A 
ATOM      2  C   UNL     1      11.730  -1.786  18.502  1.00  0.00     0.047 A 
ATOM      3  C   UNL     1      10.533  -1.550  17.815  1.00  0.00     0.119 A 
ATOM      4  C   UNL     1       9.496  -2.494  17.873  1.00  0.00     0.094 A 
ATOM      5  C   UNL     1       9.658  -3.670  18.614  1.00  0.00     0.142 A 
ATOM      6  C   UNL     1      10.868  -3.904  19.305  1.00  0.00     0.018 A 
ATOM      7  C   UNL     1      10.999  -5.088  20.036  1.00  0.00     0.019 A 
ATOM      8  C   UNL     1       9.942  -5.996  20.064  1.00  0.00     0.094 A 
ATOM      9  C   UNL     1       8.772  -5.698  19.356  1.00  0.00     0.336 A 
ATOM     10  O   UNL     1       7.807  -6.504  19.368  1.00  0.00    -0.246 OA
ATOM     11  O   UNL     1       8.673  -4.564  18.666  1.00  0.00    -0.423 OA
ENDROOT
BRANCH   3  12
ATOM     12  O   UNL     1      10.382  -0.376  17.080  1.00  0.00    -0.508 OA
ATOM     13  H   UNL     1      10.364  -0.384  16.067  1.00  0.00     0.293 HD
ENDBRANCH   3  12
TORSDOF 1
ENDMDL
MODEL 9
REMARK VINA RESULT:    -4.786      9.892     12.021
REMARK INTER + INTRA:          -4.926
REMARK INTER:                  -4.926
REMARK INTRA:                   0.000
REMARK UNBOUND:                 0.000
REMARK SMILES O=c1ccc2ccc(O)cc2o1
REMARK SMILES IDX 6 1 7 2 8 3 10 4 11 5 5 6 4 7 3 8 2 9 1 10 12 11 9 12
REMARK H PARENT 9 13
REMARK Flexibility Score: inf
ROOT
ATOM      1  C   UNL     1       7.668  -2.341  18.254  1.00  0.00     0.016 A 
ATOM      2  C   UNL     1       8.345  -1.236  17.729  1.00  0.00     0.047 A 
ATOM      3  C   UNL     1       9.745  -1.213  17.695  1.00  0.00     0.119 A 
ATOM      4  C   UNL     1      10.474  -2.306  18.191  1.00  0.00     0.094 A 
ATOM      5  C   UNL     1       9.805  -3.416  18.717  1.00  0.00     0.142 A 
ATOM      6  C   UNL     1       8.392  -3.434  18.749  1.00  0.00     0.018 A 
ATOM      7  C   UNL     1       7.752  -4.557  19.281  1.00  0.00     0.019 A 
ATOM      8  C   UNL     1       8.519  -5.619  19.761  1.00  0.00     0.094 A 
ATOM      9  C   UNL     1       9.914  -5.531  19.697  1.00  0.00     0.336 A 
ATOM     10  O   UNL     1      10.623  -6.479  20.125  1.00  0.00    -0.246 OA
ATOM     11  O   UNL     1      10.498  -4.450  19.186  1.00  0.00    -0.423 OA
ENDROOT
BRANCH   3  12
ATOM     12  O   UNL     1      10.402  -0.103  17.169  1.00  0.00    -0.508 OA
ATOM     13  H   UNL     1      10.967  -0.171  16.331  1.00  0.00     0.293 HD
ENDBRANCH   3  12
TORSDOF 1
ENDMDL
