MODEL 1
REMARK VINA RESULT:    -4.873      0.000      0.000
REMARK INTER + INTRA:          -8.904
REMARK INTER:                  -8.292
REMARK INTRA:                  -0.612
REMARK UNBOUND:                -0.612
REMARK SMILES CCCCCCCCCCCCCC(=O)[O-]
REMARK SMILES IDX 8 1 9 2 10 3 11 4 12 5 13 6 14 7 15 8 16 9 7 10 6 11 5 12
REMARK SMILES IDX 4 13 3 14 2 15 1 16
REMARK H PARENT
REMARK Flexibility Score: inf
ROOT
ATOM      1  C   UNL     1       8.532 -14.276   7.034  1.00  0.00     0.000 C 
ENDROOT
BRANCH   1   2
ATOM      2  C   UNL     1       7.891 -12.974   6.528  1.00  0.00     0.000 C 
BRANCH   2   3
ATOM      3  C   UNL     1       8.966 -11.920   6.222  1.00  0.00     0.000 C 
BRANCH   3   4
ATOM      4  C   UNL     1       9.717 -12.193   4.907  1.00  0.00     0.000 C 
BRANCH   4   5
ATOM      5  C   UNL     1      10.648 -11.057   4.437  1.00  0.00     0.006 C 
BRANCH   5   6
ATOM      6  C   UNL     1      11.904 -10.863   5.302  1.00  0.00     0.053 C 
BRANCH   6   7
ATOM      7  C   UNL     1      12.788  -9.777   4.768  1.00  0.00     0.041 C 
ATOM      8  O   UNL     1      14.033  -9.951   4.696  1.00  0.00    -0.550 OA
ATOM      9  O   UNL     1      12.238  -8.562   4.380  1.00  0.00    -0.550 OA
ENDBRANCH   6   7
ENDBRANCH   5   6
ENDBRANCH   4   5
ENDBRANCH   3   4
ENDBRANCH   2   3
ENDBRANCH   1   2
BRANCH   1  10
ATOM     10  C   UNL     1       7.745 -15.528   6.615  1.00  0.00     0.000 C 
BRANCH  10  11
ATOM     11  C   UNL     1       7.456 -15.565   5.105  1.00  0.00    -0.000 C 
BRANCH  11  12
ATOM     12  C   UNL     1       6.014 -15.997   4.783  1.00  0.00    -0.000 C 
BRANCH  12  13
ATOM     13  C   UNL     1       5.844 -16.805   3.479  1.00  0.00    -0.000 C 
BRANCH  13  14
ATOM     14  C   UNL     1       6.235 -18.290   3.576  1.00  0.00    -0.000 C 
BRANCH  14  15
ATOM     15  C   UNL     1       5.019 -19.222   3.664  1.00  0.00    -0.003 C 
ATOM     16  C   UNL     1       3.779 -18.568   3.059  1.00  0.00     0.004 C 
ENDBRANCH  14  15
ENDBRANCH  13  14
ENDBRANCH  12  13
ENDBRANCH  11  12
ENDBRANCH  10  11
ENDBRANCH   1  10
TORSDOF 12
ENDMDL
MODEL 2
REMARK VINA RESULT:    -4.852     11.325     12.324
REMARK INTER + INTRA:          -8.867
REMARK INTER:                  -7.916
REMARK INTRA:                  -0.951
REMARK UNBOUND:                -0.612
REMARK SMILES CCCCCCCCCCCCCC(=O)[O-]
REMARK SMILES IDX 8 1 9 2 10 3 11 4 12 5 13 6 14 7 15 8 16 9 7 10 6 11 5 12
REMARK SMILES IDX 4 13 3 14 2 15 1 16
REMARK H PARENT
REMARK Flexibility Score: inf
ROOT
ATOM      1  C   UNL     1       8.771 -13.491  -7.314  1.00  0.00     0.000 C 
ENDROOT
BRANCH   1   2
ATOM      2  C   UNL     1       9.689 -12.262  -7.223  1.00  0.00     0.000 C 
BRANCH   2   3
ATOM      3  C   UNL     1       8.951 -10.993  -7.678  1.00  0.00     0.000 C 
BRANCH   3   4
ATOM      4  C   UNL     1       9.905  -9.838  -8.031  1.00  0.00     0.000 C 
BRANCH   4   5
ATOM      5  C   UNL     1      11.395 -10.224  -8.121  1.00  0.00     0.006 C 
BRANCH   5   6
ATOM      6  C   UNL     1      12.331  -9.356  -7.265  1.00  0.00     0.053 C 
BRANCH   6   7
ATOM      7  C   UNL     1      12.111  -9.573  -5.799  1.00  0.00     0.041 C 
ATOM      8  O   UNL     1      12.029 -10.742  -5.337  1.00  0.00    -0.550 OA
ATOM      9  O   UNL     1      11.963  -8.484  -4.950  1.00  0.00    -0.550 OA
ENDBRANCH   6   7
ENDBRANCH   5   6
ENDBRANCH   4   5
ENDBRANCH   3   4
ENDBRANCH   2   3
ENDBRANCH   1   2
BRANCH   1  10
ATOM     10  C   UNL     1       7.623 -13.301  -8.318  1.00  0.00     0.000 C 
BRANCH  10  11
ATOM     11  C   UNL     1       7.354 -14.564  -9.154  1.00  0.00    -0.000 C 
BRANCH  11  12
ATOM     12  C   UNL     1       6.187 -15.405  -8.606  1.00  0.00    -0.000 C 
BRANCH  12  13
ATOM     13  C   UNL     1       5.018 -14.597  -8.005  1.00  0.00    -0.000 C 
BRANCH  13  14
ATOM     14  C   UNL     1       4.669 -14.943  -6.546  1.00  0.00    -0.000 C 
BRANCH  14  15
ATOM     15  C   UNL     1       5.563 -16.047  -5.965  1.00  0.00    -0.003 C 
ATOM     16  C   UNL     1       4.741 -17.062  -5.175  1.00  0.00     0.004 C 
ENDBRANCH  14  15
ENDBRANCH  13  14
ENDBRANCH  12  13
ENDBRANCH  11  12
ENDBRANCH  10  11
ENDBRANCH   1  10
TORSDOF 12
ENDMDL
MODEL 3
REMARK VINA RESULT:    -4.832      9.054     12.340
REMARK INTER + INTRA:          -8.834
REMARK INTER:                  -8.090
REMARK INTRA:                  -0.745
REMARK UNBOUND:                -0.612
REMARK SMILES CCCCCCCCCCCCCC(=O)[O-]
REMARK SMILES IDX 8 1 9 2 10 3 11 4 12 5 13 6 14 7 15 8 16 9 7 10 6 11 5 12
REMARK SMILES IDX 4 13 3 14 2 15 1 16
REMARK H PARENT
REMARK Flexibility Score: inf
ROOT
ATOM      1  C   UNL     1      13.020  -7.080  -2.730  1.00  0.00     0.000 C 
ENDROOT
BRANCH   1   2
ATOM      2  C   UNL     1      12.290  -7.752  -3.903  1.00  0.00     0.000 C 
BRANCH   2   3
ATOM      3  C   UNL     1      12.771  -9.200  -4.088  1.00  0.00     0.000 C 
BRANCH   3   4
ATOM      4  C   UNL     1      12.083  -9.914  -5.266  1.00  0.00     0.000 C 
BRANCH   4   5
ATOM      5  C   UNL     1      12.205  -9.198  -6.626  1.00  0.00     0.006 C 
BRANCH   5   6
ATOM      6  C   UNL     1      11.770 -10.043  -7.833  1.00  0.00     0.053 C 
BRANCH   6   7
ATOM      7  C   UNL     1      10.280 -10.164  -7.923  1.00  0.00     0.041 C 
ATOM      8  O   UNL     1       9.584  -9.174  -8.273  1.00  0.00    -0.550 OA
ATOM      9  O   UNL     1       9.657 -11.360  -7.589  1.00  0.00    -0.550 OA
ENDBRANCH   6   7
ENDBRANCH   5   6
ENDBRANCH   4   5
ENDBRANCH   3   4
ENDBRANCH   2   3
ENDBRANCH   1   2
BRANCH   1  10
ATOM     10  C   UNL     1      14.374  -7.738  -2.417  1.00  0.00     0.000 C 
BRANCH  10  11
ATOM     11  C   UNL     1      14.588  -7.962  -0.911  1.00  0.00    -0.000 C 
BRANCH  11  12
ATOM     12  C   UNL     1      13.314  -8.442  -0.192  1.00  0.00    -0.000 C 
BRANCH  12  13
ATOM     13  C   UNL     1      13.455  -9.767   0.584  1.00  0.00    -0.000 C 
BRANCH  13  14
ATOM     14  C   UNL     1      13.055  -9.700   2.069  1.00  0.00    -0.000 C 
BRANCH  14  15
ATOM     15  C   UNL     1      12.381  -8.373   2.445  1.00  0.00    -0.003 C 
ATOM     16  C   UNL     1      12.190  -8.262   3.955  1.00  0.00     0.004 C 
ENDBRANCH  14  15
ENDBRANCH  13  14
ENDBRANCH  12  13
ENDBRANCH  11  12
ENDBRANCH  10  11
ENDBRANCH   1  10
TORSDOF 12
ENDMDL
MODEL 4
REMARK VINA RESULT:    -4.806      5.361      9.040
REMARK INTER + INTRA:          -8.789
REMARK INTER:                  -8.003
REMARK INTRA:                  -0.786
REMARK UNBOUND:                -0.612
REMARK SMILES CCCCCCCCCCCCCC(=O)[O-]
REMARK SMILES IDX 8 1 9 2 10 3 11 4 12 5 13 6 14 7 15 8 16 9 7 10 6 11 5 12
REMARK SMILES IDX 4 13 3 14 2 15 1 16
REMARK H PARENT
REMARK Flexibility Score: inf
ROOT
ATOM      1  C   UNL     1       4.624 -16.574   4.317  1.00  0.00     0.000 C 
ENDROOT
BRANCH   1   2
ATOM      2  C   UNL     1       3.471 -17.366   3.682  1.00  0.00     0.000 C 
BRANCH   2   3
ATOM      3  C   UNL     1       3.940 -18.765   3.253  1.00  0.00     0.000 C 
BRANCH   3   4
ATOM      4  C   UNL     1       3.726 -19.035   1.752  1.00  0.00     0.000 C 
BRANCH   4   5
ATOM      5  C   UNL     1       3.990 -17.830   0.827  1.00  0.00     0.006 C 
BRANCH   5   6
ATOM      6  C   UNL     1       4.475 -18.203  -0.583  1.00  0.00     0.053 C 
BRANCH   6   7
ATOM      7  C   UNL     1       3.577 -17.649  -1.647  1.00  0.00     0.041 C 
ATOM      8  O   UNL     1       4.060 -16.983  -2.601  1.00  0.00    -0.550 OA
ATOM      9  O   UNL     1       2.203 -17.841  -1.567  1.00  0.00    -0.550 OA
ENDBRANCH   6   7
ENDBRANCH   5   6
ENDBRANCH   4   5
ENDBRANCH   3   4
ENDBRANCH   2   3
ENDBRANCH   1   2
BRANCH   1  10
ATOM     10  C   UNL     1       6.005 -17.161   3.978  1.00  0.00     0.000 C 
BRANCH  10  11
ATOM     11  C   UNL     1       7.139 -16.134   4.140  1.00  0.00    -0.000 C 
BRANCH  11  12
ATOM     12  C   UNL     1       6.937 -15.207   5.352  1.00  0.00    -0.000 C 
BRANCH  12  13
ATOM     13  C   UNL     1       7.794 -15.544   6.589  1.00  0.00    -0.000 C 
BRANCH  13  14
ATOM     14  C   UNL     1       8.620 -14.372   7.149  1.00  0.00    -0.000 C 
BRANCH  14  15
ATOM     15  C   UNL     1       7.976 -13.005   6.879  1.00  0.00    -0.003 C 
ATOM     16  C   UNL     1       8.921 -12.096   6.098  1.00  0.00     0.004 C 
ENDBRANCH  14  15
ENDBRANCH  13  14
ENDBRANCH  12  13
ENDBRANCH  11  12
ENDBRANCH  10  11
ENDBRANCH   1  10
TORSDOF 12
ENDMDL
MODEL 5
REMARK VINA RESULT:    -4.804      2.387      4.082
REMARK INTER + INTRA:          -8.787
REMARK INTER:                  -7.245
REMARK INTRA:                  -1.541
REMARK UNBOUND:                -0.612
REMARK SMILES CCCCCCCCCCCCCC(=O)[O-]
REMARK SMILES IDX 8 1 9 2 10 3 11 4 12 5 13 6 14 7 15 8 16 9 7 10 6 11 5 12
REMARK SMILES IDX 4 13 3 14 2 15 1 16
REMARK H PARENT
REMARK Flexibility Score: inf
ROOT
ATOM      1  C   UNL     1       6.754 -15.449   3.126  1.00  0.00     0.000 C 
ENDROOT
BRANCH   1   2
ATOM      2  C   UNL     1       6.495 -15.307   4.634  1.00  0.00     0.000 C 
BRANCH   2   3
ATOM      3  C   UNL     1       7.533 -16.098   5.444  1.00  0.00     0.000 C 
BRANCH   3   4
ATOM      4  C   UNL     1       7.728 -15.549   6.869  1.00  0.00     0.000 C 
BRANCH   4   5
ATOM      5  C   UNL     1       8.739 -14.392   6.991  1.00  0.00     0.006 C 
BRANCH   5   6
ATOM      6  C   UNL     1       8.111 -12.989   6.954  1.00  0.00     0.053 C 
BRANCH   6   7
ATOM      7  C   UNL     1       8.575 -12.201   5.767  1.00  0.00     0.041 C 
ATOM      8  O   UNL     1       7.815 -12.043   4.775  1.00  0.00    -0.550 OA
ATOM      9  O   UNL     1       9.857 -11.668   5.744  1.00  0.00    -0.550 OA
ENDBRANCH   6   7
ENDBRANCH   5   6
ENDBRANCH   4   5
ENDBRANCH   3   4
ENDBRANCH   2   3
ENDBRANCH   1   2
BRANCH   1  10
ATOM     10  C   UNL     1       7.513 -16.739   2.773  1.00  0.00     0.000 C 
BRANCH  10  11
ATOM     11  C   UNL     1       6.583 -17.846   2.248  1.00  0.00    -0.000 C 
BRANCH  11  12
ATOM     12  C   UNL     1       6.370 -18.980   3.266  1.00  0.00    -0.000 C 
BRANCH  12  13
ATOM     13  C   UNL     1       4.901 -19.256   3.648  1.00  0.00    -0.000 C 
BRANCH  13  14
ATOM     14  C   UNL     1       3.871 -18.315   2.999  1.00  0.00    -0.000 C 
BRANCH  14  15
ATOM     15  C   UNL     1       3.379 -17.220   3.956  1.00  0.00    -0.003 C 
ATOM     16  C   UNL     1       3.161 -15.902   3.219  1.00  0.00     0.004 C 
ENDBRANCH  14  15
ENDBRANCH  13  14
ENDBRANCH  12  13
ENDBRANCH  11  12
ENDBRANCH  10  11
ENDBRANCH   1  10
TORSDOF 12
ENDMDL
MODEL 6
REMARK VINA RESULT:    -4.781      7.076     10.361
REMARK INTER + INTRA:          -8.746
REMARK INTER:                  -7.925
REMARK INTRA:                  -0.821
REMARK UNBOUND:                -0.612
REMARK SMILES CCCCCCCCCCCCCC(=O)[O-]
REMARK SMILES IDX 8 1 9 2 10 3 11 4 12 5 13 6 14 7 15 8 16 9 7 10 6 11 5 12
REMARK SMILES IDX 4 13 3 14 2 15 1 16
REMARK H PARENT
REMARK Flexibility Score: inf
ROOT
ATOM      1  C   UNL     1       4.233 -18.017  -1.312  1.00  0.00     0.000 C 
ENDROOT
BRANCH   1   2
ATOM      2  C   UNL     1       2.720 -17.757  -1.380  1.00  0.00     0.000 C 
BRANCH   2   3
ATOM      3  C   UNL     1       2.184 -18.023  -2.795  1.00  0.00     0.000 C 
BRANCH   3   4
ATOM      4  C   UNL     1       3.134 -18.887  -3.644  1.00  0.00     0.000 C 
BRANCH   4   5
ATOM      5  C   UNL     1       3.685 -18.202  -4.910  1.00  0.00     0.006 C 
BRANCH   5   6
ATOM      6  C   UNL     1       4.081 -16.729  -4.717  1.00  0.00     0.053 C 
BRANCH   6   7
ATOM      7  C   UNL     1       5.044 -16.267  -5.768  1.00  0.00     0.041 C 
ATOM      8  O   UNL     1       6.217 -16.722  -5.797  1.00  0.00    -0.550 OA
ATOM      9  O   UNL     1       4.653 -15.309  -6.695  1.00  0.00    -0.550 OA
ENDBRANCH   6   7
ENDBRANCH   5   6
ENDBRANCH   4   5
ENDBRANCH   3   4
ENDBRANCH   2   3
ENDBRANCH   1   2
BRANCH   1  10
ATOM     10  C   UNL     1       4.680 -18.572   0.051  1.00  0.00     0.000 C 
BRANCH  10  11
ATOM     11  C   UNL     1       3.797 -18.075   1.209  1.00  0.00    -0.000 C 
BRANCH  11  12
ATOM     12  C   UNL     1       3.584 -19.142   2.298  1.00  0.00    -0.000 C 
BRANCH  12  13
ATOM     13  C   UNL     1       4.353 -18.903   3.613  1.00  0.00    -0.000 C 
BRANCH  13  14
ATOM     14  C   UNL     1       5.855 -18.610   3.447  1.00  0.00    -0.000 C 
BRANCH  14  15
ATOM     15  C   UNL     1       6.242 -17.202   3.919  1.00  0.00    -0.003 C 
ATOM     16  C   UNL     1       5.005 -16.374   4.257  1.00  0.00     0.004 C 
ENDBRANCH  14  15
ENDBRANCH  13  14
ENDBRANCH  12  13
ENDBRANCH  11  12
ENDBRANCH  10  11
ENDBRANCH   1  10
TORSDOF 12
ENDMDL
MODEL 7
REMARK VINA RESULT:    -4.778      4.272      6.763
REMARK INTER + INTRA:          -8.742
REMARK INTER:                  -8.114
REMARK INTRA:                  -0.628
REMARK UNBOUND:                -0.612
REMARK SMILES CCCCCCCCCCCCCC(=O)[O-]
REMARK SMILES IDX 8 1 9 2 10 3 11 4 12 5 13 6 14 7 15 8 16 9 7 10 6 11 5 12
REMARK SMILES IDX 4 13 3 14 2 15 1 16
REMARK H PARENT
REMARK Flexibility Score: inf
ROOT
ATOM      1  C   UNL     1       4.073 -18.567   3.252  1.00  0.00     0.000 C 
ENDROOT
BRANCH   1   2
ATOM      2  C   UNL     1       3.529 -17.172   3.597  1.00  0.00     0.000 C 
BRANCH   2   3
ATOM      3  C   UNL     1       4.569 -16.361   4.386  1.00  0.00     0.000 C 
BRANCH   3   4
ATOM      4  C   UNL     1       6.018 -16.704   3.997  1.00  0.00     0.000 C 
BRANCH   4   5
ATOM      5  C   UNL     1       7.084 -16.323   5.044  1.00  0.00     0.006 C 
BRANCH   5   6
ATOM      6  C   UNL     1       7.096 -14.835   5.428  1.00  0.00     0.053 C 
BRANCH   6   7
ATOM      7  C   UNL     1       8.190 -14.518   6.402  1.00  0.00     0.041 C 
ATOM      8  O   UNL     1       9.227 -15.231   6.443  1.00  0.00    -0.550 OA
ATOM      9  O   UNL     1       8.049 -13.455   7.284  1.00  0.00    -0.550 OA
ENDBRANCH   6   7
ENDBRANCH   5   6
ENDBRANCH   4   5
ENDBRANCH   3   4
ENDBRANCH   2   3
ENDBRANCH   1   2
BRANCH   1  10
ATOM     10  C   UNL     1       3.834 -18.951   1.783  1.00  0.00     0.000 C 
BRANCH  10  11
ATOM     11  C   UNL     1       3.874 -17.735   0.841  1.00  0.00    -0.000 C 
BRANCH  11  12
ATOM     12  C   UNL     1       3.771 -18.126  -0.644  1.00  0.00    -0.000 C 
BRANCH  12  13
ATOM     13  C   UNL     1       2.911 -17.187  -1.514  1.00  0.00    -0.000 C 
BRANCH  13  14
ATOM     14  C   UNL     1       2.096 -17.884  -2.618  1.00  0.00    -0.000 C 
BRANCH  14  15
ATOM     15  C   UNL     1       2.944 -18.834  -3.475  1.00  0.00    -0.003 C 
ATOM     16  C   UNL     1       3.801 -18.058  -4.472  1.00  0.00     0.004 C 
ENDBRANCH  14  15
ENDBRANCH  13  14
ENDBRANCH  12  13
ENDBRANCH  11  12
ENDBRANCH  10  11
ENDBRANCH   1  10
TORSDOF 12
ENDMDL
MODEL 8
REMARK VINA RESULT:    -4.761      4.580      8.702
REMARK INTER + INTRA:          -8.713
REMARK INTER:                  -8.008
REMARK INTRA:                  -0.706
REMARK UNBOUND:                -0.612
REMARK SMILES CCCCCCCCCCCCCC(=O)[O-]
REMARK SMILES IDX 8 1 9 2 10 3 11 4 12 5 13 6 14 7 15 8 16 9 7 10 6 11 5 12
REMARK SMILES IDX 4 13 3 14 2 15 1 16
REMARK H PARENT
REMARK Flexibility Score: inf
ROOT
ATOM      1  C   UNL     1       8.013 -13.161   7.016  1.00  0.00     0.000 C 
ENDROOT
BRANCH   1   2
ATOM      2  C   UNL     1       8.672 -14.534   6.811  1.00  0.00     0.000 C 
BRANCH   2   3
ATOM      3  C   UNL     1       7.609 -15.628   6.627  1.00  0.00     0.000 C 
BRANCH   3   4
ATOM      4  C   UNL     1       7.366 -15.986   5.150  1.00  0.00     0.000 C 
BRANCH   4   5
ATOM      5  C   UNL     1       5.892 -15.943   4.700  1.00  0.00     0.006 C 
BRANCH   5   6
ATOM      6  C   UNL     1       5.532 -16.951   3.597  1.00  0.00     0.053 C 
BRANCH   6   7
ATOM      7  C   UNL     1       4.171 -17.542   3.803  1.00  0.00     0.041 C 
ATOM      8  O   UNL     1       3.206 -16.809   4.144  1.00  0.00    -0.550 OA
ATOM      9  O   UNL     1       3.977 -18.909   3.650  1.00  0.00    -0.550 OA
ENDBRANCH   6   7
ENDBRANCH   5   6
ENDBRANCH   4   5
ENDBRANCH   3   4
ENDBRANCH   2   3
ENDBRANCH   1   2
BRANCH   1  10
ATOM     10  C   UNL     1       7.868 -12.369   5.706  1.00  0.00     0.000 C 
BRANCH  10  11
ATOM     11  C   UNL     1       9.139 -12.423   4.841  1.00  0.00    -0.000 C 
BRANCH  11  12
ATOM     12  C   UNL     1      10.270 -11.533   5.385  1.00  0.00    -0.000 C 
BRANCH  12  13
ATOM     13  C   UNL     1      11.317 -11.088   4.343  1.00  0.00    -0.000 C 
BRANCH  13  14
ATOM     14  C   UNL     1      11.298  -9.589   3.997  1.00  0.00    -0.000 C 
BRANCH  14  15
ATOM     15  C   UNL     1      12.654  -8.906   4.228  1.00  0.00    -0.003 C 
ATOM     16  C   UNL     1      13.695  -9.905   4.725  1.00  0.00     0.004 C 
ENDBRANCH  14  15
ENDBRANCH  13  14
ENDBRANCH  12  13
ENDBRANCH  11  12
ENDBRANCH  10  11
ENDBRANCH   1  10
TORSDOF 12
ENDMDL
MODEL 9
REMARK VINA RESULT:    -4.751     11.613     14.611
REMARK INTER + INTRA:          -8.696
REMARK INTER:                  -8.003
REMARK INTRA:                  -0.692
REMARK UNBOUND:                -0.612
REMARK SMILES CCCCCCCCCCCCCC(=O)[O-]
REMARK SMILES IDX 8 1 9 2 10 3 11 4 12 5 13 6 14 7 15 8 16 9 7 10 6 11 5 12
REMARK SMILES IDX 4 13 3 14 2 15 1 16
REMARK H PARENT
REMARK Flexibility Score: inf
ROOT
ATOM      1  C   UNL     1       9.878  -9.637  -8.092  1.00  0.00     0.000 C 
ENDROOT
BRANCH   1   2
ATOM      2  C   UNL     1       8.780 -10.709  -8.021  1.00  0.00     0.000 C 
BRANCH   2   3
ATOM      3  C   UNL     1       9.195 -11.856  -7.087  1.00  0.00     0.000 C 
BRANCH   3   4
ATOM      4  C   UNL     1       8.896 -13.247  -7.676  1.00  0.00     0.000 C 
BRANCH   4   5
ATOM      5  C   UNL     1       7.492 -13.408  -8.293  1.00  0.00     0.006 C 
BRANCH   5   6
ATOM      6  C   UNL     1       7.168 -14.829  -8.779  1.00  0.00     0.053 C 
BRANCH   6   7
ATOM      7  C   UNL     1       7.043 -15.794  -7.639  1.00  0.00     0.041 C 
ATOM      8  O   UNL     1       5.994 -15.821  -6.943  1.00  0.00    -0.550 OA
ATOM      9  O   UNL     1       8.099 -16.641  -7.326  1.00  0.00    -0.550 OA
ENDBRANCH   6   7
ENDBRANCH   5   6
ENDBRANCH   4   5
ENDBRANCH   3   4
ENDBRANCH   2   3
ENDBRANCH   1   2
BRANCH   1  10
ATOM     10  C   UNL     1      11.293 -10.237  -8.121  1.00  0.00     0.000 C 
BRANCH  10  11
ATOM     11  C   UNL     1      12.275  -9.480  -7.211  1.00  0.00    -0.000 C 
BRANCH  11  12
ATOM     12  C   UNL     1      12.097  -9.825  -5.722  1.00  0.00    -0.000 C 
BRANCH  12  13
ATOM     13  C   UNL     1      12.037  -8.614  -4.768  1.00  0.00    -0.000 C 
BRANCH  13  14
ATOM     14  C   UNL     1      12.778  -8.798  -3.432  1.00  0.00    -0.000 C 
BRANCH  14  15
ATOM     15  C   UNL     1      13.222  -7.468  -2.808  1.00  0.00    -0.003 C 
ATOM     16  C   UNL     1      14.491  -7.645  -1.980  1.00  0.00     0.004 C 
ENDBRANCH  14  15
ENDBRANCH  13  14
ENDBRANCH  12  13
ENDBRANCH  11  12
ENDBRANCH  10  11
ENDBRANCH   1  10
TORSDOF 12
ENDMDL
