MODEL 1
REMARK VINA RESULT:    -2.713      0.000      0.000
REMARK INTER + INTRA:          -6.390
REMARK INTER:                  -4.933
REMARK INTRA:                  -1.456
REMARK UNBOUND:                -1.456
REMARK SMILES CCCCCCCCCCCCCCCC(=O)[O-]
REMARK SMILES IDX 9 1 10 2 11 3 12 4 13 5 14 6 15 7 16 8 17 9 18 10 8 11 7 12
REMARK SMILES IDX 6 13 5 14 4 15 3 16 2 17 1 18
REMARK H PARENT
REMARK Flexibility Score: inf
ROOT
ATOM      1  C   UNL     1      28.657  16.815  10.619  1.00  0.00     0.000 C 
ENDROOT
BRANCH   1   2
ATOM      2  C   UNL     1      27.896  18.141  10.799  1.00  0.00     0.000 C 
BRANCH   2   3
ATOM      3  C   UNL     1      27.538  18.423  12.268  1.00  0.00     0.000 C 
BRANCH   3   4
ATOM      4  C   UNL     1      27.900  19.853  12.704  1.00  0.00     0.000 C 
BRANCH   4   5
ATOM      5  C   UNL     1      29.025  19.880  13.752  1.00  0.00     0.000 C 
BRANCH   5   6
ATOM      6  C   UNL     1      29.714  18.516  13.915  1.00  0.00     0.006 C 
BRANCH   6   7
ATOM      7  C   UNL     1      30.111  18.275  15.373  1.00  0.00     0.053 C 
BRANCH   7   8
ATOM      8  C   UNL     1      31.037  19.350  15.850  1.00  0.00     0.041 C 
ATOM      9  O   UNL     1      32.050  19.661  15.170  1.00  0.00    -0.550 OA
ATOM     10  O   UNL     1      30.751  20.045  17.018  1.00  0.00    -0.550 OA
ENDBRANCH   7   8
ENDBRANCH   6   7
ENDBRANCH   5   6
ENDBRANCH   4   5
ENDBRANCH   3   4
ENDBRANCH   2   3
ENDBRANCH   1   2
BRANCH   1  11
ATOM     11  C   UNL     1      27.930  15.615  11.254  1.00  0.00     0.000 C 
BRANCH  11  12
ATOM     12  C   UNL     1      28.783  14.345  11.429  1.00  0.00    -0.000 C 
BRANCH  12  13
ATOM     13  C   UNL     1      29.098  14.031  12.901  1.00  0.00    -0.000 C 
BRANCH  13  14
ATOM     14  C   UNL     1      28.667  15.158  13.855  1.00  0.00    -0.000 C 
BRANCH  14  15
ATOM     15  C   UNL     1      27.199  15.046  14.320  1.00  0.00    -0.000 C 
BRANCH  15  16
ATOM     16  C   UNL     1      26.573  16.422  14.595  1.00  0.00    -0.000 C 
BRANCH  16  17
ATOM     17  C   UNL     1      25.041  16.345  14.574  1.00  0.00    -0.003 C 
ATOM     18  C   UNL     1      24.557  15.238  13.643  1.00  0.00     0.004 C 
ENDBRANCH  16  17
ENDBRANCH  15  16
ENDBRANCH  14  15
ENDBRANCH  13  14
ENDBRANCH  12  13
ENDBRANCH  11  12
ENDBRANCH   1  11
TORSDOF 14
ENDMDL
MODEL 2
REMARK VINA RESULT:    -2.640      2.779      5.700
REMARK INTER + INTRA:          -6.257
REMARK INTER:                  -5.425
REMARK INTRA:                  -0.831
REMARK UNBOUND:                -1.456
REMARK SMILES CCCCCCCCCCCCCCCC(=O)[O-]
REMARK SMILES IDX 9 1 10 2 11 3 12 4 13 5 14 6 15 7 16 8 17 9 18 10 8 11 7 12
REMARK SMILES IDX 6 13 5 14 4 15 3 16 2 17 1 18
REMARK H PARENT
REMARK Flexibility Score: inf
ROOT
ATOM      1  C   UNL     1      28.688  17.108  11.101  1.00  0.00     0.000 C 
ENDROOT
BRANCH   1   2
ATOM      2  C   UNL     1      28.030  15.717  11.096  1.00  0.00     0.000 C 
BRANCH   2   3
ATOM      3  C   UNL     1      29.056  14.577  11.221  1.00  0.00     0.000 C 
BRANCH   3   4
ATOM      4  C   UNL     1      29.093  13.963  12.631  1.00  0.00     0.000 C 
BRANCH   4   5
ATOM      5  C   UNL     1      28.697  14.971  13.721  1.00  0.00     0.000 C 
BRANCH   5   6
ATOM      6  C   UNL     1      27.222  14.848  14.134  1.00  0.00     0.006 C 
BRANCH   6   7
ATOM      7  C   UNL     1      26.624  16.222  14.444  1.00  0.00     0.053 C 
BRANCH   7   8
ATOM      8  C   UNL     1      25.134  16.132  14.560  1.00  0.00     0.041 C 
ATOM      9  O   UNL     1      24.527  16.781  15.452  1.00  0.00    -0.550 OA
ATOM     10  O   UNL     1      24.412  15.373  13.648  1.00  0.00    -0.550 OA
ENDBRANCH   7   8
ENDBRANCH   6   7
ENDBRANCH   5   6
ENDBRANCH   4   5
ENDBRANCH   3   4
ENDBRANCH   2   3
ENDBRANCH   1   2
BRANCH   1  11
ATOM     11  C   UNL     1      27.662  18.256  11.046  1.00  0.00     0.000 C 
BRANCH  11  12
ATOM     12  C   UNL     1      27.809  19.325  12.146  1.00  0.00    -0.000 C 
BRANCH  12  13
ATOM     13  C   UNL     1      28.389  18.764  13.454  1.00  0.00    -0.000 C 
BRANCH  13  14
ATOM     14  C   UNL     1      29.486  19.662  14.052  1.00  0.00    -0.000 C 
BRANCH  14  15
ATOM     15  C   UNL     1      30.630  18.874  14.725  1.00  0.00    -0.000 C 
BRANCH  15  16
ATOM     16  C   UNL     1      31.333  19.694  15.817  1.00  0.00    -0.000 C 
BRANCH  16  17
ATOM     17  C   UNL     1      30.641  19.514  17.174  1.00  0.00    -0.003 C 
ATOM     18  C   UNL     1      30.985  20.657  18.125  1.00  0.00     0.004 C 
ENDBRANCH  16  17
ENDBRANCH  15  16
ENDBRANCH  14  15
ENDBRANCH  13  14
ENDBRANCH  12  13
ENDBRANCH  11  12
ENDBRANCH   1  11
TORSDOF 14
ENDMDL
MODEL 3
REMARK VINA RESULT:    -2.520      0.783      1.279
REMARK INTER + INTRA:          -6.038
REMARK INTER:                  -4.524
REMARK INTRA:                  -1.514
REMARK UNBOUND:                -1.456
REMARK SMILES CCCCCCCCCCCCCCCC(=O)[O-]
REMARK SMILES IDX 9 1 10 2 11 3 12 4 13 5 14 6 15 7 16 8 17 9 18 10 8 11 7 12
REMARK SMILES IDX 6 13 5 14 4 15 3 16 2 17 1 18
REMARK H PARENT
REMARK Flexibility Score: inf
ROOT
ATOM      1  C   UNL     1      28.290  15.252  10.693  1.00  0.00     0.000 C 
ENDROOT
BRANCH   1   2
ATOM      2  C   UNL     1      28.083  16.762  10.477  1.00  0.00     0.000 C 
BRANCH   2   3
ATOM      3  C   UNL     1      28.494  17.597  11.702  1.00  0.00     0.000 C 
BRANCH   3   4
ATOM      4  C   UNL     1      27.695  18.906  11.823  1.00  0.00     0.000 C 
BRANCH   4   5
ATOM      5  C   UNL     1      27.875  19.579  13.193  1.00  0.00     0.000 C 
BRANCH   5   6
ATOM      6  C   UNL     1      29.352  19.785  13.562  1.00  0.00     0.006 C 
BRANCH   6   7
ATOM      7  C   UNL     1      29.786  18.801  14.652  1.00  0.00     0.053 C 
BRANCH   7   8
ATOM      8  C   UNL     1      30.871  19.396  15.494  1.00  0.00     0.041 C 
ATOM      9  O   UNL     1      32.029  19.546  15.023  1.00  0.00    -0.550 OA
ATOM     10  O   UNL     1      30.589  19.835  16.781  1.00  0.00    -0.550 OA
ENDBRANCH   7   8
ENDBRANCH   6   7
ENDBRANCH   5   6
ENDBRANCH   4   5
ENDBRANCH   3   4
ENDBRANCH   2   3
ENDBRANCH   1   2
BRANCH   1  11
ATOM     11  C   UNL     1      29.317  14.939  11.797  1.00  0.00     0.000 C 
BRANCH  11  12
ATOM     12  C   UNL     1      29.010  13.692  12.648  1.00  0.00    -0.000 C 
BRANCH  12  13
ATOM     13  C   UNL     1      28.325  14.029  13.982  1.00  0.00    -0.000 C 
BRANCH  13  14
ATOM     14  C   UNL     1      28.464  15.513  14.365  1.00  0.00    -0.000 C 
BRANCH  14  15
ATOM     15  C   UNL     1      27.122  16.275  14.378  1.00  0.00    -0.000 C 
BRANCH  15  16
ATOM     16  C   UNL     1      26.031  15.541  13.583  1.00  0.00    -0.000 C 
BRANCH  16  17
ATOM     17  C   UNL     1      24.676  15.627  14.296  1.00  0.00    -0.003 C 
ATOM     18  C   UNL     1      24.709  16.657  15.421  1.00  0.00     0.004 C 
ENDBRANCH  16  17
ENDBRANCH  15  16
ENDBRANCH  14  15
ENDBRANCH  13  14
ENDBRANCH  12  13
ENDBRANCH  11  12
ENDBRANCH   1  11
TORSDOF 14
ENDMDL
MODEL 4
REMARK VINA RESULT:    -2.463      2.756      5.550
REMARK INTER + INTRA:          -5.935
REMARK INTER:                  -4.721
REMARK INTRA:                  -1.214
REMARK UNBOUND:                -1.456
REMARK SMILES CCCCCCCCCCCCCCCC(=O)[O-]
REMARK SMILES IDX 9 1 10 2 11 3 12 4 13 5 14 6 15 7 16 8 17 9 18 10 8 11 7 12
REMARK SMILES IDX 6 13 5 14 4 15 3 16 2 17 1 18
REMARK H PARENT
REMARK Flexibility Score: inf
ROOT
ATOM      1  C   UNL     1      28.148  16.005  10.656  1.00  0.00     0.000 C 
ENDROOT
BRANCH   1   2
ATOM      2  C   UNL     1      29.275  15.230  11.362  1.00  0.00     0.000 C 
BRANCH   2   3
ATOM      3  C   UNL     1      28.772  13.946  12.045  1.00  0.00     0.000 C 
BRANCH   3   4
ATOM      4  C   UNL     1      28.710  14.075  13.577  1.00  0.00     0.000 C 
BRANCH   4   5
ATOM      5  C   UNL     1      28.857  15.530  14.051  1.00  0.00     0.000 C 
BRANCH   5   6
ATOM      6  C   UNL     1      27.510  16.170  14.422  1.00  0.00     0.006 C 
BRANCH   6   7
ATOM      7  C   UNL     1      26.373  15.148  14.325  1.00  0.00     0.053 C 
BRANCH   7   8
ATOM      8  C   UNL     1      25.045  15.839  14.333  1.00  0.00     0.041 C 
ATOM      9  O   UNL     1      24.766  16.664  15.242  1.00  0.00    -0.550 OA
ATOM     10  O   UNL     1      24.138  15.611  13.306  1.00  0.00    -0.550 OA
ENDBRANCH   7   8
ENDBRANCH   6   7
ENDBRANCH   5   6
ENDBRANCH   4   5
ENDBRANCH   3   4
ENDBRANCH   2   3
ENDBRANCH   1   2
BRANCH   1  11
ATOM     11  C   UNL     1      28.275  17.531  10.822  1.00  0.00     0.000 C 
BRANCH  11  12
ATOM     12  C   UNL     1      27.546  18.124  12.042  1.00  0.00    -0.000 C 
BRANCH  12  13
ATOM     13  C   UNL     1      27.845  19.616  12.254  1.00  0.00    -0.000 C 
BRANCH  13  14
ATOM     14  C   UNL     1      28.616  19.890  13.558  1.00  0.00    -0.000 C 
BRANCH  14  15
ATOM     15  C   UNL     1      29.866  19.003  13.734  1.00  0.00    -0.000 C 
BRANCH  15  16
ATOM     16  C   UNL     1      30.149  18.689  15.211  1.00  0.00    -0.000 C 
BRANCH  16  17
ATOM     17  C   UNL     1      31.137  19.697  15.810  1.00  0.00    -0.003 C 
ATOM     18  C   UNL     1      30.860  19.927  17.292  1.00  0.00     0.004 C 
ENDBRANCH  16  17
ENDBRANCH  15  16
ENDBRANCH  14  15
ENDBRANCH  13  14
ENDBRANCH  12  13
ENDBRANCH  11  12
ENDBRANCH   1  11
TORSDOF 14
ENDMDL
MODEL 5
REMARK VINA RESULT:    -1.681      2.878      5.017
REMARK INTER + INTRA:          -4.513
REMARK INTER:                  -3.455
REMARK INTRA:                  -1.058
REMARK UNBOUND:                -1.456
REMARK SMILES CCCCCCCCCCCCCCCC(=O)[O-]
REMARK SMILES IDX 9 1 10 2 11 3 12 4 13 5 14 6 15 7 16 8 17 9 18 10 8 11 7 12
REMARK SMILES IDX 6 13 5 14 4 15 3 16 2 17 1 18
REMARK H PARENT
REMARK Flexibility Score: inf
ROOT
ATOM      1  C   UNL     1      28.645  20.125  12.852  1.00  0.00     0.000 C 
ENDROOT
BRANCH   1   2
ATOM      2  C   UNL     1      29.345  19.757  14.172  1.00  0.00     0.000 C 
BRANCH   2   3
ATOM      3  C   UNL     1      30.107  18.423  14.087  1.00  0.00     0.000 C 
BRANCH   3   4
ATOM      4  C   UNL     1      29.623  17.395  15.125  1.00  0.00     0.000 C 
BRANCH   4   5
ATOM      5  C   UNL     1      28.752  16.295  14.499  1.00  0.00     0.000 C 
BRANCH   5   6
ATOM      6  C   UNL     1      27.275  16.704  14.384  1.00  0.00     0.006 C 
BRANCH   6   7
ATOM      7  C   UNL     1      26.397  15.496  14.045  1.00  0.00     0.053 C 
BRANCH   7   8
ATOM      8  C   UNL     1      24.953  15.816  14.274  1.00  0.00     0.041 C 
ATOM      9  O   UNL     1      24.606  16.501  15.273  1.00  0.00    -0.550 OA
ATOM     10  O   UNL     1      23.997  15.406  13.355  1.00  0.00    -0.550 OA
ENDBRANCH   7   8
ENDBRANCH   6   7
ENDBRANCH   5   6
ENDBRANCH   4   5
ENDBRANCH   3   4
ENDBRANCH   2   3
ENDBRANCH   1   2
BRANCH   1  11
ATOM     11  C   UNL     1      27.538  19.128  12.460  1.00  0.00     0.000 C 
BRANCH  11  12
ATOM     12  C   UNL     1      27.746  18.407  11.115  1.00  0.00    -0.000 C 
BRANCH  12  13
ATOM     13  C   UNL     1      28.619  17.147  11.237  1.00  0.00    -0.000 C 
BRANCH  13  14
ATOM     14  C   UNL     1      27.916  15.883  10.711  1.00  0.00    -0.000 C 
BRANCH  14  15
ATOM     15  C   UNL     1      28.775  14.606  10.825  1.00  0.00    -0.000 C 
BRANCH  15  16
ATOM     16  C   UNL     1      29.344  14.416  12.240  1.00  0.00    -0.000 C 
BRANCH  16  17
ATOM     17  C   UNL     1      29.052  13.006  12.767  1.00  0.00    -0.003 C 
ATOM     18  C   UNL     1      28.973  11.996  11.626  1.00  0.00     0.004 C 
ENDBRANCH  16  17
ENDBRANCH  15  16
ENDBRANCH  14  15
ENDBRANCH  13  14
ENDBRANCH  12  13
ENDBRANCH  11  12
ENDBRANCH   1  11
TORSDOF 14
ENDMDL
MODEL 6
REMARK VINA RESULT:    -1.615      2.817      4.648
REMARK INTER + INTRA:          -4.393
REMARK INTER:                  -2.992
REMARK INTRA:                  -1.401
REMARK UNBOUND:                -1.456
REMARK SMILES CCCCCCCCCCCCCCCC(=O)[O-]
REMARK SMILES IDX 9 1 10 2 11 3 12 4 13 5 14 6 15 7 16 8 17 9 18 10 8 11 7 12
REMARK SMILES IDX 6 13 5 14 4 15 3 16 2 17 1 18
REMARK H PARENT
REMARK Flexibility Score: inf
ROOT
ATOM      1  C   UNL     1      28.815  20.129  13.018  1.00  0.00     0.000 C 
ENDROOT
BRANCH   1   2
ATOM      2  C   UNL     1      27.494  19.406  12.701  1.00  0.00     0.000 C 
BRANCH   2   3
ATOM      3  C   UNL     1      27.548  18.628  11.375  1.00  0.00     0.000 C 
BRANCH   3   4
ATOM      4  C   UNL     1      28.607  17.511  11.385  1.00  0.00     0.000 C 
BRANCH   4   5
ATOM      5  C   UNL     1      28.276  16.380  10.398  1.00  0.00     0.000 C 
BRANCH   5   6
ATOM      6  C   UNL     1      28.028  15.036  11.101  1.00  0.00     0.006 C 
BRANCH   6   7
ATOM      7  C   UNL     1      29.312  14.513  11.751  1.00  0.00     0.053 C 
BRANCH   7   8
ATOM      8  C   UNL     1      29.037  13.261  12.524  1.00  0.00     0.041 C 
ATOM      9  O   UNL     1      28.753  13.323  13.749  1.00  0.00    -0.550 OA
ATOM     10  O   UNL     1      29.039  12.032  11.879  1.00  0.00    -0.550 OA
ENDBRANCH   7   8
ENDBRANCH   6   7
ENDBRANCH   5   6
ENDBRANCH   4   5
ENDBRANCH   3   4
ENDBRANCH   2   3
ENDBRANCH   1   2
BRANCH   1  11
ATOM     11  C   UNL     1      29.361  19.796  14.419  1.00  0.00     0.000 C 
BRANCH  11  12
ATOM     12  C   UNL     1      30.482  18.741  14.456  1.00  0.00    -0.000 C 
BRANCH  12  13
ATOM     13  C   UNL     1      30.058  17.438  15.152  1.00  0.00    -0.000 C 
BRANCH  13  14
ATOM     14  C   UNL     1      29.075  16.606  14.308  1.00  0.00    -0.000 C 
BRANCH  14  15
ATOM     15  C   UNL     1      27.665  16.503  14.926  1.00  0.00    -0.000 C 
BRANCH  15  16
ATOM     16  C   UNL     1      26.625  15.997  13.915  1.00  0.00    -0.000 C 
BRANCH  16  17
ATOM     17  C   UNL     1      25.202  16.139  14.468  1.00  0.00    -0.003 C 
ATOM     18  C   UNL     1      24.181  15.489  13.539  1.00  0.00     0.004 C 
ENDBRANCH  16  17
ENDBRANCH  15  16
ENDBRANCH  14  15
ENDBRANCH  13  14
ENDBRANCH  12  13
ENDBRANCH  11  12
ENDBRANCH   1  11
TORSDOF 14
ENDMDL
MODEL 7
REMARK VINA RESULT:    -1.176      1.423      3.397
REMARK INTER + INTRA:          -3.595
REMARK INTER:                  -2.163
REMARK INTRA:                  -1.431
REMARK UNBOUND:                -1.456
REMARK SMILES CCCCCCCCCCCCCCCC(=O)[O-]
REMARK SMILES IDX 9 1 10 2 11 3 12 4 13 5 14 6 15 7 16 8 17 9 18 10 8 11 7 12
REMARK SMILES IDX 6 13 5 14 4 15 3 16 2 17 1 18
REMARK H PARENT
REMARK Flexibility Score: inf
ROOT
ATOM      1  C   UNL     1      28.246  14.429  14.285  1.00  0.00     0.000 C 
ENDROOT
BRANCH   1   2
ATOM      2  C   UNL     1      27.275  15.562  13.906  1.00  0.00     0.000 C 
BRANCH   2   3
ATOM      3  C   UNL     1      27.745  16.937  14.412  1.00  0.00     0.000 C 
BRANCH   3   4
ATOM      4  C   UNL     1      29.134  16.885  15.072  1.00  0.00     0.000 C 
BRANCH   4   5
ATOM      5  C   UNL     1      30.114  17.896  14.456  1.00  0.00     0.000 C 
BRANCH   5   6
ATOM      6  C   UNL     1      30.022  19.283  15.111  1.00  0.00     0.006 C 
BRANCH   6   7
ATOM      7  C   UNL     1      31.241  19.552  15.997  1.00  0.00     0.053 C 
BRANCH   7   8
ATOM      8  C   UNL     1      30.822  19.749  17.420  1.00  0.00     0.041 C 
ATOM      9  O   UNL     1      31.093  20.824  18.018  1.00  0.00    -0.550 OA
ATOM     10  O   UNL     1      30.086  18.766  18.069  1.00  0.00    -0.550 OA
ENDBRANCH   7   8
ENDBRANCH   6   7
ENDBRANCH   5   6
ENDBRANCH   4   5
ENDBRANCH   3   4
ENDBRANCH   2   3
ENDBRANCH   1   2
BRANCH   1  11
ATOM     11  C   UNL     1      28.941  13.801  13.062  1.00  0.00     0.000 C 
BRANCH  11  12
ATOM     12  C   UNL     1      29.338  14.790  11.950  1.00  0.00    -0.000 C 
BRANCH  12  13
ATOM     13  C   UNL     1      28.396  14.738  10.736  1.00  0.00    -0.000 C 
BRANCH  13  14
ATOM     14  C   UNL     1      27.845  16.123  10.351  1.00  0.00    -0.000 C 
BRANCH  14  15
ATOM     15  C   UNL     1      28.626  17.295  10.981  1.00  0.00    -0.000 C 
BRANCH  15  16
ATOM     16  C   UNL     1      27.840  18.614  10.918  1.00  0.00    -0.000 C 
BRANCH  16  17
ATOM     17  C   UNL     1      27.318  19.012  12.304  1.00  0.00    -0.003 C 
ATOM     18  C   UNL     1      27.882  20.360  12.740  1.00  0.00     0.004 C 
ENDBRANCH  16  17
ENDBRANCH  15  16
ENDBRANCH  14  15
ENDBRANCH  13  14
ENDBRANCH  12  13
ENDBRANCH  11  12
ENDBRANCH   1  11
TORSDOF 14
ENDMDL
MODEL 8
REMARK VINA RESULT:    -1.143      4.680      8.519
REMARK INTER + INTRA:          -3.535
REMARK INTER:                  -3.043
REMARK INTRA:                  -0.492
REMARK UNBOUND:                -1.456
REMARK SMILES CCCCCCCCCCCCCCCC(=O)[O-]
REMARK SMILES IDX 9 1 10 2 11 3 12 4 13 5 14 6 15 7 16 8 17 9 18 10 8 11 7 12
REMARK SMILES IDX 6 13 5 14 4 15 3 16 2 17 1 18
REMARK H PARENT
REMARK Flexibility Score: inf
ROOT
ATOM      1  C   UNL     1      32.802  19.442  14.749  1.00  0.00     0.000 C 
ENDROOT
BRANCH   1   2
ATOM      2  C   UNL     1      31.527  19.477  15.611  1.00  0.00     0.000 C 
BRANCH   2   3
ATOM      3  C   UNL     1      30.241  19.465  14.767  1.00  0.00     0.000 C 
BRANCH   3   4
ATOM      4  C   UNL     1      29.718  18.043  14.500  1.00  0.00     0.000 C 
BRANCH   4   5
ATOM      5  C   UNL     1      28.929  17.945  13.185  1.00  0.00     0.000 C 
BRANCH   5   6
ATOM      6  C   UNL     1      27.687  17.048  13.306  1.00  0.00     0.006 C 
BRANCH   6   7
ATOM      7  C   UNL     1      28.070  15.642  13.774  1.00  0.00     0.053 C 
BRANCH   7   8
ATOM      8  C   UNL     1      28.563  14.822  12.623  1.00  0.00     0.041 C 
ATOM      9  O   UNL     1      28.430  15.242  11.443  1.00  0.00    -0.550 OA
ATOM     10  O   UNL     1      29.218  13.620  12.857  1.00  0.00    -0.550 OA
ENDBRANCH   7   8
ENDBRANCH   6   7
ENDBRANCH   5   6
ENDBRANCH   4   5
ENDBRANCH   3   4
ENDBRANCH   2   3
ENDBRANCH   1   2
BRANCH   1  11
ATOM     11  C   UNL     1      33.806  20.550  15.118  1.00  0.00     0.000 C 
BRANCH  11  12
ATOM     12  C   UNL     1      35.141  20.512  14.350  1.00  0.00    -0.000 C 
BRANCH  12  13
ATOM     13  C   UNL     1      35.862  21.870  14.332  1.00  0.00    -0.000 C 
BRANCH  13  14
ATOM     14  C   UNL     1      35.144  22.937  15.177  1.00  0.00    -0.000 C 
BRANCH  14  15
ATOM     15  C   UNL     1      35.640  24.373  14.910  1.00  0.00    -0.000 C 
BRANCH  15  16
ATOM     16  C   UNL     1      34.969  25.399  15.836  1.00  0.00    -0.000 C 
BRANCH  16  17
ATOM     17  C   UNL     1      33.541  25.711  15.371  1.00  0.00    -0.003 C 
ATOM     18  C   UNL     1      32.609  25.928  16.559  1.00  0.00     0.004 C 
ENDBRANCH  16  17
ENDBRANCH  15  16
ENDBRANCH  14  15
ENDBRANCH  13  14
ENDBRANCH  12  13
ENDBRANCH  11  12
ENDBRANCH   1  11
TORSDOF 14
ENDMDL
MODEL 9
REMARK VINA RESULT:    -1.121      4.122      7.905
REMARK INTER + INTRA:          -3.495
REMARK INTER:                  -2.747
REMARK INTRA:                  -0.748
REMARK UNBOUND:                -1.456
REMARK SMILES CCCCCCCCCCCCCCCC(=O)[O-]
REMARK SMILES IDX 9 1 10 2 11 3 12 4 13 5 14 6 15 7 16 8 17 9 18 10 8 11 7 12
REMARK SMILES IDX 6 13 5 14 4 15 3 16 2 17 1 18
REMARK H PARENT
REMARK Flexibility Score: inf
ROOT
ATOM      1  C   UNL     1      30.880  19.385  15.092  1.00  0.00     0.000 C 
ENDROOT
BRANCH   1   2
ATOM      2  C   UNL     1      29.872  18.530  14.303  1.00  0.00     0.000 C 
BRANCH   2   3
ATOM      3  C   UNL     1      28.867  19.381  13.509  1.00  0.00     0.000 C 
BRANCH   3   4
ATOM      4  C   UNL     1      27.873  18.528  12.702  1.00  0.00     0.000 C 
BRANCH   4   5
ATOM      5  C   UNL     1      28.576  17.584  11.714  1.00  0.00     0.000 C 
BRANCH   5   6
ATOM      6  C   UNL     1      27.841  16.244  11.551  1.00  0.00     0.006 C 
BRANCH   6   7
ATOM      7  C   UNL     1      28.831  15.076  11.537  1.00  0.00     0.053 C 
BRANCH   7   8
ATOM      8  C   UNL     1      28.852  14.391  12.867  1.00  0.00     0.041 C 
ATOM      9  O   UNL     1      29.142  13.168  12.945  1.00  0.00    -0.550 OA
ATOM     10  O   UNL     1      28.607  15.116  14.026  1.00  0.00    -0.550 OA
ENDBRANCH   7   8
ENDBRANCH   6   7
ENDBRANCH   5   6
ENDBRANCH   4   5
ENDBRANCH   3   4
ENDBRANCH   2   3
ENDBRANCH   1   2
BRANCH   1  11
ATOM     11  C   UNL     1      32.340  19.132  14.670  1.00  0.00     0.000 C 
BRANCH  11  12
ATOM     12  C   UNL     1      33.361  20.167  15.179  1.00  0.00    -0.000 C 
BRANCH  12  13
ATOM     13  C   UNL     1      34.584  20.307  14.258  1.00  0.00    -0.000 C 
BRANCH  13  14
ATOM     14  C   UNL     1      35.629  21.298  14.802  1.00  0.00    -0.000 C 
BRANCH  14  15
ATOM     15  C   UNL     1      35.981  22.429  13.812  1.00  0.00    -0.000 C 
BRANCH  15  16
ATOM     16  C   UNL     1      35.916  23.815  14.471  1.00  0.00    -0.000 C 
BRANCH  16  17
ATOM     17  C   UNL     1      34.904  23.831  15.623  1.00  0.00    -0.003 C 
ATOM     18  C   UNL     1      34.016  25.070  15.560  1.00  0.00     0.004 C 
ENDBRANCH  16  17
ENDBRANCH  15  16
ENDBRANCH  14  15
ENDBRANCH  13  14
ENDBRANCH  12  13
ENDBRANCH  11  12
ENDBRANCH   1  11
TORSDOF 14
ENDMDL
