MODEL 1
REMARK VINA RESULT:    -7.473      0.000      0.000
REMARK INTER + INTRA:          -9.051
REMARK INTER:                  -9.221
REMARK INTRA:                   0.169
REMARK UNBOUND:                 0.169
REMARK SMILES Oc1cc(O)c2cc(O)c(-c3cc(O)c(O)c(O)c3)[o+]c2c1
REMARK SMILES IDX 10 1 20 2 21 3 22 4 2 5 3 6 4 7 6 8 7 9 8 10 11 11 12 12
REMARK SMILES IDX 13 13 19 14 15 15 17 16 14 17 16 19 18 21 9 23 1 25 5 27
REMARK H PARENT 14 18 16 20 18 22 9 24 1 26 5 28
REMARK Flexibility Score: inf
ROOT
ATOM      1  C   UNL     1     -12.697 -29.537  -9.495  1.00  0.00     0.402 A 
ATOM      2  O   UNL     1     -12.185 -30.766  -9.470  1.00  0.00    -0.202 OA
ATOM      3  C   UNL     1     -11.376 -31.198  -8.508  1.00  0.00     0.368 A 
ATOM      4  C   UNL     1     -10.883 -32.506  -8.552  1.00  0.00     0.162 A 
ATOM      5  C   UNL     1     -10.032 -32.974  -7.543  1.00  0.00     0.128 A 
ATOM      6  C   UNL     1      -9.673 -32.130  -6.487  1.00  0.00     0.093 A 
ATOM      7  C   UNL     1     -10.158 -30.815  -6.429  1.00  0.00     0.136 A 
ATOM      8  C   UNL     1     -11.013 -30.345  -7.443  1.00  0.00     0.125 A 
ATOM      9  C   UNL     1     -11.521 -29.041  -7.442  1.00  0.00     0.078 A 
ATOM     10  C   UNL     1     -12.361 -28.620  -8.477  1.00  0.00     0.223 A 
ENDROOT
BRANCH   1  11
ATOM     11  C   UNL     1     -13.595 -29.174 -10.615  1.00  0.00     0.091 A 
ATOM     12  C   UNL     1     -14.468 -30.140 -11.140  1.00  0.00     0.068 A 
ATOM     13  C   UNL     1     -15.342 -29.818 -12.186  1.00  0.00     0.162 A 
ATOM     14  C   UNL     1     -13.633 -27.867 -11.129  1.00  0.00     0.068 A 
ATOM     15  C   UNL     1     -15.359 -28.514 -12.709  1.00  0.00     0.200 A 
ATOM     16  C   UNL     1     -14.504 -27.536 -12.173  1.00  0.00     0.162 A 
BRANCH  13  17
ATOM     17  O   UNL     1     -16.195 -30.790 -12.708  1.00  0.00    -0.504 OA
ATOM     18  H   UNL     1     -16.120 -31.764 -12.436  1.00  0.00     0.293 HD
ENDBRANCH  13  17
BRANCH  15  19
ATOM     19  O   UNL     1     -16.222 -28.177 -13.753  1.00  0.00    -0.502 OA
ATOM     20  H   UNL     1     -16.609 -28.872 -14.379  1.00  0.00     0.293 HD
ENDBRANCH  15  19
BRANCH  16  21
ATOM     21  O   UNL     1     -14.508 -26.229 -12.659  1.00  0.00    -0.504 OA
ATOM     22  H   UNL     1     -15.359 -25.767 -12.955  1.00  0.00     0.293 HD
ENDBRANCH  16  21
ENDBRANCH   1  11
BRANCH  10  23
ATOM     23  O   UNL     1     -12.830 -27.307  -8.508  1.00  0.00    -0.500 OA
ATOM     24  H   UNL     1     -13.804 -27.095  -8.685  1.00  0.00     0.294 HD
ENDBRANCH  10  23
BRANCH   5  25
ATOM     25  O   UNL     1      -9.538 -34.276  -7.579  1.00  0.00    -0.507 OA
ATOM     26  H   UNL     1     -10.088 -35.061  -7.250  1.00  0.00     0.293 HD
ENDBRANCH   5  25
BRANCH   7  27
ATOM     27  O   UNL     1      -9.792 -29.983  -5.371  1.00  0.00    -0.507 OA
ATOM     28  H   UNL     1     -10.069 -30.184  -4.417  1.00  0.00     0.293 HD
ENDBRANCH   7  27
TORSDOF 7
ENDMDL
MODEL 2
REMARK VINA RESULT:    -7.455      0.149      1.801
REMARK INTER + INTRA:          -9.029
REMARK INTER:                  -9.216
REMARK INTRA:                   0.187
REMARK UNBOUND:                 0.169
REMARK SMILES Oc1cc(O)c2cc(O)c(-c3cc(O)c(O)c(O)c3)[o+]c2c1
REMARK SMILES IDX 10 1 20 2 21 3 22 4 2 5 3 6 4 7 6 8 7 9 8 10 11 11 12 12
REMARK SMILES IDX 13 13 19 14 15 15 17 16 14 17 16 19 18 21 9 23 1 25 5 27
REMARK H PARENT 14 18 16 20 18 22 9 24 1 26 5 28
REMARK Flexibility Score: inf
ROOT
ATOM      1  C   UNL     1     -12.737 -29.420  -9.459  1.00  0.00     0.402 A 
ATOM      2  O   UNL     1     -12.189 -30.634  -9.450  1.00  0.00    -0.202 OA
ATOM      3  C   UNL     1     -11.355 -31.049  -8.502  1.00  0.00     0.368 A 
ATOM      4  C   UNL     1     -10.826 -32.342  -8.563  1.00  0.00     0.162 A 
ATOM      5  C   UNL     1      -9.948 -32.793  -7.569  1.00  0.00     0.128 A 
ATOM      6  C   UNL     1      -9.599 -31.946  -6.511  1.00  0.00     0.093 A 
ATOM      7  C   UNL     1     -10.119 -30.646  -6.438  1.00  0.00     0.136 A 
ATOM      8  C   UNL     1     -11.002 -30.194  -7.436  1.00  0.00     0.125 A 
ATOM      9  C   UNL     1     -11.546 -28.904  -7.419  1.00  0.00     0.078 A 
ATOM     10  C   UNL     1     -12.413 -28.501  -8.439  1.00  0.00     0.223 A 
ENDROOT
BRANCH   1  11
ATOM     11  C   UNL     1     -13.659 -29.076 -10.564  1.00  0.00     0.091 A 
ATOM     12  C   UNL     1     -13.657 -27.771 -11.083  1.00  0.00     0.068 A 
ATOM     13  C   UNL     1     -14.506 -27.424 -12.143  1.00  0.00     0.162 A 
ATOM     14  C   UNL     1     -14.499 -30.041 -11.144  1.00  0.00     0.068 A 
ATOM     15  C   UNL     1     -15.359 -28.390 -12.704  1.00  0.00     0.200 A 
ATOM     16  C   UNL     1     -15.349 -29.703 -12.204  1.00  0.00     0.162 A 
BRANCH  13  17
ATOM     17  O   UNL     1     -14.504 -26.121 -12.640  1.00  0.00    -0.504 OA
ATOM     18  H   UNL     1     -15.347 -25.690 -13.002  1.00  0.00     0.293 HD
ENDBRANCH  13  17
BRANCH  15  19
ATOM     19  O   UNL     1     -16.212 -28.060 -13.758  1.00  0.00    -0.502 OA
ATOM     20  H   UNL     1     -16.342 -28.668 -14.557  1.00  0.00     0.293 HD
ENDBRANCH  15  19
BRANCH  16  21
ATOM     21  O   UNL     1     -16.172 -30.688 -12.749  1.00  0.00    -0.504 OA
ATOM     22  H   UNL     1     -17.177 -30.580 -12.806  1.00  0.00     0.293 HD
ENDBRANCH  16  21
ENDBRANCH   1  11
BRANCH  10  23
ATOM     23  O   UNL     1     -12.919 -27.201  -8.455  1.00  0.00    -0.500 OA
ATOM     24  H   UNL     1     -12.962 -26.659  -9.309  1.00  0.00     0.294 HD
ENDBRANCH  10  23
BRANCH   5  25
ATOM     25  O   UNL     1      -9.417 -34.079  -7.621  1.00  0.00    -0.507 OA
ATOM     26  H   UNL     1      -9.406 -34.682  -6.806  1.00  0.00     0.293 HD
ENDBRANCH   5  25
BRANCH   7  27
ATOM     27  O   UNL     1      -9.763 -29.811  -5.378  1.00  0.00    -0.507 OA
ATOM     28  H   UNL     1      -9.328 -28.910  -5.536  1.00  0.00     0.293 HD
ENDBRANCH   7  27
TORSDOF 7
ENDMDL
MODEL 3
REMARK VINA RESULT:    -7.242      1.094      6.907
REMARK INTER + INTRA:          -8.766
REMARK INTER:                  -8.900
REMARK INTRA:                   0.134
REMARK UNBOUND:                 0.169
REMARK SMILES Oc1cc(O)c2cc(O)c(-c3cc(O)c(O)c(O)c3)[o+]c2c1
REMARK SMILES IDX 10 1 20 2 21 3 22 4 2 5 3 6 4 7 6 8 7 9 8 10 11 11 12 12
REMARK SMILES IDX 13 13 19 14 15 15 17 16 14 17 16 19 18 21 9 23 1 25 5 27
REMARK H PARENT 14 18 16 20 18 22 9 24 1 26 5 28
REMARK Flexibility Score: inf
ROOT
ATOM      1  C   UNL     1     -12.502 -29.490  -9.830  1.00  0.00     0.402 A 
ATOM      2  O   UNL     1     -13.480 -30.069 -10.525  1.00  0.00    -0.202 OA
ATOM      3  C   UNL     1     -14.198 -29.430 -11.442  1.00  0.00     0.368 A 
ATOM      4  C   UNL     1     -15.206 -30.112 -12.132  1.00  0.00     0.162 A 
ATOM      5  C   UNL     1     -15.968 -29.450 -13.103  1.00  0.00     0.128 A 
ATOM      6  C   UNL     1     -15.721 -28.103 -13.385  1.00  0.00     0.093 A 
ATOM      7  C   UNL     1     -14.714 -27.405 -12.701  1.00  0.00     0.136 A 
ATOM      8  C   UNL     1     -13.948 -28.070 -11.725  1.00  0.00     0.125 A 
ATOM      9  C   UNL     1     -12.938 -27.423 -11.006  1.00  0.00     0.078 A 
ATOM     10  C   UNL     1     -12.210 -28.126 -10.041  1.00  0.00     0.223 A 
ENDROOT
BRANCH   1  11
ATOM     11  C   UNL     1     -11.766 -30.308  -8.840  1.00  0.00     0.091 A 
ATOM     12  C   UNL     1     -11.462 -31.645  -9.140  1.00  0.00     0.068 A 
ATOM     13  C   UNL     1     -10.749 -32.436  -8.229  1.00  0.00     0.162 A 
ATOM     14  C   UNL     1     -11.313 -29.759  -7.629  1.00  0.00     0.068 A 
ATOM     15  C   UNL     1     -10.318 -31.886  -7.010  1.00  0.00     0.200 A 
ATOM     16  C   UNL     1     -10.598 -30.541  -6.715  1.00  0.00     0.162 A 
BRANCH  13  17
ATOM     17  O   UNL     1     -10.466 -33.767  -8.533  1.00  0.00    -0.504 OA
ATOM     18  H   UNL     1     -11.151 -34.501  -8.394  1.00  0.00     0.293 HD
ENDBRANCH  13  17
BRANCH  15  19
ATOM     19  O   UNL     1      -9.608 -32.660  -6.091  1.00  0.00    -0.502 OA
ATOM     20  H   UNL     1      -9.765 -33.655  -5.988  1.00  0.00     0.293 HD
ENDBRANCH  15  19
BRANCH  16  21
ATOM     21  O   UNL     1     -10.171 -29.961  -5.520  1.00  0.00    -0.504 OA
ATOM     22  H   UNL     1      -9.623 -30.472  -4.839  1.00  0.00     0.293 HD
ENDBRANCH  16  21
ENDBRANCH   1  11
BRANCH  10  23
ATOM     23  O   UNL     1     -11.236 -27.474  -9.286  1.00  0.00    -0.500 OA
ATOM     24  H   UNL     1     -10.371 -27.932  -9.025  1.00  0.00     0.294 HD
ENDBRANCH  10  23
BRANCH   5  25
ATOM     25  O   UNL     1     -16.973 -30.123 -13.794  1.00  0.00    -0.507 OA
ATOM     26  H   UNL     1     -17.025 -31.135 -13.803  1.00  0.00     0.293 HD
ENDBRANCH   5  25
BRANCH   7  27
ATOM     27  O   UNL     1     -14.478 -26.061 -12.991  1.00  0.00    -0.507 OA
ATOM     28  H   UNL     1     -13.551 -25.722 -13.220  1.00  0.00     0.293 HD
ENDBRANCH   7  27
TORSDOF 7
ENDMDL
MODEL 4
REMARK VINA RESULT:    -6.785      2.286      7.580
REMARK INTER + INTRA:          -8.202
REMARK INTER:                  -8.577
REMARK INTRA:                   0.375
REMARK UNBOUND:                 0.169
REMARK SMILES Oc1cc(O)c2cc(O)c(-c3cc(O)c(O)c(O)c3)[o+]c2c1
REMARK SMILES IDX 10 1 20 2 21 3 22 4 2 5 3 6 4 7 6 8 7 9 8 10 11 11 12 12
REMARK SMILES IDX 13 13 19 14 15 15 17 16 14 17 16 19 18 21 9 23 1 25 5 27
REMARK H PARENT 14 18 16 20 18 22 9 24 1 26 5 28
REMARK Flexibility Score: inf
ROOT
ATOM      1  C   UNL     1     -12.789 -28.222 -10.496  1.00  0.00     0.402 A 
ATOM      2  O   UNL     1     -12.569 -27.477 -11.578  1.00  0.00    -0.202 OA
ATOM      3  C   UNL     1     -13.390 -27.448 -12.622  1.00  0.00     0.368 A 
ATOM      4  C   UNL     1     -13.088 -26.634 -13.718  1.00  0.00     0.162 A 
ATOM      5  C   UNL     1     -13.947 -26.593 -14.824  1.00  0.00     0.128 A 
ATOM      6  C   UNL     1     -15.112 -27.368 -14.831  1.00  0.00     0.093 A 
ATOM      7  C   UNL     1     -15.428 -28.190 -13.740  1.00  0.00     0.136 A 
ATOM      8  C   UNL     1     -14.564 -28.231 -12.629  1.00  0.00     0.125 A 
ATOM      9  C   UNL     1     -14.824 -29.039 -11.516  1.00  0.00     0.078 A 
ATOM     10  C   UNL     1     -13.931 -29.050 -10.440  1.00  0.00     0.223 A 
ENDROOT
BRANCH   1  11
ATOM     11  C   UNL     1     -11.806 -28.164  -9.391  1.00  0.00     0.091 A 
ATOM     12  C   UNL     1     -10.805 -27.179  -9.411  1.00  0.00     0.068 A 
ATOM     13  C   UNL     1      -9.874 -27.089  -8.368  1.00  0.00     0.162 A 
ATOM     14  C   UNL     1     -11.885 -29.037  -8.294  1.00  0.00     0.068 A 
ATOM     15  C   UNL     1      -9.946 -27.980  -7.283  1.00  0.00     0.200 A 
ATOM     16  C   UNL     1     -10.960 -28.953  -7.247  1.00  0.00     0.162 A 
BRANCH  13  17
ATOM     17  O   UNL     1      -8.876 -26.115  -8.405  1.00  0.00    -0.504 OA
ATOM     18  H   UNL     1      -9.097 -25.130  -8.490  1.00  0.00     0.293 HD
ENDBRANCH  13  17
BRANCH  15  19
ATOM     19  O   UNL     1      -9.025 -27.905  -6.238  1.00  0.00    -0.502 OA
ATOM     20  H   UNL     1      -9.108 -27.225  -5.492  1.00  0.00     0.293 HD
ENDBRANCH  15  19
BRANCH  16  21
ATOM     21  O   UNL     1     -11.068 -29.841  -6.178  1.00  0.00    -0.504 OA
ATOM     22  H   UNL     1     -11.094 -29.526  -5.216  1.00  0.00     0.293 HD
ENDBRANCH  16  21
ENDBRANCH   1  11
BRANCH  10  23
ATOM     23  O   UNL     1     -14.157 -29.890  -9.350  1.00  0.00    -0.500 OA
ATOM     24  H   UNL     1     -14.968 -29.778  -8.753  1.00  0.00     0.294 HD
ENDBRANCH  10  23
BRANCH   5  25
ATOM     25  O   UNL     1     -13.654 -25.785 -15.920  1.00  0.00    -0.507 OA
ATOM     26  H   UNL     1     -13.363 -26.180 -16.807  1.00  0.00     0.293 HD
ENDBRANCH   5  25
BRANCH   7  27
ATOM     27  O   UNL     1     -16.592 -28.958 -13.760  1.00  0.00    -0.507 OA
ATOM     28  H   UNL     1     -17.161 -29.082 -12.930  1.00  0.00     0.293 HD
ENDBRANCH   7  27
TORSDOF 7
ENDMDL
MODEL 5
REMARK VINA RESULT:    -6.766      2.256      7.374
REMARK INTER + INTRA:          -8.179
REMARK INTER:                  -8.621
REMARK INTRA:                   0.442
REMARK UNBOUND:                 0.169
REMARK SMILES Oc1cc(O)c2cc(O)c(-c3cc(O)c(O)c(O)c3)[o+]c2c1
REMARK SMILES IDX 10 1 20 2 21 3 22 4 2 5 3 6 4 7 6 8 7 9 8 10 11 11 12 12
REMARK SMILES IDX 13 13 19 14 15 15 17 16 14 17 16 19 18 21 9 23 1 25 5 27
REMARK H PARENT 14 18 16 20 18 22 9 24 1 26 5 28
REMARK Flexibility Score: inf
ROOT
ATOM      1  C   UNL     1     -12.819 -28.236 -10.442  1.00  0.00     0.402 A 
ATOM      2  O   UNL     1     -12.602 -27.489 -11.523  1.00  0.00    -0.202 OA
ATOM      3  C   UNL     1     -13.413 -27.479 -12.576  1.00  0.00     0.368 A 
ATOM      4  C   UNL     1     -13.117 -26.662 -13.671  1.00  0.00     0.162 A 
ATOM      5  C   UNL     1     -13.966 -26.641 -14.785  1.00  0.00     0.128 A 
ATOM      6  C   UNL     1     -15.114 -27.440 -14.803  1.00  0.00     0.093 A 
ATOM      7  C   UNL     1     -15.423 -28.266 -13.712  1.00  0.00     0.136 A 
ATOM      8  C   UNL     1     -14.571 -28.287 -12.592  1.00  0.00     0.125 A 
ATOM      9  C   UNL     1     -14.825 -29.097 -11.480  1.00  0.00     0.078 A 
ATOM     10  C   UNL     1     -13.943 -29.087 -10.396  1.00  0.00     0.223 A 
ENDROOT
BRANCH   1  11
ATOM     11  C   UNL     1     -11.848 -28.155  -9.327  1.00  0.00     0.091 A 
ATOM     12  C   UNL     1     -11.927 -29.079  -8.274  1.00  0.00     0.068 A 
ATOM     13  C   UNL     1     -11.008 -29.037  -7.217  1.00  0.00     0.162 A 
ATOM     14  C   UNL     1     -10.811 -27.206  -9.328  1.00  0.00     0.068 A 
ATOM     15  C   UNL     1      -9.986 -28.072  -7.214  1.00  0.00     0.200 A 
ATOM     16  C   UNL     1      -9.888 -27.159  -8.277  1.00  0.00     0.162 A 
BRANCH  13  17
ATOM     17  O   UNL     1     -11.107 -29.953  -6.170  1.00  0.00    -0.504 OA
ATOM     18  H   UNL     1     -11.926 -29.993  -5.574  1.00  0.00     0.293 HD
ENDBRANCH  13  17
BRANCH  15  19
ATOM     19  O   UNL     1      -9.065 -28.015  -6.168  1.00  0.00    -0.502 OA
ATOM     20  H   UNL     1      -8.270 -28.641  -6.114  1.00  0.00     0.293 HD
ENDBRANCH  15  19
BRANCH  16  21
ATOM     21  O   UNL     1      -8.876 -26.199  -8.311  1.00  0.00    -0.504 OA
ATOM     22  H   UNL     1      -8.801 -25.470  -7.612  1.00  0.00     0.293 HD
ENDBRANCH  16  21
ENDBRANCH   1  11
BRANCH  10  23
ATOM     23  O   UNL     1     -14.163 -29.929  -9.306  1.00  0.00    -0.500 OA
ATOM     24  H   UNL     1     -13.577 -29.894  -8.480  1.00  0.00     0.294 HD
ENDBRANCH  10  23
BRANCH   5  25
ATOM     25  O   UNL     1     -13.678 -25.830 -15.880  1.00  0.00    -0.507 OA
ATOM     26  H   UNL     1     -13.370 -26.221 -16.763  1.00  0.00     0.293 HD
ENDBRANCH   5  25
BRANCH   7  27
ATOM     27  O   UNL     1     -16.571 -29.059 -13.742  1.00  0.00    -0.507 OA
ATOM     28  H   UNL     1     -17.499 -28.652 -13.715  1.00  0.00     0.293 HD
ENDBRANCH   7  27
TORSDOF 7
ENDMDL
MODEL 6
REMARK VINA RESULT:    -6.719      4.483      7.499
REMARK INTER + INTRA:          -8.120
REMARK INTER:                  -7.827
REMARK INTRA:                  -0.294
REMARK UNBOUND:                 0.169
REMARK SMILES Oc1cc(O)c2cc(O)c(-c3cc(O)c(O)c(O)c3)[o+]c2c1
REMARK SMILES IDX 10 1 20 2 21 3 22 4 2 5 3 6 4 7 6 8 7 9 8 10 11 11 12 12
REMARK SMILES IDX 13 13 19 14 15 15 17 16 14 17 16 19 18 21 9 23 1 25 5 27
REMARK H PARENT 14 18 16 20 18 22 9 24 1 26 5 28
REMARK Flexibility Score: inf
ROOT
ATOM      1  C   UNL     1     -15.074 -31.917 -13.189  1.00  0.00     0.402 A 
ATOM      2  O   UNL     1     -14.916 -30.853 -13.975  1.00  0.00    -0.202 OA
ATOM      3  C   UNL     1     -14.844 -29.610 -13.512  1.00  0.00     0.368 A 
ATOM      4  C   UNL     1     -14.673 -28.547 -14.404  1.00  0.00     0.162 A 
ATOM      5  C   UNL     1     -14.594 -27.232 -13.928  1.00  0.00     0.128 A 
ATOM      6  C   UNL     1     -14.686 -26.981 -12.554  1.00  0.00     0.093 A 
ATOM      7  C   UNL     1     -14.859 -28.036 -11.647  1.00  0.00     0.136 A 
ATOM      8  C   UNL     1     -14.939 -29.358 -12.126  1.00  0.00     0.125 A 
ATOM      9  C   UNL     1     -15.119 -30.449 -11.269  1.00  0.00     0.078 A 
ATOM     10  C   UNL     1     -15.199 -31.742 -11.795  1.00  0.00     0.223 A 
ENDROOT
BRANCH   1  11
ATOM     11  C   UNL     1     -15.130 -33.254 -13.822  1.00  0.00     0.091 A 
ATOM     12  C   UNL     1     -13.948 -33.841 -14.301  1.00  0.00     0.068 A 
ATOM     13  C   UNL     1     -13.970 -35.114 -14.886  1.00  0.00     0.162 A 
ATOM     14  C   UNL     1     -16.333 -33.975 -13.903  1.00  0.00     0.068 A 
ATOM     15  C   UNL     1     -15.181 -35.821 -14.983  1.00  0.00     0.200 A 
ATOM     16  C   UNL     1     -16.364 -35.248 -14.483  1.00  0.00     0.162 A 
BRANCH  13  17
ATOM     17  O   UNL     1     -12.792 -35.680 -15.371  1.00  0.00    -0.504 OA
ATOM     18  H   UNL     1     -12.172 -35.169 -15.990  1.00  0.00     0.293 HD
ENDBRANCH  13  17
BRANCH  15  19
ATOM     19  O   UNL     1     -15.221 -37.088 -15.564  1.00  0.00    -0.502 OA
ATOM     20  H   UNL     1     -15.911 -37.782 -15.302  1.00  0.00     0.293 HD
ENDBRANCH  15  19
BRANCH  16  21
ATOM     21  O   UNL     1     -17.578 -35.930 -14.550  1.00  0.00    -0.504 OA
ATOM     22  H   UNL     1     -18.250 -35.764 -15.290  1.00  0.00     0.293 HD
ENDBRANCH  16  21
ENDBRANCH   1  11
BRANCH  10  23
ATOM     23  O   UNL     1     -15.429 -32.828 -10.951  1.00  0.00    -0.500 OA
ATOM     24  H   UNL     1     -16.185 -32.826 -10.277  1.00  0.00     0.294 HD
ENDBRANCH  10  23
BRANCH   5  25
ATOM     25  O   UNL     1     -14.423 -26.168 -14.810  1.00  0.00    -0.507 OA
ATOM     26  H   UNL     1     -13.554 -26.032 -15.314  1.00  0.00     0.293 HD
ENDBRANCH   5  25
BRANCH   7  27
ATOM     27  O   UNL     1     -14.950 -27.773 -10.280  1.00  0.00    -0.507 OA
ATOM     28  H   UNL     1     -15.257 -28.479  -9.623  1.00  0.00     0.293 HD
ENDBRANCH   7  27
TORSDOF 7
ENDMDL
MODEL 7
REMARK VINA RESULT:    -6.617      2.098      6.406
REMARK INTER + INTRA:          -7.995
REMARK INTER:                  -8.018
REMARK INTRA:                   0.024
REMARK UNBOUND:                 0.169
REMARK SMILES Oc1cc(O)c2cc(O)c(-c3cc(O)c(O)c(O)c3)[o+]c2c1
REMARK SMILES IDX 10 1 20 2 21 3 22 4 2 5 3 6 4 7 6 8 7 9 8 10 11 11 12 12
REMARK SMILES IDX 13 13 19 14 15 15 17 16 14 17 16 19 18 21 9 23 1 25 5 27
REMARK H PARENT 14 18 16 20 18 22 9 24 1 26 5 28
REMARK Flexibility Score: inf
ROOT
ATOM      1  C   UNL     1     -13.404 -29.126 -10.375  1.00  0.00     0.402 A 
ATOM      2  O   UNL     1     -13.481 -30.415 -10.704  1.00  0.00    -0.202 OA
ATOM      3  C   UNL     1     -14.350 -30.890 -11.590  1.00  0.00     0.368 A 
ATOM      4  C   UNL     1     -14.363 -32.257 -11.884  1.00  0.00     0.162 A 
ATOM      5  C   UNL     1     -15.272 -32.769 -12.817  1.00  0.00     0.128 A 
ATOM      6  C   UNL     1     -16.171 -31.910 -13.459  1.00  0.00     0.093 A 
ATOM      7  C   UNL     1     -16.171 -30.537 -13.174  1.00  0.00     0.136 A 
ATOM      8  C   UNL     1     -15.257 -30.022 -12.236  1.00  0.00     0.125 A 
ATOM      9  C   UNL     1     -15.217 -28.663 -11.906  1.00  0.00     0.078 A 
ATOM     10  C   UNL     1     -14.295 -28.203 -10.962  1.00  0.00     0.223 A 
ENDROOT
BRANCH   1  11
ATOM     11  C   UNL     1     -12.388 -28.715  -9.381  1.00  0.00     0.091 A 
ATOM     12  C   UNL     1     -12.117 -29.551  -8.286  1.00  0.00     0.068 A 
ATOM     13  C   UNL     1     -11.145 -29.196  -7.342  1.00  0.00     0.162 A 
ATOM     14  C   UNL     1     -11.646 -27.532  -9.539  1.00  0.00     0.068 A 
ATOM     15  C   UNL     1     -10.421 -28.001  -7.494  1.00  0.00     0.200 A 
ATOM     16  C   UNL     1     -10.672 -27.171  -8.601  1.00  0.00     0.162 A 
BRANCH  13  17
ATOM     17  O   UNL     1     -10.894 -30.028  -6.251  1.00  0.00    -0.504 OA
ATOM     18  H   UNL     1     -11.598 -30.202  -5.543  1.00  0.00     0.293 HD
ENDBRANCH  13  17
BRANCH  15  19
ATOM     19  O   UNL     1      -9.452 -27.631  -6.561  1.00  0.00    -0.502 OA
ATOM     20  H   UNL     1      -9.363 -28.091  -5.663  1.00  0.00     0.293 HD
ENDBRANCH  15  19
BRANCH  16  21
ATOM     21  O   UNL     1      -9.961 -25.986  -8.789  1.00  0.00    -0.504 OA
ATOM     22  H   UNL     1     -10.128 -25.377  -9.580  1.00  0.00     0.293 HD
ENDBRANCH  16  21
ENDBRANCH   1  11
BRANCH  10  23
ATOM     23  O   UNL     1     -14.284 -26.858 -10.592  1.00  0.00    -0.500 OA
ATOM     24  H   UNL     1     -14.507 -26.565  -9.648  1.00  0.00     0.294 HD
ENDBRANCH  10  23
BRANCH   5  25
ATOM     25  O   UNL     1     -15.291 -34.130 -13.116  1.00  0.00    -0.507 OA
ATOM     26  H   UNL     1     -15.349 -34.462 -14.072  1.00  0.00     0.293 HD
ENDBRANCH   5  25
BRANCH   7  27
ATOM     27  O   UNL     1     -17.073 -29.692 -13.821  1.00  0.00    -0.507 OA
ATOM     28  H   UNL     1     -16.779 -29.071 -14.566  1.00  0.00     0.293 HD
ENDBRANCH   7  27
TORSDOF 7
ENDMDL
MODEL 8
REMARK VINA RESULT:    -6.335      1.901      3.446
REMARK INTER + INTRA:          -7.647
REMARK INTER:                  -8.017
REMARK INTRA:                   0.370
REMARK UNBOUND:                 0.169
REMARK SMILES Oc1cc(O)c2cc(O)c(-c3cc(O)c(O)c(O)c3)[o+]c2c1
REMARK SMILES IDX 10 1 20 2 21 3 22 4 2 5 3 6 4 7 6 8 7 9 8 10 11 11 12 12
REMARK SMILES IDX 13 13 19 14 15 15 17 16 14 17 16 19 18 21 9 23 1 25 5 27
REMARK H PARENT 14 18 16 20 18 22 9 24 1 26 5 28
REMARK Flexibility Score: inf
ROOT
ATOM      1  C   UNL     1     -13.625 -29.348 -10.332  1.00  0.00     0.402 A 
ATOM      2  O   UNL     1     -12.607 -29.947  -9.717  1.00  0.00    -0.202 OA
ATOM      3  C   UNL     1     -11.810 -29.326  -8.854  1.00  0.00     0.368 A 
ATOM      4  C   UNL     1     -10.764 -30.028  -8.247  1.00  0.00     0.162 A 
ATOM      5  C   UNL     1      -9.919 -29.385  -7.334  1.00  0.00     0.128 A 
ATOM      6  C   UNL     1     -10.121 -28.035  -7.027  1.00  0.00     0.093 A 
ATOM      7  C   UNL     1     -11.165 -27.317  -7.629  1.00  0.00     0.136 A 
ATOM      8  C   UNL     1     -12.014 -27.963  -8.547  1.00  0.00     0.125 A 
ATOM      9  C   UNL     1     -13.066 -27.295  -9.183  1.00  0.00     0.078 A 
ATOM     10  C   UNL     1     -13.877 -27.980 -10.093  1.00  0.00     0.223 A 
ENDROOT
BRANCH   1  11
ATOM     11  C   UNL     1     -14.449 -30.147 -11.266  1.00  0.00     0.091 A 
ATOM     12  C   UNL     1     -15.215 -29.493 -12.243  1.00  0.00     0.068 A 
ATOM     13  C   UNL     1     -15.988 -30.227 -13.153  1.00  0.00     0.162 A 
ATOM     14  C   UNL     1     -14.438 -31.552 -11.233  1.00  0.00     0.068 A 
ATOM     15  C   UNL     1     -15.988 -31.631 -13.101  1.00  0.00     0.200 A 
ATOM     16  C   UNL     1     -15.205 -32.292 -12.139  1.00  0.00     0.162 A 
BRANCH  13  17
ATOM     17  O   UNL     1     -16.756 -29.564 -14.111  1.00  0.00    -0.504 OA
ATOM     18  H   UNL     1     -16.937 -29.971 -15.021  1.00  0.00     0.293 HD
ENDBRANCH  13  17
BRANCH  15  19
ATOM     19  O   UNL     1     -16.754 -32.377 -13.998  1.00  0.00    -0.502 OA
ATOM     20  H   UNL     1     -16.852 -33.381 -13.919  1.00  0.00     0.293 HD
ENDBRANCH  15  19
BRANCH  16  21
ATOM     21  O   UNL     1     -15.171 -33.685 -12.071  1.00  0.00    -0.504 OA
ATOM     22  H   UNL     1     -15.037 -34.179 -11.198  1.00  0.00     0.293 HD
ENDBRANCH  16  21
ENDBRANCH   1  11
BRANCH  10  23
ATOM     23  O   UNL     1     -14.895 -27.307 -10.768  1.00  0.00    -0.500 OA
ATOM     24  H   UNL     1     -15.814 -27.185 -10.359  1.00  0.00     0.294 HD
ENDBRANCH  10  23
BRANCH   5  25
ATOM     25  O   UNL     1      -8.876 -30.078  -6.724  1.00  0.00    -0.507 OA
ATOM     26  H   UNL     1      -9.027 -30.645  -5.898  1.00  0.00     0.293 HD
ENDBRANCH   5  25
BRANCH   7  27
ATOM     27  O   UNL     1     -11.356 -25.971  -7.315  1.00  0.00    -0.507 OA
ATOM     28  H   UNL     1     -10.595 -25.303  -7.357  1.00  0.00     0.293 HD
ENDBRANCH   7  27
TORSDOF 7
ENDMDL
MODEL 9
REMARK VINA RESULT:    -6.333      1.505      7.336
REMARK INTER + INTRA:          -7.644
REMARK INTER:                  -7.937
REMARK INTRA:                   0.294
REMARK UNBOUND:                 0.169
REMARK SMILES Oc1cc(O)c2cc(O)c(-c3cc(O)c(O)c(O)c3)[o+]c2c1
REMARK SMILES IDX 10 1 20 2 21 3 22 4 2 5 3 6 4 7 6 8 7 9 8 10 11 11 12 12
REMARK SMILES IDX 13 13 19 14 15 15 17 16 14 17 16 19 18 21 9 23 1 25 5 27
REMARK H PARENT 14 18 16 20 18 22 9 24 1 26 5 28
REMARK Flexibility Score: inf
ROOT
ATOM      1  C   UNL     1     -13.084 -29.236 -10.366  1.00  0.00     0.402 A 
ATOM      2  O   UNL     1     -13.057 -28.097 -11.057  1.00  0.00    -0.202 OA
ATOM      3  C   UNL     1     -13.907 -27.823 -12.041  1.00  0.00     0.368 A 
ATOM      4  C   UNL     1     -13.816 -26.601 -12.716  1.00  0.00     0.162 A 
ATOM      5  C   UNL     1     -14.708 -26.299 -13.752  1.00  0.00     0.128 A 
ATOM      6  C   UNL     1     -15.695 -27.222 -14.114  1.00  0.00     0.093 A 
ATOM      7  C   UNL     1     -15.799 -28.452 -13.447  1.00  0.00     0.136 A 
ATOM      8  C   UNL     1     -14.903 -28.755 -12.406  1.00  0.00     0.125 A 
ATOM      9  C   UNL     1     -14.954 -29.969 -11.711  1.00  0.00     0.078 A 
ATOM     10  C   UNL     1     -14.035 -30.226 -10.689  1.00  0.00     0.223 A 
ENDROOT
BRANCH   1  11
ATOM     11  C   UNL     1     -12.089 -29.423  -9.286  1.00  0.00     0.091 A 
ATOM     12  C   UNL     1     -11.680 -30.722  -8.943  1.00  0.00     0.068 A 
ATOM     13  C   UNL     1     -10.725 -30.927  -7.939  1.00  0.00     0.162 A 
ATOM     14  C   UNL     1     -11.503 -28.326  -8.632  1.00  0.00     0.068 A 
ATOM     15  C   UNL     1     -10.158 -29.825  -7.275  1.00  0.00     0.200 A 
ATOM     16  C   UNL     1     -10.547 -28.522  -7.629  1.00  0.00     0.162 A 
BRANCH  13  17
ATOM     17  O   UNL     1     -10.337 -32.222  -7.598  1.00  0.00    -0.504 OA
ATOM     18  H   UNL     1      -9.889 -32.427  -6.712  1.00  0.00     0.293 HD
ENDBRANCH  13  17
BRANCH  15  19
ATOM     19  O   UNL     1      -9.207 -30.012  -6.270  1.00  0.00    -0.502 OA
ATOM     20  H   UNL     1      -8.496 -30.730  -6.327  1.00  0.00     0.293 HD
ENDBRANCH  15  19
BRANCH  16  21
ATOM     21  O   UNL     1      -9.992 -27.408  -7.000  1.00  0.00    -0.504 OA
ATOM     22  H   UNL     1      -9.541 -27.469  -6.095  1.00  0.00     0.293 HD
ENDBRANCH  16  21
ENDBRANCH   1  11
BRANCH  10  23
ATOM     23  O   UNL     1     -14.049 -31.453 -10.027  1.00  0.00    -0.500 OA
ATOM     24  H   UNL     1     -13.305 -31.725  -9.396  1.00  0.00     0.294 HD
ENDBRANCH  10  23
BRANCH   5  25
ATOM     25  O   UNL     1     -14.623 -25.085 -14.429  1.00  0.00    -0.507 OA
ATOM     26  H   UNL     1     -15.009 -24.968 -15.359  1.00  0.00     0.293 HD
ENDBRANCH   5  25
BRANCH   7  27
ATOM     27  O   UNL     1     -16.788 -29.364 -13.818  1.00  0.00    -0.507 OA
ATOM     28  H   UNL     1     -16.644 -30.364 -13.740  1.00  0.00     0.293 HD
ENDBRANCH   7  27
TORSDOF 7
ENDMDL
