MODEL 1
REMARK VINA RESULT:    -2.968      0.000      0.000
REMARK INTER + INTRA:          -9.929
REMARK INTER:                  -6.439
REMARK INTRA:                  -3.490
REMARK UNBOUND:                -3.490
REMARK SMILES CCCCCCCCCCCCCCCCCCCCCC(=O)[O-]
REMARK SMILES IDX 12 1 11 2 10 3 9 4 8 5 7 6 6 7 5 8 4 9 3 10 2 11 1 12 13 13
REMARK SMILES IDX 14 14 15 15 16 16 17 17 18 18 19 19 20 20 21 21 22 22 23 23
REMARK SMILES IDX 24 24
REMARK H PARENT
REMARK Flexibility Score: inf
ROOT
ATOM      1  C   UNL     1      23.342   5.469  14.630  1.00  0.00     0.000 C 
ENDROOT
BRANCH   1   2
ATOM      2  C   UNL     1      24.711   6.140  14.824  1.00  0.00     0.000 C 
BRANCH   2   3
ATOM      3  C   UNL     1      25.016   6.442  16.301  1.00  0.00     0.000 C 
BRANCH   3   4
ATOM      4  C   UNL     1      24.982   7.948  16.613  1.00  0.00    -0.000 C 
BRANCH   4   5
ATOM      5  C   UNL     1      26.043   8.362  17.648  1.00  0.00    -0.000 C 
BRANCH   5   6
ATOM      6  C   UNL     1      26.383   7.231  18.633  1.00  0.00    -0.000 C 
BRANCH   6   7
ATOM      7  C   UNL     1      26.247   7.666  20.102  1.00  0.00    -0.000 C 
BRANCH   7   8
ATOM      8  C   UNL     1      24.924   7.207  20.733  1.00  0.00    -0.000 C 
BRANCH   8   9
ATOM      9  C   UNL     1      24.228   6.103  19.916  1.00  0.00    -0.000 C 
BRANCH   9  10
ATOM     10  C   UNL     1      22.790   6.477  19.525  1.00  0.00    -0.000 C 
BRANCH  10  11
ATOM     11  C   UNL     1      22.563   7.996  19.494  1.00  0.00    -0.003 C 
ATOM     12  C   UNL     1      21.078   8.332  19.604  1.00  0.00     0.004 C 
ENDBRANCH  10  11
ENDBRANCH   9  10
ENDBRANCH   8   9
ENDBRANCH   7   8
ENDBRANCH   6   7
ENDBRANCH   5   6
ENDBRANCH   4   5
ENDBRANCH   3   4
ENDBRANCH   2   3
ENDBRANCH   1   2
BRANCH   1  13
ATOM     13  C   UNL     1      22.694   5.043  15.960  1.00  0.00     0.000 C 
BRANCH  13  14
ATOM     14  C   UNL     1      21.313   5.682  16.176  1.00  0.00     0.000 C 
BRANCH  14  15
ATOM     15  C   UNL     1      21.355   7.215  16.114  1.00  0.00     0.000 C 
BRANCH  15  16
ATOM     16  C   UNL     1      20.039   7.777  15.554  1.00  0.00     0.000 C 
BRANCH  16  17
ATOM     17  C   UNL     1      18.801   7.287  16.326  1.00  0.00     0.000 C 
BRANCH  17  18
ATOM     18  C   UNL     1      17.946   8.399  16.968  1.00  0.00     0.000 C 
BRANCH  18  19
ATOM     19  C   UNL     1      18.291   9.830  16.523  1.00  0.00     0.000 C 
BRANCH  19  20
ATOM     20  C   UNL     1      18.977  10.651  17.629  1.00  0.00     0.006 C 
BRANCH  20  21
ATOM     21  C   UNL     1      19.516  11.989  17.107  1.00  0.00     0.053 C 
BRANCH  21  22
ATOM     22  C   UNL     1      20.986  11.927  16.827  1.00  0.00     0.041 C 
ATOM     23  O   UNL     1      21.601  10.832  16.911  1.00  0.00    -0.550 OA
ATOM     24  O   UNL     1      21.682  13.085  16.503  1.00  0.00    -0.550 OA
ENDBRANCH  21  22
ENDBRANCH  20  21
ENDBRANCH  19  20
ENDBRANCH  18  19
ENDBRANCH  17  18
ENDBRANCH  16  17
ENDBRANCH  15  16
ENDBRANCH  14  15
ENDBRANCH  13  14
ENDBRANCH   1  13
TORSDOF 20
ENDMDL
MODEL 2
REMARK VINA RESULT:    -2.945      0.986      4.547
REMARK INTER + INTRA:          -9.878
REMARK INTER:                  -5.766
REMARK INTRA:                  -4.113
REMARK UNBOUND:                -3.490
REMARK SMILES CCCCCCCCCCCCCCCCCCCCCC(=O)[O-]
REMARK SMILES IDX 12 1 11 2 10 3 9 4 8 5 7 6 6 7 5 8 4 9 3 10 2 11 1 12 13 13
REMARK SMILES IDX 14 14 15 15 16 16 17 17 18 18 19 19 20 20 21 21 22 22 23 23
REMARK SMILES IDX 24 24
REMARK H PARENT
REMARK Flexibility Score: inf
ROOT
ATOM      1  C   UNL     1      26.002   8.535  18.871  1.00  0.00     0.000 C 
ENDROOT
BRANCH   1   2
ATOM      2  C   UNL     1      26.168   8.255  17.369  1.00  0.00     0.000 C 
BRANCH   2   3
ATOM      3  C   UNL     1      24.870   7.749  16.717  1.00  0.00     0.000 C 
BRANCH   3   4
ATOM      4  C   UNL     1      25.046   6.379  16.041  1.00  0.00    -0.000 C 
BRANCH   4   5
ATOM      5  C   UNL     1      23.848   5.998  15.153  1.00  0.00    -0.000 C 
BRANCH   5   6
ATOM      6  C   UNL     1      22.907   4.988  15.829  1.00  0.00    -0.000 C 
BRANCH   6   7
ATOM      7  C   UNL     1      21.626   5.646  16.372  1.00  0.00    -0.000 C 
BRANCH   7   8
ATOM      8  C   UNL     1      21.296   6.968  15.662  1.00  0.00    -0.000 C 
BRANCH   8   9
ATOM      9  C   UNL     1      19.790   7.289  15.676  1.00  0.00    -0.000 C 
BRANCH   9  10
ATOM     10  C   UNL     1      19.087   6.758  16.935  1.00  0.00    -0.000 C 
BRANCH  10  11
ATOM     11  C   UNL     1      18.362   7.864  17.717  1.00  0.00    -0.003 C 
ATOM     12  C   UNL     1      17.986   9.027  16.802  1.00  0.00     0.004 C 
ENDBRANCH  10  11
ENDBRANCH   9  10
ENDBRANCH   8   9
ENDBRANCH   7   8
ENDBRANCH   6   7
ENDBRANCH   5   6
ENDBRANCH   4   5
ENDBRANCH   3   4
ENDBRANCH   2   3
ENDBRANCH   1   2
BRANCH   1  13
ATOM     13  C   UNL     1      26.602   7.424  19.753  1.00  0.00     0.000 C 
BRANCH  13  14
ATOM     14  C   UNL     1      25.528   6.627  20.511  1.00  0.00     0.000 C 
BRANCH  14  15
ATOM     15  C   UNL     1      24.944   5.479  19.674  1.00  0.00     0.000 C 
BRANCH  15  16
ATOM     16  C   UNL     1      23.426   5.641  19.507  1.00  0.00     0.000 C 
BRANCH  16  17
ATOM     17  C   UNL     1      22.877   6.901  20.200  1.00  0.00     0.000 C 
BRANCH  17  18
ATOM     18  C   UNL     1      21.825   7.688  19.391  1.00  0.00     0.000 C 
BRANCH  18  19
ATOM     19  C   UNL     1      22.355   8.939  18.669  1.00  0.00     0.000 C 
BRANCH  19  20
ATOM     20  C   UNL     1      21.262   9.994  18.423  1.00  0.00     0.006 C 
BRANCH  20  21
ATOM     21  C   UNL     1      21.368  10.620  17.026  1.00  0.00     0.053 C 
BRANCH  21  22
ATOM     22  C   UNL     1      20.810  12.010  16.995  1.00  0.00     0.041 C 
ATOM     23  O   UNL     1      19.585  12.207  17.205  1.00  0.00    -0.550 OA
ATOM     24  O   UNL     1      21.640  13.086  16.703  1.00  0.00    -0.550 OA
ENDBRANCH  21  22
ENDBRANCH  20  21
ENDBRANCH  19  20
ENDBRANCH  18  19
ENDBRANCH  17  18
ENDBRANCH  16  17
ENDBRANCH  15  16
ENDBRANCH  14  15
ENDBRANCH  13  14
ENDBRANCH   1  13
TORSDOF 20
ENDMDL
MODEL 3
REMARK VINA RESULT:    -2.914      1.373      3.365
REMARK INTER + INTRA:          -9.811
REMARK INTER:                  -5.710
REMARK INTRA:                  -4.101
REMARK UNBOUND:                -3.490
REMARK SMILES CCCCCCCCCCCCCCCCCCCCCC(=O)[O-]
REMARK SMILES IDX 12 1 11 2 10 3 9 4 8 5 7 6 6 7 5 8 4 9 3 10 2 11 1 12 13 13
REMARK SMILES IDX 14 14 15 15 16 16 17 17 18 18 19 19 20 20 21 21 22 22 23 23
REMARK SMILES IDX 24 24
REMARK H PARENT
REMARK Flexibility Score: inf
ROOT
ATOM      1  C   UNL     1      22.115   9.115  17.067  1.00  0.00     0.000 C 
ENDROOT
BRANCH   1   2
ATOM      2  C   UNL     1      22.073   9.120  18.604  1.00  0.00     0.000 C 
BRANCH   2   3
ATOM      3  C   UNL     1      22.150   7.704  19.200  1.00  0.00     0.000 C 
BRANCH   3   4
ATOM      4  C   UNL     1      23.515   7.409  19.844  1.00  0.00    -0.000 C 
BRANCH   4   5
ATOM      5  C   UNL     1      24.477   8.609  19.769  1.00  0.00    -0.000 C 
BRANCH   5   6
ATOM      6  C   UNL     1      25.717   8.320  18.906  1.00  0.00    -0.000 C 
BRANCH   6   7
ATOM      7  C   UNL     1      25.743   6.875  18.376  1.00  0.00    -0.000 C 
BRANCH   7   8
ATOM      8  C   UNL     1      25.911   6.810  16.850  1.00  0.00    -0.000 C 
BRANCH   8   9
ATOM      9  C   UNL     1      24.563   6.769  16.107  1.00  0.00    -0.000 C 
BRANCH   9  10
ATOM     10  C   UNL     1      23.671   5.605  16.568  1.00  0.00    -0.000 C 
BRANCH  10  11
ATOM     11  C   UNL     1      22.999   4.875  15.396  1.00  0.00    -0.003 C 
ATOM     12  C   UNL     1      23.506   5.404  14.057  1.00  0.00     0.004 C 
ENDBRANCH  10  11
ENDBRANCH   9  10
ENDBRANCH   8   9
ENDBRANCH   7   8
ENDBRANCH   6   7
ENDBRANCH   5   6
ENDBRANCH   4   5
ENDBRANCH   3   4
ENDBRANCH   2   3
ENDBRANCH   1   2
BRANCH   1  13
ATOM     13  C   UNL     1      20.719   8.969  16.435  1.00  0.00     0.000 C 
BRANCH  13  14
ATOM     14  C   UNL     1      20.475   7.565  15.860  1.00  0.00     0.000 C 
BRANCH  14  15
ATOM     15  C   UNL     1      19.539   6.721  16.737  1.00  0.00     0.000 C 
BRANCH  15  16
ATOM     16  C   UNL     1      18.404   7.581  17.313  1.00  0.00     0.000 C 
BRANCH  16  17
ATOM     17  C   UNL     1      18.380   7.591  18.852  1.00  0.00     0.000 C 
BRANCH  17  18
ATOM     18  C   UNL     1      18.472   8.987  19.500  1.00  0.00     0.000 C 
BRANCH  18  19
ATOM     19  C   UNL     1      18.207  10.169  18.551  1.00  0.00     0.000 C 
BRANCH  19  20
ATOM     20  C   UNL     1      19.029  11.419  18.911  1.00  0.00     0.006 C 
BRANCH  20  21
ATOM     21  C   UNL     1      19.376  12.258  17.674  1.00  0.00     0.053 C 
BRANCH  21  22
ATOM     22  C   UNL     1      20.845  12.542  17.586  1.00  0.00     0.041 C 
ATOM     23  O   UNL     1      21.409  12.619  16.464  1.00  0.00    -0.550 OA
ATOM     24  O   UNL     1      21.595  12.692  18.746  1.00  0.00    -0.550 OA
ENDBRANCH  21  22
ENDBRANCH  20  21
ENDBRANCH  19  20
ENDBRANCH  18  19
ENDBRANCH  17  18
ENDBRANCH  16  17
ENDBRANCH  15  16
ENDBRANCH  14  15
ENDBRANCH  13  14
ENDBRANCH   1  13
TORSDOF 20
ENDMDL
MODEL 4
REMARK VINA RESULT:    -2.831      1.318      4.658
REMARK INTER + INTRA:          -9.631
REMARK INTER:                  -5.712
REMARK INTRA:                  -3.920
REMARK UNBOUND:                -3.490
REMARK SMILES CCCCCCCCCCCCCCCCCCCCCC(=O)[O-]
REMARK SMILES IDX 12 1 11 2 10 3 9 4 8 5 7 6 6 7 5 8 4 9 3 10 2 11 1 12 13 13
REMARK SMILES IDX 14 14 15 15 16 16 17 17 18 18 19 19 20 20 21 21 22 22 23 23
REMARK SMILES IDX 24 24
REMARK H PARENT
REMARK Flexibility Score: inf
ROOT
ATOM      1  C   UNL     1      24.945   7.933  16.744  1.00  0.00     0.000 C 
ENDROOT
BRANCH   1   2
ATOM      2  C   UNL     1      25.117   6.627  15.952  1.00  0.00     0.000 C 
BRANCH   2   3
ATOM      3  C   UNL     1      23.780   5.915  15.691  1.00  0.00     0.000 C 
BRANCH   3   4
ATOM      4  C   UNL     1      23.187   5.290  16.966  1.00  0.00    -0.000 C 
BRANCH   4   5
ATOM      5  C   UNL     1      21.828   5.904  17.349  1.00  0.00    -0.000 C 
BRANCH   5   6
ATOM      6  C   UNL     1      20.746   5.656  16.286  1.00  0.00    -0.000 C 
BRANCH   6   7
ATOM      7  C   UNL     1      20.239   6.960  15.644  1.00  0.00    -0.000 C 
BRANCH   7   8
ATOM      8  C   UNL     1      18.706   7.055  15.633  1.00  0.00    -0.000 C 
BRANCH   8   9
ATOM      9  C   UNL     1      18.169   8.094  16.634  1.00  0.00    -0.000 C 
BRANCH   9  10
ATOM     10  C   UNL     1      17.883   7.486  18.017  1.00  0.00    -0.000 C 
BRANCH  10  11
ATOM     11  C   UNL     1      18.664   8.183  19.141  1.00  0.00    -0.003 C 
ATOM     12  C   UNL     1      19.533   7.188  19.905  1.00  0.00     0.004 C 
ENDBRANCH  10  11
ENDBRANCH   9  10
ENDBRANCH   8   9
ENDBRANCH   7   8
ENDBRANCH   6   7
ENDBRANCH   5   6
ENDBRANCH   4   5
ENDBRANCH   3   4
ENDBRANCH   2   3
ENDBRANCH   1   2
BRANCH   1  13
ATOM     13  C   UNL     1      26.109   8.195  17.719  1.00  0.00     0.000 C 
BRANCH  13  14
ATOM     14  C   UNL     1      25.633   8.401  19.166  1.00  0.00     0.000 C 
BRANCH  14  15
ATOM     15  C   UNL     1      24.786   7.229  19.682  1.00  0.00     0.000 C 
BRANCH  15  16
ATOM     16  C   UNL     1      23.394   7.709  20.118  1.00  0.00     0.000 C 
BRANCH  16  17
ATOM     17  C   UNL     1      23.249   9.241  20.082  1.00  0.00     0.000 C 
BRANCH  17  18
ATOM     18  C   UNL     1      22.027   9.766  19.302  1.00  0.00     0.000 C 
BRANCH  18  19
ATOM     19  C   UNL     1      22.001   9.407  17.806  1.00  0.00     0.000 C 
BRANCH  19  20
ATOM     20  C   UNL     1      21.031  10.286  16.997  1.00  0.00     0.006 C 
BRANCH  20  21
ATOM     21  C   UNL     1      20.535  11.493  17.805  1.00  0.00     0.053 C 
BRANCH  21  22
ATOM     22  C   UNL     1      21.344  12.723  17.523  1.00  0.00     0.041 C 
ATOM     23  O   UNL     1      21.803  13.410  18.473  1.00  0.00    -0.550 OA
ATOM     24  O   UNL     1      21.565  13.125  16.212  1.00  0.00    -0.550 OA
ENDBRANCH  21  22
ENDBRANCH  20  21
ENDBRANCH  19  20
ENDBRANCH  18  19
ENDBRANCH  17  18
ENDBRANCH  16  17
ENDBRANCH  15  16
ENDBRANCH  14  15
ENDBRANCH  13  14
ENDBRANCH   1  13
TORSDOF 20
ENDMDL
MODEL 5
REMARK VINA RESULT:    -2.819      1.058      3.147
REMARK INTER + INTRA:          -9.605
REMARK INTER:                  -6.325
REMARK INTRA:                  -3.279
REMARK UNBOUND:                -3.490
REMARK SMILES CCCCCCCCCCCCCCCCCCCCCC(=O)[O-]
REMARK SMILES IDX 12 1 11 2 10 3 9 4 8 5 7 6 6 7 5 8 4 9 3 10 2 11 1 12 13 13
REMARK SMILES IDX 14 14 15 15 16 16 17 17 18 18 19 19 20 20 21 21 22 22 23 23
REMARK SMILES IDX 24 24
REMARK H PARENT
REMARK Flexibility Score: inf
ROOT
ATOM      1  C   UNL     1      21.393   7.038  18.887  1.00  0.00     0.000 C 
ENDROOT
BRANCH   1   2
ATOM      2  C   UNL     1      22.139   5.696  18.829  1.00  0.00     0.000 C 
BRANCH   2   3
ATOM      3  C   UNL     1      23.441   5.710  19.648  1.00  0.00     0.000 C 
BRANCH   3   4
ATOM      4  C   UNL     1      23.403   6.730  20.799  1.00  0.00    -0.000 C 
BRANCH   4   5
ATOM      5  C   UNL     1      24.601   7.695  20.774  1.00  0.00    -0.000 C 
BRANCH   5   6
ATOM      6  C   UNL     1      25.922   6.991  20.423  1.00  0.00    -0.000 C 
BRANCH   6   7
ATOM      7  C   UNL     1      26.861   7.880  19.588  1.00  0.00    -0.000 C 
BRANCH   7   8
ATOM      8  C   UNL     1      26.247   8.279  18.237  1.00  0.00    -0.000 C 
BRANCH   8   9
ATOM      9  C   UNL     1      25.922   7.064  17.350  1.00  0.00    -0.000 C 
BRANCH   9  10
ATOM     10  C   UNL     1      24.866   7.381  16.279  1.00  0.00    -0.000 C 
BRANCH  10  11
ATOM     11  C   UNL     1      24.906   6.397  15.101  1.00  0.00    -0.003 C 
ATOM     12  C   UNL     1      23.992   5.201  15.354  1.00  0.00     0.004 C 
ENDBRANCH  10  11
ENDBRANCH   9  10
ENDBRANCH   8   9
ENDBRANCH   7   8
ENDBRANCH   6   7
ENDBRANCH   5   6
ENDBRANCH   4   5
ENDBRANCH   3   4
ENDBRANCH   2   3
ENDBRANCH   1   2
BRANCH   1  13
ATOM     13  C   UNL     1      21.546   7.860  17.594  1.00  0.00     0.000 C 
BRANCH  13  14
ATOM     14  C   UNL     1      21.131   7.073  16.340  1.00  0.00     0.000 C 
BRANCH  14  15
ATOM     15  C   UNL     1      20.142   7.846  15.457  1.00  0.00     0.000 C 
BRANCH  15  16
ATOM     16  C   UNL     1      18.692   7.537  15.859  1.00  0.00     0.000 C 
BRANCH  16  17
ATOM     17  C   UNL     1      17.944   8.770  16.397  1.00  0.00     0.000 C 
BRANCH  17  18
ATOM     18  C   UNL     1      18.093   9.018  17.913  1.00  0.00     0.000 C 
BRANCH  18  19
ATOM     19  C   UNL     1      18.651  10.399  18.299  1.00  0.00     0.000 C 
BRANCH  19  20
ATOM     20  C   UNL     1      19.203  11.178  17.093  1.00  0.00     0.006 C 
BRANCH  20  21
ATOM     21  C   UNL     1      20.726  11.352  17.165  1.00  0.00     0.053 C 
BRANCH  21  22
ATOM     22  C   UNL     1      21.128  12.792  17.066  1.00  0.00     0.041 C 
ATOM     23  O   UNL     1      21.709  13.218  16.034  1.00  0.00    -0.550 OA
ATOM     24  O   UNL     1      20.888  13.656  18.127  1.00  0.00    -0.550 OA
ENDBRANCH  21  22
ENDBRANCH  20  21
ENDBRANCH  19  20
ENDBRANCH  18  19
ENDBRANCH  17  18
ENDBRANCH  16  17
ENDBRANCH  15  16
ENDBRANCH  14  15
ENDBRANCH  13  14
ENDBRANCH   1  13
TORSDOF 20
ENDMDL
MODEL 6
REMARK VINA RESULT:    -2.788      2.294      4.187
REMARK INTER + INTRA:          -9.539
REMARK INTER:                  -5.819
REMARK INTRA:                  -3.720
REMARK UNBOUND:                -3.490
REMARK SMILES CCCCCCCCCCCCCCCCCCCCCC(=O)[O-]
REMARK SMILES IDX 12 1 11 2 10 3 9 4 8 5 7 6 6 7 5 8 4 9 3 10 2 11 1 12 13 13
REMARK SMILES IDX 14 14 15 15 16 16 17 17 18 18 19 19 20 20 21 21 22 22 23 23
REMARK SMILES IDX 24 24
REMARK H PARENT
REMARK Flexibility Score: inf
ROOT
ATOM      1  C   UNL     1      21.230   9.296  16.770  1.00  0.00     0.000 C 
ENDROOT
BRANCH   1   2
ATOM      2  C   UNL     1      22.014   9.450  18.083  1.00  0.00     0.000 C 
BRANCH   2   3
ATOM      3  C   UNL     1      21.304   8.787  19.275  1.00  0.00     0.000 C 
BRANCH   3   4
ATOM      4  C   UNL     1      22.204   8.694  20.519  1.00  0.00    -0.000 C 
BRANCH   4   5
ATOM      5  C   UNL     1      23.584   9.340  20.301  1.00  0.00    -0.000 C 
BRANCH   5   6
ATOM      6  C   UNL     1      24.733   8.320  20.373  1.00  0.00    -0.000 C 
BRANCH   6   7
ATOM      7  C   UNL     1      25.842   8.607  19.347  1.00  0.00    -0.000 C 
BRANCH   7   8
ATOM      8  C   UNL     1      26.663   7.356  19.000  1.00  0.00    -0.000 C 
BRANCH   8   9
ATOM      9  C   UNL     1      26.102   6.595  17.785  1.00  0.00    -0.000 C 
BRANCH   9  10
ATOM     10  C   UNL     1      25.163   7.461  16.930  1.00  0.00    -0.000 C 
BRANCH  10  11
ATOM     11  C   UNL     1      23.935   6.685  16.433  1.00  0.00    -0.003 C 
ATOM     12  C   UNL     1      23.211   6.002  17.590  1.00  0.00     0.004 C 
ENDBRANCH  10  11
ENDBRANCH   9  10
ENDBRANCH   8   9
ENDBRANCH   7   8
ENDBRANCH   6   7
ENDBRANCH   5   6
ENDBRANCH   4   5
ENDBRANCH   3   4
ENDBRANCH   2   3
ENDBRANCH   1   2
BRANCH   1  13
ATOM     13  C   UNL     1      20.068   8.292  16.885  1.00  0.00     0.000 C 
BRANCH  13  14
ATOM     14  C   UNL     1      18.820   8.740  16.108  1.00  0.00     0.000 C 
BRANCH  14  15
ATOM     15  C   UNL     1      18.275  10.091  16.594  1.00  0.00     0.000 C 
BRANCH  15  16
ATOM     16  C   UNL     1      17.917  10.032  18.087  1.00  0.00     0.000 C 
BRANCH  16  17
ATOM     17  C   UNL     1      18.424  11.254  18.873  1.00  0.00     0.000 C 
BRANCH  17  18
ATOM     18  C   UNL     1      19.308  12.231  18.069  1.00  0.00     0.000 C 
BRANCH  18  19
ATOM     19  C   UNL     1      20.150  13.200  18.916  1.00  0.00     0.000 C 
BRANCH  19  20
ATOM     20  C   UNL     1      21.663  13.029  18.692  1.00  0.00     0.006 C 
BRANCH  20  21
ATOM     21  C   UNL     1      22.403  12.678  19.990  1.00  0.00     0.053 C 
BRANCH  21  22
ATOM     22  C   UNL     1      23.241  13.819  20.480  1.00  0.00     0.041 C 
ATOM     23  O   UNL     1      22.697  14.819  21.018  1.00  0.00    -0.550 OA
ATOM     24  O   UNL     1      24.620  13.790  20.316  1.00  0.00    -0.550 OA
ENDBRANCH  21  22
ENDBRANCH  20  21
ENDBRANCH  19  20
ENDBRANCH  18  19
ENDBRANCH  17  18
ENDBRANCH  16  17
ENDBRANCH  15  16
ENDBRANCH  14  15
ENDBRANCH  13  14
ENDBRANCH   1  13
TORSDOF 20
ENDMDL
MODEL 7
REMARK VINA RESULT:    -2.711      2.572      6.050
REMARK INTER + INTRA:          -9.372
REMARK INTER:                  -5.437
REMARK INTRA:                  -3.934
REMARK UNBOUND:                -3.490
REMARK SMILES CCCCCCCCCCCCCCCCCCCCCC(=O)[O-]
REMARK SMILES IDX 12 1 11 2 10 3 9 4 8 5 7 6 6 7 5 8 4 9 3 10 2 11 1 12 13 13
REMARK SMILES IDX 14 14 15 15 16 16 17 17 18 18 19 19 20 20 21 21 22 22 23 23
REMARK SMILES IDX 24 24
REMARK H PARENT
REMARK Flexibility Score: inf
ROOT
ATOM      1  C   UNL     1      22.456   6.573  16.369  1.00  0.00     0.000 C 
ENDROOT
BRANCH   1   2
ATOM      2  C   UNL     1      21.061   6.701  15.736  1.00  0.00     0.000 C 
BRANCH   2   3
ATOM      3  C   UNL     1      20.474   8.115  15.881  1.00  0.00     0.000 C 
BRANCH   3   4
ATOM      4  C   UNL     1      19.014   8.100  16.364  1.00  0.00    -0.000 C 
BRANCH   4   5
ATOM      5  C   UNL     1      18.346   9.484  16.273  1.00  0.00    -0.000 C 
BRANCH   5   6
ATOM      6  C   UNL     1      18.468  10.287  17.579  1.00  0.00    -0.000 C 
BRANCH   6   7
ATOM      7  C   UNL     1      19.147  11.652  17.370  1.00  0.00    -0.000 C 
BRANCH   7   8
ATOM      8  C   UNL     1      20.622  11.521  16.962  1.00  0.00    -0.000 C 
BRANCH   8   9
ATOM      9  C   UNL     1      21.400  12.840  17.116  1.00  0.00    -0.000 C 
BRANCH   9  10
ATOM     10  C   UNL     1      21.156  13.512  18.477  1.00  0.00    -0.000 C 
BRANCH  10  11
ATOM     11  C   UNL     1      22.006  12.899  19.599  1.00  0.00    -0.003 C 
ATOM     12  C   UNL     1      21.127  12.390  20.738  1.00  0.00     0.004 C 
ENDBRANCH  10  11
ENDBRANCH   9  10
ENDBRANCH   8   9
ENDBRANCH   7   8
ENDBRANCH   6   7
ENDBRANCH   5   6
ENDBRANCH   4   5
ENDBRANCH   3   4
ENDBRANCH   2   3
ENDBRANCH   1   2
BRANCH   1  13
ATOM     13  C   UNL     1      22.533   5.447  17.416  1.00  0.00     0.000 C 
BRANCH  13  14
ATOM     14  C   UNL     1      21.296   5.400  18.327  1.00  0.00     0.000 C 
BRANCH  14  15
ATOM     15  C   UNL     1      21.452   6.271  19.582  1.00  0.00     0.000 C 
BRANCH  15  16
ATOM     16  C   UNL     1      20.364   7.354  19.637  1.00  0.00     0.000 C 
BRANCH  16  17
ATOM     17  C   UNL     1      20.938   8.770  19.823  1.00  0.00     0.000 C 
BRANCH  17  18
ATOM     18  C   UNL     1      22.289   9.027  19.124  1.00  0.00     0.000 C 
BRANCH  18  19
ATOM     19  C   UNL     1      23.428   9.488  20.050  1.00  0.00     0.000 C 
BRANCH  19  20
ATOM     20  C   UNL     1      24.463   8.382  20.319  1.00  0.00     0.006 C 
BRANCH  20  21
ATOM     21  C   UNL     1      24.934   7.704  19.025  1.00  0.00     0.053 C 
BRANCH  21  22
ATOM     22  C   UNL     1      26.401   7.401  19.057  1.00  0.00     0.041 C 
ATOM     23  O   UNL     1      26.848   6.374  18.484  1.00  0.00    -0.550 OA
ATOM     24  O   UNL     1      27.270   8.239  19.746  1.00  0.00    -0.550 OA
ENDBRANCH  21  22
ENDBRANCH  20  21
ENDBRANCH  19  20
ENDBRANCH  18  19
ENDBRANCH  17  18
ENDBRANCH  16  17
ENDBRANCH  15  16
ENDBRANCH  14  15
ENDBRANCH  13  14
ENDBRANCH   1  13
TORSDOF 20
ENDMDL
MODEL 8
REMARK VINA RESULT:    -2.689      1.817      4.319
REMARK INTER + INTRA:          -9.324
REMARK INTER:                  -5.478
REMARK INTRA:                  -3.846
REMARK UNBOUND:                -3.490
REMARK SMILES CCCCCCCCCCCCCCCCCCCCCC(=O)[O-]
REMARK SMILES IDX 12 1 11 2 10 3 9 4 8 5 7 6 6 7 5 8 4 9 3 10 2 11 1 12 13 13
REMARK SMILES IDX 14 14 15 15 16 16 17 17 18 18 19 19 20 20 21 21 22 22 23 23
REMARK SMILES IDX 24 24
REMARK H PARENT
REMARK Flexibility Score: inf
ROOT
ATOM      1  C   UNL     1      25.455   8.493  19.629  1.00  0.00     0.000 C 
ENDROOT
BRANCH   1   2
ATOM      2  C   UNL     1      26.149   8.223  18.285  1.00  0.00     0.000 C 
BRANCH   2   3
ATOM      3  C   UNL     1      25.697   6.901  17.642  1.00  0.00     0.000 C 
BRANCH   3   4
ATOM      4  C   UNL     1      25.081   7.105  16.248  1.00  0.00    -0.000 C 
BRANCH   4   5
ATOM      5  C   UNL     1      23.996   6.062  15.922  1.00  0.00    -0.000 C 
BRANCH   5   6
ATOM      6  C   UNL     1      23.315   5.502  17.182  1.00  0.00    -0.000 C 
BRANCH   6   7
ATOM      7  C   UNL     1      21.780   5.503  17.074  1.00  0.00    -0.000 C 
BRANCH   7   8
ATOM      8  C   UNL     1      21.278   6.244  15.825  1.00  0.00    -0.000 C 
BRANCH   8   9
ATOM      9  C   UNL     1      19.807   6.682  15.947  1.00  0.00    -0.000 C 
BRANCH   9  10
ATOM     10  C   UNL     1      19.391   6.953  17.402  1.00  0.00    -0.000 C 
BRANCH  10  11
ATOM     11  C   UNL     1      18.316   8.044  17.515  1.00  0.00    -0.003 C 
ATOM     12  C   UNL     1      18.120   8.762  16.182  1.00  0.00     0.004 C 
ENDBRANCH  10  11
ENDBRANCH   9  10
ENDBRANCH   8   9
ENDBRANCH   7   8
ENDBRANCH   6   7
ENDBRANCH   5   6
ENDBRANCH   4   5
ENDBRANCH   3   4
ENDBRANCH   2   3
ENDBRANCH   1   2
BRANCH   1  13
ATOM     13  C   UNL     1      24.781   7.238  20.213  1.00  0.00     0.000 C 
BRANCH  13  14
ATOM     14  C   UNL     1      23.251   7.371  20.293  1.00  0.00     0.000 C 
BRANCH  14  15
ATOM     15  C   UNL     1      22.789   8.832  20.388  1.00  0.00     0.000 C 
BRANCH  15  16
ATOM     16  C   UNL     1      21.707   9.134  19.341  1.00  0.00     0.000 C 
BRANCH  16  17
ATOM     17  C   UNL     1      22.221   9.014  17.895  1.00  0.00     0.000 C 
BRANCH  17  18
ATOM     18  C   UNL     1      21.625  10.032  16.901  1.00  0.00     0.000 C 
BRANCH  18  19
ATOM     19  C   UNL     1      20.634  11.039  17.509  1.00  0.00     0.000 C 
BRANCH  19  20
ATOM     20  C   UNL     1      21.225  12.454  17.642  1.00  0.00     0.006 C 
BRANCH  20  21
ATOM     21  C   UNL     1      20.705  13.183  18.887  1.00  0.00     0.053 C 
BRANCH  21  22
ATOM     22  C   UNL     1      21.772  13.340  19.928  1.00  0.00     0.041 C 
ATOM     23  O   UNL     1      22.570  12.396  20.163  1.00  0.00    -0.550 OA
ATOM     24  O   UNL     1      21.864  14.519  20.658  1.00  0.00    -0.550 OA
ENDBRANCH  21  22
ENDBRANCH  20  21
ENDBRANCH  19  20
ENDBRANCH  18  19
ENDBRANCH  17  18
ENDBRANCH  16  17
ENDBRANCH  15  16
ENDBRANCH  14  15
ENDBRANCH  13  14
ENDBRANCH   1  13
TORSDOF 20
ENDMDL
MODEL 9
REMARK VINA RESULT:    -2.659      2.030      6.558
REMARK INTER + INTRA:          -9.258
REMARK INTER:                  -5.467
REMARK INTRA:                  -3.791
REMARK UNBOUND:                -3.490
REMARK SMILES CCCCCCCCCCCCCCCCCCCCCC(=O)[O-]
REMARK SMILES IDX 12 1 11 2 10 3 9 4 8 5 7 6 6 7 5 8 4 9 3 10 2 11 1 12 13 13
REMARK SMILES IDX 14 14 15 15 16 16 17 17 18 18 19 19 20 20 21 21 22 22 23 23
REMARK SMILES IDX 24 24
REMARK H PARENT
REMARK Flexibility Score: inf
ROOT
ATOM      1  C   UNL     1      21.288   7.944  16.606  1.00  0.00     0.000 C 
ENDROOT
BRANCH   1   2
ATOM      2  C   UNL     1      20.263   6.827  16.860  1.00  0.00     0.000 C 
BRANCH   2   3
ATOM      3  C   UNL     1      18.833   7.239  16.473  1.00  0.00     0.000 C 
BRANCH   3   4
ATOM      4  C   UNL     1      18.744   8.709  16.028  1.00  0.00    -0.000 C 
BRANCH   4   5
ATOM      5  C   UNL     1      17.935   9.577  17.009  1.00  0.00    -0.000 C 
BRANCH   5   6
ATOM      6  C   UNL     1      18.187   9.201  18.479  1.00  0.00    -0.000 C 
BRANCH   6   7
ATOM      7  C   UNL     1      18.425  10.433  19.370  1.00  0.00    -0.000 C 
BRANCH   7   8
ATOM      8  C   UNL     1      19.775  10.379  20.102  1.00  0.00    -0.000 C 
BRANCH   8   9
ATOM      9  C   UNL     1      20.750  11.474  19.631  1.00  0.00    -0.000 C 
BRANCH   9  10
ATOM     10  C   UNL     1      20.257  12.197  18.368  1.00  0.00    -0.000 C 
BRANCH  10  11
ATOM     11  C   UNL     1      21.080  11.836  17.123  1.00  0.00    -0.003 C 
ATOM     12  C   UNL     1      21.529  13.091  16.378  1.00  0.00     0.004 C 
ENDBRANCH  10  11
ENDBRANCH   9  10
ENDBRANCH   8   9
ENDBRANCH   7   8
ENDBRANCH   6   7
ENDBRANCH   5   6
ENDBRANCH   4   5
ENDBRANCH   3   4
ENDBRANCH   2   3
ENDBRANCH   1   2
BRANCH   1  13
ATOM     13  C   UNL     1      22.007   8.397  17.890  1.00  0.00     0.000 C 
BRANCH  13  14
ATOM     14  C   UNL     1      21.731   7.465  19.081  1.00  0.00     0.000 C 
BRANCH  14  15
ATOM     15  C   UNL     1      22.566   7.825  20.319  1.00  0.00     0.000 C 
BRANCH  15  16
ATOM     16  C   UNL     1      23.559   8.953  20.001  1.00  0.00     0.000 C 
BRANCH  16  17
ATOM     17  C   UNL     1      25.027   8.525  20.176  1.00  0.00     0.000 C 
BRANCH  17  18
ATOM     18  C   UNL     1      25.234   7.137  20.817  1.00  0.00     0.000 C 
BRANCH  18  19
ATOM     19  C   UNL     1      25.707   6.034  19.853  1.00  0.00     0.000 C 
BRANCH  19  20
ATOM     20  C   UNL     1      26.019   6.567  18.444  1.00  0.00     0.006 C 
BRANCH  20  21
ATOM     21  C   UNL     1      24.924   6.202  17.433  1.00  0.00     0.053 C 
BRANCH  21  22
ATOM     22  C   UNL     1      25.009   7.038  16.193  1.00  0.00     0.041 C 
ATOM     23  O   UNL     1      25.007   8.294  16.274  1.00  0.00    -0.550 OA
ATOM     24  O   UNL     1      25.061   6.428  14.945  1.00  0.00    -0.550 OA
ENDBRANCH  21  22
ENDBRANCH  20  21
ENDBRANCH  19  20
ENDBRANCH  18  19
ENDBRANCH  17  18
ENDBRANCH  16  17
ENDBRANCH  15  16
ENDBRANCH  14  15
ENDBRANCH  13  14
ENDBRANCH   1  13
TORSDOF 20
ENDMDL
