MODEL 1
REMARK VINA RESULT:    -0.948      0.000      0.000
REMARK INTER + INTRA:          -3.455
REMARK INTER:                  -2.056
REMARK INTRA:                  -1.399
REMARK UNBOUND:                -1.399
REMARK SMILES CCCCCCCCCCCCCCCCCCCCCC(=O)[O-]
REMARK SMILES IDX 12 1 11 2 10 3 9 4 8 5 7 6 6 7 5 8 4 9 3 10 2 11 1 12 13 13
REMARK SMILES IDX 14 14 15 15 16 16 17 17 18 18 19 19 20 20 21 21 22 22 23 23
REMARK SMILES IDX 24 24
REMARK H PARENT
REMARK Flexibility Score: inf
ROOT
ATOM      1  C   UNL     1     -20.910  -1.886   6.996  1.00  0.00     0.000 C 
ENDROOT
BRANCH   1   2
ATOM      2  C   UNL     1     -21.393  -0.507   6.501  1.00  0.00     0.000 C 
BRANCH   2   3
ATOM      3  C   UNL     1     -20.597   0.698   7.035  1.00  0.00     0.000 C 
BRANCH   3   4
ATOM      4  C   UNL     1     -21.469   1.946   7.247  1.00  0.00    -0.000 C 
BRANCH   4   5
ATOM      5  C   UNL     1     -21.763   2.225   8.731  1.00  0.00    -0.000 C 
BRANCH   5   6
ATOM      6  C   UNL     1     -21.671   0.975   9.631  1.00  0.00    -0.000 C 
BRANCH   6   7
ATOM      7  C   UNL     1     -22.499   1.127  10.919  1.00  0.00    -0.000 C 
BRANCH   7   8
ATOM      8  C   UNL     1     -21.828   2.035  11.963  1.00  0.00    -0.000 C 
BRANCH   8   9
ATOM      9  C   UNL     1     -21.369   1.318  13.245  1.00  0.00    -0.000 C 
BRANCH   9  10
ATOM     10  C   UNL     1     -22.127   0.005  13.499  1.00  0.00    -0.000 C 
BRANCH  10  11
ATOM     11  C   UNL     1     -21.194  -1.213  13.558  1.00  0.00    -0.003 C 
ATOM     12  C   UNL     1     -21.013  -1.882  12.194  1.00  0.00     0.004 C 
ENDBRANCH  10  11
ENDBRANCH   9  10
ENDBRANCH   8   9
ENDBRANCH   7   8
ENDBRANCH   6   7
ENDBRANCH   5   6
ENDBRANCH   4   5
ENDBRANCH   3   4
ENDBRANCH   2   3
ENDBRANCH   1   2
BRANCH   1  13
ATOM     13  C   UNL     1     -20.631  -1.982   8.510  1.00  0.00     0.000 C 
BRANCH  13  14
ATOM     14  C   UNL     1     -20.271  -3.392   9.013  1.00  0.00     0.000 C 
BRANCH  14  15
ATOM     15  C   UNL     1     -19.861  -4.341   7.879  1.00  0.00     0.000 C 
BRANCH  15  16
ATOM     16  C   UNL     1     -20.160  -5.799   8.248  1.00  0.00     0.000 C 
BRANCH  16  17
ATOM     17  C   UNL     1     -21.563  -5.940   8.849  1.00  0.00     0.000 C 
BRANCH  17  18
ATOM     18  C   UNL     1     -22.472  -6.773   7.932  1.00  0.00     0.000 C 
BRANCH  18  19
ATOM     19  C   UNL     1     -23.812  -7.131   8.596  1.00  0.00     0.000 C 
BRANCH  19  20
ATOM     20  C   UNL     1     -24.337  -8.506   8.149  1.00  0.00     0.006 C 
BRANCH  20  21
ATOM     21  C   UNL     1     -25.638  -8.399   7.341  1.00  0.00     0.053 C 
BRANCH  21  22
ATOM     22  C   UNL     1     -26.590  -9.511   7.659  1.00  0.00     0.041 C 
ATOM     23  O   UNL     1     -26.600 -10.026   8.808  1.00  0.00    -0.550 OA
ATOM     24  O   UNL     1     -27.450  -9.993   6.681  1.00  0.00    -0.550 OA
ENDBRANCH  21  22
ENDBRANCH  20  21
ENDBRANCH  19  20
ENDBRANCH  18  19
ENDBRANCH  17  18
ENDBRANCH  16  17
ENDBRANCH  15  16
ENDBRANCH  14  15
ENDBRANCH  13  14
ENDBRANCH   1  13
TORSDOF 20
ENDMDL
MODEL 2
REMARK VINA RESULT:    -0.812      7.381     11.423
REMARK INTER + INTRA:          -3.160
REMARK INTER:                  -1.938
REMARK INTRA:                  -1.222
REMARK UNBOUND:                -1.399
REMARK SMILES CCCCCCCCCCCCCCCCCCCCCC(=O)[O-]
REMARK SMILES IDX 12 1 11 2 10 3 9 4 8 5 7 6 6 7 5 8 4 9 3 10 2 11 1 12 13 13
REMARK SMILES IDX 14 14 15 15 16 16 17 17 18 18 19 19 20 20 21 21 22 22 23 23
REMARK SMILES IDX 24 24
REMARK H PARENT
REMARK Flexibility Score: inf
ROOT
ATOM      1  C   UNL     1     -21.151   2.071   7.119  1.00  0.00     0.000 C 
ENDROOT
BRANCH   1   2
ATOM      2  C   UNL     1     -21.425   0.944   6.102  1.00  0.00     0.000 C 
BRANCH   2   3
ATOM      3  C   UNL     1     -20.656  -0.367   6.351  1.00  0.00     0.000 C 
BRANCH   3   4
ATOM      4  C   UNL     1     -21.242  -1.195   7.506  1.00  0.00    -0.000 C 
BRANCH   4   5
ATOM      5  C   UNL     1     -20.554  -2.561   7.672  1.00  0.00    -0.000 C 
BRANCH   5   6
ATOM      6  C   UNL     1     -20.182  -2.897   9.132  1.00  0.00    -0.000 C 
BRANCH   6   7
ATOM      7  C   UNL     1     -20.699  -1.837  10.119  1.00  0.00    -0.000 C 
BRANCH   7   8
ATOM      8  C   UNL     1     -21.136  -2.434  11.469  1.00  0.00    -0.000 C 
BRANCH   8   9
ATOM      9  C   UNL     1     -20.723  -1.613  12.704  1.00  0.00    -0.000 C 
BRANCH   9  10
ATOM     10  C   UNL     1     -21.904  -0.874  13.352  1.00  0.00    -0.000 C 
BRANCH  10  11
ATOM     11  C   UNL     1     -21.650   0.634  13.493  1.00  0.00    -0.003 C 
ATOM     12  C   UNL     1     -21.802   1.383  12.168  1.00  0.00     0.004 C 
ENDBRANCH  10  11
ENDBRANCH   9  10
ENDBRANCH   8   9
ENDBRANCH   7   8
ENDBRANCH   6   7
ENDBRANCH   5   6
ENDBRANCH   4   5
ENDBRANCH   3   4
ENDBRANCH   2   3
ENDBRANCH   1   2
BRANCH   1  13
ATOM     13  C   UNL     1     -21.767   1.860   8.518  1.00  0.00     0.000 C 
BRANCH  13  14
ATOM     14  C   UNL     1     -22.458   3.100   9.114  1.00  0.00     0.000 C 
BRANCH  14  15
ATOM     15  C   UNL     1     -22.449   4.302   8.159  1.00  0.00     0.000 C 
BRANCH  15  16
ATOM     16  C   UNL     1     -22.146   5.602   8.915  1.00  0.00     0.000 C 
BRANCH  16  17
ATOM     17  C   UNL     1     -20.678   6.011   8.742  1.00  0.00     0.000 C 
BRANCH  17  18
ATOM     18  C   UNL     1     -20.022   6.284  10.104  1.00  0.00     0.000 C 
BRANCH  18  19
ATOM     19  C   UNL     1     -18.511   6.545   9.989  1.00  0.00     0.000 C 
BRANCH  19  20
ATOM     20  C   UNL     1     -18.195   8.010   9.638  1.00  0.00     0.006 C 
BRANCH  20  21
ATOM     21  C   UNL     1     -16.814   8.169   8.986  1.00  0.00     0.053 C 
BRANCH  21  22
ATOM     22  C   UNL     1     -15.964   9.168   9.709  1.00  0.00     0.041 C 
ATOM     23  O   UNL     1     -16.014   9.252  10.965  1.00  0.00    -0.550 OA
ATOM     24  O   UNL     1     -15.132  10.021   8.995  1.00  0.00    -0.550 OA
ENDBRANCH  21  22
ENDBRANCH  20  21
ENDBRANCH  19  20
ENDBRANCH  18  19
ENDBRANCH  17  18
ENDBRANCH  16  17
ENDBRANCH  15  16
ENDBRANCH  14  15
ENDBRANCH  13  14
ENDBRANCH   1  13
TORSDOF 20
ENDMDL
MODEL 3
REMARK VINA RESULT:    -0.802      3.296      8.781
REMARK INTER + INTRA:          -3.138
REMARK INTER:                  -1.505
REMARK INTRA:                  -1.633
REMARK UNBOUND:                -1.399
REMARK SMILES CCCCCCCCCCCCCCCCCCCCCC(=O)[O-]
REMARK SMILES IDX 12 1 11 2 10 3 9 4 8 5 7 6 6 7 5 8 4 9 3 10 2 11 1 12 13 13
REMARK SMILES IDX 14 14 15 15 16 16 17 17 18 18 19 19 20 20 21 21 22 22 23 23
REMARK SMILES IDX 24 24
REMARK H PARENT
REMARK Flexibility Score: inf
ROOT
ATOM      1  C   UNL     1     -20.440  -1.525   7.504  1.00  0.00     0.000 C 
ENDROOT
BRANCH   1   2
ATOM      2  C   UNL     1     -20.687  -1.879   8.985  1.00  0.00     0.000 C 
BRANCH   2   3
ATOM      3  C   UNL     1     -20.372  -3.336   9.373  1.00  0.00     0.000 C 
BRANCH   3   4
ATOM      4  C   UNL     1     -19.812  -4.160   8.204  1.00  0.00    -0.000 C 
BRANCH   4   5
ATOM      5  C   UNL     1     -20.153  -5.657   8.308  1.00  0.00    -0.000 C 
BRANCH   5   6
ATOM      6  C   UNL     1     -21.594  -5.999   7.876  1.00  0.00    -0.000 C 
BRANCH   6   7
ATOM      7  C   UNL     1     -22.386  -6.687   9.002  1.00  0.00    -0.000 C 
BRANCH   7   8
ATOM      8  C   UNL     1     -23.879  -6.858   8.670  1.00  0.00    -0.000 C 
BRANCH   8   9
ATOM      9  C   UNL     1     -24.240  -8.184   7.976  1.00  0.00    -0.000 C 
BRANCH   9  10
ATOM     10  C   UNL     1     -25.674  -8.195   7.422  1.00  0.00    -0.000 C 
BRANCH  10  11
ATOM     11  C   UNL     1     -26.376  -9.546   7.630  1.00  0.00    -0.003 C 
ATOM     12  C   UNL     1     -27.064  -9.647   8.992  1.00  0.00     0.004 C 
ENDBRANCH  10  11
ENDBRANCH   9  10
ENDBRANCH   8   9
ENDBRANCH   7   8
ENDBRANCH   6   7
ENDBRANCH   5   6
ENDBRANCH   4   5
ENDBRANCH   3   4
ENDBRANCH   2   3
ENDBRANCH   1   2
BRANCH   1  13
ATOM     13  C   UNL     1     -21.682  -1.047   6.724  1.00  0.00     0.000 C 
BRANCH  13  14
ATOM     14  C   UNL     1     -21.682   0.449   6.361  1.00  0.00     0.000 C 
BRANCH  14  15
ATOM     15  C   UNL     1     -20.966   1.314   7.407  1.00  0.00     0.000 C 
BRANCH  15  16
ATOM     16  C   UNL     1     -21.775   2.580   7.719  1.00  0.00     0.000 C 
BRANCH  16  17
ATOM     17  C   UNL     1     -22.334   2.539   9.147  1.00  0.00     0.000 C 
BRANCH  17  18
ATOM     18  C   UNL     1     -21.687   1.406   9.957  1.00  0.00     0.000 C 
BRANCH  18  19
ATOM     19  C   UNL     1     -22.489   1.052  11.221  1.00  0.00     0.000 C 
BRANCH  19  20
ATOM     20  C   UNL     1     -21.810   1.559  12.505  1.00  0.00     0.006 C 
BRANCH  20  21
ATOM     21  C   UNL     1     -20.886   0.504  13.131  1.00  0.00     0.053 C 
BRANCH  21  22
ATOM     22  C   UNL     1     -21.603  -0.785  13.393  1.00  0.00     0.041 C 
ATOM     23  O   UNL     1     -22.511  -0.838  14.264  1.00  0.00    -0.550 OA
ATOM     24  O   UNL     1     -21.253  -1.931  12.692  1.00  0.00    -0.550 OA
ENDBRANCH  21  22
ENDBRANCH  20  21
ENDBRANCH  19  20
ENDBRANCH  18  19
ENDBRANCH  17  18
ENDBRANCH  16  17
ENDBRANCH  15  16
ENDBRANCH  14  15
ENDBRANCH  13  14
ENDBRANCH   1  13
TORSDOF 20
ENDMDL
MODEL 4
REMARK VINA RESULT:    -0.746      5.405      7.906
REMARK INTER + INTRA:          -3.018
REMARK INTER:                  -1.534
REMARK INTRA:                  -1.484
REMARK UNBOUND:                -1.399
REMARK SMILES CCCCCCCCCCCCCCCCCCCCCC(=O)[O-]
REMARK SMILES IDX 12 1 11 2 10 3 9 4 8 5 7 6 6 7 5 8 4 9 3 10 2 11 1 12 13 13
REMARK SMILES IDX 14 14 15 15 16 16 17 17 18 18 19 19 20 20 21 21 22 22 23 23
REMARK SMILES IDX 24 24
REMARK H PARENT
REMARK Flexibility Score: inf
ROOT
ATOM      1  C   UNL     1     -22.275   1.188  11.020  1.00  0.00     0.000 C 
ENDROOT
BRANCH   1   2
ATOM      2  C   UNL     1     -21.748   2.143   9.929  1.00  0.00     0.000 C 
BRANCH   2   3
ATOM      3  C   UNL     1     -22.821   3.002   9.234  1.00  0.00     0.000 C 
BRANCH   3   4
ATOM      4  C   UNL     1     -22.223   4.076   8.311  1.00  0.00    -0.000 C 
BRANCH   4   5
ATOM      5  C   UNL     1     -22.084   5.446   8.996  1.00  0.00    -0.000 C 
BRANCH   5   6
ATOM      6  C   UNL     1     -20.705   6.106   8.794  1.00  0.00    -0.000 C 
BRANCH   6   7
ATOM      7  C   UNL     1     -19.993   6.380  10.131  1.00  0.00    -0.000 C 
BRANCH   7   8
ATOM      8  C   UNL     1     -18.478   6.594   9.974  1.00  0.00    -0.000 C 
BRANCH   8   9
ATOM      9  C   UNL     1     -18.064   8.019   9.567  1.00  0.00    -0.000 C 
BRANCH   9  10
ATOM     10  C   UNL     1     -16.618   8.096   9.050  1.00  0.00    -0.000 C 
BRANCH  10  11
ATOM     11  C   UNL     1     -15.884   9.355   9.536  1.00  0.00    -0.003 C 
ATOM     12  C   UNL     1     -15.680   9.368  11.052  1.00  0.00     0.004 C 
ENDBRANCH  10  11
ENDBRANCH   9  10
ENDBRANCH   8   9
ENDBRANCH   7   8
ENDBRANCH   6   7
ENDBRANCH   5   6
ENDBRANCH   4   5
ENDBRANCH   3   4
ENDBRANCH   2   3
ENDBRANCH   1   2
BRANCH   1  13
ATOM     13  C   UNL     1     -21.758   1.469  12.446  1.00  0.00     0.000 C 
BRANCH  13  14
ATOM     14  C   UNL     1     -21.994   0.330  13.455  1.00  0.00     0.000 C 
BRANCH  14  15
ATOM     15  C   UNL     1     -20.904  -0.748  13.400  1.00  0.00     0.000 C 
BRANCH  15  16
ATOM     16  C   UNL     1     -21.296  -1.877  12.438  1.00  0.00     0.000 C 
BRANCH  16  17
ATOM     17  C   UNL     1     -20.255  -2.039  11.324  1.00  0.00     0.000 C 
BRANCH  17  18
ATOM     18  C   UNL     1     -20.817  -1.565   9.976  1.00  0.00     0.000 C 
BRANCH  18  19
ATOM     19  C   UNL     1     -20.408  -2.481   8.810  1.00  0.00     0.000 C 
BRANCH  19  20
ATOM     20  C   UNL     1     -20.734  -1.863   7.439  1.00  0.00     0.006 C 
BRANCH  20  21
ATOM     21  C   UNL     1     -21.595  -0.598   7.559  1.00  0.00     0.053 C 
BRANCH  21  22
ATOM     22  C   UNL     1     -21.195   0.450   6.566  1.00  0.00     0.041 C 
ATOM     23  O   UNL     1     -21.699   0.455   5.412  1.00  0.00    -0.550 OA
ATOM     24  O   UNL     1     -20.248   1.407   6.908  1.00  0.00    -0.550 OA
ENDBRANCH  21  22
ENDBRANCH  20  21
ENDBRANCH  19  20
ENDBRANCH  18  19
ENDBRANCH  17  18
ENDBRANCH  16  17
ENDBRANCH  15  16
ENDBRANCH  14  15
ENDBRANCH  13  14
ENDBRANCH   1  13
TORSDOF 20
ENDMDL
MODEL 5
REMARK VINA RESULT:    -0.681      5.858      8.225
REMARK INTER + INTRA:          -2.876
REMARK INTER:                  -2.034
REMARK INTRA:                  -0.842
REMARK UNBOUND:                -1.399
REMARK SMILES CCCCCCCCCCCCCCCCCCCCCC(=O)[O-]
REMARK SMILES IDX 12 1 11 2 10 3 9 4 8 5 7 6 6 7 5 8 4 9 3 10 2 11 1 12 13 13
REMARK SMILES IDX 14 14 15 15 16 16 17 17 18 18 19 19 20 20 21 21 22 22 23 23
REMARK SMILES IDX 24 24
REMARK H PARENT
REMARK Flexibility Score: inf
ROOT
ATOM      1  C   UNL     1     -21.828   1.745   8.561  1.00  0.00     0.000 C 
ENDROOT
BRANCH   1   2
ATOM      2  C   UNL     1     -22.121   3.081   9.275  1.00  0.00     0.000 C 
BRANCH   2   3
ATOM      3  C   UNL     1     -22.701   4.192   8.379  1.00  0.00     0.000 C 
BRANCH   3   4
ATOM      4  C   UNL     1     -22.166   5.588   8.732  1.00  0.00    -0.000 C 
BRANCH   4   5
ATOM      5  C   UNL     1     -20.639   5.613   8.924  1.00  0.00    -0.000 C 
BRANCH   5   6
ATOM      6  C   UNL     1     -20.150   6.721   9.880  1.00  0.00    -0.000 C 
BRANCH   6   7
ATOM      7  C   UNL     1     -18.619   6.716  10.035  1.00  0.00    -0.000 C 
BRANCH   7   8
ATOM      8  C   UNL     1     -17.951   7.974   9.455  1.00  0.00    -0.000 C 
BRANCH   8   9
ATOM      9  C   UNL     1     -16.442   8.094   9.736  1.00  0.00    -0.000 C 
BRANCH   9  10
ATOM     10  C   UNL     1     -15.826   9.378   9.156  1.00  0.00    -0.000 C 
BRANCH  10  11
ATOM     11  C   UNL     1     -14.944  10.119  10.171  1.00  0.00    -0.003 C 
ATOM     12  C   UNL     1     -15.263   9.738  11.617  1.00  0.00     0.004 C 
ENDBRANCH  10  11
ENDBRANCH   9  10
ENDBRANCH   8   9
ENDBRANCH   7   8
ENDBRANCH   6   7
ENDBRANCH   5   6
ENDBRANCH   4   5
ENDBRANCH   3   4
ENDBRANCH   2   3
ENDBRANCH   1   2
BRANCH   1  13
ATOM     13  C   UNL     1     -21.209   1.872   7.154  1.00  0.00     0.000 C 
BRANCH  13  14
ATOM     14  C   UNL     1     -21.597   0.751   6.173  1.00  0.00     0.000 C 
BRANCH  14  15
ATOM     15  C   UNL     1     -20.559  -0.379   6.122  1.00  0.00     0.000 C 
BRANCH  15  16
ATOM     16  C   UNL     1     -21.017  -1.584   6.953  1.00  0.00     0.000 C 
BRANCH  16  17
ATOM     17  C   UNL     1     -20.828  -1.324   8.453  1.00  0.00     0.000 C 
BRANCH  17  18
ATOM     18  C   UNL     1     -20.349  -2.594   9.172  1.00  0.00     0.000 C 
BRANCH  18  19
ATOM     19  C   UNL     1     -21.017  -2.784  10.544  1.00  0.00     0.000 C 
BRANCH  19  20
ATOM     20  C   UNL     1     -20.582  -1.713  11.559  1.00  0.00     0.006 C 
BRANCH  20  21
ATOM     21  C   UNL     1     -21.460  -1.713  12.819  1.00  0.00     0.053 C 
BRANCH  21  22
ATOM     22  C   UNL     1     -21.442  -0.387  13.516  1.00  0.00     0.041 C 
ATOM     23  O   UNL     1     -21.831   0.649  12.915  1.00  0.00    -0.550 OA
ATOM     24  O   UNL     1     -20.976  -0.292  14.821  1.00  0.00    -0.550 OA
ENDBRANCH  21  22
ENDBRANCH  20  21
ENDBRANCH  19  20
ENDBRANCH  18  19
ENDBRANCH  17  18
ENDBRANCH  16  17
ENDBRANCH  15  16
ENDBRANCH  14  15
ENDBRANCH  13  14
ENDBRANCH   1  13
TORSDOF 20
ENDMDL
MODEL 6
REMARK VINA RESULT:    -0.654      7.418     11.950
REMARK INTER + INTRA:          -2.818
REMARK INTER:                  -1.030
REMARK INTRA:                  -1.788
REMARK UNBOUND:                -1.399
REMARK SMILES CCCCCCCCCCCCCCCCCCCCCC(=O)[O-]
REMARK SMILES IDX 12 1 11 2 10 3 9 4 8 5 7 6 6 7 5 8 4 9 3 10 2 11 1 12 13 13
REMARK SMILES IDX 14 14 15 15 16 16 17 17 18 18 19 19 20 20 21 21 22 22 23 23
REMARK SMILES IDX 24 24
REMARK H PARENT
REMARK Flexibility Score: inf
ROOT
ATOM      1  C   UNL     1     -21.812   1.484  10.427  1.00  0.00     0.000 C 
ENDROOT
BRANCH   1   2
ATOM      2  C   UNL     1     -22.479   1.169  11.782  1.00  0.00     0.000 C 
BRANCH   2   3
ATOM      3  C   UNL     1     -21.598   1.416  13.021  1.00  0.00     0.000 C 
BRANCH   3   4
ATOM      4  C   UNL     1     -21.133   0.116  13.694  1.00  0.00    -0.000 C 
BRANCH   4   5
ATOM      5  C   UNL     1     -21.683  -1.145  13.005  1.00  0.00    -0.000 C 
BRANCH   5   6
ATOM      6  C   UNL     1     -20.628  -1.917  12.184  1.00  0.00    -0.000 C 
BRANCH   6   7
ATOM      7  C   UNL     1     -21.158  -2.319  10.796  1.00  0.00    -0.000 C 
BRANCH   7   8
ATOM      8  C   UNL     1     -20.253  -1.846   9.646  1.00  0.00    -0.000 C 
BRANCH   8   9
ATOM      9  C   UNL     1     -20.378  -2.662   8.346  1.00  0.00    -0.000 C 
BRANCH   9  10
ATOM     10  C   UNL     1     -20.991  -1.853   7.191  1.00  0.00    -0.000 C 
BRANCH  10  11
ATOM     11  C   UNL     1     -21.133  -0.361   7.526  1.00  0.00    -0.003 C 
ATOM     12  C   UNL     1     -21.103   0.527   6.282  1.00  0.00     0.004 C 
ENDBRANCH  10  11
ENDBRANCH   9  10
ENDBRANCH   8   9
ENDBRANCH   7   8
ENDBRANCH   6   7
ENDBRANCH   5   6
ENDBRANCH   4   5
ENDBRANCH   3   4
ENDBRANCH   2   3
ENDBRANCH   1   2
BRANCH   1  13
ATOM     13  C   UNL     1     -22.660   2.334   9.458  1.00  0.00     0.000 C 
BRANCH  13  14
ATOM     14  C   UNL     1     -21.858   3.334   8.604  1.00  0.00     0.000 C 
BRANCH  14  15
ATOM     15  C   UNL     1     -22.640   4.620   8.305  1.00  0.00     0.000 C 
BRANCH  15  16
ATOM     16  C   UNL     1     -22.118   5.789   9.149  1.00  0.00     0.000 C 
BRANCH  16  17
ATOM     17  C   UNL     1     -20.624   6.027   8.900  1.00  0.00     0.000 C 
BRANCH  17  18
ATOM     18  C   UNL     1     -19.893   6.344  10.213  1.00  0.00     0.000 C 
BRANCH  18  19
ATOM     19  C   UNL     1     -18.406   6.670   9.997  1.00  0.00     0.000 C 
BRANCH  19  20
ATOM     20  C   UNL     1     -18.182   8.138   9.593  1.00  0.00     0.006 C 
BRANCH  20  21
ATOM     21  C   UNL     1     -16.805   8.362   8.952  1.00  0.00     0.053 C 
BRANCH  21  22
ATOM     22  C   UNL     1     -15.910   9.194   9.820  1.00  0.00     0.041 C 
ATOM     23  O   UNL     1     -16.005   9.127  11.074  1.00  0.00    -0.550 OA
ATOM     24  O   UNL     1     -14.988  10.057   9.244  1.00  0.00    -0.550 OA
ENDBRANCH  21  22
ENDBRANCH  20  21
ENDBRANCH  19  20
ENDBRANCH  18  19
ENDBRANCH  17  18
ENDBRANCH  16  17
ENDBRANCH  15  16
ENDBRANCH  14  15
ENDBRANCH  13  14
ENDBRANCH   1  13
TORSDOF 20
ENDMDL
MODEL 7
REMARK VINA RESULT:    -0.590      5.595      7.995
REMARK INTER + INTRA:          -2.679
REMARK INTER:                  -1.888
REMARK INTRA:                  -0.792
REMARK UNBOUND:                -1.399
REMARK SMILES CCCCCCCCCCCCCCCCCCCCCC(=O)[O-]
REMARK SMILES IDX 12 1 11 2 10 3 9 4 8 5 7 6 6 7 5 8 4 9 3 10 2 11 1 12 13 13
REMARK SMILES IDX 14 14 15 15 16 16 17 17 18 18 19 19 20 20 21 21 22 22 23 23
REMARK SMILES IDX 24 24
REMARK H PARENT
REMARK Flexibility Score: inf
ROOT
ATOM      1  C   UNL     1     -21.390   1.912   7.266  1.00  0.00     0.000 C 
ENDROOT
BRANCH   1   2
ATOM      2  C   UNL     1     -21.823   1.947   8.746  1.00  0.00     0.000 C 
BRANCH   2   3
ATOM      3  C   UNL     1     -22.688   3.155   9.150  1.00  0.00     0.000 C 
BRANCH   3   4
ATOM      4  C   UNL     1     -22.366   4.420   8.339  1.00  0.00    -0.000 C 
BRANCH   4   5
ATOM      5  C   UNL     1     -21.914   5.598   9.220  1.00  0.00    -0.000 C 
BRANCH   5   6
ATOM      6  C   UNL     1     -20.673   6.340   8.680  1.00  0.00    -0.000 C 
BRANCH   6   7
ATOM      7  C   UNL     1     -19.596   6.528   9.762  1.00  0.00    -0.000 C 
BRANCH   7   8
ATOM      8  C   UNL     1     -18.663   7.719   9.482  1.00  0.00    -0.000 C 
BRANCH   8   9
ATOM      9  C   UNL     1     -17.189   7.491   9.864  1.00  0.00    -0.000 C 
BRANCH   9  10
ATOM     10  C   UNL     1     -16.216   8.315   9.005  1.00  0.00    -0.000 C 
BRANCH  10  11
ATOM     11  C   UNL     1     -15.814   9.637   9.674  1.00  0.00    -0.003 C 
ATOM     12  C   UNL     1     -15.360   9.451  11.122  1.00  0.00     0.004 C 
ENDBRANCH  10  11
ENDBRANCH   9  10
ENDBRANCH   8   9
ENDBRANCH   7   8
ENDBRANCH   6   7
ENDBRANCH   5   6
ENDBRANCH   4   5
ENDBRANCH   3   4
ENDBRANCH   2   3
ENDBRANCH   1   2
BRANCH   1  13
ATOM     13  C   UNL     1     -20.301   0.875   6.922  1.00  0.00     0.000 C 
BRANCH  13  14
ATOM     14  C   UNL     1     -20.771  -0.282   6.022  1.00  0.00     0.000 C 
BRANCH  14  15
ATOM     15  C   UNL     1     -20.973  -1.592   6.795  1.00  0.00     0.000 C 
BRANCH  15  16
ATOM     16  C   UNL     1     -20.945  -1.347   8.309  1.00  0.00     0.000 C 
BRANCH  16  17
ATOM     17  C   UNL     1     -20.364  -2.555   9.053  1.00  0.00     0.000 C 
BRANCH  17  18
ATOM     18  C   UNL     1     -19.841  -2.146  10.439  1.00  0.00     0.000 C 
BRANCH  18  19
ATOM     19  C   UNL     1     -20.925  -1.484  11.307  1.00  0.00     0.000 C 
BRANCH  19  20
ATOM     20  C   UNL     1     -21.216  -2.284  12.589  1.00  0.00     0.006 C 
BRANCH  20  21
ATOM     21  C   UNL     1     -22.058  -1.486  13.595  1.00  0.00     0.053 C 
BRANCH  21  22
ATOM     22  C   UNL     1     -21.464  -0.141  13.881  1.00  0.00     0.041 C 
ATOM     23  O   UNL     1     -20.732   0.026  14.892  1.00  0.00    -0.550 OA
ATOM     24  O   UNL     1     -21.738   0.934  13.044  1.00  0.00    -0.550 OA
ENDBRANCH  21  22
ENDBRANCH  20  21
ENDBRANCH  19  20
ENDBRANCH  18  19
ENDBRANCH  17  18
ENDBRANCH  16  17
ENDBRANCH  15  16
ENDBRANCH  14  15
ENDBRANCH  13  14
ENDBRANCH   1  13
TORSDOF 20
ENDMDL
MODEL 8
REMARK VINA RESULT:    -0.534      3.449      8.889
REMARK INTER + INTRA:          -2.556
REMARK INTER:                  -1.062
REMARK INTRA:                  -1.494
REMARK UNBOUND:                -1.399
REMARK SMILES CCCCCCCCCCCCCCCCCCCCCC(=O)[O-]
REMARK SMILES IDX 12 1 11 2 10 3 9 4 8 5 7 6 6 7 5 8 4 9 3 10 2 11 1 12 13 13
REMARK SMILES IDX 14 14 15 15 16 16 17 17 18 18 19 19 20 20 21 21 22 22 23 23
REMARK SMILES IDX 24 24
REMARK H PARENT
REMARK Flexibility Score: inf
ROOT
ATOM      1  C   UNL     1     -20.118  -2.327  10.832  1.00  0.00     0.000 C 
ENDROOT
BRANCH   1   2
ATOM      2  C   UNL     1     -20.410  -1.936   9.368  1.00  0.00     0.000 C 
BRANCH   2   3
ATOM      3  C   UNL     1     -20.663  -3.116   8.410  1.00  0.00     0.000 C 
BRANCH   3   4
ATOM      4  C   UNL     1     -19.545  -4.169   8.450  1.00  0.00    -0.000 C 
BRANCH   4   5
ATOM      5  C   UNL     1     -20.075  -5.609   8.342  1.00  0.00    -0.000 C 
BRANCH   5   6
ATOM      6  C   UNL     1     -21.564  -5.697   7.946  1.00  0.00    -0.000 C 
BRANCH   6   7
ATOM      7  C   UNL     1     -22.310  -6.783   8.741  1.00  0.00    -0.000 C 
BRANCH   7   8
ATOM      8  C   UNL     1     -23.788  -6.917   8.336  1.00  0.00    -0.000 C 
BRANCH   8   9
ATOM      9  C   UNL     1     -24.285  -8.364   8.163  1.00  0.00    -0.000 C 
BRANCH   9  10
ATOM     10  C   UNL     1     -25.710  -8.442   7.592  1.00  0.00    -0.000 C 
BRANCH  10  11
ATOM     11  C   UNL     1     -26.425  -9.748   7.968  1.00  0.00    -0.003 C 
ATOM     12  C   UNL     1     -27.524 -10.124   6.975  1.00  0.00     0.004 C 
ENDBRANCH  10  11
ENDBRANCH   9  10
ENDBRANCH   8   9
ENDBRANCH   7   8
ENDBRANCH   6   7
ENDBRANCH   5   6
ENDBRANCH   4   5
ENDBRANCH   3   4
ENDBRANCH   2   3
ENDBRANCH   1   2
BRANCH   1  13
ATOM     13  C   UNL     1     -21.278  -2.087  11.821  1.00  0.00     0.000 C 
BRANCH  13  14
ATOM     14  C   UNL     1     -20.905  -1.263  13.066  1.00  0.00     0.000 C 
BRANCH  14  15
ATOM     15  C   UNL     1     -21.923  -0.157  13.374  1.00  0.00     0.000 C 
BRANCH  15  16
ATOM     16  C   UNL     1     -21.506   1.169  12.727  1.00  0.00     0.000 C 
BRANCH  16  17
ATOM     17  C   UNL     1     -22.442   1.538  11.570  1.00  0.00     0.000 C 
BRANCH  17  18
ATOM     18  C   UNL     1     -21.726   1.395  10.218  1.00  0.00     0.000 C 
BRANCH  18  19
ATOM     19  C   UNL     1     -22.400   2.213   9.104  1.00  0.00     0.000 C 
BRANCH  19  20
ATOM     20  C   UNL     1     -21.578   2.216   7.803  1.00  0.00     0.006 C 
BRANCH  20  21
ATOM     21  C   UNL     1     -20.784   0.916   7.612  1.00  0.00     0.053 C 
BRANCH  21  22
ATOM     22  C   UNL     1     -21.134   0.228   6.328  1.00  0.00     0.041 C 
ATOM     23  O   UNL     1     -22.075   0.663   5.613  1.00  0.00    -0.550 OA
ATOM     24  O   UNL     1     -20.435  -0.905   5.932  1.00  0.00    -0.550 OA
ENDBRANCH  21  22
ENDBRANCH  20  21
ENDBRANCH  19  20
ENDBRANCH  18  19
ENDBRANCH  17  18
ENDBRANCH  16  17
ENDBRANCH  15  16
ENDBRANCH  14  15
ENDBRANCH  13  14
ENDBRANCH   1  13
TORSDOF 20
ENDMDL
MODEL 9
REMARK VINA RESULT:    -0.489      5.126      7.721
REMARK INTER + INTRA:          -2.459
REMARK INTER:                  -1.343
REMARK INTRA:                  -1.115
REMARK UNBOUND:                -1.399
REMARK SMILES CCCCCCCCCCCCCCCCCCCCCC(=O)[O-]
REMARK SMILES IDX 12 1 11 2 10 3 9 4 8 5 7 6 6 7 5 8 4 9 3 10 2 11 1 12 13 13
REMARK SMILES IDX 14 14 15 15 16 16 17 17 18 18 19 19 20 20 21 21 22 22 23 23
REMARK SMILES IDX 24 24
REMARK H PARENT
REMARK Flexibility Score: inf
ROOT
ATOM      1  C   UNL     1     -21.613   0.858   6.194  1.00  0.00     0.000 C 
ENDROOT
BRANCH   1   2
ATOM      2  C   UNL     1     -21.278   1.969   7.211  1.00  0.00     0.000 C 
BRANCH   2   3
ATOM      3  C   UNL     1     -21.883   1.779   8.615  1.00  0.00     0.000 C 
BRANCH   3   4
ATOM      4  C   UNL     1     -22.456   3.078   9.202  1.00  0.00    -0.000 C 
BRANCH   4   5
ATOM      5  C   UNL     1     -22.488   4.232   8.184  1.00  0.00    -0.000 C 
BRANCH   5   6
ATOM      6  C   UNL     1     -22.231   5.620   8.807  1.00  0.00    -0.000 C 
BRANCH   6   7
ATOM      7  C   UNL     1     -20.744   6.010   8.757  1.00  0.00    -0.000 C 
BRANCH   7   8
ATOM      8  C   UNL     1     -20.106   6.133  10.151  1.00  0.00    -0.000 C 
BRANCH   8   9
ATOM      9  C   UNL     1     -18.622   6.541  10.151  1.00  0.00    -0.000 C 
BRANCH   9  10
ATOM     10  C   UNL     1     -18.380   7.914   9.502  1.00  0.00    -0.000 C 
BRANCH  10  11
ATOM     11  C   UNL     1     -16.914   8.123   9.095  1.00  0.00    -0.003 C 
ATOM     12  C   UNL     1     -16.180   9.095  10.020  1.00  0.00     0.004 C 
ENDBRANCH  10  11
ENDBRANCH   9  10
ENDBRANCH   8   9
ENDBRANCH   7   8
ENDBRANCH   6   7
ENDBRANCH   5   6
ENDBRANCH   4   5
ENDBRANCH   3   4
ENDBRANCH   2   3
ENDBRANCH   1   2
BRANCH   1  13
ATOM     13  C   UNL     1     -20.593  -0.298   6.123  1.00  0.00     0.000 C 
BRANCH  13  14
ATOM     14  C   UNL     1     -21.022  -1.584   6.853  1.00  0.00     0.000 C 
BRANCH  14  15
ATOM     15  C   UNL     1     -20.942  -1.454   8.381  1.00  0.00     0.000 C 
BRANCH  15  16
ATOM     16  C   UNL     1     -20.231  -2.665   8.999  1.00  0.00     0.000 C 
BRANCH  16  17
ATOM     17  C   UNL     1     -19.646  -2.319  10.373  1.00  0.00     0.000 C 
BRANCH  17  18
ATOM     18  C   UNL     1     -20.623  -1.452  11.182  1.00  0.00     0.000 C 
BRANCH  18  19
ATOM     19  C   UNL     1     -20.985  -2.080  12.538  1.00  0.00     0.000 C 
BRANCH  19  20
ATOM     20  C   UNL     1     -22.009  -1.237  13.319  1.00  0.00     0.006 C 
BRANCH  20  21
ATOM     21  C   UNL     1     -21.394   0.051  13.884  1.00  0.00     0.053 C 
BRANCH  21  22
ATOM     22  C   UNL     1     -21.645   1.230  12.994  1.00  0.00     0.041 C 
ATOM     23  O   UNL     1     -21.060   2.324  13.212  1.00  0.00    -0.550 OA
ATOM     24  O   UNL     1     -22.543   1.128  11.939  1.00  0.00    -0.550 OA
ENDBRANCH  21  22
ENDBRANCH  20  21
ENDBRANCH  19  20
ENDBRANCH  18  19
ENDBRANCH  17  18
ENDBRANCH  16  17
ENDBRANCH  15  16
ENDBRANCH  14  15
ENDBRANCH  13  14
ENDBRANCH   1  13
TORSDOF 20
ENDMDL
