MODEL 1
REMARK VINA RESULT:    -6.370      0.000      0.000
REMARK INTER + INTRA:          -7.627
REMARK INTER:                  -7.487
REMARK INTRA:                  -0.140
REMARK UNBOUND:                -0.140
REMARK SMILES O=c1c(O)c(-c2ccc(O)cc2)oc2cc(O)cc(O)c12
REMARK SMILES IDX 5 1 3 2 2 3 1 4 21 5 19 6 18 7 16 8 15 9 14 10 13 11 6 12
REMARK SMILES IDX 7 13 8 14 9 15 12 16 11 17 10 18 4 20 20 22 17 24
REMARK H PARENT 10 19 4 21 20 23 17 25
REMARK Flexibility Score: inf
ROOT
ATOM      1  C   UNL     1      30.832 -91.891  37.401  1.00  0.00     0.180 A 
ATOM      2  C   UNL     1      29.590 -92.486  37.109  1.00  0.00     0.208 A 
ATOM      3  C   UNL     1      29.435 -93.867  37.311  1.00  0.00     0.238 A 
ATOM      4  O   UNL     1      28.323 -94.409  37.065  1.00  0.00    -0.285 OA
ATOM      5  C   UNL     1      30.525 -94.629  37.779  1.00  0.00     0.111 A 
ATOM      6  C   UNL     1      30.453 -96.025  38.005  1.00  0.00     0.134 A 
ATOM      7  C   UNL     1      31.586 -96.715  38.462  1.00  0.00     0.093 A 
ATOM      8  C   UNL     1      32.787 -96.036  38.696  1.00  0.00     0.123 A 
ATOM      9  C   UNL     1      32.862 -94.660  38.476  1.00  0.00     0.094 A 
ATOM     10  C   UNL     1      31.745 -93.954  38.022  1.00  0.00     0.146 A 
ATOM     11  O   UNL     1      31.842 -92.644  37.826  1.00  0.00    -0.452 OA
ENDROOT
BRANCH   1  12
ATOM     12  C   UNL     1      31.068 -90.439  37.232  1.00  0.00     0.021 A 
ATOM     13  C   UNL     1      32.070 -89.999  36.351  1.00  0.00     0.016 A 
ATOM     14  C   UNL     1      32.325 -88.633  36.193  1.00  0.00     0.047 A 
ATOM     15  C   UNL     1      31.591 -87.691  36.925  1.00  0.00     0.115 A 
ATOM     16  C   UNL     1      30.348 -89.487  37.978  1.00  0.00     0.016 A 
ATOM     17  C   UNL     1      30.606 -88.123  37.819  1.00  0.00     0.047 A 
BRANCH  15  18
ATOM     18  O   UNL     1      31.835 -86.328  36.776  1.00  0.00    -0.508 OA
ATOM     19  H   UNL     1      31.935 -85.717  37.578  1.00  0.00     0.293 HD
ENDBRANCH  15  18
ENDBRANCH   1  12
BRANCH   2  20
ATOM     20  O   UNL     1      28.540 -91.717  36.601  1.00  0.00    -0.502 OA
ATOM     21  H   UNL     1      28.324 -90.792  36.955  1.00  0.00     0.293 HD
ENDBRANCH   2  20
BRANCH   6  22
ATOM     22  O   UNL     1      29.270 -96.729  37.778  1.00  0.00    -0.507 OA
ATOM     23  H   UNL     1      28.986 -97.500  38.373  1.00  0.00     0.293 HD
ENDBRANCH   6  22
BRANCH   8  24
ATOM     24  O   UNL     1      33.913 -96.721  39.150  1.00  0.00    -0.508 OA
ATOM     25  H   UNL     1      34.533 -97.205  38.511  1.00  0.00     0.293 HD
ENDBRANCH   8  24
TORSDOF 5
ENDMDL
MODEL 2
REMARK VINA RESULT:    -5.834      9.458     10.789
REMARK INTER + INTRA:          -6.997
REMARK INTER:                  -6.747
REMARK INTRA:                  -0.250
REMARK UNBOUND:                -0.140
REMARK SMILES O=c1c(O)c(-c2ccc(O)cc2)oc2cc(O)cc(O)c12
REMARK SMILES IDX 5 1 3 2 2 3 1 4 21 5 19 6 18 7 16 8 15 9 14 10 13 11 6 12
REMARK SMILES IDX 7 13 8 14 9 15 12 16 11 17 10 18 4 20 20 22 17 24
REMARK H PARENT 10 19 4 21 20 23 17 25
REMARK Flexibility Score: inf
ROOT
ATOM      1  C   UNL     1      36.142 -95.267  29.868  1.00  0.00     0.180 A 
ATOM      2  C   UNL     1      37.209 -95.632  29.025  1.00  0.00     0.208 A 
ATOM      3  C   UNL     1      38.510 -95.663  29.551  1.00  0.00     0.238 A 
ATOM      4  O   UNL     1      39.472 -96.001  28.808  1.00  0.00    -0.285 OA
ATOM      5  C   UNL     1      38.725 -95.311  30.899  1.00  0.00     0.111 A 
ATOM      6  C   UNL     1      40.005 -95.313  31.505  1.00  0.00     0.134 A 
ATOM      7  C   UNL     1      40.138 -94.938  32.851  1.00  0.00     0.093 A 
ATOM      8  C   UNL     1      39.017 -94.563  33.600  1.00  0.00     0.123 A 
ATOM      9  C   UNL     1      37.754 -94.561  33.007  1.00  0.00     0.094 A 
ATOM     10  C   UNL     1      37.599 -94.932  31.668  1.00  0.00     0.146 A 
ATOM     11  O   UNL     1      36.385 -94.925  31.130  1.00  0.00    -0.452 OA
ENDROOT
BRANCH   1  12
ATOM     12  C   UNL     1      34.741 -95.228  29.393  1.00  0.00     0.021 A 
ATOM     13  C   UNL     1      33.883 -96.302  29.682  1.00  0.00     0.016 A 
ATOM     14  C   UNL     1      32.562 -96.296  29.224  1.00  0.00     0.047 A 
ATOM     15  C   UNL     1      32.087 -95.225  28.457  1.00  0.00     0.115 A 
ATOM     16  C   UNL     1      34.262 -94.164  28.605  1.00  0.00     0.016 A 
ATOM     17  C   UNL     1      32.942 -94.162  28.147  1.00  0.00     0.047 A 
BRANCH  15  18
ATOM     18  O   UNL     1      30.773 -95.208  27.995  1.00  0.00    -0.508 OA
ATOM     19  H   UNL     1      30.256 -94.342  27.899  1.00  0.00     0.293 HD
ENDBRANCH  15  18
ENDBRANCH   1  12
BRANCH   2  20
ATOM     20  O   UNL     1      36.975 -95.930  27.680  1.00  0.00    -0.502 OA
ATOM     21  H   UNL     1      37.602 -95.632  26.941  1.00  0.00     0.293 HD
ENDBRANCH   2  20
BRANCH   6  22
ATOM     22  O   UNL     1      41.141 -95.680  30.783  1.00  0.00    -0.507 OA
ATOM     23  H   UNL     1      41.174 -96.536  30.240  1.00  0.00     0.293 HD
ENDBRANCH   6  22
BRANCH   8  24
ATOM     24  O   UNL     1      39.149 -94.192  34.936  1.00  0.00    -0.508 OA
ATOM     25  H   UNL     1      40.053 -93.980  35.342  1.00  0.00     0.293 HD
ENDBRANCH   8  24
TORSDOF 5
ENDMDL
MODEL 3
REMARK VINA RESULT:    -5.582      9.470     11.039
REMARK INTER + INTRA:          -6.700
REMARK INTER:                  -6.554
REMARK INTRA:                  -0.147
REMARK UNBOUND:                -0.140
REMARK SMILES O=c1c(O)c(-c2ccc(O)cc2)oc2cc(O)cc(O)c12
REMARK SMILES IDX 5 1 3 2 2 3 1 4 21 5 19 6 18 7 16 8 15 9 14 10 13 11 6 12
REMARK SMILES IDX 7 13 8 14 9 15 12 16 11 17 10 18 4 20 20 22 17 24
REMARK H PARENT 10 19 4 21 20 23 17 25
REMARK Flexibility Score: inf
ROOT
ATOM      1  C   UNL     1      37.495 -95.364  30.981  1.00  0.00     0.180 A 
ATOM      2  C   UNL     1      38.117 -96.050  29.920  1.00  0.00     0.208 A 
ATOM      3  C   UNL     1      37.426 -96.191  28.706  1.00  0.00     0.238 A 
ATOM      4  O   UNL     1      37.977 -96.793  27.744  1.00  0.00    -0.285 OA
ATOM      5  C   UNL     1      36.124 -95.665  28.580  1.00  0.00     0.111 A 
ATOM      6  C   UNL     1      35.358 -95.768  27.393  1.00  0.00     0.134 A 
ATOM      7  C   UNL     1      34.065 -95.226  27.351  1.00  0.00     0.093 A 
ATOM      8  C   UNL     1      33.523 -94.586  28.471  1.00  0.00     0.123 A 
ATOM      9  C   UNL     1      34.274 -94.481  29.642  1.00  0.00     0.094 A 
ATOM     10  C   UNL     1      35.566 -95.012  29.705  1.00  0.00     0.146 A 
ATOM     11  O   UNL     1      36.260 -94.895  30.831  1.00  0.00    -0.452 OA
ENDROOT
BRANCH   1  12
ATOM     12  C   UNL     1      38.166 -95.158  32.285  1.00  0.00     0.021 A 
ATOM     13  C   UNL     1      37.587 -95.685  33.451  1.00  0.00     0.016 A 
ATOM     14  C   UNL     1      38.192 -95.483  34.695  1.00  0.00     0.047 A 
ATOM     15  C   UNL     1      39.374 -94.739  34.791  1.00  0.00     0.115 A 
ATOM     16  C   UNL     1      39.344 -94.395  32.391  1.00  0.00     0.016 A 
ATOM     17  C   UNL     1      39.945 -94.194  33.637  1.00  0.00     0.047 A 
BRANCH  15  18
ATOM     18  O   UNL     1      39.986 -94.532  36.025  1.00  0.00    -0.508 OA
ATOM     19  H   UNL     1      39.472 -94.160  36.815  1.00  0.00     0.293 HD
ENDBRANCH  15  18
ENDBRANCH   1  12
BRANCH   2  20
ATOM     20  O   UNL     1      39.389 -96.604  30.086  1.00  0.00    -0.502 OA
ATOM     21  H   UNL     1      39.808 -97.216  29.396  1.00  0.00     0.293 HD
ENDBRANCH   2  20
BRANCH   6  22
ATOM     22  O   UNL     1      35.871 -96.402  26.261  1.00  0.00    -0.507 OA
ATOM     23  H   UNL     1      35.378 -97.164  25.807  1.00  0.00     0.293 HD
ENDBRANCH   6  22
BRANCH   8  24
ATOM     24  O   UNL     1      32.238 -94.048  28.429  1.00  0.00    -0.508 OA
ATOM     25  H   UNL     1      31.530 -94.314  29.103  1.00  0.00     0.293 HD
ENDBRANCH   8  24
TORSDOF 5
ENDMDL
MODEL 4
REMARK VINA RESULT:    -5.463      7.806     10.343
REMARK INTER + INTRA:          -6.561
REMARK INTER:                  -6.315
REMARK INTRA:                  -0.246
REMARK UNBOUND:                -0.140
REMARK SMILES O=c1c(O)c(-c2ccc(O)cc2)oc2cc(O)cc(O)c12
REMARK SMILES IDX 5 1 3 2 2 3 1 4 21 5 19 6 18 7 16 8 15 9 14 10 13 11 6 12
REMARK SMILES IDX 7 13 8 14 9 15 12 16 11 17 10 18 4 20 20 22 17 24
REMARK H PARENT 10 19 4 21 20 23 17 25
REMARK Flexibility Score: inf
ROOT
ATOM      1  C   UNL     1      39.796 -95.372  35.223  1.00  0.00     0.180 A 
ATOM      2  C   UNL     1      40.815 -94.969  36.107  1.00  0.00     0.208 A 
ATOM      3  C   UNL     1      40.589 -95.059  37.490  1.00  0.00     0.238 A 
ATOM      4  O   UNL     1      41.499 -94.713  38.292  1.00  0.00    -0.285 OA
ATOM      5  C   UNL     1      39.347 -95.530  37.964  1.00  0.00     0.111 A 
ATOM      6  C   UNL     1      39.037 -95.648  39.340  1.00  0.00     0.134 A 
ATOM      7  C   UNL     1      37.773 -96.115  39.731  1.00  0.00     0.093 A 
ATOM      8  C   UNL     1      36.815 -96.466  38.773  1.00  0.00     0.123 A 
ATOM      9  C   UNL     1      37.116 -96.352  37.416  1.00  0.00     0.094 A 
ATOM     10  C   UNL     1      38.370 -95.890  37.004  1.00  0.00     0.146 A 
ATOM     11  O   UNL     1      38.631 -95.796  35.706  1.00  0.00    -0.452 OA
ENDROOT
BRANCH   1  12
ATOM     12  C   UNL     1      39.965 -95.323  33.753  1.00  0.00     0.021 A 
ATOM     13  C   UNL     1      39.282 -94.345  33.011  1.00  0.00     0.016 A 
ATOM     14  C   UNL     1      39.411 -94.296  31.619  1.00  0.00     0.047 A 
ATOM     15  C   UNL     1      40.209 -95.232  30.951  1.00  0.00     0.115 A 
ATOM     16  C   UNL     1      40.750 -96.273  33.073  1.00  0.00     0.016 A 
ATOM     17  C   UNL     1      40.874 -96.221  31.682  1.00  0.00     0.047 A 
BRANCH  15  18
ATOM     18  O   UNL     1      40.345 -95.192  29.566  1.00  0.00    -0.508 OA
ATOM     19  H   UNL     1      41.215 -94.915  29.126  1.00  0.00     0.293 HD
ENDBRANCH  15  18
ENDBRANCH   1  12
BRANCH   2  20
ATOM     20  O   UNL     1      42.018 -94.460  35.613  1.00  0.00    -0.502 OA
ATOM     21  H   UNL     1      42.208 -93.466  35.564  1.00  0.00     0.293 HD
ENDBRANCH   2  20
BRANCH   6  22
ATOM     22  O   UNL     1      39.971 -95.305  40.318  1.00  0.00    -0.507 OA
ATOM     23  H   UNL     1      40.526 -96.007  40.795  1.00  0.00     0.293 HD
ENDBRANCH   6  22
BRANCH   8  24
ATOM     24  O   UNL     1      35.560 -96.930  39.162  1.00  0.00    -0.508 OA
ATOM     25  H   UNL     1      35.407 -97.347  40.073  1.00  0.00     0.293 HD
ENDBRANCH   8  24
TORSDOF 5
ENDMDL
MODEL 5
REMARK VINA RESULT:    -5.106     15.525     16.711
REMARK INTER + INTRA:          -6.141
REMARK INTER:                  -5.895
REMARK INTRA:                  -0.246
REMARK UNBOUND:                -0.140
REMARK SMILES O=c1c(O)c(-c2ccc(O)cc2)oc2cc(O)cc(O)c12
REMARK SMILES IDX 5 1 3 2 2 3 1 4 21 5 19 6 18 7 16 8 15 9 14 10 13 11 6 12
REMARK SMILES IDX 7 13 8 14 9 15 12 16 11 17 10 18 4 20 20 22 17 24
REMARK H PARENT 10 19 4 21 20 23 17 25
REMARK Flexibility Score: inf
ROOT
ATOM      1  C   UNL     1      36.903 -77.777  37.994  1.00  0.00     0.180 A 
ATOM      2  C   UNL     1      37.323 -77.796  36.650  1.00  0.00     0.208 A 
ATOM      3  C   UNL     1      36.365 -77.630  35.637  1.00  0.00     0.238 A 
ATOM      4  O   UNL     1      36.731 -77.633  34.430  1.00  0.00    -0.285 OA
ATOM      5  C   UNL     1      35.007 -77.470  35.982  1.00  0.00     0.111 A 
ATOM      6  C   UNL     1      33.979 -77.301  35.023  1.00  0.00     0.134 A 
ATOM      7  C   UNL     1      32.649 -77.158  35.447  1.00  0.00     0.093 A 
ATOM      8  C   UNL     1      32.329 -77.181  36.809  1.00  0.00     0.123 A 
ATOM      9  C   UNL     1      33.339 -77.346  37.757  1.00  0.00     0.094 A 
ATOM     10  C   UNL     1      34.670 -77.489  37.357  1.00  0.00     0.146 A 
ATOM     11  O   UNL     1      35.612 -77.640  38.281  1.00  0.00    -0.452 OA
ENDROOT
BRANCH   1  12
ATOM     12  C   UNL     1      37.855 -77.927  39.118  1.00  0.00     0.021 A 
ATOM     13  C   UNL     1      37.871 -79.123  39.856  1.00  0.00     0.016 A 
ATOM     14  C   UNL     1      38.747 -79.277  40.935  1.00  0.00     0.047 A 
ATOM     15  C   UNL     1      39.606 -78.232  41.300  1.00  0.00     0.115 A 
ATOM     16  C   UNL     1      38.707 -76.875  39.503  1.00  0.00     0.016 A 
ATOM     17  C   UNL     1      39.580 -77.032  40.583  1.00  0.00     0.047 A 
BRANCH  15  18
ATOM     18  O   UNL     1      40.482 -78.374  42.373  1.00  0.00    -0.508 OA
ATOM     19  H   UNL     1      40.163 -78.701  43.277  1.00  0.00     0.293 HD
ENDBRANCH  15  18
ENDBRANCH   1  12
BRANCH   2  20
ATOM     20  O   UNL     1      38.667 -78.005  36.333  1.00  0.00    -0.502 OA
ATOM     21  H   UNL     1      39.322 -78.414  36.990  1.00  0.00     0.293 HD
ENDBRANCH   2  20
BRANCH   6  22
ATOM     22  O   UNL     1      34.268 -77.276  33.658  1.00  0.00    -0.507 OA
ATOM     23  H   UNL     1      33.592 -76.950  32.976  1.00  0.00     0.293 HD
ENDBRANCH   6  22
BRANCH   8  24
ATOM     24  O   UNL     1      31.008 -77.039  37.229  1.00  0.00    -0.508 OA
ATOM     25  H   UNL     1      30.714 -76.254  37.799  1.00  0.00     0.293 HD
ENDBRANCH   8  24
TORSDOF 5
ENDMDL
MODEL 6
REMARK VINA RESULT:    -5.076      1.248      3.063
REMARK INTER + INTRA:          -6.106
REMARK INTER:                  -6.048
REMARK INTRA:                  -0.058
REMARK UNBOUND:                -0.140
REMARK SMILES O=c1c(O)c(-c2ccc(O)cc2)oc2cc(O)cc(O)c12
REMARK SMILES IDX 5 1 3 2 2 3 1 4 21 5 19 6 18 7 16 8 15 9 14 10 13 11 6 12
REMARK SMILES IDX 7 13 8 14 9 15 12 16 11 17 10 18 4 20 20 22 17 24
REMARK H PARENT 10 19 4 21 20 23 17 25
REMARK Flexibility Score: inf
ROOT
ATOM      1  C   UNL     1      30.880 -92.077  37.413  1.00  0.00     0.180 A 
ATOM      2  C   UNL     1      31.916 -92.953  37.792  1.00  0.00     0.208 A 
ATOM      3  C   UNL     1      31.635 -94.323  37.917  1.00  0.00     0.238 A 
ATOM      4  O   UNL     1      32.558 -95.117  38.244  1.00  0.00    -0.285 OA
ATOM      5  C   UNL     1      30.326 -94.790  37.684  1.00  0.00     0.111 A 
ATOM      6  C   UNL     1      29.959 -96.153  37.792  1.00  0.00     0.134 A 
ATOM      7  C   UNL     1      28.631 -96.537  37.553  1.00  0.00     0.093 A 
ATOM      8  C   UNL     1      27.665 -95.586  37.208  1.00  0.00     0.123 A 
ATOM      9  C   UNL     1      28.022 -94.241  37.099  1.00  0.00     0.094 A 
ATOM     10  C   UNL     1      29.340 -93.837  37.331  1.00  0.00     0.146 A 
ATOM     11  O   UNL     1      29.653 -92.552  37.216  1.00  0.00    -0.452 OA
ENDROOT
BRANCH   1  12
ATOM     12  C   UNL     1      31.101 -90.624  37.242  1.00  0.00     0.021 A 
ATOM     13  C   UNL     1      32.064 -90.175  36.323  1.00  0.00     0.016 A 
ATOM     14  C   UNL     1      32.305 -88.807  36.162  1.00  0.00     0.047 A 
ATOM     15  C   UNL     1      31.597 -87.872  36.927  1.00  0.00     0.115 A 
ATOM     16  C   UNL     1      30.408 -89.679  38.021  1.00  0.00     0.016 A 
ATOM     17  C   UNL     1      30.652 -88.313  37.858  1.00  0.00     0.047 A 
BRANCH  15  18
ATOM     18  O   UNL     1      31.829 -86.507  36.775  1.00  0.00    -0.508 OA
ATOM     19  H   UNL     1      32.708 -86.155  36.415  1.00  0.00     0.293 HD
ENDBRANCH  15  18
ENDBRANCH   1  12
BRANCH   2  20
ATOM     20  O   UNL     1      33.193 -92.458  38.065  1.00  0.00    -0.502 OA
ATOM     21  H   UNL     1      33.373 -91.805  38.819  1.00  0.00     0.293 HD
ENDBRANCH   2  20
BRANCH   6  22
ATOM     22  O   UNL     1      30.900 -97.125  38.136  1.00  0.00    -0.507 OA
ATOM     23  H   UNL     1      31.510 -97.015  38.939  1.00  0.00     0.293 HD
ENDBRANCH   6  22
BRANCH   8  24
ATOM     24  O   UNL     1      26.346 -95.967  36.971  1.00  0.00    -0.508 OA
ATOM     25  H   UNL     1      25.813 -96.489  37.657  1.00  0.00     0.293 HD
ENDBRANCH   8  24
TORSDOF 5
ENDMDL
MODEL 7
REMARK VINA RESULT:    -4.954     15.238     16.211
REMARK INTER + INTRA:          -5.962
REMARK INTER:                  -5.984
REMARK INTRA:                   0.022
REMARK UNBOUND:                -0.140
REMARK SMILES O=c1c(O)c(-c2ccc(O)cc2)oc2cc(O)cc(O)c12
REMARK SMILES IDX 5 1 3 2 2 3 1 4 21 5 19 6 18 7 16 8 15 9 14 10 13 11 6 12
REMARK SMILES IDX 7 13 8 14 9 15 12 16 11 17 10 18 4 20 20 22 17 24
REMARK H PARENT 10 19 4 21 20 23 17 25
REMARK Flexibility Score: inf
ROOT
ATOM      1  C   UNL     1      36.347 -77.886  37.628  1.00  0.00     0.180 A 
ATOM      2  C   UNL     1      37.448 -77.533  36.824  1.00  0.00     0.208 A 
ATOM      3  C   UNL     1      38.744 -77.800  37.293  1.00  0.00     0.238 A 
ATOM      4  O   UNL     1      39.737 -77.499  36.576  1.00  0.00    -0.285 OA
ATOM      5  C   UNL     1      38.918 -78.393  38.560  1.00  0.00     0.111 A 
ATOM      6  C   UNL     1      40.190 -78.692  39.107  1.00  0.00     0.134 A 
ATOM      7  C   UNL     1      40.279 -79.273  40.380  1.00  0.00     0.093 A 
ATOM      8  C   UNL     1      39.124 -79.562  41.115  1.00  0.00     0.123 A 
ATOM      9  C   UNL     1      37.869 -79.272  40.579  1.00  0.00     0.094 A 
ATOM     10  C   UNL     1      37.757 -78.693  39.312  1.00  0.00     0.146 A 
ATOM     11  O   UNL     1      36.550 -78.430  38.824  1.00  0.00    -0.452 OA
ENDROOT
BRANCH   1  12
ATOM     12  C   UNL     1      34.950 -77.655  37.195  1.00  0.00     0.021 A 
ATOM     13  C   UNL     1      34.034 -77.082  38.094  1.00  0.00     0.016 A 
ATOM     14  C   UNL     1      32.704 -76.875  37.713  1.00  0.00     0.047 A 
ATOM     15  C   UNL     1      32.270 -77.252  36.436  1.00  0.00     0.115 A 
ATOM     16  C   UNL     1      34.502 -78.049  35.921  1.00  0.00     0.016 A 
ATOM     17  C   UNL     1      33.172 -77.841  35.545  1.00  0.00     0.047 A 
BRANCH  15  18
ATOM     18  O   UNL     1      30.949 -77.050  36.046  1.00  0.00    -0.508 OA
ATOM     19  H   UNL     1      30.700 -76.347  35.361  1.00  0.00     0.293 HD
ENDBRANCH  15  18
ENDBRANCH   1  12
BRANCH   2  20
ATOM     20  O   UNL     1      37.249 -76.902  35.593  1.00  0.00    -0.502 OA
ATOM     21  H   UNL     1      37.768 -76.077  35.317  1.00  0.00     0.293 HD
ENDBRANCH   2  20
BRANCH   6  22
ATOM     22  O   UNL     1      41.359 -78.414  38.399  1.00  0.00    -0.507 OA
ATOM     23  H   UNL     1      41.859 -79.135  37.891  1.00  0.00     0.293 HD
ENDBRANCH   6  22
BRANCH   8  24
ATOM     24  O   UNL     1      39.214 -80.141  42.380  1.00  0.00    -0.508 OA
ATOM     25  H   UNL     1      39.596 -81.070  42.513  1.00  0.00     0.293 HD
ENDBRANCH   8  24
TORSDOF 5
ENDMDL
MODEL 8
REMARK VINA RESULT:    -4.936     15.436     16.868
REMARK INTER + INTRA:          -5.941
REMARK INTER:                  -5.835
REMARK INTRA:                  -0.106
REMARK UNBOUND:                -0.140
REMARK SMILES O=c1c(O)c(-c2ccc(O)cc2)oc2cc(O)cc(O)c12
REMARK SMILES IDX 5 1 3 2 2 3 1 4 21 5 19 6 18 7 16 8 15 9 14 10 13 11 6 12
REMARK SMILES IDX 7 13 8 14 9 15 12 16 11 17 10 18 4 20 20 22 17 24
REMARK H PARENT 10 19 4 21 20 23 17 25
REMARK Flexibility Score: inf
ROOT
ATOM      1  C   UNL     1      37.283 -77.822  37.733  1.00  0.00     0.180 A 
ATOM      2  C   UNL     1      35.881 -77.943  37.765  1.00  0.00     0.208 A 
ATOM      3  C   UNL     1      35.164 -77.846  36.562  1.00  0.00     0.238 A 
ATOM      4  O   UNL     1      33.908 -77.964  36.576  1.00  0.00    -0.285 OA
ATOM      5  C   UNL     1      35.855 -77.610  35.356  1.00  0.00     0.111 A 
ATOM      6  C   UNL     1      35.208 -77.496  34.101  1.00  0.00     0.134 A 
ATOM      7  C   UNL     1      35.967 -77.251  32.947  1.00  0.00     0.093 A 
ATOM      8  C   UNL     1      37.357 -77.119  33.023  1.00  0.00     0.123 A 
ATOM      9  C   UNL     1      38.000 -77.232  34.256  1.00  0.00     0.094 A 
ATOM     10  C   UNL     1      37.263 -77.477  35.419  1.00  0.00     0.146 A 
ATOM     11  O   UNL     1      37.900 -77.585  36.579  1.00  0.00    -0.452 OA
ENDROOT
BRANCH   1  12
ATOM     12  C   UNL     1      38.110 -77.931  38.956  1.00  0.00     0.021 A 
ATOM     13  C   UNL     1      38.968 -76.875  39.307  1.00  0.00     0.016 A 
ATOM     14  C   UNL     1      39.774 -76.967  40.446  1.00  0.00     0.047 A 
ATOM     15  C   UNL     1      39.745 -78.121  41.239  1.00  0.00     0.115 A 
ATOM     16  C   UNL     1      38.101 -79.096  39.746  1.00  0.00     0.016 A 
ATOM     17  C   UNL     1      38.909 -79.184  40.883  1.00  0.00     0.047 A 
BRANCH  15  18
ATOM     18  O   UNL     1      40.543 -78.223  42.376  1.00  0.00    -0.508 OA
ATOM     19  H   UNL     1      40.158 -78.502  43.270  1.00  0.00     0.293 HD
ENDBRANCH  15  18
ENDBRANCH   1  12
BRANCH   2  20
ATOM     20  O   UNL     1      35.215 -78.127  38.979  1.00  0.00    -0.502 OA
ATOM     21  H   UNL     1      35.577 -78.727  39.711  1.00  0.00     0.293 HD
ENDBRANCH   2  20
BRANCH   6  22
ATOM     22  O   UNL     1      33.822 -77.622  33.994  1.00  0.00    -0.507 OA
ATOM     23  H   UNL     1      33.375 -78.526  33.892  1.00  0.00     0.293 HD
ENDBRANCH   6  22
BRANCH   8  24
ATOM     24  O   UNL     1      38.111 -76.875  31.876  1.00  0.00    -0.508 OA
ATOM     25  H   UNL     1      38.803 -76.136  31.843  1.00  0.00     0.293 HD
ENDBRANCH   8  24
TORSDOF 5
ENDMDL
MODEL 9
REMARK VINA RESULT:    -4.848     16.103     17.774
REMARK INTER + INTRA:          -5.838
REMARK INTER:                  -5.765
REMARK INTRA:                  -0.073
REMARK UNBOUND:                -0.140
REMARK SMILES O=c1c(O)c(-c2ccc(O)cc2)oc2cc(O)cc(O)c12
REMARK SMILES IDX 5 1 3 2 2 3 1 4 21 5 19 6 18 7 16 8 15 9 14 10 13 11 6 12
REMARK SMILES IDX 7 13 8 14 9 15 12 16 11 17 10 18 4 20 20 22 17 24
REMARK H PARENT 10 19 4 21 20 23 17 25
REMARK Flexibility Score: inf
ROOT
ATOM      1  C   UNL     1      38.627 -77.605  36.107  1.00  0.00     0.180 A 
ATOM      2  C   UNL     1      37.308 -77.477  35.632  1.00  0.00     0.208 A 
ATOM      3  C   UNL     1      37.092 -77.355  34.250  1.00  0.00     0.238 A 
ATOM      4  O   UNL     1      35.914 -77.252  33.812  1.00  0.00    -0.285 OA
ATOM      5  C   UNL     1      38.195 -77.341  33.372  1.00  0.00     0.111 A 
ATOM      6  C   UNL     1      38.065 -77.217  31.967  1.00  0.00     0.134 A 
ATOM      7  C   UNL     1      39.213 -77.201  31.161  1.00  0.00     0.093 A 
ATOM      8  C   UNL     1      40.487 -77.306  31.732  1.00  0.00     0.123 A 
ATOM      9  C   UNL     1      40.620 -77.430  33.116  1.00  0.00     0.094 A 
ATOM     10  C   UNL     1      39.488 -77.449  33.937  1.00  0.00     0.146 A 
ATOM     11  O   UNL     1      39.644 -77.572  35.250  1.00  0.00    -0.452 OA
ENDROOT
BRANCH   1  12
ATOM     12  C   UNL     1      38.934 -77.757  37.547  1.00  0.00     0.021 A 
ATOM     13  C   UNL     1      39.844 -76.877  38.157  1.00  0.00     0.016 A 
ATOM     14  C   UNL     1      40.165 -77.017  39.511  1.00  0.00     0.047 A 
ATOM     15  C   UNL     1      39.592 -78.047  40.268  1.00  0.00     0.115 A 
ATOM     16  C   UNL     1      38.378 -78.801  38.309  1.00  0.00     0.016 A 
ATOM     17  C   UNL     1      38.702 -78.939  39.662  1.00  0.00     0.047 A 
BRANCH  15  18
ATOM     18  O   UNL     1      39.904 -78.195  41.617  1.00  0.00    -0.508 OA
ATOM     19  H   UNL     1      40.684 -78.768  41.920  1.00  0.00     0.293 HD
ENDBRANCH  15  18
ENDBRANCH   1  12
BRANCH   2  20
ATOM     20  O   UNL     1      36.235 -77.445  36.527  1.00  0.00    -0.502 OA
ATOM     21  H   UNL     1      35.485 -78.125  36.499  1.00  0.00     0.293 HD
ENDBRANCH   2  20
BRANCH   6  22
ATOM     22  O   UNL     1      36.809 -77.109  31.369  1.00  0.00    -0.507 OA
ATOM     23  H   UNL     1      36.512 -76.259  30.903  1.00  0.00     0.293 HD
ENDBRANCH   6  22
BRANCH   8  24
ATOM     24  O   UNL     1      41.627 -77.290  30.931  1.00  0.00    -0.508 OA
ATOM     25  H   UNL     1      41.986 -76.429  30.536  1.00  0.00     0.293 HD
ENDBRANCH   8  24
TORSDOF 5
ENDMDL
