MODEL 1
REMARK VINA RESULT:    -6.674      0.000      0.000
REMARK INTER + INTRA:          -8.100
REMARK INTER:                  -8.039
REMARK INTRA:                  -0.061
REMARK UNBOUND:                -0.061
REMARK SMILES O=c1c(O)c(-c2ccc(O)c(O)c2)oc2cc(O)cc(O)c12
REMARK SMILES IDX 5 1 3 2 2 3 1 4 22 5 20 6 19 7 17 8 16 9 15 10 14 11 6 12
REMARK SMILES IDX 7 13 8 14 9 15 13 16 11 17 10 18 12 20 4 22 21 24 18 26
REMARK H PARENT 10 19 12 21 4 23 21 25 18 27
REMARK Flexibility Score: inf
ROOT
ATOM      1  C   UNL     1      20.725   0.647 -17.581  1.00  0.00     0.180 A 
ATOM      2  C   UNL     1      19.516   0.471 -16.885  1.00  0.00     0.208 A 
ATOM      3  C   UNL     1      19.461   0.801 -15.522  1.00  0.00     0.238 A 
ATOM      4  O   UNL     1      18.361   0.692 -14.919  1.00  0.00    -0.285 OA
ATOM      5  C   UNL     1      20.617   1.286 -14.867  1.00  0.00     0.111 A 
ATOM      6  C   UNL     1      20.685   1.613 -13.479  1.00  0.00     0.134 A 
ATOM      7  C   UNL     1      21.845   2.208 -12.966  1.00  0.00     0.093 A 
ATOM      8  C   UNL     1      22.961   2.429 -13.776  1.00  0.00     0.123 A 
ATOM      9  C   UNL     1      22.925   2.058 -15.119  1.00  0.00     0.094 A 
ATOM     10  C   UNL     1      21.770   1.495 -15.668  1.00  0.00     0.146 A 
ATOM     11  O   UNL     1      21.775   1.166 -16.954  1.00  0.00    -0.452 OA
ENDROOT
BRANCH   1  12
ATOM     12  C   UNL     1      20.868   0.299 -19.013  1.00  0.00     0.025 A 
ATOM     13  C   UNL     1      20.521  -0.975 -19.495  1.00  0.00     0.016 A 
ATOM     14  C   UNL     1      20.687  -1.288 -20.846  1.00  0.00     0.051 A 
ATOM     15  C   UNL     1      21.216  -0.341 -21.732  1.00  0.00     0.157 A 
ATOM     16  C   UNL     1      21.417   1.238 -19.901  1.00  0.00     0.062 A 
ATOM     17  C   UNL     1      21.585   0.927 -21.255  1.00  0.00     0.158 A 
BRANCH  15  18
ATOM     18  O   UNL     1      21.379  -0.656 -23.081  1.00  0.00    -0.504 OA
ATOM     19  H   UNL     1      20.639  -1.096 -23.615  1.00  0.00     0.293 HD
ENDBRANCH  15  18
BRANCH  17  20
ATOM     20  O   UNL     1      22.121   1.891 -22.110  1.00  0.00    -0.504 OA
ATOM     21  H   UNL     1      23.047   2.277 -21.974  1.00  0.00     0.293 HD
ENDBRANCH  17  20
ENDBRANCH   1  12
BRANCH   2  22
ATOM     22  O   UNL     1      18.380   0.011 -17.557  1.00  0.00    -0.502 OA
ATOM     23  H   UNL     1      17.713  -0.621 -17.130  1.00  0.00     0.293 HD
ENDBRANCH   2  22
BRANCH   6  24
ATOM     24  O   UNL     1      19.662   1.350 -12.564  1.00  0.00    -0.507 OA
ATOM     25  H   UNL     1      18.696   1.613 -12.691  1.00  0.00     0.293 HD
ENDBRANCH   6  24
BRANCH   8  26
ATOM     26  O   UNL     1      24.115   3.006 -13.254  1.00  0.00    -0.508 OA
ATOM     27  H   UNL     1      24.906   2.443 -12.964  1.00  0.00     0.293 HD
ENDBRANCH   8  26
TORSDOF 6
ENDMDL
MODEL 2
REMARK VINA RESULT:    -6.564      3.553      5.217
REMARK INTER + INTRA:          -7.968
REMARK INTER:                  -7.741
REMARK INTRA:                  -0.227
REMARK UNBOUND:                -0.061
REMARK SMILES O=c1c(O)c(-c2ccc(O)c(O)c2)oc2cc(O)cc(O)c12
REMARK SMILES IDX 5 1 3 2 2 3 1 4 22 5 20 6 19 7 17 8 16 9 15 10 14 11 6 12
REMARK SMILES IDX 7 13 8 14 9 15 13 16 11 17 10 18 12 20 4 22 21 24 18 26
REMARK H PARENT 10 19 12 21 4 23 21 25 18 27
REMARK Flexibility Score: inf
ROOT
ATOM      1  C   UNL     1      18.428  -0.911 -16.559  1.00  0.00     0.180 A 
ATOM      2  C   UNL     1      17.778  -0.045 -15.662  1.00  0.00     0.208 A 
ATOM      3  C   UNL     1      17.030  -0.593 -14.609  1.00  0.00     0.238 A 
ATOM      4  O   UNL     1      16.496   0.188 -13.777  1.00  0.00    -0.285 OA
ATOM      5  C   UNL     1      16.928  -1.997 -14.472  1.00  0.00     0.111 A 
ATOM      6  C   UNL     1      16.164  -2.661 -13.465  1.00  0.00     0.134 A 
ATOM      7  C   UNL     1      16.240  -4.055 -13.348  1.00  0.00     0.093 A 
ATOM      8  C   UNL     1      17.001  -4.813 -14.240  1.00  0.00     0.123 A 
ATOM      9  C   UNL     1      17.702  -4.179 -15.262  1.00  0.00     0.094 A 
ATOM     10  C   UNL     1      17.675  -2.788 -15.385  1.00  0.00     0.146 A 
ATOM     11  O   UNL     1      18.367  -2.224 -16.367  1.00  0.00    -0.452 OA
ENDROOT
BRANCH   1  12
ATOM     12  C   UNL     1      19.214  -0.409 -17.710  1.00  0.00     0.025 A 
ATOM     13  C   UNL     1      18.763  -0.572 -19.031  1.00  0.00     0.016 A 
ATOM     14  C   UNL     1      19.532  -0.111 -20.102  1.00  0.00     0.051 A 
ATOM     15  C   UNL     1      20.770   0.504 -19.871  1.00  0.00     0.157 A 
ATOM     16  C   UNL     1      20.464   0.189 -17.484  1.00  0.00     0.062 A 
ATOM     17  C   UNL     1      21.238   0.651 -18.555  1.00  0.00     0.158 A 
BRANCH  15  18
ATOM     18  O   UNL     1      21.535   0.964 -20.942  1.00  0.00    -0.504 OA
ATOM     19  H   UNL     1      21.544   0.482 -21.832  1.00  0.00     0.293 HD
ENDBRANCH  15  18
BRANCH  17  20
ATOM     20  O   UNL     1      22.468   1.254 -18.292  1.00  0.00    -0.504 OA
ATOM     21  H   UNL     1      23.275   1.114 -18.888  1.00  0.00     0.293 HD
ENDBRANCH  17  20
ENDBRANCH   1  12
BRANCH   2  22
ATOM     22  O   UNL     1      17.910   1.340 -15.802  1.00  0.00    -0.502 OA
ATOM     23  H   UNL     1      17.129   1.975 -15.693  1.00  0.00     0.293 HD
ENDBRANCH   2  22
BRANCH   6  24
ATOM     24  O   UNL     1      15.300  -2.006 -12.582  1.00  0.00    -0.507 OA
ATOM     25  H   UNL     1      14.908  -1.089 -12.736  1.00  0.00     0.293 HD
ENDBRANCH   6  24
BRANCH   8  26
ATOM     26  O   UNL     1      17.057  -6.200 -14.125  1.00  0.00    -0.508 OA
ATOM     27  H   UNL     1      17.769  -6.743 -14.598  1.00  0.00     0.293 HD
ENDBRANCH   8  26
TORSDOF 6
ENDMDL
MODEL 3
REMARK VINA RESULT:    -6.476      1.234      3.019
REMARK INTER + INTRA:          -7.862
REMARK INTER:                  -7.783
REMARK INTRA:                  -0.080
REMARK UNBOUND:                -0.061
REMARK SMILES O=c1c(O)c(-c2ccc(O)c(O)c2)oc2cc(O)cc(O)c12
REMARK SMILES IDX 5 1 3 2 2 3 1 4 22 5 20 6 19 7 17 8 16 9 15 10 14 11 6 12
REMARK SMILES IDX 7 13 8 14 9 15 13 16 11 17 10 18 12 20 4 22 21 24 18 26
REMARK H PARENT 10 19 12 21 4 23 21 25 18 27
REMARK Flexibility Score: inf
ROOT
ATOM      1  C   UNL     1      20.711   0.696 -17.517  1.00  0.00     0.180 A 
ATOM      2  C   UNL     1      21.809   1.080 -16.728  1.00  0.00     0.208 A 
ATOM      3  C   UNL     1      21.596   1.417 -15.382  1.00  0.00     0.238 A 
ATOM      4  O   UNL     1      22.591   1.707 -14.667  1.00  0.00    -0.285 OA
ATOM      5  C   UNL     1      20.288   1.381 -14.845  1.00  0.00     0.111 A 
ATOM      6  C   UNL     1      19.950   1.741 -13.505  1.00  0.00     0.134 A 
ATOM      7  C   UNL     1      18.642   1.543 -13.046  1.00  0.00     0.093 A 
ATOM      8  C   UNL     1      17.645   1.059 -13.895  1.00  0.00     0.123 A 
ATOM      9  C   UNL     1      17.951   0.761 -15.221  1.00  0.00     0.094 A 
ATOM     10  C   UNL     1      19.255   0.915 -15.700  1.00  0.00     0.146 A 
ATOM     11  O   UNL     1      19.505   0.610 -16.968  1.00  0.00    -0.452 OA
ENDROOT
BRANCH   1  12
ATOM     12  C   UNL     1      20.852   0.351 -18.950  1.00  0.00     0.025 A 
ATOM     13  C   UNL     1      20.491  -0.917 -19.436  1.00  0.00     0.016 A 
ATOM     14  C   UNL     1      20.655  -1.228 -20.788  1.00  0.00     0.051 A 
ATOM     15  C   UNL     1      21.196  -0.284 -21.671  1.00  0.00     0.157 A 
ATOM     16  C   UNL     1      21.414   1.287 -19.834  1.00  0.00     0.062 A 
ATOM     17  C   UNL     1      21.580   0.978 -21.189  1.00  0.00     0.158 A 
BRANCH  15  18
ATOM     18  O   UNL     1      21.357  -0.597 -23.020  1.00  0.00    -0.504 OA
ATOM     19  H   UNL     1      21.858  -1.426 -23.316  1.00  0.00     0.293 HD
ENDBRANCH  15  18
BRANCH  17  20
ATOM     20  O   UNL     1      22.127   1.938 -22.040  1.00  0.00    -0.504 OA
ATOM     21  H   UNL     1      21.650   2.251 -22.877  1.00  0.00     0.293 HD
ENDBRANCH  17  20
ENDBRANCH   1  12
BRANCH   2  22
ATOM     22  O   UNL     1      23.097   1.088 -17.272  1.00  0.00    -0.502 OA
ATOM     23  H   UNL     1      23.443   0.340 -17.862  1.00  0.00     0.293 HD
ENDBRANCH   2  22
BRANCH   6  24
ATOM     24  O   UNL     1      20.848   2.318 -12.602  1.00  0.00    -0.507 OA
ATOM     25  H   UNL     1      21.738   1.918 -12.342  1.00  0.00     0.293 HD
ENDBRANCH   6  24
BRANCH   8  26
ATOM     26  O   UNL     1      16.343   0.880 -13.434  1.00  0.00    -0.508 OA
ATOM     27  H   UNL     1      16.154   0.544 -12.497  1.00  0.00     0.293 HD
ENDBRANCH   8  26
TORSDOF 6
ENDMDL
MODEL 4
REMARK VINA RESULT:    -6.216      3.117      7.294
REMARK INTER + INTRA:          -7.549
REMARK INTER:                  -7.229
REMARK INTRA:                  -0.320
REMARK UNBOUND:                -0.061
REMARK SMILES O=c1c(O)c(-c2ccc(O)c(O)c2)oc2cc(O)cc(O)c12
REMARK SMILES IDX 5 1 3 2 2 3 1 4 22 5 20 6 19 7 17 8 16 9 15 10 14 11 6 12
REMARK SMILES IDX 7 13 8 14 9 15 13 16 11 17 10 18 12 20 4 22 21 24 18 26
REMARK H PARENT 10 19 12 21 4 23 21 25 18 27
REMARK Flexibility Score: inf
ROOT
ATOM      1  C   UNL     1      18.007  -0.144 -15.570  1.00  0.00     0.180 A 
ATOM      2  C   UNL     1      19.078   0.602 -15.049  1.00  0.00     0.208 A 
ATOM      3  C   UNL     1      20.163   0.909 -15.884  1.00  0.00     0.238 A 
ATOM      4  O   UNL     1      21.094   1.625 -15.427  1.00  0.00    -0.285 OA
ATOM      5  C   UNL     1      20.173   0.455 -17.224  1.00  0.00     0.111 A 
ATOM      6  C   UNL     1      21.239   0.673 -18.147  1.00  0.00     0.134 A 
ATOM      7  C   UNL     1      21.084   0.289 -19.485  1.00  0.00     0.093 A 
ATOM      8  C   UNL     1      19.928  -0.363 -19.918  1.00  0.00     0.123 A 
ATOM      9  C   UNL     1      18.906  -0.634 -19.011  1.00  0.00     0.094 A 
ATOM     10  C   UNL     1      19.016  -0.232 -17.677  1.00  0.00     0.146 A 
ATOM     11  O   UNL     1      18.014  -0.501 -16.849  1.00  0.00    -0.452 OA
ENDROOT
BRANCH   1  12
ATOM     12  C   UNL     1      16.839  -0.529 -14.744  1.00  0.00     0.025 A 
ATOM     13  C   UNL     1      15.738   0.331 -14.588  1.00  0.00     0.016 A 
ATOM     14  C   UNL     1      14.658  -0.043 -13.786  1.00  0.00     0.051 A 
ATOM     15  C   UNL     1      14.667  -1.273 -13.115  1.00  0.00     0.157 A 
ATOM     16  C   UNL     1      16.853  -1.752 -14.054  1.00  0.00     0.062 A 
ATOM     17  C   UNL     1      15.772  -2.129 -13.249  1.00  0.00     0.158 A 
BRANCH  15  18
ATOM     18  O   UNL     1      13.586  -1.645 -12.317  1.00  0.00    -0.504 OA
ATOM     19  H   UNL     1      13.555  -1.420 -11.329  1.00  0.00     0.293 HD
ENDBRANCH  15  18
BRANCH  17  20
ATOM     20  O   UNL     1      15.815  -3.358 -12.590  1.00  0.00    -0.504 OA
ATOM     21  H   UNL     1      16.687  -3.834 -12.394  1.00  0.00     0.293 HD
ENDBRANCH  17  20
ENDBRANCH   1  12
BRANCH   2  22
ATOM     22  O   UNL     1      19.038   1.061 -13.729  1.00  0.00    -0.502 OA
ATOM     23  H   UNL     1      18.345   0.742 -13.062  1.00  0.00     0.293 HD
ENDBRANCH   2  22
BRANCH   6  24
ATOM     24  O   UNL     1      22.472   1.233 -17.798  1.00  0.00    -0.507 OA
ATOM     25  H   UNL     1      22.705   2.211 -17.886  1.00  0.00     0.293 HD
ENDBRANCH   6  24
BRANCH   8  26
ATOM     26  O   UNL     1      19.789  -0.755 -21.247  1.00  0.00    -0.508 OA
ATOM     27  H   UNL     1      20.577  -0.763 -21.883  1.00  0.00     0.293 HD
ENDBRANCH   8  26
TORSDOF 6
ENDMDL
MODEL 5
REMARK VINA RESULT:    -5.929      8.741     10.277
REMARK INTER + INTRA:          -7.203
REMARK INTER:                  -7.039
REMARK INTRA:                  -0.165
REMARK UNBOUND:                -0.061
REMARK SMILES O=c1c(O)c(-c2ccc(O)c(O)c2)oc2cc(O)cc(O)c12
REMARK SMILES IDX 5 1 3 2 2 3 1 4 22 5 20 6 19 7 17 8 16 9 15 10 14 11 6 12
REMARK SMILES IDX 7 13 8 14 9 15 13 16 11 17 10 18 12 20 4 22 21 24 18 26
REMARK H PARENT 10 19 12 21 4 23 21 25 18 27
REMARK Flexibility Score: inf
ROOT
ATOM      1  C   UNL     1      19.033  -2.493  -8.606  1.00  0.00     0.180 A 
ATOM      2  C   UNL     1      18.919  -2.777  -7.234  1.00  0.00     0.208 A 
ATOM      3  C   UNL     1      20.085  -3.005  -6.487  1.00  0.00     0.238 A 
ATOM      4  O   UNL     1      19.980  -3.205  -5.248  1.00  0.00    -0.285 OA
ATOM      5  C   UNL     1      21.349  -2.961  -7.122  1.00  0.00     0.111 A 
ATOM      6  C   UNL     1      22.594  -3.216  -6.470  1.00  0.00     0.134 A 
ATOM      7  C   UNL     1      23.791  -3.017  -7.168  1.00  0.00     0.093 A 
ATOM      8  C   UNL     1      23.789  -2.636  -8.511  1.00  0.00     0.123 A 
ATOM      9  C   UNL     1      22.578  -2.443  -9.173  1.00  0.00     0.094 A 
ATOM     10  C   UNL     1      21.366  -2.599  -8.494  1.00  0.00     0.146 A 
ATOM     11  O   UNL     1      20.236  -2.395  -9.160  1.00  0.00    -0.452 OA
ENDROOT
BRANCH   1  12
ATOM     12  C   UNL     1      17.848  -2.267  -9.466  1.00  0.00     0.025 A 
ATOM     13  C   UNL     1      17.587  -1.008 -10.035  1.00  0.00     0.016 A 
ATOM     14  C   UNL     1      16.451  -0.812 -10.823  1.00  0.00     0.051 A 
ATOM     15  C   UNL     1      15.551  -1.863 -11.042  1.00  0.00     0.157 A 
ATOM     16  C   UNL     1      16.933  -3.312  -9.670  1.00  0.00     0.062 A 
ATOM     17  C   UNL     1      15.793  -3.118 -10.459  1.00  0.00     0.158 A 
BRANCH  15  18
ATOM     18  O   UNL     1      14.418  -1.665 -11.830  1.00  0.00    -0.504 OA
ATOM     19  H   UNL     1      14.211  -0.763 -12.242  1.00  0.00     0.293 HD
ENDBRANCH  15  18
BRANCH  17  20
ATOM     20  O   UNL     1      14.914  -4.184 -10.653  1.00  0.00    -0.504 OA
ATOM     21  H   UNL     1      15.236  -5.106 -10.920  1.00  0.00     0.293 HD
ENDBRANCH  17  20
ENDBRANCH   1  12
BRANCH   2  22
ATOM     22  O   UNL     1      17.662  -2.794  -6.622  1.00  0.00    -0.502 OA
ATOM     23  H   UNL     1      17.520  -2.500  -5.663  1.00  0.00     0.293 HD
ENDBRANCH   2  22
BRANCH   6  24
ATOM     24  O   UNL     1      22.706  -3.688  -5.159  1.00  0.00    -0.507 OA
ATOM     25  H   UNL     1      21.996  -4.221  -4.678  1.00  0.00     0.293 HD
ENDBRANCH   6  24
BRANCH   8  26
ATOM     26  O   UNL     1      24.985  -2.457  -9.201  1.00  0.00    -0.508 OA
ATOM     27  H   UNL     1      25.359  -1.533  -9.383  1.00  0.00     0.293 HD
ENDBRANCH   8  26
TORSDOF 6
ENDMDL
MODEL 6
REMARK VINA RESULT:    -5.856     12.111     13.626
REMARK INTER + INTRA:          -7.115
REMARK INTER:                  -6.814
REMARK INTRA:                  -0.301
REMARK UNBOUND:                -0.061
REMARK SMILES O=c1c(O)c(-c2ccc(O)c(O)c2)oc2cc(O)cc(O)c12
REMARK SMILES IDX 5 1 3 2 2 3 1 4 22 5 20 6 19 7 17 8 16 9 15 10 14 11 6 12
REMARK SMILES IDX 7 13 8 14 9 15 13 16 11 17 10 18 12 20 4 22 21 24 18 26
REMARK H PARENT 10 19 12 21 4 23 21 25 18 27
REMARK Flexibility Score: inf
ROOT
ATOM      1  C   UNL     1      10.132   7.913 -19.175  1.00  0.00     0.180 A 
ATOM      2  C   UNL     1      11.279   8.510 -18.625  1.00  0.00     0.208 A 
ATOM      3  C   UNL     1      12.318   7.689 -18.160  1.00  0.00     0.238 A 
ATOM      4  O   UNL     1      13.366   8.231 -17.719  1.00  0.00    -0.285 OA
ATOM      5  C   UNL     1      12.192   6.282 -18.236  1.00  0.00     0.111 A 
ATOM      6  C   UNL     1      13.165   5.352 -17.759  1.00  0.00     0.134 A 
ATOM      7  C   UNL     1      12.993   3.985 -18.004  1.00  0.00     0.093 A 
ATOM      8  C   UNL     1      11.852   3.506 -18.653  1.00  0.00     0.123 A 
ATOM      9  C   UNL     1      10.868   4.400 -19.070  1.00  0.00     0.094 A 
ATOM     10  C   UNL     1      11.028   5.774 -18.871  1.00  0.00     0.146 A 
ATOM     11  O   UNL     1      10.071   6.591 -19.293  1.00  0.00    -0.452 OA
ENDROOT
BRANCH   1  12
ATOM     12  C   UNL     1       8.984   8.711 -19.663  1.00  0.00     0.025 A 
ATOM     13  C   UNL     1       7.827   8.881 -18.884  1.00  0.00     0.016 A 
ATOM     14  C   UNL     1       6.747   9.619 -19.375  1.00  0.00     0.051 A 
ATOM     15  C   UNL     1       6.800  10.185 -20.656  1.00  0.00     0.157 A 
ATOM     16  C   UNL     1       9.025   9.263 -20.954  1.00  0.00     0.062 A 
ATOM     17  C   UNL     1       7.945  10.003 -21.449  1.00  0.00     0.158 A 
BRANCH  15  18
ATOM     18  O   UNL     1       5.722  10.923 -21.142  1.00  0.00    -0.504 OA
ATOM     19  H   UNL     1       4.818  10.903 -20.685  1.00  0.00     0.293 HD
ENDBRANCH  15  18
BRANCH  17  20
ATOM     20  O   UNL     1       8.027  10.548 -22.730  1.00  0.00    -0.504 OA
ATOM     21  H   UNL     1       8.641  10.166 -23.440  1.00  0.00     0.293 HD
ENDBRANCH  17  20
ENDBRANCH   1  12
BRANCH   2  22
ATOM     22  O   UNL     1      11.393   9.903 -18.579  1.00  0.00    -0.502 OA
ATOM     23  H   UNL     1      11.838  10.437 -19.316  1.00  0.00     0.293 HD
ENDBRANCH   2  22
BRANCH   6  24
ATOM     24  O   UNL     1      14.295   5.717 -17.020  1.00  0.00    -0.507 OA
ATOM     25  H   UNL     1      15.106   6.181 -17.401  1.00  0.00     0.293 HD
ENDBRANCH   6  24
BRANCH   8  26
ATOM     26  O   UNL     1      11.682   2.143 -18.878  1.00  0.00    -0.508 OA
ATOM     27  H   UNL     1      11.431   1.783 -19.791  1.00  0.00     0.293 HD
ENDBRANCH   8  26
TORSDOF 6
ENDMDL
MODEL 7
REMARK VINA RESULT:    -5.836     10.129     10.947
REMARK INTER + INTRA:          -7.091
REMARK INTER:                  -6.757
REMARK INTRA:                  -0.334
REMARK UNBOUND:                -0.061
REMARK SMILES O=c1c(O)c(-c2ccc(O)c(O)c2)oc2cc(O)cc(O)c12
REMARK SMILES IDX 5 1 3 2 2 3 1 4 22 5 20 6 19 7 17 8 16 9 15 10 14 11 6 12
REMARK SMILES IDX 7 13 8 14 9 15 13 16 11 17 10 18 12 20 4 22 21 24 18 26
REMARK H PARENT 10 19 12 21 4 23 21 25 18 27
REMARK Flexibility Score: inf
ROOT
ATOM      1  C   UNL     1      20.659  -1.612  -7.394  1.00  0.00     0.180 A 
ATOM      2  C   UNL     1      19.350  -1.984  -7.749  1.00  0.00     0.208 A 
ATOM      3  C   UNL     1      18.399  -0.980  -7.988  1.00  0.00     0.238 A 
ATOM      4  O   UNL     1      17.244  -1.318  -8.359  1.00  0.00    -0.285 OA
ATOM      5  C   UNL     1      18.761   0.381  -7.854  1.00  0.00     0.111 A 
ATOM      6  C   UNL     1      17.868   1.481  -8.033  1.00  0.00     0.134 A 
ATOM      7  C   UNL     1      18.368   2.788  -8.002  1.00  0.00     0.093 A 
ATOM      8  C   UNL     1      19.715   3.039  -7.735  1.00  0.00     0.123 A 
ATOM      9  C   UNL     1      20.583   1.976  -7.500  1.00  0.00     0.094 A 
ATOM     10  C   UNL     1      20.123   0.658  -7.559  1.00  0.00     0.146 A 
ATOM     11  O   UNL     1      20.986  -0.326  -7.339  1.00  0.00    -0.452 OA
ENDROOT
BRANCH   1  12
ATOM     12  C   UNL     1      21.710  -2.613  -7.102  1.00  0.00     0.025 A 
ATOM     13  C   UNL     1      21.875  -3.147  -5.812  1.00  0.00     0.016 A 
ATOM     14  C   UNL     1      22.889  -4.072  -5.554  1.00  0.00     0.051 A 
ATOM     15  C   UNL     1      23.763  -4.467  -6.576  1.00  0.00     0.157 A 
ATOM     16  C   UNL     1      22.601  -2.997  -8.117  1.00  0.00     0.062 A 
ATOM     17  C   UNL     1      23.618  -3.923  -7.863  1.00  0.00     0.158 A 
BRANCH  15  18
ATOM     18  O   UNL     1      24.773  -5.392  -6.316  1.00  0.00    -0.504 OA
ATOM     19  H   UNL     1      25.405  -5.281  -5.533  1.00  0.00     0.293 HD
ENDBRANCH  15  18
BRANCH  17  20
ATOM     20  O   UNL     1      24.475  -4.291  -8.900  1.00  0.00    -0.504 OA
ATOM     21  H   UNL     1      24.470  -3.819  -9.796  1.00  0.00     0.293 HD
ENDBRANCH  17  20
ENDBRANCH   1  12
BRANCH   2  22
ATOM     22  O   UNL     1      19.019  -3.334  -7.897  1.00  0.00    -0.502 OA
ATOM     23  H   UNL     1      19.260  -3.865  -8.725  1.00  0.00     0.293 HD
ENDBRANCH   2  22
BRANCH   6  24
ATOM     24  O   UNL     1      16.489   1.343  -8.213  1.00  0.00    -0.507 OA
ATOM     25  H   UNL     1      15.868   0.875  -7.569  1.00  0.00     0.293 HD
ENDBRANCH   6  24
BRANCH   8  26
ATOM     26  O   UNL     1      20.200   4.344  -7.691  1.00  0.00    -0.508 OA
ATOM     27  H   UNL     1      21.183   4.550  -7.826  1.00  0.00     0.293 HD
ENDBRANCH   8  26
TORSDOF 6
ENDMDL
MODEL 8
REMARK VINA RESULT:    -5.787      7.151      8.604
REMARK INTER + INTRA:          -7.032
REMARK INTER:                  -6.762
REMARK INTRA:                  -0.270
REMARK UNBOUND:                -0.061
REMARK SMILES O=c1c(O)c(-c2ccc(O)c(O)c2)oc2cc(O)cc(O)c12
REMARK SMILES IDX 5 1 3 2 2 3 1 4 22 5 20 6 19 7 17 8 16 9 15 10 14 11 6 12
REMARK SMILES IDX 7 13 8 14 9 15 13 16 11 17 10 18 12 20 4 22 21 24 18 26
REMARK H PARENT 10 19 12 21 4 23 21 25 18 27
REMARK Flexibility Score: inf
ROOT
ATOM      1  C   UNL     1      15.616  -1.118 -11.886  1.00  0.00     0.180 A 
ATOM      2  C   UNL     1      15.415  -2.489 -11.645  1.00  0.00     0.208 A 
ATOM      3  C   UNL     1      16.032  -3.082 -10.533  1.00  0.00     0.238 A 
ATOM      4  O   UNL     1      15.805  -4.297 -10.291  1.00  0.00    -0.285 OA
ATOM      5  C   UNL     1      16.854  -2.303  -9.684  1.00  0.00     0.111 A 
ATOM      6  C   UNL     1      17.561  -2.809  -8.551  1.00  0.00     0.134 A 
ATOM      7  C   UNL     1      18.240  -1.921  -7.708  1.00  0.00     0.093 A 
ATOM      8  C   UNL     1      18.292  -0.554  -7.991  1.00  0.00     0.123 A 
ATOM      9  C   UNL     1      17.655  -0.059  -9.127  1.00  0.00     0.094 A 
ATOM     10  C   UNL     1      16.940  -0.915  -9.969  1.00  0.00     0.146 A 
ATOM     11  O   UNL     1      16.339  -0.400 -11.035  1.00  0.00    -0.452 OA
ENDROOT
BRANCH   1  12
ATOM     12  C   UNL     1      15.019  -0.428 -13.052  1.00  0.00     0.025 A 
ATOM     13  C   UNL     1      15.796  -0.073 -14.169  1.00  0.00     0.016 A 
ATOM     14  C   UNL     1      15.217   0.599 -15.247  1.00  0.00     0.051 A 
ATOM     15  C   UNL     1      13.858   0.941 -15.221  1.00  0.00     0.157 A 
ATOM     16  C   UNL     1      13.663  -0.064 -13.021  1.00  0.00     0.062 A 
ATOM     17  C   UNL     1      13.079   0.609 -14.100  1.00  0.00     0.158 A 
BRANCH  15  18
ATOM     18  O   UNL     1      13.282   1.610 -16.300  1.00  0.00    -0.504 OA
ATOM     19  H   UNL     1      12.872   1.107 -17.078  1.00  0.00     0.293 HD
ENDBRANCH  15  18
BRANCH  17  20
ATOM     20  O   UNL     1      11.726   0.941 -14.040  1.00  0.00    -0.504 OA
ATOM     21  H   UNL     1      11.404   1.900 -14.082  1.00  0.00     0.293 HD
ENDBRANCH  17  20
ENDBRANCH   1  12
BRANCH   2  22
ATOM     22  O   UNL     1      14.582  -3.235 -12.483  1.00  0.00    -0.502 OA
ATOM     23  H   UNL     1      13.577  -3.273 -12.358  1.00  0.00     0.293 HD
ENDBRANCH   2  22
BRANCH   6  24
ATOM     24  O   UNL     1      17.649  -4.166  -8.229  1.00  0.00    -0.507 OA
ATOM     25  H   UNL     1      18.505  -4.646  -7.993  1.00  0.00     0.293 HD
ENDBRANCH   6  24
BRANCH   8  26
ATOM     26  O   UNL     1      18.984   0.319  -7.156  1.00  0.00    -0.508 OA
ATOM     27  H   UNL     1      18.768   1.309  -7.128  1.00  0.00     0.293 HD
ENDBRANCH   8  26
TORSDOF 6
ENDMDL
MODEL 9
REMARK VINA RESULT:    -5.692     10.500     13.428
REMARK INTER + INTRA:          -6.918
REMARK INTER:                  -6.583
REMARK INTRA:                  -0.335
REMARK UNBOUND:                -0.061
REMARK SMILES O=c1c(O)c(-c2ccc(O)c(O)c2)oc2cc(O)cc(O)c12
REMARK SMILES IDX 5 1 3 2 2 3 1 4 22 5 20 6 19 7 17 8 16 9 15 10 14 11 6 12
REMARK SMILES IDX 7 13 8 14 9 15 13 16 11 17 10 18 12 20 4 22 21 24 18 26
REMARK H PARENT 10 19 12 21 4 23 21 25 18 27
REMARK Flexibility Score: inf
ROOT
ATOM      1  C   UNL     1      12.599   2.964  -8.004  1.00  0.00     0.180 A 
ATOM      2  C   UNL     1      13.659   3.755  -7.527  1.00  0.00     0.208 A 
ATOM      3  C   UNL     1      13.720   4.057  -6.157  1.00  0.00     0.238 A 
ATOM      4  O   UNL     1      14.701   4.719  -5.728  1.00  0.00    -0.285 OA
ATOM      5  C   UNL     1      12.714   3.579  -5.285  1.00  0.00     0.111 A 
ATOM      6  C   UNL     1      12.654   3.857  -3.885  1.00  0.00     0.134 A 
ATOM      7  C   UNL     1      11.685   3.225  -3.096  1.00  0.00     0.093 A 
ATOM      8  C   UNL     1      10.734   2.375  -3.665  1.00  0.00     0.123 A 
ATOM      9  C   UNL     1      10.747   2.144  -5.039  1.00  0.00     0.094 A 
ATOM     10  C   UNL     1      11.723   2.732  -5.848  1.00  0.00     0.146 A 
ATOM     11  O   UNL     1      11.706   2.477  -7.151  1.00  0.00    -0.452 OA
ENDROOT
BRANCH   1  12
ATOM     12  C   UNL     1      12.452   2.625  -9.438  1.00  0.00     0.025 A 
ATOM     13  C   UNL     1      11.755   3.466 -10.322  1.00  0.00     0.016 A 
ATOM     14  C   UNL     1      11.609   3.113 -11.665  1.00  0.00     0.051 A 
ATOM     15  C   UNL     1      12.144   1.910 -12.143  1.00  0.00     0.157 A 
ATOM     16  C   UNL     1      12.969   1.410  -9.917  1.00  0.00     0.062 A 
ATOM     17  C   UNL     1      12.824   1.053 -11.262  1.00  0.00     0.158 A 
BRANCH  15  18
ATOM     18  O   UNL     1      11.999   1.561 -13.485  1.00  0.00    -0.504 OA
ATOM     19  H   UNL     1      12.059   2.254 -14.222  1.00  0.00     0.293 HD
ENDBRANCH  15  18
BRANCH  17  20
ATOM     20  O   UNL     1      13.363  -0.155 -11.705  1.00  0.00    -0.504 OA
ATOM     21  H   UNL     1      14.297  -0.454 -11.450  1.00  0.00     0.293 HD
ENDBRANCH  17  20
ENDBRANCH   1  12
BRANCH   2  22
ATOM     22  O   UNL     1      14.654   4.198  -8.402  1.00  0.00    -0.502 OA
ATOM     23  H   UNL     1      14.482   4.353  -9.388  1.00  0.00     0.293 HD
ENDBRANCH   2  22
BRANCH   6  24
ATOM     24  O   UNL     1      13.497   4.761  -3.233  1.00  0.00    -0.507 OA
ATOM     25  H   UNL     1      14.326   4.504  -2.717  1.00  0.00     0.293 HD
ENDBRANCH   6  24
BRANCH   8  26
ATOM     26  O   UNL     1       9.764   1.763  -2.875  1.00  0.00    -0.508 OA
ATOM     27  H   UNL     1      10.014   1.122  -2.131  1.00  0.00     0.293 HD
ENDBRANCH   8  26
TORSDOF 6
ENDMDL
