MODEL 1
REMARK VINA RESULT:    -7.220      0.000      0.000
REMARK INTER + INTRA:          -8.761
REMARK INTER:                  -8.486
REMARK INTRA:                  -0.274
REMARK UNBOUND:                -0.274
REMARK SMILES O=c1cc(-c2ccc(O)c(O)c2)oc2cc(O)cc(O)c12
REMARK SMILES IDX 4 1 3 2 2 3 1 4 21 5 19 6 18 7 16 8 15 9 14 10 13 11 5 12
REMARK SMILES IDX 6 13 7 14 8 15 12 16 10 17 9 18 11 20 20 22 17 24
REMARK H PARENT 9 19 11 21 20 23 17 25
REMARK Flexibility Score: inf
ROOT
ATOM      1  C   UNL     1      15.285 -23.809 -28.188  1.00  0.00     0.138 A 
ATOM      2  C   UNL     1      16.438 -23.408 -27.500  1.00  0.00     0.100 A 
ATOM      3  C   UNL     1      17.514 -24.289 -27.381  1.00  0.00     0.197 A 
ATOM      4  O   UNL     1      18.511 -23.919 -26.710  1.00  0.00    -0.289 OA
ATOM      5  C   UNL     1      17.446 -25.567 -27.987  1.00  0.00     0.107 A 
ATOM      6  C   UNL     1      18.494 -26.536 -27.961  1.00  0.00     0.134 A 
ATOM      7  C   UNL     1      18.274 -27.805 -28.512  1.00  0.00     0.093 A 
ATOM      8  C   UNL     1      17.069 -28.121 -29.137  1.00  0.00     0.123 A 
ATOM      9  C   UNL     1      16.055 -27.164 -29.213  1.00  0.00     0.094 A 
ATOM     10  C   UNL     1      16.232 -25.901 -28.643  1.00  0.00     0.146 A 
ATOM     11  O   UNL     1      15.234 -25.025 -28.720  1.00  0.00    -0.456 OA
ENDROOT
BRANCH   1  12
ATOM     12  C   UNL     1      14.113 -22.911 -28.347  1.00  0.00     0.021 A 
ATOM     13  C   UNL     1      13.548 -22.733 -29.622  1.00  0.00     0.016 A 
ATOM     14  C   UNL     1      12.441 -21.900 -29.799  1.00  0.00     0.051 A 
ATOM     15  C   UNL     1      11.873 -21.239 -28.704  1.00  0.00     0.157 A 
ATOM     16  C   UNL     1      13.528 -22.253 -27.248  1.00  0.00     0.062 A 
ATOM     17  C   UNL     1      12.415 -21.418 -27.425  1.00  0.00     0.158 A 
BRANCH  15  18
ATOM     18  O   UNL     1      10.769 -20.405 -28.876  1.00  0.00    -0.504 OA
ATOM     19  H   UNL     1       9.822 -20.759 -28.806  1.00  0.00     0.293 HD
ENDBRANCH  15  18
BRANCH  17  20
ATOM     20  O   UNL     1      11.840 -20.767 -26.335  1.00  0.00    -0.504 OA
ATOM     21  H   UNL     1      11.209 -21.246 -25.704  1.00  0.00     0.293 HD
ENDBRANCH  17  20
ENDBRANCH   1  12
BRANCH   6  22
ATOM     22  O   UNL     1      19.766 -26.301 -27.432  1.00  0.00    -0.507 OA
ATOM     23  H   UNL     1      19.955 -25.975 -26.497  1.00  0.00     0.293 HD
ENDBRANCH   6  22
BRANCH   8  24
ATOM     24  O   UNL     1      16.891 -29.387 -29.688  1.00  0.00    -0.508 OA
ATOM     25  H   UNL     1      15.976 -29.720 -29.968  1.00  0.00     0.293 HD
ENDBRANCH   8  24
TORSDOF 5
ENDMDL
MODEL 2
REMARK VINA RESULT:    -6.712      3.003      3.632
REMARK INTER + INTRA:          -8.164
REMARK INTER:                  -7.846
REMARK INTRA:                  -0.318
REMARK UNBOUND:                -0.274
REMARK SMILES O=c1cc(-c2ccc(O)c(O)c2)oc2cc(O)cc(O)c12
REMARK SMILES IDX 4 1 3 2 2 3 1 4 21 5 19 6 18 7 16 8 15 9 14 10 13 11 5 12
REMARK SMILES IDX 6 13 7 14 8 15 12 16 10 17 9 18 11 20 20 22 17 24
REMARK H PARENT 9 19 11 21 20 23 17 25
REMARK Flexibility Score: inf
ROOT
ATOM      1  C   UNL     1      15.417 -23.164 -27.786  1.00  0.00     0.138 A 
ATOM      2  C   UNL     1      16.429 -23.006 -28.742  1.00  0.00     0.100 A 
ATOM      3  C   UNL     1      17.767 -23.076 -28.351  1.00  0.00     0.197 A 
ATOM      4  O   UNL     1      18.651 -22.874 -29.222  1.00  0.00    -0.289 OA
ATOM      5  C   UNL     1      18.091 -23.342 -26.998  1.00  0.00     0.107 A 
ATOM      6  C   UNL     1      19.418 -23.470 -26.490  1.00  0.00     0.134 A 
ATOM      7  C   UNL     1      19.617 -23.636 -25.113  1.00  0.00     0.093 A 
ATOM      8  C   UNL     1      18.539 -23.737 -24.236  1.00  0.00     0.123 A 
ATOM      9  C   UNL     1      17.234 -23.664 -24.729  1.00  0.00     0.094 A 
ATOM     10  C   UNL     1      17.004 -23.464 -26.092  1.00  0.00     0.146 A 
ATOM     11  O   UNL     1      15.747 -23.381 -26.517  1.00  0.00    -0.456 OA
ENDROOT
BRANCH   1  12
ATOM     12  C   UNL     1      13.978 -23.102 -28.148  1.00  0.00     0.021 A 
ATOM     13  C   UNL     1      13.612 -22.819 -29.475  1.00  0.00     0.016 A 
ATOM     14  C   UNL     1      12.265 -22.763 -29.844  1.00  0.00     0.051 A 
ATOM     15  C   UNL     1      11.263 -23.000 -28.896  1.00  0.00     0.157 A 
ATOM     16  C   UNL     1      12.965 -23.353 -27.202  1.00  0.00     0.062 A 
ATOM     17  C   UNL     1      11.613 -23.298 -27.573  1.00  0.00     0.158 A 
BRANCH  15  18
ATOM     18  O   UNL     1       9.919 -22.943 -29.259  1.00  0.00    -0.504 OA
ATOM     19  H   UNL     1       9.618 -23.133 -30.208  1.00  0.00     0.293 HD
ENDBRANCH  15  18
BRANCH  17  20
ATOM     20  O   UNL     1      10.612 -23.543 -26.634  1.00  0.00    -0.504 OA
ATOM     21  H   UNL     1       9.677 -23.811 -26.915  1.00  0.00     0.293 HD
ENDBRANCH  17  20
ENDBRANCH   1  12
BRANCH   6  22
ATOM     22  O   UNL     1      20.567 -23.462 -27.286  1.00  0.00    -0.507 OA
ATOM     23  H   UNL     1      20.575 -23.508 -28.293  1.00  0.00     0.293 HD
ENDBRANCH   6  22
BRANCH   8  24
ATOM     24  O   UNL     1      18.773 -23.918 -22.875  1.00  0.00    -0.508 OA
ATOM     25  H   UNL     1      18.726 -23.146 -22.221  1.00  0.00     0.293 HD
ENDBRANCH   8  24
TORSDOF 5
ENDMDL
MODEL 3
REMARK VINA RESULT:    -6.696      2.959      3.208
REMARK INTER + INTRA:          -8.145
REMARK INTER:                  -7.850
REMARK INTRA:                  -0.296
REMARK UNBOUND:                -0.274
REMARK SMILES O=c1cc(-c2ccc(O)c(O)c2)oc2cc(O)cc(O)c12
REMARK SMILES IDX 4 1 3 2 2 3 1 4 21 5 19 6 18 7 16 8 15 9 14 10 13 11 5 12
REMARK SMILES IDX 6 13 7 14 8 15 12 16 10 17 9 18 11 20 20 22 17 24
REMARK H PARENT 9 19 11 21 20 23 17 25
REMARK Flexibility Score: inf
ROOT
ATOM      1  C   UNL     1      15.346 -23.131 -28.000  1.00  0.00     0.138 A 
ATOM      2  C   UNL     1      15.811 -23.263 -26.685  1.00  0.00     0.100 A 
ATOM      3  C   UNL     1      17.184 -23.314 -26.439  1.00  0.00     0.197 A 
ATOM      4  O   UNL     1      17.568 -23.490 -25.254  1.00  0.00    -0.289 OA
ATOM      5  C   UNL     1      18.097 -23.196 -27.515  1.00  0.00     0.107 A 
ATOM      6  C   UNL     1      19.518 -23.200 -27.381  1.00  0.00     0.134 A 
ATOM      7  C   UNL     1      20.319 -23.175 -28.530  1.00  0.00     0.093 A 
ATOM      8  C   UNL     1      19.754 -23.088 -29.801  1.00  0.00     0.123 A 
ATOM      9  C   UNL     1      18.366 -23.032 -29.942  1.00  0.00     0.094 A 
ATOM     10  C   UNL     1      17.540 -23.090 -28.817  1.00  0.00     0.146 A 
ATOM     11  O   UNL     1      16.223 -23.053 -28.996  1.00  0.00    -0.456 OA
ENDROOT
BRANCH   1  12
ATOM     12  C   UNL     1      13.898 -23.067 -28.318  1.00  0.00     0.021 A 
ATOM     13  C   UNL     1      13.491 -22.713 -29.616  1.00  0.00     0.016 A 
ATOM     14  C   UNL     1      12.134 -22.653 -29.944  1.00  0.00     0.051 A 
ATOM     15  C   UNL     1      11.161 -22.957 -28.984  1.00  0.00     0.157 A 
ATOM     16  C   UNL     1      12.914 -23.385 -27.361  1.00  0.00     0.062 A 
ATOM     17  C   UNL     1      11.552 -23.327 -27.691  1.00  0.00     0.158 A 
BRANCH  15  18
ATOM     18  O   UNL     1       9.807 -22.897 -29.307  1.00  0.00    -0.504 OA
ATOM     19  H   UNL     1       9.111 -23.401 -28.770  1.00  0.00     0.293 HD
ENDBRANCH  15  18
BRANCH  17  20
ATOM     20  O   UNL     1      10.581 -23.639 -26.741  1.00  0.00    -0.504 OA
ATOM     21  H   UNL     1      10.732 -23.471 -25.754  1.00  0.00     0.293 HD
ENDBRANCH  17  20
ENDBRANCH   1  12
BRANCH   6  22
ATOM     22  O   UNL     1      20.190 -23.206 -26.156  1.00  0.00    -0.507 OA
ATOM     23  H   UNL     1      19.963 -23.799 -25.372  1.00  0.00     0.293 HD
ENDBRANCH   6  22
BRANCH   8  24
ATOM     24  O   UNL     1      20.582 -23.049 -30.921  1.00  0.00    -0.508 OA
ATOM     25  H   UNL     1      21.536 -22.713 -30.864  1.00  0.00     0.293 HD
ENDBRANCH   8  24
TORSDOF 5
ENDMDL
MODEL 4
REMARK VINA RESULT:    -6.534      4.374      6.719
REMARK INTER + INTRA:          -7.954
REMARK INTER:                  -7.658
REMARK INTRA:                  -0.296
REMARK UNBOUND:                -0.274
REMARK SMILES O=c1cc(-c2ccc(O)c(O)c2)oc2cc(O)cc(O)c12
REMARK SMILES IDX 4 1 3 2 2 3 1 4 21 5 19 6 18 7 16 8 15 9 14 10 13 11 5 12
REMARK SMILES IDX 6 13 7 14 8 15 12 16 10 17 9 18 11 20 20 22 17 24
REMARK H PARENT 9 19 11 21 20 23 17 25
REMARK Flexibility Score: inf
ROOT
ATOM      1  C   UNL     1      18.242 -25.059 -27.400  1.00  0.00     0.138 A 
ATOM      2  C   UNL     1      18.472 -25.000 -26.019  1.00  0.00     0.100 A 
ATOM      3  C   UNL     1      18.913 -23.808 -25.442  1.00  0.00     0.197 A 
ATOM      4  O   UNL     1      19.164 -23.803 -24.209  1.00  0.00    -0.289 OA
ATOM      5  C   UNL     1      19.091 -22.659 -26.250  1.00  0.00     0.107 A 
ATOM      6  C   UNL     1      19.504 -21.381 -25.767  1.00  0.00     0.134 A 
ATOM      7  C   UNL     1      19.740 -20.343 -26.678  1.00  0.00     0.093 A 
ATOM      8  C   UNL     1      19.523 -20.518 -28.044  1.00  0.00     0.123 A 
ATOM      9  C   UNL     1      19.071 -21.749 -28.522  1.00  0.00     0.094 A 
ATOM     10  C   UNL     1      18.859 -22.814 -27.643  1.00  0.00     0.146 A 
ATOM     11  O   UNL     1      18.446 -23.975 -28.141  1.00  0.00    -0.456 OA
ENDROOT
BRANCH   1  12
ATOM     12  C   UNL     1      17.769 -26.299 -28.064  1.00  0.00     0.021 A 
ATOM     13  C   UNL     1      17.723 -26.356 -29.468  1.00  0.00     0.016 A 
ATOM     14  C   UNL     1      17.288 -27.513 -30.119  1.00  0.00     0.051 A 
ATOM     15  C   UNL     1      16.903 -28.637 -29.379  1.00  0.00     0.157 A 
ATOM     16  C   UNL     1      17.392 -27.439 -27.326  1.00  0.00     0.062 A 
ATOM     17  C   UNL     1      16.958 -28.601 -27.980  1.00  0.00     0.158 A 
BRANCH  15  18
ATOM     18  O   UNL     1      16.468 -29.793 -30.024  1.00  0.00    -0.504 OA
ATOM     19  H   UNL     1      17.073 -30.308 -30.653  1.00  0.00     0.293 HD
ENDBRANCH  15  18
BRANCH  17  20
ATOM     20  O   UNL     1      16.584 -29.726 -27.247  1.00  0.00    -0.504 OA
ATOM     21  H   UNL     1      15.889 -30.377 -27.592  1.00  0.00     0.293 HD
ENDBRANCH  17  20
ENDBRANCH   1  12
BRANCH   6  22
ATOM     22  O   UNL     1      19.675 -21.071 -24.415  1.00  0.00    -0.507 OA
ATOM     23  H   UNL     1      18.991 -20.612 -23.834  1.00  0.00     0.293 HD
ENDBRANCH   6  22
BRANCH   8  24
ATOM     24  O   UNL     1      19.753 -19.459 -28.919  1.00  0.00    -0.508 OA
ATOM     25  H   UNL     1      19.421 -18.524 -28.718  1.00  0.00     0.293 HD
ENDBRANCH   8  24
TORSDOF 5
ENDMDL
MODEL 5
REMARK VINA RESULT:    -6.495      1.368      2.723
REMARK INTER + INTRA:          -7.908
REMARK INTER:                  -7.595
REMARK INTRA:                  -0.313
REMARK UNBOUND:                -0.274
REMARK SMILES O=c1cc(-c2ccc(O)c(O)c2)oc2cc(O)cc(O)c12
REMARK SMILES IDX 4 1 3 2 2 3 1 4 21 5 19 6 18 7 16 8 15 9 14 10 13 11 5 12
REMARK SMILES IDX 6 13 7 14 8 15 12 16 10 17 9 18 11 20 20 22 17 24
REMARK H PARENT 9 19 11 21 20 23 17 25
REMARK Flexibility Score: inf
ROOT
ATOM      1  C   UNL     1      14.979 -23.594 -28.283  1.00  0.00     0.138 A 
ATOM      2  C   UNL     1      15.162 -24.581 -29.260  1.00  0.00     0.100 A 
ATOM      3  C   UNL     1      16.224 -25.479 -29.145  1.00  0.00     0.197 A 
ATOM      4  O   UNL     1      16.395 -26.317 -30.068  1.00  0.00    -0.289 OA
ATOM      5  C   UNL     1      17.086 -25.410 -28.024  1.00  0.00     0.107 A 
ATOM      6  C   UNL     1      18.181 -26.294 -27.783  1.00  0.00     0.134 A 
ATOM      7  C   UNL     1      19.023 -26.065 -26.688  1.00  0.00     0.093 A 
ATOM      8  C   UNL     1      18.779 -25.024 -25.795  1.00  0.00     0.123 A 
ATOM      9  C   UNL     1      17.682 -24.183 -25.992  1.00  0.00     0.094 A 
ATOM     10  C   UNL     1      16.843 -24.364 -27.094  1.00  0.00     0.146 A 
ATOM     11  O   UNL     1      15.820 -23.530 -27.256  1.00  0.00    -0.456 OA
ENDROOT
BRANCH   1  12
ATOM     12  C   UNL     1      13.865 -22.616 -28.353  1.00  0.00     0.021 A 
ATOM     13  C   UNL     1      13.210 -22.403 -29.579  1.00  0.00     0.016 A 
ATOM     14  C   UNL     1      12.153 -21.494 -29.672  1.00  0.00     0.051 A 
ATOM     15  C   UNL     1      11.725 -20.790 -28.539  1.00  0.00     0.157 A 
ATOM     16  C   UNL     1      13.420 -21.915 -27.215  1.00  0.00     0.062 A 
ATOM     17  C   UNL     1      12.358 -21.004 -27.308  1.00  0.00     0.158 A 
BRANCH  15  18
ATOM     18  O   UNL     1      10.673 -19.881 -28.628  1.00  0.00    -0.504 OA
ATOM     19  H   UNL     1      10.742 -18.951 -28.233  1.00  0.00     0.293 HD
ENDBRANCH  15  18
BRANCH  17  20
ATOM     20  O   UNL     1      11.922 -20.309 -26.180  1.00  0.00    -0.504 OA
ATOM     21  H   UNL     1      10.938 -20.227 -25.957  1.00  0.00     0.293 HD
ENDBRANCH  17  20
ENDBRANCH   1  12
BRANCH   6  22
ATOM     22  O   UNL     1      18.471 -27.414 -28.567  1.00  0.00    -0.507 OA
ATOM     23  H   UNL     1      17.886 -28.232 -28.649  1.00  0.00     0.293 HD
ENDBRANCH   6  22
BRANCH   8  24
ATOM     24  O   UNL     1      19.630 -24.836 -24.707  1.00  0.00    -0.508 OA
ATOM     25  H   UNL     1      20.338 -25.518 -24.464  1.00  0.00     0.293 HD
ENDBRANCH   8  24
TORSDOF 5
ENDMDL
MODEL 6
REMARK VINA RESULT:    -6.482      3.573      5.585
REMARK INTER + INTRA:          -7.893
REMARK INTER:                  -7.597
REMARK INTRA:                  -0.297
REMARK UNBOUND:                -0.274
REMARK SMILES O=c1cc(-c2ccc(O)c(O)c2)oc2cc(O)cc(O)c12
REMARK SMILES IDX 4 1 3 2 2 3 1 4 21 5 19 6 18 7 16 8 15 9 14 10 13 11 5 12
REMARK SMILES IDX 6 13 7 14 8 15 12 16 10 17 9 18 11 20 20 22 17 24
REMARK H PARENT 9 19 11 21 20 23 17 25
REMARK Flexibility Score: inf
ROOT
ATOM      1  C   UNL     1      18.283 -23.663 -27.141  1.00  0.00     0.138 A 
ATOM      2  C   UNL     1      17.810 -23.074 -28.321  1.00  0.00     0.100 A 
ATOM      3  C   UNL     1      17.240 -23.873 -29.313  1.00  0.00     0.197 A 
ATOM      4  O   UNL     1      16.877 -23.321 -30.384  1.00  0.00    -0.289 OA
ATOM      5  C   UNL     1      17.110 -25.267 -29.105  1.00  0.00     0.107 A 
ATOM      6  C   UNL     1      16.514 -26.176 -30.030  1.00  0.00     0.134 A 
ATOM      7  C   UNL     1      16.531 -27.550 -29.756  1.00  0.00     0.093 A 
ATOM      8  C   UNL     1      17.068 -28.042 -28.567  1.00  0.00     0.123 A 
ATOM      9  C   UNL     1      17.609 -27.157 -27.632  1.00  0.00     0.094 A 
ATOM     10  C   UNL     1      17.638 -25.785 -27.892  1.00  0.00     0.146 A 
ATOM     11  O   UNL     1      18.178 -24.979 -26.983  1.00  0.00    -0.456 OA
ENDROOT
BRANCH   1  12
ATOM     12  C   UNL     1      18.895 -22.861 -26.053  1.00  0.00     0.021 A 
ATOM     13  C   UNL     1      19.400 -23.513 -24.915  1.00  0.00     0.016 A 
ATOM     14  C   UNL     1      19.988 -22.782 -23.879  1.00  0.00     0.051 A 
ATOM     15  C   UNL     1      20.091 -21.388 -23.968  1.00  0.00     0.157 A 
ATOM     16  C   UNL     1      19.015 -21.460 -26.142  1.00  0.00     0.062 A 
ATOM     17  C   UNL     1      19.606 -20.727 -25.103  1.00  0.00     0.158 A 
BRANCH  15  18
ATOM     18  O   UNL     1      20.675 -20.656 -22.937  1.00  0.00    -0.504 OA
ATOM     19  H   UNL     1      21.386 -19.957 -23.120  1.00  0.00     0.293 HD
ENDBRANCH  15  18
BRANCH  17  20
ATOM     20  O   UNL     1      19.721 -19.340 -25.193  1.00  0.00    -0.504 OA
ATOM     21  H   UNL     1      20.547 -18.854 -24.866  1.00  0.00     0.293 HD
ENDBRANCH  17  20
ENDBRANCH   1  12
BRANCH   6  22
ATOM     22  O   UNL     1      15.878 -25.787 -31.212  1.00  0.00    -0.507 OA
ATOM     23  H   UNL     1      16.318 -25.737 -32.118  1.00  0.00     0.293 HD
ENDBRANCH   6  22
BRANCH   8  24
ATOM     24  O   UNL     1      17.054 -29.412 -28.321  1.00  0.00    -0.508 OA
ATOM     25  H   UNL     1      16.750 -29.788 -27.431  1.00  0.00     0.293 HD
ENDBRANCH   8  24
TORSDOF 5
ENDMDL
MODEL 7
REMARK VINA RESULT:    -6.443      4.611      6.708
REMARK INTER + INTRA:          -7.847
REMARK INTER:                  -7.573
REMARK INTRA:                  -0.275
REMARK UNBOUND:                -0.274
REMARK SMILES O=c1cc(-c2ccc(O)c(O)c2)oc2cc(O)cc(O)c12
REMARK SMILES IDX 4 1 3 2 2 3 1 4 21 5 19 6 18 7 16 8 15 9 14 10 13 11 5 12
REMARK SMILES IDX 6 13 7 14 8 15 12 16 10 17 9 18 11 20 20 22 17 24
REMARK H PARENT 9 19 11 21 20 23 17 25
REMARK Flexibility Score: inf
ROOT
ATOM      1  C   UNL     1      18.900 -25.329 -28.311  1.00  0.00     0.138 A 
ATOM      2  C   UNL     1      18.523 -24.683 -27.125  1.00  0.00     0.100 A 
ATOM      3  C   UNL     1      19.292 -23.624 -26.640  1.00  0.00     0.197 A 
ATOM      4  O   UNL     1      18.960 -23.103 -25.544  1.00  0.00    -0.289 OA
ATOM      5  C   UNL     1      20.426 -23.187 -27.367  1.00  0.00     0.107 A 
ATOM      6  C   UNL     1      21.265 -22.096 -26.989  1.00  0.00     0.134 A 
ATOM      7  C   UNL     1      22.416 -21.819 -27.737  1.00  0.00     0.093 A 
ATOM      8  C   UNL     1      22.727 -22.552 -28.881  1.00  0.00     0.123 A 
ATOM      9  C   UNL     1      21.886 -23.589 -29.290  1.00  0.00     0.094 A 
ATOM     10  C   UNL     1      20.750 -23.913 -28.545  1.00  0.00     0.146 A 
ATOM     11  O   UNL     1      19.986 -24.919 -28.958  1.00  0.00    -0.456 OA
ENDROOT
BRANCH   1  12
ATOM     12  C   UNL     1      18.117 -26.457 -28.873  1.00  0.00     0.021 A 
ATOM     13  C   UNL     1      17.764 -26.442 -30.234  1.00  0.00     0.016 A 
ATOM     14  C   UNL     1      17.034 -27.495 -30.791  1.00  0.00     0.051 A 
ATOM     15  C   UNL     1      16.653 -28.586 -30.000  1.00  0.00     0.157 A 
ATOM     16  C   UNL     1      17.743 -27.565 -28.087  1.00  0.00     0.062 A 
ATOM     17  C   UNL     1      17.012 -28.623 -28.646  1.00  0.00     0.158 A 
BRANCH  15  18
ATOM     18  O   UNL     1      15.924 -29.638 -30.551  1.00  0.00    -0.504 OA
ATOM     19  H   UNL     1      15.760 -30.496 -30.037  1.00  0.00     0.293 HD
ENDBRANCH  15  18
BRANCH  17  20
ATOM     20  O   UNL     1      16.641 -29.716 -27.865  1.00  0.00    -0.504 OA
ATOM     21  H   UNL     1      16.086 -29.604 -27.026  1.00  0.00     0.293 HD
ENDBRANCH  17  20
ENDBRANCH   1  12
BRANCH   6  22
ATOM     22  O   UNL     1      21.006 -21.246 -25.909  1.00  0.00    -0.507 OA
ATOM     23  H   UNL     1      21.441 -21.313 -25.002  1.00  0.00     0.293 HD
ENDBRANCH   6  22
BRANCH   8  24
ATOM     24  O   UNL     1      23.871 -22.238 -29.609  1.00  0.00    -0.508 OA
ATOM     25  H   UNL     1      23.875 -22.247 -30.622  1.00  0.00     0.293 HD
ENDBRANCH   8  24
TORSDOF 5
ENDMDL
MODEL 8
REMARK VINA RESULT:    -6.323      5.019      6.675
REMARK INTER + INTRA:          -7.707
REMARK INTER:                  -7.432
REMARK INTRA:                  -0.274
REMARK UNBOUND:                -0.274
REMARK SMILES O=c1cc(-c2ccc(O)c(O)c2)oc2cc(O)cc(O)c12
REMARK SMILES IDX 4 1 3 2 2 3 1 4 21 5 19 6 18 7 16 8 15 9 14 10 13 11 5 12
REMARK SMILES IDX 6 13 7 14 8 15 12 16 10 17 9 18 11 20 20 22 17 24
REMARK H PARENT 9 19 11 21 20 23 17 25
REMARK Flexibility Score: inf
ROOT
ATOM      1  C   UNL     1      19.541 -24.757 -28.950  1.00  0.00     0.138 A 
ATOM      2  C   UNL     1      19.193 -24.698 -30.306  1.00  0.00     0.100 A 
ATOM      3  C   UNL     1      18.318 -25.646 -30.838  1.00  0.00     0.197 A 
ATOM      4  O   UNL     1      18.071 -25.600 -32.070  1.00  0.00    -0.289 OA
ATOM      5  C   UNL     1      17.760 -26.639 -29.996  1.00  0.00     0.107 A 
ATOM      6  C   UNL     1      16.831 -27.636 -30.419  1.00  0.00     0.134 A 
ATOM      7  C   UNL     1      16.423 -28.626 -29.516  1.00  0.00     0.093 A 
ATOM      8  C   UNL     1      16.863 -28.622 -28.193  1.00  0.00     0.123 A 
ATOM      9  C   UNL     1      17.733 -27.622 -27.755  1.00  0.00     0.094 A 
ATOM     10  C   UNL     1      18.185 -26.641 -28.641  1.00  0.00     0.146 A 
ATOM     11  O   UNL     1      19.028 -25.718 -28.188  1.00  0.00    -0.456 OA
ENDROOT
BRANCH   1  12
ATOM     12  C   UNL     1      20.464 -23.773 -28.332  1.00  0.00     0.021 A 
ATOM     13  C   UNL     1      20.093 -23.136 -27.135  1.00  0.00     0.016 A 
ATOM     14  C   UNL     1      20.946 -22.211 -26.528  1.00  0.00     0.051 A 
ATOM     15  C   UNL     1      22.189 -21.914 -27.101  1.00  0.00     0.157 A 
ATOM     16  C   UNL     1      21.721 -23.480 -28.896  1.00  0.00     0.062 A 
ATOM     17  C   UNL     1      22.578 -22.552 -28.286  1.00  0.00     0.158 A 
BRANCH  15  18
ATOM     18  O   UNL     1      23.042 -20.991 -26.500  1.00  0.00    -0.504 OA
ATOM     19  H   UNL     1      23.323 -20.142 -26.976  1.00  0.00     0.293 HD
ENDBRANCH  15  18
BRANCH  17  20
ATOM     20  O   UNL     1      23.821 -22.263 -28.847  1.00  0.00    -0.504 OA
ATOM     21  H   UNL     1      24.478 -21.643 -28.389  1.00  0.00     0.293 HD
ENDBRANCH  17  20
ENDBRANCH   1  12
BRANCH   6  22
ATOM     22  O   UNL     1      16.264 -27.689 -31.695  1.00  0.00    -0.507 OA
ATOM     23  H   UNL     1      16.253 -26.928 -32.357  1.00  0.00     0.293 HD
ENDBRANCH   6  22
BRANCH   8  24
ATOM     24  O   UNL     1      16.425 -29.614 -27.319  1.00  0.00    -0.508 OA
ATOM     25  H   UNL     1      15.938 -30.437 -27.652  1.00  0.00     0.293 HD
ENDBRANCH   8  24
TORSDOF 5
ENDMDL
MODEL 9
REMARK VINA RESULT:    -6.295      4.096      6.588
REMARK INTER + INTRA:          -7.674
REMARK INTER:                  -7.356
REMARK INTRA:                  -0.318
REMARK UNBOUND:                -0.274
REMARK SMILES O=c1cc(-c2ccc(O)c(O)c2)oc2cc(O)cc(O)c12
REMARK SMILES IDX 4 1 3 2 2 3 1 4 21 5 19 6 18 7 16 8 15 9 14 10 13 11 5 12
REMARK SMILES IDX 6 13 7 14 8 15 12 16 10 17 9 18 11 20 20 22 17 24
REMARK H PARENT 9 19 11 21 20 23 17 25
REMARK Flexibility Score: inf
ROOT
ATOM      1  C   UNL     1      17.951 -24.872 -28.242  1.00  0.00     0.138 A 
ATOM      2  C   UNL     1      18.152 -23.748 -29.054  1.00  0.00     0.100 A 
ATOM      3  C   UNL     1      18.567 -22.546 -28.481  1.00  0.00     0.197 A 
ATOM      4  O   UNL     1      18.683 -21.541 -29.229  1.00  0.00    -0.289 OA
ATOM      5  C   UNL     1      18.816 -22.479 -27.088  1.00  0.00     0.107 A 
ATOM      6  C   UNL     1      19.275 -21.317 -26.398  1.00  0.00     0.134 A 
ATOM      7  C   UNL     1      19.391 -21.345 -25.003  1.00  0.00     0.093 A 
ATOM      8  C   UNL     1      19.123 -22.506 -24.279  1.00  0.00     0.123 A 
ATOM      9  C   UNL     1      18.722 -23.663 -24.948  1.00  0.00     0.094 A 
ATOM     10  C   UNL     1      18.563 -23.657 -26.336  1.00  0.00     0.146 A 
ATOM     11  O   UNL     1      18.161 -24.776 -26.933  1.00  0.00    -0.456 OA
ENDROOT
BRANCH   1  12
ATOM     12  C   UNL     1      17.514 -26.177 -28.799  1.00  0.00     0.021 A 
ATOM     13  C   UNL     1      17.346 -26.312 -30.189  1.00  0.00     0.016 A 
ATOM     14  C   UNL     1      16.943 -27.531 -30.741  1.00  0.00     0.051 A 
ATOM     15  C   UNL     1      16.712 -28.638 -29.915  1.00  0.00     0.157 A 
ATOM     16  C   UNL     1      17.292 -27.298 -27.976  1.00  0.00     0.062 A 
ATOM     17  C   UNL     1      16.890 -28.522 -28.531  1.00  0.00     0.158 A 
BRANCH  15  18
ATOM     18  O   UNL     1      16.308 -29.854 -30.461  1.00  0.00    -0.504 OA
ATOM     19  H   UNL     1      16.046 -29.936 -31.437  1.00  0.00     0.293 HD
ENDBRANCH  15  18
BRANCH  17  20
ATOM     20  O   UNL     1      16.669 -29.629 -27.713  1.00  0.00    -0.504 OA
ATOM     21  H   UNL     1      15.852 -29.694 -27.118  1.00  0.00     0.293 HD
ENDBRANCH  17  20
ENDBRANCH   1  12
BRANCH   6  22
ATOM     22  O   UNL     1      19.647 -20.127 -27.029  1.00  0.00    -0.507 OA
ATOM     23  H   UNL     1      19.557 -19.205 -26.629  1.00  0.00     0.293 HD
ENDBRANCH   6  22
BRANCH   8  24
ATOM     24  O   UNL     1      19.265 -22.501 -22.894  1.00  0.00    -0.508 OA
ATOM     25  H   UNL     1      20.143 -22.743 -22.449  1.00  0.00     0.293 HD
ENDBRANCH   8  24
TORSDOF 5
ENDMDL
