MODEL 1
REMARK VINA RESULT:    48.677      0.000      0.000
REMARK INTER + INTRA:          57.480
REMARK INTER:                  57.214
REMARK INTRA:                   0.266
REMARK UNBOUND:                 0.266
REMARK SMILES O=c1c(O)c(-c2ccc(O)cc2)oc2cc(O)cc(O)c12
REMARK SMILES IDX 5 1 3 2 2 3 1 4 21 5 19 6 18 7 16 8 15 9 14 10 13 11 6 12
REMARK SMILES IDX 7 13 8 14 9 15 12 16 11 17 10 18 4 20 20 22 17 24
REMARK H PARENT 10 19 4 21 20 23 17 25
REMARK Flexibility Score: inf
ROOT
ATOM      1  C   UNL     1      18.071  21.738  11.627  1.00  0.00     0.180 A 
ATOM      2  C   UNL     1      17.816  21.527  10.258  1.00  0.00     0.208 A 
ATOM      3  C   UNL     1      18.869  21.111   9.429  1.00  0.00     0.238 A 
ATOM      4  O   UNL     1      18.655  20.929   8.200  1.00  0.00    -0.285 OA
ATOM      5  C   UNL     1      20.148  20.893   9.983  1.00  0.00     0.111 A 
ATOM      6  C   UNL     1      21.261  20.469   9.217  1.00  0.00     0.134 A 
ATOM      7  C   UNL     1      22.499  20.266   9.844  1.00  0.00     0.093 A 
ATOM      8  C   UNL     1      22.646  20.477  11.217  1.00  0.00     0.123 A 
ATOM      9  C   UNL     1      21.551  20.897  11.978  1.00  0.00     0.094 A 
ATOM     10  C   UNL     1      20.309  21.106  11.372  1.00  0.00     0.146 A 
ATOM     11  O   UNL     1      19.286  21.509  12.117  1.00  0.00    -0.452 OA
ENDROOT
BRANCH   1  12
ATOM     12  C   UNL     1      17.017  22.196  12.562  1.00  0.00     0.021 A 
ATOM     13  C   UNL     1      15.673  21.815  12.397  1.00  0.00     0.016 A 
ATOM     14  C   UNL     1      14.692  22.280  13.278  1.00  0.00     0.047 A 
ATOM     15  C   UNL     1      15.039  23.142  14.326  1.00  0.00     0.115 A 
ATOM     16  C   UNL     1      17.353  23.078  13.603  1.00  0.00     0.016 A 
ATOM     17  C   UNL     1      16.370  23.541  14.484  1.00  0.00     0.047 A 
BRANCH  15  18
ATOM     18  O   UNL     1      14.071  23.612  15.211  1.00  0.00    -0.508 OA
ATOM     19  H   UNL     1      14.091  24.562  15.562  1.00  0.00     0.293 HD
ENDBRANCH  15  18
ENDBRANCH   1  12
BRANCH   2  20
ATOM     20  O   UNL     1      16.528  21.701   9.744  1.00  0.00    -0.502 OA
ATOM     21  H   UNL     1      16.342  22.276   8.931  1.00  0.00     0.293 HD
ENDBRANCH   2  20
BRANCH   6  22
ATOM     22  O   UNL     1      21.146  20.249   7.844  1.00  0.00    -0.507 OA
ATOM     23  H   UNL     1      21.872  19.776   7.317  1.00  0.00     0.293 HD
ENDBRANCH   6  22
BRANCH   8  24
ATOM     24  O   UNL     1      23.887  20.267  11.815  1.00  0.00    -0.508 OA
ATOM     25  H   UNL     1      24.000  19.621  12.587  1.00  0.00     0.293 HD
ENDBRANCH   8  24
TORSDOF 5
ENDMDL
