MODEL 1
REMARK VINA RESULT:    -6.171      0.000      0.000
REMARK INTER + INTRA:         -20.139
REMARK INTER:                 -15.550
REMARK INTRA:                  -4.589
REMARK UNBOUND:                -4.589
REMARK SMILES CCCCCCCCCCCCCCCCCCCCCCCCCCCC(=O)[O-]
REMARK SMILES IDX 15 1 16 2 17 3 18 4 19 5 20 6 21 7 22 8 23 9 24 10 25 11
REMARK SMILES IDX 26 12 27 13 28 14 29 15 30 16 14 17 13 18 12 19 11 20 10 21
REMARK SMILES IDX 9 22 8 23 7 24 6 25 5 26 4 27 3 28 2 29 1 30
REMARK H PARENT
REMARK Flexibility Score: inf
ROOT
ATOM      1  C   UNL     1     100.746 105.898 229.231  1.00  0.00     0.000 C 
ENDROOT
BRANCH   1   2
ATOM      2  C   UNL     1     100.315 104.452 229.542  1.00  0.00     0.000 C 
BRANCH   2   3
ATOM      3  C   UNL     1     101.234 103.363 228.952  1.00  0.00     0.000 C 
BRANCH   3   4
ATOM      4  C   UNL     1     102.060 102.568 229.985  1.00  0.00     0.000 C 
BRANCH   4   5
ATOM      5  C   UNL     1     103.446 103.155 230.321  1.00  0.00     0.000 C 
BRANCH   5   6
ATOM      6  C   UNL     1     104.182 102.358 231.410  1.00  0.00     0.000 C 
BRANCH   6   7
ATOM      7  C   UNL     1     105.226 101.385 230.836  1.00  0.00     0.000 C 
BRANCH   7   8
ATOM      8  C   UNL     1     106.663 101.679 231.304  1.00  0.00     0.000 C 
BRANCH   8   9
ATOM      9  C   UNL     1     106.738 102.979 232.125  1.00  0.00     0.000 C 
BRANCH   9  10
ATOM     10  C   UNL     1     107.616 104.045 231.446  1.00  0.00     0.000 C 
BRANCH  10  11
ATOM     11  C   UNL     1     108.182 103.570 230.090  1.00  0.00     0.000 C 
BRANCH  11  12
ATOM     12  C   UNL     1     109.685 103.255 230.119  1.00  0.00     0.006 C 
BRANCH  12  13
ATOM     13  C   UNL     1     110.509 104.388 230.747  1.00  0.00     0.053 C 
BRANCH  13  14
ATOM     14  C   UNL     1     111.977 104.087 230.675  1.00  0.00     0.041 C 
ATOM     15  O   UNL     1     112.557 104.012 229.560  1.00  0.00    -0.550 OA
ATOM     16  O   UNL     1     112.709 103.921 231.845  1.00  0.00    -0.550 OA
ENDBRANCH  13  14
ENDBRANCH  12  13
ENDBRANCH  11  12
ENDBRANCH  10  11
ENDBRANCH   9  10
ENDBRANCH   8   9
ENDBRANCH   7   8
ENDBRANCH   6   7
ENDBRANCH   5   6
ENDBRANCH   4   5
ENDBRANCH   3   4
ENDBRANCH   2   3
ENDBRANCH   1   2
BRANCH   1  17
ATOM     17  C   UNL     1     101.307 106.624 230.468  1.00  0.00     0.000 C 
BRANCH  17  18
ATOM     18  C   UNL     1     101.130 105.830 231.774  1.00  0.00     0.000 C 
BRANCH  18  19
ATOM     19  C   UNL     1     100.555 106.624 232.961  1.00  0.00     0.000 C 
BRANCH  19  20
ATOM     20  C   UNL     1     101.464 106.616 234.199  1.00  0.00     0.000 C 
BRANCH  20  21
ATOM     21  C   UNL     1     102.601 105.595 234.039  1.00  0.00     0.000 C 
BRANCH  21  22
ATOM     22  C   UNL     1     103.946 106.183 234.495  1.00  0.00    -0.000 C 
BRANCH  22  23
ATOM     23  C   UNL     1     105.063 105.989 233.453  1.00  0.00    -0.000 C 
BRANCH  23  24
ATOM     24  C   UNL     1     104.623 106.175 231.987  1.00  0.00    -0.000 C 
BRANCH  24  25
ATOM     25  C   UNL     1     104.955 107.549 231.370  1.00  0.00    -0.000 C 
BRANCH  25  26
ATOM     26  C   UNL     1     105.719 107.495 230.032  1.00  0.00    -0.000 C 
BRANCH  26  27
ATOM     27  C   UNL     1     104.893 106.859 228.901  1.00  0.00    -0.000 C 
BRANCH  27  28
ATOM     28  C   UNL     1     105.292 105.400 228.624  1.00  0.00    -0.000 C 
BRANCH  28  29
ATOM     29  C   UNL     1     104.860 104.929 227.227  1.00  0.00    -0.003 C 
ATOM     30  C   UNL     1     103.484 105.474 226.858  1.00  0.00     0.004 C 
ENDBRANCH  28  29
ENDBRANCH  27  28
ENDBRANCH  26  27
ENDBRANCH  25  26
ENDBRANCH  24  25
ENDBRANCH  23  24
ENDBRANCH  22  23
ENDBRANCH  21  22
ENDBRANCH  20  21
ENDBRANCH  19  20
ENDBRANCH  18  19
ENDBRANCH  17  18
ENDBRANCH   1  17
TORSDOF 26
ENDMDL
MODEL 2
REMARK VINA RESULT:    -6.160      1.155      4.428
REMARK INTER + INTRA:         -20.112
REMARK INTER:                 -14.835
REMARK INTRA:                  -5.277
REMARK UNBOUND:                -4.589
REMARK SMILES CCCCCCCCCCCCCCCCCCCCCCCCCCCC(=O)[O-]
REMARK SMILES IDX 15 1 16 2 17 3 18 4 19 5 20 6 21 7 22 8 23 9 24 10 25 11
REMARK SMILES IDX 26 12 27 13 28 14 29 15 30 16 14 17 13 18 12 19 11 20 10 21
REMARK SMILES IDX 9 22 8 23 7 24 6 25 5 26 4 27 3 28 2 29 1 30
REMARK H PARENT
REMARK Flexibility Score: inf
ROOT
ATOM      1  C   UNL     1     102.287 106.661 230.890  1.00  0.00     0.000 C 
ENDROOT
BRANCH   1   2
ATOM      2  C   UNL     1     101.071 106.541 231.829  1.00  0.00     0.000 C 
BRANCH   2   3
ATOM      3  C   UNL     1     101.421 106.402 233.324  1.00  0.00     0.000 C 
BRANCH   3   4
ATOM      4  C   UNL     1     102.632 105.498 233.635  1.00  0.00     0.000 C 
BRANCH   4   5
ATOM      5  C   UNL     1     103.745 106.147 234.484  1.00  0.00     0.000 C 
BRANCH   5   6
ATOM      6  C   UNL     1     105.087 106.232 233.741  1.00  0.00     0.000 C 
BRANCH   6   7
ATOM      7  C   UNL     1     105.300 105.071 232.754  1.00  0.00     0.000 C 
BRANCH   7   8
ATOM      8  C   UNL     1     106.743 104.534 232.739  1.00  0.00     0.000 C 
BRANCH   8   9
ATOM      9  C   UNL     1     106.775 102.995 232.700  1.00  0.00     0.000 C 
BRANCH   9  10
ATOM     10  C   UNL     1     107.564 102.461 231.492  1.00  0.00     0.000 C 
BRANCH  10  11
ATOM     11  C   UNL     1     107.629 103.478 230.331  1.00  0.00     0.000 C 
BRANCH  11  12
ATOM     12  C   UNL     1     108.729 103.178 229.301  1.00  0.00     0.006 C 
BRANCH  12  13
ATOM     13  C   UNL     1     110.088 102.898 229.960  1.00  0.00     0.053 C 
BRANCH  13  14
ATOM     14  C   UNL     1     111.212 103.151 228.999  1.00  0.00     0.041 C 
ATOM     15  O   UNL     1     111.343 102.435 227.972  1.00  0.00    -0.550 OA
ATOM     16  O   UNL     1     112.096 104.199 229.226  1.00  0.00    -0.550 OA
ENDBRANCH  13  14
ENDBRANCH  12  13
ENDBRANCH  11  12
ENDBRANCH  10  11
ENDBRANCH   9  10
ENDBRANCH   8   9
ENDBRANCH   7   8
ENDBRANCH   6   7
ENDBRANCH   5   6
ENDBRANCH   4   5
ENDBRANCH   3   4
ENDBRANCH   2   3
ENDBRANCH   1   2
BRANCH   1  17
ATOM     17  C   UNL     1     102.784 108.112 230.751  1.00  0.00     0.000 C 
BRANCH  17  18
ATOM     18  C   UNL     1     104.316 108.241 230.811  1.00  0.00     0.000 C 
BRANCH  18  19
ATOM     19  C   UNL     1     105.061 107.921 229.501  1.00  0.00     0.000 C 
BRANCH  19  20
ATOM     20  C   UNL     1     105.821 106.587 229.542  1.00  0.00     0.000 C 
BRANCH  20  21
ATOM     21  C   UNL     1     105.279 105.613 228.484  1.00  0.00     0.000 C 
BRANCH  21  22
ATOM     22  C   UNL     1     104.106 106.231 227.708  1.00  0.00    -0.000 C 
BRANCH  22  23
ATOM     23  C   UNL     1     103.156 105.170 227.123  1.00  0.00    -0.000 C 
BRANCH  23  24
ATOM     24  C   UNL     1     101.751 105.135 227.760  1.00  0.00    -0.000 C 
BRANCH  24  25
ATOM     25  C   UNL     1     101.227 103.729 228.117  1.00  0.00    -0.000 C 
BRANCH  25  26
ATOM     26  C   UNL     1     100.748 103.563 229.572  1.00  0.00    -0.000 C 
BRANCH  26  27
ATOM     27  C   UNL     1     101.688 102.681 230.411  1.00  0.00    -0.000 C 
BRANCH  27  28
ATOM     28  C   UNL     1     103.036 103.363 230.703  1.00  0.00    -0.000 C 
BRANCH  28  29
ATOM     29  C   UNL     1     104.215 102.643 230.031  1.00  0.00    -0.003 C 
ATOM     30  C   UNL     1     104.336 101.203 230.515  1.00  0.00     0.004 C 
ENDBRANCH  28  29
ENDBRANCH  27  28
ENDBRANCH  26  27
ENDBRANCH  25  26
ENDBRANCH  24  25
ENDBRANCH  23  24
ENDBRANCH  22  23
ENDBRANCH  21  22
ENDBRANCH  20  21
ENDBRANCH  19  20
ENDBRANCH  18  19
ENDBRANCH  17  18
ENDBRANCH   1  17
TORSDOF 26
ENDMDL
MODEL 3
REMARK VINA RESULT:    -6.146      3.928      7.173
REMARK INTER + INTRA:         -20.077
REMARK INTER:                 -15.640
REMARK INTRA:                  -4.437
REMARK UNBOUND:                -4.589
REMARK SMILES CCCCCCCCCCCCCCCCCCCCCCCCCCCC(=O)[O-]
REMARK SMILES IDX 15 1 16 2 17 3 18 4 19 5 20 6 21 7 22 8 23 9 24 10 25 11
REMARK SMILES IDX 26 12 27 13 28 14 29 15 30 16 14 17 13 18 12 19 11 20 10 21
REMARK SMILES IDX 9 22 8 23 7 24 6 25 5 26 4 27 3 28 2 29 1 30
REMARK H PARENT
REMARK Flexibility Score: inf
ROOT
ATOM      1  C   UNL     1     103.256 105.503 226.911  1.00  0.00     0.000 C 
ENDROOT
BRANCH   1   2
ATOM      2  C   UNL     1     104.547 104.739 227.263  1.00  0.00     0.000 C 
BRANCH   2   3
ATOM      3  C   UNL     1     105.494 105.481 228.227  1.00  0.00     0.000 C 
BRANCH   3   4
ATOM      4  C   UNL     1     104.824 106.550 229.116  1.00  0.00     0.000 C 
BRANCH   4   5
ATOM      5  C   UNL     1     105.780 107.368 230.007  1.00  0.00     0.000 C 
BRANCH   5   6
ATOM      6  C   UNL     1     105.101 107.897 231.280  1.00  0.00     0.000 C 
BRANCH   6   7
ATOM      7  C   UNL     1     104.128 106.884 231.905  1.00  0.00     0.000 C 
BRANCH   7   8
ATOM      8  C   UNL     1     104.712 106.137 233.118  1.00  0.00     0.000 C 
BRANCH   8   9
ATOM      9  C   UNL     1     103.684 106.014 234.258  1.00  0.00     0.000 C 
BRANCH   9  10
ATOM     10  C   UNL     1     102.266 105.729 233.732  1.00  0.00     0.000 C 
BRANCH  10  11
ATOM     11  C   UNL     1     101.207 106.672 234.345  1.00  0.00     0.000 C 
BRANCH  11  12
ATOM     12  C   UNL     1      99.993 106.919 233.437  1.00  0.00     0.006 C 
BRANCH  12  13
ATOM     13  C   UNL     1     100.040 106.076 232.154  1.00  0.00     0.053 C 
BRANCH  13  14
ATOM     14  C   UNL     1      98.683 105.534 231.819  1.00  0.00     0.041 C 
ATOM     15  O   UNL     1      98.569 104.441 231.205  1.00  0.00    -0.550 OA
ATOM     16  O   UNL     1      97.542 106.224 232.212  1.00  0.00    -0.550 OA
ENDBRANCH  13  14
ENDBRANCH  12  13
ENDBRANCH  11  12
ENDBRANCH  10  11
ENDBRANCH   9  10
ENDBRANCH   8   9
ENDBRANCH   7   8
ENDBRANCH   6   7
ENDBRANCH   5   6
ENDBRANCH   4   5
ENDBRANCH   3   4
ENDBRANCH   2   3
ENDBRANCH   1   2
BRANCH   1  17
ATOM     17  C   UNL     1     101.988 104.765 227.378  1.00  0.00     0.000 C 
BRANCH  17  18
ATOM     18  C   UNL     1     101.588 105.095 228.827  1.00  0.00     0.000 C 
BRANCH  18  19
ATOM     19  C   UNL     1     101.606 103.908 229.807  1.00  0.00     0.000 C 
BRANCH  19  20
ATOM     20  C   UNL     1     102.992 103.635 230.411  1.00  0.00     0.000 C 
BRANCH  20  21
ATOM     21  C   UNL     1     103.403 102.168 230.204  1.00  0.00     0.000 C 
BRANCH  21  22
ATOM     22  C   UNL     1     104.753 101.868 230.873  1.00  0.00    -0.000 C 
BRANCH  22  23
ATOM     23  C   UNL     1     105.613 103.130 231.070  1.00  0.00    -0.000 C 
BRANCH  23  24
ATOM     24  C   UNL     1     106.362 103.202 232.417  1.00  0.00    -0.000 C 
BRANCH  24  25
ATOM     25  C   UNL     1     107.637 104.068 232.414  1.00  0.00    -0.000 C 
BRANCH  25  26
ATOM     26  C   UNL     1     108.107 104.531 231.020  1.00  0.00    -0.000 C 
BRANCH  26  27
ATOM     27  C   UNL     1     109.470 103.938 230.625  1.00  0.00    -0.000 C 
BRANCH  27  28
ATOM     28  C   UNL     1     109.381 103.015 229.398  1.00  0.00    -0.000 C 
BRANCH  28  29
ATOM     29  C   UNL     1     110.758 102.723 228.783  1.00  0.00    -0.003 C 
ATOM     30  C   UNL     1     111.788 103.765 229.207  1.00  0.00     0.004 C 
ENDBRANCH  28  29
ENDBRANCH  27  28
ENDBRANCH  26  27
ENDBRANCH  25  26
ENDBRANCH  24  25
ENDBRANCH  23  24
ENDBRANCH  22  23
ENDBRANCH  21  22
ENDBRANCH  20  21
ENDBRANCH  19  20
ENDBRANCH  18  19
ENDBRANCH  17  18
ENDBRANCH   1  17
TORSDOF 26
ENDMDL
MODEL 4
REMARK VINA RESULT:    -6.020      1.225      4.098
REMARK INTER + INTRA:         -19.759
REMARK INTER:                 -15.517
REMARK INTRA:                  -4.242
REMARK UNBOUND:                -4.589
REMARK SMILES CCCCCCCCCCCCCCCCCCCCCCCCCCCC(=O)[O-]
REMARK SMILES IDX 15 1 16 2 17 3 18 4 19 5 20 6 21 7 22 8 23 9 24 10 25 11
REMARK SMILES IDX 26 12 27 13 28 14 29 15 30 16 14 17 13 18 12 19 11 20 10 21
REMARK SMILES IDX 9 22 8 23 7 24 6 25 5 26 4 27 3 28 2 29 1 30
REMARK H PARENT
REMARK Flexibility Score: inf
ROOT
ATOM      1  C   UNL     1     101.407 106.620 232.608  1.00  0.00     0.000 C 
ENDROOT
BRANCH   1   2
ATOM      2  C   UNL     1     102.202 105.569 233.408  1.00  0.00     0.000 C 
BRANCH   2   3
ATOM      3  C   UNL     1     103.282 106.150 234.342  1.00  0.00     0.000 C 
BRANCH   3   4
ATOM      4  C   UNL     1     104.698 106.241 233.734  1.00  0.00     0.000 C 
BRANCH   4   5
ATOM      5  C   UNL     1     105.153 105.011 232.923  1.00  0.00     0.000 C 
BRANCH   5   6
ATOM      6  C   UNL     1     106.667 104.763 233.017  1.00  0.00     0.000 C 
BRANCH   6   7
ATOM      7  C   UNL     1     107.043 103.282 232.838  1.00  0.00     0.000 C 
BRANCH   7   8
ATOM      8  C   UNL     1     106.216 102.563 231.757  1.00  0.00     0.000 C 
BRANCH   8   9
ATOM      9  C   UNL     1     107.118 101.862 230.725  1.00  0.00     0.000 C 
BRANCH   9  10
ATOM     10  C   UNL     1     107.993 102.860 229.945  1.00  0.00     0.000 C 
BRANCH  10  11
ATOM     11  C   UNL     1     109.458 102.389 229.818  1.00  0.00     0.000 C 
BRANCH  11  12
ATOM     12  C   UNL     1     110.393 103.427 229.179  1.00  0.00     0.006 C 
BRANCH  12  13
ATOM     13  C   UNL     1     111.712 103.581 229.950  1.00  0.00     0.053 C 
BRANCH  13  14
ATOM     14  C   UNL     1     111.535 104.473 231.143  1.00  0.00     0.041 C 
ATOM     15  O   UNL     1     112.503 104.701 231.915  1.00  0.00    -0.550 OA
ATOM     16  O   UNL     1     110.306 105.075 231.383  1.00  0.00    -0.550 OA
ENDBRANCH  13  14
ENDBRANCH  12  13
ENDBRANCH  11  12
ENDBRANCH  10  11
ENDBRANCH   9  10
ENDBRANCH   8   9
ENDBRANCH   7   8
ENDBRANCH   6   7
ENDBRANCH   5   6
ENDBRANCH   4   5
ENDBRANCH   3   4
ENDBRANCH   2   3
ENDBRANCH   1   2
BRANCH   1  17
ATOM     17  C   UNL     1     101.949 106.804 231.178  1.00  0.00     0.000 C 
BRANCH  17  18
ATOM     18  C   UNL     1     102.843 108.047 231.020  1.00  0.00     0.000 C 
BRANCH  18  19
ATOM     19  C   UNL     1     103.903 107.965 229.906  1.00  0.00     0.000 C 
BRANCH  19  20
ATOM     20  C   UNL     1     105.343 107.908 230.436  1.00  0.00     0.000 C 
BRANCH  20  21
ATOM     21  C   UNL     1     106.119 106.746 229.794  1.00  0.00     0.000 C 
BRANCH  21  22
ATOM     22  C   UNL     1     105.179 105.594 229.409  1.00  0.00    -0.000 C 
BRANCH  22  23
ATOM     23  C   UNL     1     105.629 104.861 228.132  1.00  0.00    -0.000 C 
BRANCH  23  24
ATOM     24  C   UNL     1     104.593 104.856 226.989  1.00  0.00    -0.000 C 
BRANCH  24  25
ATOM     25  C   UNL     1     103.277 105.601 227.291  1.00  0.00    -0.000 C 
BRANCH  25  26
ATOM     26  C   UNL     1     102.084 104.694 227.650  1.00  0.00    -0.000 C 
BRANCH  26  27
ATOM     27  C   UNL     1     102.224 104.050 229.040  1.00  0.00    -0.000 C 
BRANCH  27  28
ATOM     28  C   UNL     1     100.883 103.538 229.593  1.00  0.00    -0.000 C 
BRANCH  28  29
ATOM     29  C   UNL     1     101.055 102.315 230.508  1.00  0.00    -0.003 C 
ATOM     30  C   UNL     1     102.516 102.110 230.892  1.00  0.00     0.004 C 
ENDBRANCH  28  29
ENDBRANCH  27  28
ENDBRANCH  26  27
ENDBRANCH  25  26
ENDBRANCH  24  25
ENDBRANCH  23  24
ENDBRANCH  22  23
ENDBRANCH  21  22
ENDBRANCH  20  21
ENDBRANCH  19  20
ENDBRANCH  18  19
ENDBRANCH  17  18
ENDBRANCH   1  17
TORSDOF 26
ENDMDL
MODEL 5
REMARK VINA RESULT:    -6.010      1.216      4.636
REMARK INTER + INTRA:         -19.734
REMARK INTER:                 -14.838
REMARK INTRA:                  -4.896
REMARK UNBOUND:                -4.589
REMARK SMILES CCCCCCCCCCCCCCCCCCCCCCCCCCCC(=O)[O-]
REMARK SMILES IDX 15 1 16 2 17 3 18 4 19 5 20 6 21 7 22 8 23 9 24 10 25 11
REMARK SMILES IDX 26 12 27 13 28 14 29 15 30 16 14 17 13 18 12 19 11 20 10 21
REMARK SMILES IDX 9 22 8 23 7 24 6 25 5 26 4 27 3 28 2 29 1 30
REMARK H PARENT
REMARK Flexibility Score: inf
ROOT
ATOM      1  C   UNL     1     103.928 105.871 231.899  1.00  0.00     0.000 C 
ENDROOT
BRANCH   1   2
ATOM      2  C   UNL     1     104.947 106.976 231.557  1.00  0.00     0.000 C 
BRANCH   2   3
ATOM      3  C   UNL     1     104.357 108.191 230.813  1.00  0.00     0.000 C 
BRANCH   3   4
ATOM      4  C   UNL     1     104.744 108.301 229.323  1.00  0.00     0.000 C 
BRANCH   4   5
ATOM      5  C   UNL     1     105.286 107.008 228.680  1.00  0.00     0.000 C 
BRANCH   5   6
ATOM      6  C   UNL     1     104.238 106.287 227.819  1.00  0.00     0.000 C 
BRANCH   6   7
ATOM      7  C   UNL     1     104.527 104.785 227.657  1.00  0.00     0.000 C 
BRANCH   7   8
ATOM      8  C   UNL     1     105.448 104.460 226.467  1.00  0.00     0.000 C 
BRANCH   8   9
ATOM      9  C   UNL     1     106.717 103.714 226.919  1.00  0.00     0.000 C 
BRANCH   9  10
ATOM     10  C   UNL     1     106.707 103.413 228.428  1.00  0.00     0.000 C 
BRANCH  10  11
ATOM     11  C   UNL     1     108.034 103.800 229.117  1.00  0.00     0.000 C 
BRANCH  11  12
ATOM     12  C   UNL     1     108.870 102.596 229.577  1.00  0.00     0.006 C 
BRANCH  12  13
ATOM     13  C   UNL     1     110.206 103.016 230.207  1.00  0.00     0.053 C 
BRANCH  13  14
ATOM     14  C   UNL     1     111.243 103.263 229.152  1.00  0.00     0.041 C 
ATOM     15  O   UNL     1     112.074 104.200 229.284  1.00  0.00    -0.550 OA
ATOM     16  O   UNL     1     111.309 102.436 228.037  1.00  0.00    -0.550 OA
ENDBRANCH  13  14
ENDBRANCH  12  13
ENDBRANCH  11  12
ENDBRANCH  10  11
ENDBRANCH   9  10
ENDBRANCH   8   9
ENDBRANCH   7   8
ENDBRANCH   6   7
ENDBRANCH   5   6
ENDBRANCH   4   5
ENDBRANCH   3   4
ENDBRANCH   2   3
ENDBRANCH   1   2
BRANCH   1  17
ATOM     17  C   UNL     1     103.536 105.872 233.388  1.00  0.00     0.000 C 
BRANCH  17  18
ATOM     18  C   UNL     1     102.041 106.155 233.625  1.00  0.00     0.000 C 
BRANCH  18  19
ATOM     19  C   UNL     1     101.252 106.630 232.391  1.00  0.00     0.000 C 
BRANCH  19  20
ATOM     20  C   UNL     1     100.282 105.573 231.843  1.00  0.00     0.000 C 
BRANCH  20  21
ATOM     21  C   UNL     1     100.229 105.620 230.307  1.00  0.00     0.000 C 
BRANCH  21  22
ATOM     22  C   UNL     1     101.305 104.717 229.685  1.00  0.00    -0.000 C 
BRANCH  22  23
ATOM     23  C   UNL     1     101.008 103.219 229.877  1.00  0.00    -0.000 C 
BRANCH  23  24
ATOM     24  C   UNL     1     102.055 102.451 230.710  1.00  0.00    -0.000 C 
BRANCH  24  25
ATOM     25  C   UNL     1     103.519 102.643 230.262  1.00  0.00    -0.000 C 
BRANCH  25  26
ATOM     26  C   UNL     1     104.384 101.368 230.303  1.00  0.00    -0.000 C 
BRANCH  26  27
ATOM     27  C   UNL     1     105.554 101.476 231.296  1.00  0.00    -0.000 C 
BRANCH  27  28
ATOM     28  C   UNL     1     105.672 102.875 231.923  1.00  0.00    -0.000 C 
BRANCH  28  29
ATOM     29  C   UNL     1     106.939 103.029 232.778  1.00  0.00    -0.003 C 
ATOM     30  C   UNL     1     107.285 104.498 232.999  1.00  0.00     0.004 C 
ENDBRANCH  28  29
ENDBRANCH  27  28
ENDBRANCH  26  27
ENDBRANCH  25  26
ENDBRANCH  24  25
ENDBRANCH  23  24
ENDBRANCH  22  23
ENDBRANCH  21  22
ENDBRANCH  20  21
ENDBRANCH  19  20
ENDBRANCH  18  19
ENDBRANCH  17  18
ENDBRANCH   1  17
TORSDOF 26
ENDMDL
MODEL 6
REMARK VINA RESULT:    -5.972      1.266      4.572
REMARK INTER + INTRA:         -19.639
REMARK INTER:                 -14.727
REMARK INTRA:                  -4.911
REMARK UNBOUND:                -4.589
REMARK SMILES CCCCCCCCCCCCCCCCCCCCCCCCCCCC(=O)[O-]
REMARK SMILES IDX 15 1 16 2 17 3 18 4 19 5 20 6 21 7 22 8 23 9 24 10 25 11
REMARK SMILES IDX 26 12 27 13 28 14 29 15 30 16 14 17 13 18 12 19 11 20 10 21
REMARK SMILES IDX 9 22 8 23 7 24 6 25 5 26 4 27 3 28 2 29 1 30
REMARK H PARENT
REMARK Flexibility Score: inf
ROOT
ATOM      1  C   UNL     1     103.276 105.921 232.121  1.00  0.00     0.000 C 
ENDROOT
BRANCH   1   2
ATOM      2  C   UNL     1     102.511 107.218 231.792  1.00  0.00     0.000 C 
BRANCH   2   3
ATOM      3  C   UNL     1     103.167 108.098 230.710  1.00  0.00     0.000 C 
BRANCH   3   4
ATOM      4  C   UNL     1     104.695 108.271 230.839  1.00  0.00     0.000 C 
BRANCH   4   5
ATOM      5  C   UNL     1     105.512 107.925 229.577  1.00  0.00     0.000 C 
BRANCH   5   6
ATOM      6  C   UNL     1     104.701 107.127 228.544  1.00  0.00     0.000 C 
BRANCH   6   7
ATOM      7  C   UNL     1     105.012 105.621 228.571  1.00  0.00     0.000 C 
BRANCH   7   8
ATOM      8  C   UNL     1     104.865 104.937 227.200  1.00  0.00     0.000 C 
BRANCH   8   9
ATOM      9  C   UNL     1     106.089 104.064 226.868  1.00  0.00     0.000 C 
BRANCH   9  10
ATOM     10  C   UNL     1     106.635 103.333 228.107  1.00  0.00     0.000 C 
BRANCH  10  11
ATOM     11  C   UNL     1     108.096 103.721 228.426  1.00  0.00     0.000 C 
BRANCH  11  12
ATOM     12  C   UNL     1     108.719 102.907 229.571  1.00  0.00     0.006 C 
BRANCH  12  13
ATOM     13  C   UNL     1     110.254 102.910 229.523  1.00  0.00     0.053 C 
BRANCH  13  14
ATOM     14  C   UNL     1     110.817 103.979 230.411  1.00  0.00     0.041 C 
ATOM     15  O   UNL     1     110.052 104.692 231.112  1.00  0.00    -0.550 OA
ATOM     16  O   UNL     1     112.193 104.166 230.486  1.00  0.00    -0.550 OA
ENDBRANCH  13  14
ENDBRANCH  12  13
ENDBRANCH  11  12
ENDBRANCH  10  11
ENDBRANCH   9  10
ENDBRANCH   8   9
ENDBRANCH   7   8
ENDBRANCH   6   7
ENDBRANCH   5   6
ENDBRANCH   4   5
ENDBRANCH   3   4
ENDBRANCH   2   3
ENDBRANCH   1   2
BRANCH   1  17
ATOM     17  C   UNL     1     103.790 105.893 233.573  1.00  0.00     0.000 C 
BRANCH  17  18
ATOM     18  C   UNL     1     105.292 106.207 233.694  1.00  0.00     0.000 C 
BRANCH  18  19
ATOM     19  C   UNL     1     106.203 105.505 232.670  1.00  0.00     0.000 C 
BRANCH  19  20
ATOM     20  C   UNL     1     107.153 104.476 233.301  1.00  0.00     0.000 C 
BRANCH  20  21
ATOM     21  C   UNL     1     106.883 103.068 232.747  1.00  0.00     0.000 C 
BRANCH  21  22
ATOM     22  C   UNL     1     105.746 103.084 231.715  1.00  0.00    -0.000 C 
BRANCH  22  23
ATOM     23  C   UNL     1     105.510 101.706 231.069  1.00  0.00    -0.000 C 
BRANCH  23  24
ATOM     24  C   UNL     1     104.050 101.424 230.656  1.00  0.00    -0.000 C 
BRANCH  24  25
ATOM     25  C   UNL     1     103.267 102.647 230.136  1.00  0.00    -0.000 C 
BRANCH  25  26
ATOM     26  C   UNL     1     101.892 102.869 230.796  1.00  0.00    -0.000 C 
BRANCH  26  27
ATOM     27  C   UNL     1     100.781 103.153 229.772  1.00  0.00    -0.000 C 
BRANCH  27  28
ATOM     28  C   UNL     1     101.274 103.990 228.580  1.00  0.00    -0.000 C 
BRANCH  28  29
ATOM     29  C   UNL     1     101.471 105.469 228.944  1.00  0.00    -0.003 C 
ATOM     30  C   UNL     1     100.137 106.199 229.045  1.00  0.00     0.004 C 
ENDBRANCH  28  29
ENDBRANCH  27  28
ENDBRANCH  26  27
ENDBRANCH  25  26
ENDBRANCH  24  25
ENDBRANCH  23  24
ENDBRANCH  22  23
ENDBRANCH  21  22
ENDBRANCH  20  21
ENDBRANCH  19  20
ENDBRANCH  18  19
ENDBRANCH  17  18
ENDBRANCH   1  17
TORSDOF 26
ENDMDL
MODEL 7
REMARK VINA RESULT:    -5.967      3.530      7.169
REMARK INTER + INTRA:         -19.625
REMARK INTER:                 -15.051
REMARK INTRA:                  -4.574
REMARK UNBOUND:                -4.589
REMARK SMILES CCCCCCCCCCCCCCCCCCCCCCCCCCCC(=O)[O-]
REMARK SMILES IDX 15 1 16 2 17 3 18 4 19 5 20 6 21 7 22 8 23 9 24 10 25 11
REMARK SMILES IDX 26 12 27 13 28 14 29 15 30 16 14 17 13 18 12 19 11 20 10 21
REMARK SMILES IDX 9 22 8 23 7 24 6 25 5 26 4 27 3 28 2 29 1 30
REMARK H PARENT
REMARK Flexibility Score: inf
ROOT
ATOM      1  C   UNL     1     105.557 107.351 229.317  1.00  0.00     0.000 C 
ENDROOT
BRANCH   1   2
ATOM      2  C   UNL     1     105.071 108.476 230.251  1.00  0.00     0.000 C 
BRANCH   2   3
ATOM      3  C   UNL     1     104.991 108.088 231.741  1.00  0.00     0.000 C 
BRANCH   3   4
ATOM      4  C   UNL     1     104.975 106.571 232.027  1.00  0.00     0.000 C 
BRANCH   4   5
ATOM      5  C   UNL     1     104.887 106.177 233.515  1.00  0.00     0.000 C 
BRANCH   5   6
ATOM      6  C   UNL     1     103.438 106.068 234.017  1.00  0.00     0.000 C 
BRANCH   6   7
ATOM      7  C   UNL     1     102.487 105.458 232.974  1.00  0.00     0.000 C 
BRANCH   7   8
ATOM      8  C   UNL     1     101.198 106.273 232.765  1.00  0.00     0.000 C 
BRANCH   8   9
ATOM      9  C   UNL     1     100.712 106.201 231.306  1.00  0.00     0.000 C 
BRANCH   9  10
ATOM     10  C   UNL     1     101.788 105.635 230.362  1.00  0.00     0.000 C 
BRANCH  10  11
ATOM     11  C   UNL     1     101.186 105.011 229.085  1.00  0.00     0.000 C 
BRANCH  11  12
ATOM     12  C   UNL     1     101.421 103.498 228.960  1.00  0.00     0.006 C 
BRANCH  12  13
ATOM     13  C   UNL     1     101.550 102.811 230.328  1.00  0.00     0.053 C 
BRANCH  13  14
ATOM     14  C   UNL     1     100.328 101.999 230.638  1.00  0.00     0.041 C 
ATOM     15  O   UNL     1      99.182 102.515 230.547  1.00  0.00    -0.550 OA
ATOM     16  O   UNL     1     100.455 100.663 230.999  1.00  0.00    -0.550 OA
ENDBRANCH  13  14
ENDBRANCH  12  13
ENDBRANCH  11  12
ENDBRANCH  10  11
ENDBRANCH   9  10
ENDBRANCH   8   9
ENDBRANCH   7   8
ENDBRANCH   6   7
ENDBRANCH   5   6
ENDBRANCH   4   5
ENDBRANCH   3   4
ENDBRANCH   2   3
ENDBRANCH   1   2
BRANCH   1  17
ATOM     17  C   UNL     1     104.612 107.129 228.121  1.00  0.00     0.000 C 
BRANCH  17  18
ATOM     18  C   UNL     1     104.465 105.648 227.727  1.00  0.00     0.000 C 
BRANCH  18  19
ATOM     19  C   UNL     1     105.678 104.753 228.042  1.00  0.00     0.000 C 
BRANCH  19  20
ATOM     20  C   UNL     1     105.322 103.513 228.876  1.00  0.00     0.000 C 
BRANCH  20  21
ATOM     21  C   UNL     1     105.063 103.894 230.342  1.00  0.00     0.000 C 
BRANCH  21  22
ATOM     22  C   UNL     1     105.227 102.680 231.270  1.00  0.00    -0.000 C 
BRANCH  22  23
ATOM     23  C   UNL     1     106.469 102.786 232.174  1.00  0.00    -0.000 C 
BRANCH  23  24
ATOM     24  C   UNL     1     107.359 104.019 231.912  1.00  0.00    -0.000 C 
BRANCH  24  25
ATOM     25  C   UNL     1     108.483 103.809 230.877  1.00  0.00    -0.000 C 
BRANCH  25  26
ATOM     26  C   UNL     1     108.561 102.391 230.278  1.00  0.00    -0.000 C 
BRANCH  26  27
ATOM     27  C   UNL     1     109.882 102.132 229.535  1.00  0.00    -0.000 C 
BRANCH  27  28
ATOM     28  C   UNL     1     110.395 103.374 228.787  1.00  0.00    -0.000 C 
BRANCH  28  29
ATOM     29  C   UNL     1     111.874 103.667 229.082  1.00  0.00    -0.003 C 
ATOM     30  C   UNL     1     112.086 104.039 230.545  1.00  0.00     0.004 C 
ENDBRANCH  28  29
ENDBRANCH  27  28
ENDBRANCH  26  27
ENDBRANCH  25  26
ENDBRANCH  24  25
ENDBRANCH  23  24
ENDBRANCH  22  23
ENDBRANCH  21  22
ENDBRANCH  20  21
ENDBRANCH  19  20
ENDBRANCH  18  19
ENDBRANCH  17  18
ENDBRANCH   1  17
TORSDOF 26
ENDMDL
MODEL 8
REMARK VINA RESULT:    -5.942      2.523      6.023
REMARK INTER + INTRA:         -19.563
REMARK INTER:                 -15.521
REMARK INTRA:                  -4.043
REMARK UNBOUND:                -4.589
REMARK SMILES CCCCCCCCCCCCCCCCCCCCCCCCCCCC(=O)[O-]
REMARK SMILES IDX 15 1 16 2 17 3 18 4 19 5 20 6 21 7 22 8 23 9 24 10 25 11
REMARK SMILES IDX 26 12 27 13 28 14 29 15 30 16 14 17 13 18 12 19 11 20 10 21
REMARK SMILES IDX 9 22 8 23 7 24 6 25 5 26 4 27 3 28 2 29 1 30
REMARK H PARENT
REMARK Flexibility Score: inf
ROOT
ATOM      1  C   UNL     1     100.617 103.723 230.459  1.00  0.00     0.000 C 
ENDROOT
BRANCH   1   2
ATOM      2  C   UNL     1     100.231 105.214 230.482  1.00  0.00     0.000 C 
BRANCH   2   3
ATOM      3  C   UNL     1     100.011 105.803 231.890  1.00  0.00     0.000 C 
BRANCH   3   4
ATOM      4  C   UNL     1     101.254 106.456 232.532  1.00  0.00     0.000 C 
BRANCH   4   5
ATOM      5  C   UNL     1     102.212 105.489 233.256  1.00  0.00     0.000 C 
BRANCH   5   6
ATOM      6  C   UNL     1     103.264 106.220 234.106  1.00  0.00     0.000 C 
BRANCH   6   7
ATOM      7  C   UNL     1     104.707 105.877 233.697  1.00  0.00     0.000 C 
BRANCH   7   8
ATOM      8  C   UNL     1     104.961 105.989 232.183  1.00  0.00     0.000 C 
BRANCH   8   9
ATOM      9  C   UNL     1     104.916 107.452 231.706  1.00  0.00     0.000 C 
BRANCH   9  10
ATOM     10  C   UNL     1     103.896 107.663 230.573  1.00  0.00     0.000 C 
BRANCH  10  11
ATOM     11  C   UNL     1     104.546 108.217 229.287  1.00  0.00     0.000 C 
BRANCH  11  12
ATOM     12  C   UNL     1     105.298 107.160 228.464  1.00  0.00     0.006 C 
BRANCH  12  13
ATOM     13  C   UNL     1     104.614 105.786 228.511  1.00  0.00     0.053 C 
BRANCH  13  14
ATOM     14  C   UNL     1     104.268 105.311 227.131  1.00  0.00     0.041 C 
ATOM     15  O   UNL     1     103.227 105.726 226.559  1.00  0.00    -0.550 OA
ATOM     16  O   UNL     1     105.115 104.431 226.467  1.00  0.00    -0.550 OA
ENDBRANCH  13  14
ENDBRANCH  12  13
ENDBRANCH  11  12
ENDBRANCH  10  11
ENDBRANCH   9  10
ENDBRANCH   8   9
ENDBRANCH   7   8
ENDBRANCH   6   7
ENDBRANCH   5   6
ENDBRANCH   4   5
ENDBRANCH   3   4
ENDBRANCH   2   3
ENDBRANCH   1   2
BRANCH   1  17
ATOM     17  C   UNL     1     102.082 103.499 230.037  1.00  0.00     0.000 C 
BRANCH  17  18
ATOM     18  C   UNL     1     102.702 102.224 230.636  1.00  0.00     0.000 C 
BRANCH  18  19
ATOM     19  C   UNL     1     104.164 102.352 231.101  1.00  0.00     0.000 C 
BRANCH  19  20
ATOM     20  C   UNL     1     105.006 101.099 230.820  1.00  0.00     0.000 C 
BRANCH  20  21
ATOM     21  C   UNL     1     106.473 101.321 231.221  1.00  0.00     0.000 C 
BRANCH  21  22
ATOM     22  C   UNL     1     106.647 102.642 231.986  1.00  0.00    -0.000 C 
BRANCH  22  23
ATOM     23  C   UNL     1     107.626 103.607 231.292  1.00  0.00    -0.000 C 
BRANCH  23  24
ATOM     24  C   UNL     1     107.280 103.939 229.827  1.00  0.00    -0.000 C 
BRANCH  24  25
ATOM     25  C   UNL     1     108.178 103.264 228.770  1.00  0.00    -0.000 C 
BRANCH  25  26
ATOM     26  C   UNL     1     109.489 102.667 229.317  1.00  0.00    -0.000 C 
BRANCH  26  27
ATOM     27  C   UNL     1     110.712 103.032 228.458  1.00  0.00    -0.000 C 
BRANCH  27  28
ATOM     28  C   UNL     1     111.798 103.772 229.258  1.00  0.00    -0.000 C 
BRANCH  28  29
ATOM     29  C   UNL     1     111.542 103.728 230.772  1.00  0.00    -0.003 C 
ATOM     30  C   UNL     1     111.462 105.132 231.363  1.00  0.00     0.004 C 
ENDBRANCH  28  29
ENDBRANCH  27  28
ENDBRANCH  26  27
ENDBRANCH  25  26
ENDBRANCH  24  25
ENDBRANCH  23  24
ENDBRANCH  22  23
ENDBRANCH  21  22
ENDBRANCH  20  21
ENDBRANCH  19  20
ENDBRANCH  18  19
ENDBRANCH  17  18
ENDBRANCH   1  17
TORSDOF 26
ENDMDL
MODEL 9
REMARK VINA RESULT:    -5.926      1.252      2.413
REMARK INTER + INTRA:         -19.522
REMARK INTER:                 -15.071
REMARK INTRA:                  -4.450
REMARK UNBOUND:                -4.589
REMARK SMILES CCCCCCCCCCCCCCCCCCCCCCCCCCCC(=O)[O-]
REMARK SMILES IDX 15 1 16 2 17 3 18 4 19 5 20 6 21 7 22 8 23 9 24 10 25 11
REMARK SMILES IDX 26 12 27 13 28 14 29 15 30 16 14 17 13 18 12 19 11 20 10 21
REMARK SMILES IDX 9 22 8 23 7 24 6 25 5 26 4 27 3 28 2 29 1 30
REMARK H PARENT
REMARK Flexibility Score: inf
ROOT
ATOM      1  C   UNL     1     100.679 102.917 230.077  1.00  0.00     0.000 C 
ENDROOT
BRANCH   1   2
ATOM      2  C   UNL     1     101.795 102.040 230.678  1.00  0.00     0.000 C 
BRANCH   2   3
ATOM      3  C   UNL     1     103.206 102.321 230.123  1.00  0.00     0.000 C 
BRANCH   3   4
ATOM      4  C   UNL     1     104.316 102.459 231.187  1.00  0.00     0.000 C 
BRANCH   4   5
ATOM      5  C   UNL     1     105.444 101.410 231.109  1.00  0.00     0.000 C 
BRANCH   5   6
ATOM      6  C   UNL     1     106.819 101.986 231.482  1.00  0.00     0.000 C 
BRANCH   6   7
ATOM      7  C   UNL     1     106.799 103.514 231.663  1.00  0.00     0.000 C 
BRANCH   7   8
ATOM      8  C   UNL     1     107.732 104.261 230.693  1.00  0.00     0.000 C 
BRANCH   8   9
ATOM      9  C   UNL     1     109.141 103.641 230.669  1.00  0.00     0.000 C 
BRANCH   9  10
ATOM     10  C   UNL     1     109.427 102.901 229.350  1.00  0.00     0.000 C 
BRANCH  10  11
ATOM     11  C   UNL     1     110.907 103.008 228.921  1.00  0.00     0.000 C 
BRANCH  11  12
ATOM     12  C   UNL     1     111.603 104.290 229.404  1.00  0.00     0.006 C 
BRANCH  12  13
ATOM     13  C   UNL     1     112.876 103.997 230.213  1.00  0.00     0.053 C 
BRANCH  13  14
ATOM     14  C   UNL     1     112.710 104.414 231.644  1.00  0.00     0.041 C 
ATOM     15  O   UNL     1     112.085 105.469 231.931  1.00  0.00    -0.550 OA
ATOM     16  O   UNL     1     113.221 103.618 232.662  1.00  0.00    -0.550 OA
ENDBRANCH  13  14
ENDBRANCH  12  13
ENDBRANCH  11  12
ENDBRANCH  10  11
ENDBRANCH   9  10
ENDBRANCH   8   9
ENDBRANCH   7   8
ENDBRANCH   6   7
ENDBRANCH   5   6
ENDBRANCH   4   5
ENDBRANCH   3   4
ENDBRANCH   2   3
ENDBRANCH   1   2
BRANCH   1  17
ATOM     17  C   UNL     1     101.228 104.008 229.138  1.00  0.00     0.000 C 
BRANCH  17  18
ATOM     18  C   UNL     1     100.903 105.437 229.607  1.00  0.00     0.000 C 
BRANCH  18  19
ATOM     19  C   UNL     1     100.147 105.541 230.945  1.00  0.00     0.000 C 
BRANCH  19  20
ATOM     20  C   UNL     1     101.069 105.772 232.151  1.00  0.00     0.000 C 
BRANCH  20  21
ATOM     21  C   UNL     1     102.309 106.586 231.747  1.00  0.00     0.000 C 
BRANCH  21  22
ATOM     22  C   UNL     1     103.604 105.855 232.133  1.00  0.00    -0.000 C 
BRANCH  22  23
ATOM     23  C   UNL     1     104.860 106.723 231.928  1.00  0.00    -0.000 C 
BRANCH  23  24
ATOM     24  C   UNL     1     104.627 108.025 231.134  1.00  0.00    -0.000 C 
BRANCH  24  25
ATOM     25  C   UNL     1     105.442 108.154 229.831  1.00  0.00    -0.000 C 
BRANCH  25  26
ATOM     26  C   UNL     1     105.571 106.855 229.012  1.00  0.00    -0.000 C 
BRANCH  26  27
ATOM     27  C   UNL     1     104.290 106.516 228.230  1.00  0.00    -0.000 C 
BRANCH  27  28
ATOM     28  C   UNL     1     104.404 105.194 227.452  1.00  0.00    -0.000 C 
BRANCH  28  29
ATOM     29  C   UNL     1     105.469 104.257 228.042  1.00  0.00    -0.003 C 
ATOM     30  C   UNL     1     106.500 103.856 226.992  1.00  0.00     0.004 C 
ENDBRANCH  28  29
ENDBRANCH  27  28
ENDBRANCH  26  27
ENDBRANCH  25  26
ENDBRANCH  24  25
ENDBRANCH  23  24
ENDBRANCH  22  23
ENDBRANCH  21  22
ENDBRANCH  20  21
ENDBRANCH  19  20
ENDBRANCH  18  19
ENDBRANCH  17  18
ENDBRANCH   1  17
TORSDOF 26
ENDMDL
