MODEL 1
REMARK VINA RESULT:    -6.909      0.000      0.000
REMARK INTER + INTRA:          -8.373
REMARK INTER:                  -8.121
REMARK INTRA:                  -0.252
REMARK UNBOUND:                -0.252
REMARK SMILES O=c1c(O)c(-c2ccc(O)cc2)oc2cc(O)cc(O)c12
REMARK SMILES IDX 5 1 3 2 2 3 1 4 21 5 19 6 18 7 16 8 15 9 14 10 13 11 6 12
REMARK SMILES IDX 7 13 8 14 9 15 12 16 11 17 10 18 4 20 20 22 17 24
REMARK H PARENT 10 19 4 21 20 23 17 25
REMARK Flexibility Score: inf
ROOT
ATOM      1  C   UNL     1      17.698  -1.350  10.420  1.00  0.00     0.180 A 
ATOM      2  C   UNL     1      16.515  -1.336  11.184  1.00  0.00     0.208 A 
ATOM      3  C   UNL     1      15.299  -1.655  10.559  1.00  0.00     0.238 A 
ATOM      4  O   UNL     1      14.232  -1.636  11.232  1.00  0.00    -0.285 OA
ATOM      5  C   UNL     1      15.288  -1.999   9.192  1.00  0.00     0.111 A 
ATOM      6  C   UNL     1      14.107  -2.338   8.489  1.00  0.00     0.134 A 
ATOM      7  C   UNL     1      14.180  -2.679   7.130  1.00  0.00     0.093 A 
ATOM      8  C   UNL     1      15.407  -2.689   6.463  1.00  0.00     0.123 A 
ATOM      9  C   UNL     1      16.577  -2.356   7.152  1.00  0.00     0.094 A 
ATOM     10  C   UNL     1      16.525  -2.011   8.506  1.00  0.00     0.146 A 
ATOM     11  O   UNL     1      17.650  -1.694   9.136  1.00  0.00    -0.452 OA
ENDROOT
BRANCH   1  12
ATOM     12  C   UNL     1      19.015  -1.008  11.002  1.00  0.00     0.021 A 
ATOM     13  C   UNL     1      19.539   0.282  10.816  1.00  0.00     0.016 A 
ATOM     14  C   UNL     1      20.770   0.636  11.375  1.00  0.00     0.047 A 
ATOM     15  C   UNL     1      21.487  -0.290  12.141  1.00  0.00     0.115 A 
ATOM     16  C   UNL     1      19.731  -1.927  11.791  1.00  0.00     0.016 A 
ATOM     17  C   UNL     1      20.961  -1.571  12.351  1.00  0.00     0.047 A 
BRANCH  15  18
ATOM     18  O   UNL     1      22.712   0.075  12.693  1.00  0.00    -0.508 OA
ATOM     19  H   UNL     1      22.772   0.725  13.469  1.00  0.00     0.293 HD
ENDBRANCH  15  18
ENDBRANCH   1  12
BRANCH   2  20
ATOM     20  O   UNL     1      16.560  -1.040  12.549  1.00  0.00    -0.502 OA
ATOM     21  H   UNL     1      16.368  -0.113  12.910  1.00  0.00     0.293 HD
ENDBRANCH   2  20
BRANCH   6  22
ATOM     22  O   UNL     1      12.866  -2.337   9.126  1.00  0.00    -0.507 OA
ATOM     23  H   UNL     1      12.738  -2.738  10.047  1.00  0.00     0.293 HD
ENDBRANCH   6  22
BRANCH   8  24
ATOM     24  O   UNL     1      15.453  -3.032   5.114  1.00  0.00    -0.508 OA
ATOM     25  H   UNL     1      16.207  -2.721   4.512  1.00  0.00     0.293 HD
ENDBRANCH   8  24
TORSDOF 5
ENDMDL
MODEL 2
REMARK VINA RESULT:    -6.663      3.433      5.784
REMARK INTER + INTRA:          -8.084
REMARK INTER:                  -7.836
REMARK INTRA:                  -0.248
REMARK UNBOUND:                -0.252
REMARK SMILES O=c1c(O)c(-c2ccc(O)cc2)oc2cc(O)cc(O)c12
REMARK SMILES IDX 5 1 3 2 2 3 1 4 21 5 19 6 18 7 16 8 15 9 14 10 13 11 6 12
REMARK SMILES IDX 7 13 8 14 9 15 12 16 11 17 10 18 4 20 20 22 17 24
REMARK H PARENT 10 19 4 21 20 23 17 25
REMARK Flexibility Score: inf
ROOT
ATOM      1  C   UNL     1      13.632  -1.966  11.202  1.00  0.00     0.180 A 
ATOM      2  C   UNL     1      14.992  -1.650  11.022  1.00  0.00     0.208 A 
ATOM      3  C   UNL     1      15.538  -1.713   9.730  1.00  0.00     0.238 A 
ATOM      4  O   UNL     1      16.758  -1.442   9.558  1.00  0.00    -0.285 OA
ATOM      5  C   UNL     1      14.715  -2.070   8.643  1.00  0.00     0.111 A 
ATOM      6  C   UNL     1      15.186  -2.153   7.310  1.00  0.00     0.134 A 
ATOM      7  C   UNL     1      14.301  -2.506   6.280  1.00  0.00     0.093 A 
ATOM      8  C   UNL     1      12.959  -2.777   6.556  1.00  0.00     0.123 A 
ATOM      9  C   UNL     1      12.488  -2.697   7.870  1.00  0.00     0.094 A 
ATOM     10  C   UNL     1      13.354  -2.349   8.910  1.00  0.00     0.146 A 
ATOM     11  O   UNL     1      12.883  -2.285  10.150  1.00  0.00    -0.452 OA
ENDROOT
BRANCH   1  12
ATOM     12  C   UNL     1      12.988  -1.941  12.535  1.00  0.00     0.021 A 
ATOM     13  C   UNL     1      12.089  -0.909  12.850  1.00  0.00     0.016 A 
ATOM     14  C   UNL     1      11.452  -0.877  14.094  1.00  0.00     0.047 A 
ATOM     15  C   UNL     1      11.694  -1.884  15.034  1.00  0.00     0.115 A 
ATOM     16  C   UNL     1      13.212  -2.962  13.477  1.00  0.00     0.016 A 
ATOM     17  C   UNL     1      12.572  -2.929  14.720  1.00  0.00     0.047 A 
BRANCH  15  18
ATOM     18  O   UNL     1      11.053  -1.841  16.269  1.00  0.00    -0.508 OA
ATOM     19  H   UNL     1      11.320  -1.171  16.982  1.00  0.00     0.293 HD
ENDBRANCH  15  18
ENDBRANCH   1  12
BRANCH   2  20
ATOM     20  O   UNL     1      15.774  -1.251  12.109  1.00  0.00    -0.502 OA
ATOM     21  H   UNL     1      15.464  -1.356  13.068  1.00  0.00     0.293 HD
ENDBRANCH   2  20
BRANCH   6  22
ATOM     22  O   UNL     1      16.520  -1.888   7.001  1.00  0.00    -0.507 OA
ATOM     23  H   UNL     1      17.047  -2.473   6.363  1.00  0.00     0.293 HD
ENDBRANCH   6  22
BRANCH   8  24
ATOM     24  O   UNL     1      12.100  -3.125   5.515  1.00  0.00    -0.508 OA
ATOM     25  H   UNL     1      11.492  -3.933   5.577  1.00  0.00     0.293 HD
ENDBRANCH   8  24
TORSDOF 5
ENDMDL
MODEL 3
REMARK VINA RESULT:    -6.368      4.878      7.509
REMARK INTER + INTRA:          -7.738
REMARK INTER:                  -7.449
REMARK INTRA:                  -0.289
REMARK UNBOUND:                -0.252
REMARK SMILES O=c1c(O)c(-c2ccc(O)cc2)oc2cc(O)cc(O)c12
REMARK SMILES IDX 5 1 3 2 2 3 1 4 21 5 19 6 18 7 16 8 15 9 14 10 13 11 6 12
REMARK SMILES IDX 7 13 8 14 9 15 12 16 11 17 10 18 4 20 20 22 17 24
REMARK H PARENT 10 19 4 21 20 23 17 25
REMARK Flexibility Score: inf
ROOT
ATOM      1  C   UNL     1      17.678  -0.580  14.565  1.00  0.00     0.180 A 
ATOM      2  C   UNL     1      18.244   0.645  14.968  1.00  0.00     0.208 A 
ATOM      3  C   UNL     1      19.548   0.961  14.555  1.00  0.00     0.238 A 
ATOM      4  O   UNL     1      20.068   2.050  14.919  1.00  0.00    -0.285 OA
ATOM      5  C   UNL     1      20.255   0.059  13.734  1.00  0.00     0.111 A 
ATOM      6  C   UNL     1      21.571   0.302  13.271  1.00  0.00     0.134 A 
ATOM      7  C   UNL     1      22.204  -0.641  12.448  1.00  0.00     0.093 A 
ATOM      8  C   UNL     1      21.550  -1.819  12.080  1.00  0.00     0.123 A 
ATOM      9  C   UNL     1      20.251  -2.065  12.534  1.00  0.00     0.094 A 
ATOM     10  C   UNL     1      19.603  -1.138  13.356  1.00  0.00     0.146 A 
ATOM     11  O   UNL     1      18.371  -1.399  13.778  1.00  0.00    -0.452 OA
ENDROOT
BRANCH   1  12
ATOM     12  C   UNL     1      16.317  -0.991  14.975  1.00  0.00     0.021 A 
ATOM     13  C   UNL     1      16.145  -1.734  16.154  1.00  0.00     0.016 A 
ATOM     14  C   UNL     1      14.867  -2.115  16.573  1.00  0.00     0.047 A 
ATOM     15  C   UNL     1      13.743  -1.744  15.828  1.00  0.00     0.115 A 
ATOM     16  C   UNL     1      15.181  -0.604  14.240  1.00  0.00     0.016 A 
ATOM     17  C   UNL     1      13.903  -0.985  14.662  1.00  0.00     0.047 A 
BRANCH  15  18
ATOM     18  O   UNL     1      12.475  -2.130  16.256  1.00  0.00    -0.508 OA
ATOM     19  H   UNL     1      12.343  -2.918  16.881  1.00  0.00     0.293 HD
ENDBRANCH  15  18
ENDBRANCH   1  12
BRANCH   2  20
ATOM     20  O   UNL     1      17.503   1.544  15.741  1.00  0.00    -0.502 OA
ATOM     21  H   UNL     1      17.510   2.542  15.569  1.00  0.00     0.293 HD
ENDBRANCH   2  20
BRANCH   6  22
ATOM     22  O   UNL     1      22.251   1.469  13.621  1.00  0.00    -0.507 OA
ATOM     23  H   UNL     1      22.001   2.008  14.441  1.00  0.00     0.293 HD
ENDBRANCH   6  22
BRANCH   8  24
ATOM     24  O   UNL     1      22.201  -2.739  11.261  1.00  0.00    -0.508 OA
ATOM     25  H   UNL     1      21.717  -3.543  10.878  1.00  0.00     0.293 HD
ENDBRANCH   8  24
TORSDOF 5
ENDMDL
MODEL 4
REMARK VINA RESULT:    -5.694      1.942      2.320
REMARK INTER + INTRA:          -6.945
REMARK INTER:                  -6.655
REMARK INTRA:                  -0.290
REMARK UNBOUND:                -0.252
REMARK SMILES O=c1c(O)c(-c2ccc(O)cc2)oc2cc(O)cc(O)c12
REMARK SMILES IDX 5 1 3 2 2 3 1 4 21 5 19 6 18 7 16 8 15 9 14 10 13 11 6 12
REMARK SMILES IDX 7 13 8 14 9 15 12 16 11 17 10 18 4 20 20 22 17 24
REMARK H PARENT 10 19 4 21 20 23 17 25
REMARK Flexibility Score: inf
ROOT
ATOM      1  C   UNL     1      17.768  -1.007  12.687  1.00  0.00     0.180 A 
ATOM      2  C   UNL     1      16.573  -1.297  13.373  1.00  0.00     0.208 A 
ATOM      3  C   UNL     1      15.429  -1.634  12.632  1.00  0.00     0.238 A 
ATOM      4  O   UNL     1      14.350  -1.885  13.236  1.00  0.00    -0.285 OA
ATOM      5  C   UNL     1      15.503  -1.693  11.226  1.00  0.00     0.111 A 
ATOM      6  C   UNL     1      14.398  -2.028  10.406  1.00  0.00     0.134 A 
ATOM      7  C   UNL     1      14.555  -2.076   9.013  1.00  0.00     0.093 A 
ATOM      8  C   UNL     1      15.791  -1.796   8.424  1.00  0.00     0.123 A 
ATOM      9  C   UNL     1      16.885  -1.464   9.229  1.00  0.00     0.094 A 
ATOM     10  C   UNL     1      16.749  -1.410  10.619  1.00  0.00     0.146 A 
ATOM     11  O   UNL     1      17.803  -1.087  11.360  1.00  0.00    -0.452 OA
ENDROOT
BRANCH   1  12
ATOM     12  C   UNL     1      19.009  -0.626  13.396  1.00  0.00     0.021 A 
ATOM     13  C   UNL     1      19.243   0.725  13.705  1.00  0.00     0.016 A 
ATOM     14  C   UNL     1      20.398   1.106  14.394  1.00  0.00     0.047 A 
ATOM     15  C   UNL     1      21.327   0.141  14.798  1.00  0.00     0.115 A 
ATOM     16  C   UNL     1      19.938  -1.593  13.823  1.00  0.00     0.016 A 
ATOM     17  C   UNL     1      21.092  -1.210  14.513  1.00  0.00     0.047 A 
BRANCH  15  18
ATOM     18  O   UNL     1      22.474   0.535  15.483  1.00  0.00    -0.508 OA
ATOM     19  H   UNL     1      23.369   0.090  15.316  1.00  0.00     0.293 HD
ENDBRANCH  15  18
ENDBRANCH   1  12
BRANCH   2  20
ATOM     20  O   UNL     1      16.539  -1.279  14.770  1.00  0.00    -0.502 OA
ATOM     21  H   UNL     1      16.983  -0.549  15.314  1.00  0.00     0.293 HD
ENDBRANCH   2  20
BRANCH   6  22
ATOM     22  O   UNL     1      13.151  -2.313  10.962  1.00  0.00    -0.507 OA
ATOM     23  H   UNL     1      12.395  -1.638  10.953  1.00  0.00     0.293 HD
ENDBRANCH   6  22
BRANCH   8  24
ATOM     24  O   UNL     1      15.920  -1.851   7.039  1.00  0.00    -0.508 OA
ATOM     25  H   UNL     1      16.387  -1.116   6.520  1.00  0.00     0.293 HD
ENDBRANCH   8  24
TORSDOF 5
ENDMDL
MODEL 5
REMARK VINA RESULT:    -5.672      3.967      7.293
REMARK INTER + INTRA:          -6.919
REMARK INTER:                  -6.676
REMARK INTRA:                  -0.243
REMARK UNBOUND:                -0.252
REMARK SMILES O=c1c(O)c(-c2ccc(O)cc2)oc2cc(O)cc(O)c12
REMARK SMILES IDX 5 1 3 2 2 3 1 4 21 5 19 6 18 7 16 8 15 9 14 10 13 11 6 12
REMARK SMILES IDX 7 13 8 14 9 15 12 16 11 17 10 18 4 20 20 22 17 24
REMARK H PARENT 10 19 4 21 20 23 17 25
REMARK Flexibility Score: inf
ROOT
ATOM      1  C   UNL     1      16.556  -1.780  14.034  1.00  0.00     0.180 A 
ATOM      2  C   UNL     1      17.285  -2.099  15.196  1.00  0.00     0.208 A 
ATOM      3  C   UNL     1      18.679  -1.938  15.188  1.00  0.00     0.238 A 
ATOM      4  O   UNL     1      19.344  -2.230  16.219  1.00  0.00    -0.285 OA
ATOM      5  C   UNL     1      19.317  -1.447  14.030  1.00  0.00     0.111 A 
ATOM      6  C   UNL     1      20.717  -1.252  13.941  1.00  0.00     0.134 A 
ATOM      7  C   UNL     1      21.275  -0.750  12.756  1.00  0.00     0.093 A 
ATOM      8  C   UNL     1      20.465  -0.438  11.662  1.00  0.00     0.123 A 
ATOM      9  C   UNL     1      19.081  -0.628  11.744  1.00  0.00     0.094 A 
ATOM     10  C   UNL     1      18.506  -1.130  12.915  1.00  0.00     0.146 A 
ATOM     11  O   UNL     1      17.190  -1.305  12.965  1.00  0.00    -0.452 OA
ENDROOT
BRANCH   1  12
ATOM     12  C   UNL     1      15.086  -1.940  13.958  1.00  0.00     0.021 A 
ATOM     13  C   UNL     1      14.254  -0.975  14.549  1.00  0.00     0.016 A 
ATOM     14  C   UNL     1      12.864  -1.094  14.471  1.00  0.00     0.047 A 
ATOM     15  C   UNL     1      12.286  -2.170  13.789  1.00  0.00     0.115 A 
ATOM     16  C   UNL     1      14.499  -3.010  13.256  1.00  0.00     0.016 A 
ATOM     17  C   UNL     1      13.108  -3.125  13.178  1.00  0.00     0.047 A 
BRANCH  15  18
ATOM     18  O   UNL     1      10.899  -2.276  13.719  1.00  0.00    -0.508 OA
ATOM     19  H   UNL     1      10.410  -3.079  14.096  1.00  0.00     0.293 HD
ENDBRANCH  15  18
ENDBRANCH   1  12
BRANCH   2  20
ATOM     20  O   UNL     1      16.623  -2.537  16.346  1.00  0.00    -0.502 OA
ATOM     21  H   UNL     1      16.218  -3.462  16.420  1.00  0.00     0.293 HD
ENDBRANCH   2  20
BRANCH   6  22
ATOM     22  O   UNL     1      21.554  -1.553  15.016  1.00  0.00    -0.507 OA
ATOM     23  H   UNL     1      21.410  -2.374  15.592  1.00  0.00     0.293 HD
ENDBRANCH   6  22
BRANCH   8  24
ATOM     24  O   UNL     1      21.044   0.060  10.498  1.00  0.00    -0.508 OA
ATOM     25  H   UNL     1      20.509   0.603   9.830  1.00  0.00     0.293 HD
ENDBRANCH   8  24
TORSDOF 5
ENDMDL
MODEL 6
REMARK VINA RESULT:    -5.645      3.137      3.599
REMARK INTER + INTRA:          -6.887
REMARK INTER:                  -6.590
REMARK INTRA:                  -0.297
REMARK UNBOUND:                -0.252
REMARK SMILES O=c1c(O)c(-c2ccc(O)cc2)oc2cc(O)cc(O)c12
REMARK SMILES IDX 5 1 3 2 2 3 1 4 21 5 19 6 18 7 16 8 15 9 14 10 13 11 6 12
REMARK SMILES IDX 7 13 8 14 9 15 12 16 11 17 10 18 4 20 20 22 17 24
REMARK H PARENT 10 19 4 21 20 23 17 25
REMARK Flexibility Score: inf
ROOT
ATOM      1  C   UNL     1      15.246  -1.623  12.262  1.00  0.00     0.180 A 
ATOM      2  C   UNL     1      13.870  -1.918  12.198  1.00  0.00     0.208 A 
ATOM      3  C   UNL     1      13.286  -2.169  10.947  1.00  0.00     0.238 A 
ATOM      4  O   UNL     1      12.053  -2.423  10.876  1.00  0.00    -0.285 OA
ATOM      5  C   UNL     1      14.087  -2.140   9.787  1.00  0.00     0.111 A 
ATOM      6  C   UNL     1      13.578  -2.385   8.489  1.00  0.00     0.134 A 
ATOM      7  C   UNL     1      14.443  -2.348   7.384  1.00  0.00     0.093 A 
ATOM      8  C   UNL     1      15.802  -2.071   7.551  1.00  0.00     0.123 A 
ATOM      9  C   UNL     1      16.310  -1.828   8.831  1.00  0.00     0.094 A 
ATOM     10  C   UNL     1      15.465  -1.859   9.944  1.00  0.00     0.146 A 
ATOM     11  O   UNL     1      15.972  -1.619  11.148  1.00  0.00    -0.452 OA
ENDROOT
BRANCH   1  12
ATOM     12  C   UNL     1      15.929  -1.329  13.542  1.00  0.00     0.021 A 
ATOM     13  C   UNL     1      16.539  -2.374  14.256  1.00  0.00     0.016 A 
ATOM     14  C   UNL     1      17.208  -2.117  15.455  1.00  0.00     0.047 A 
ATOM     15  C   UNL     1      17.293  -0.810  15.949  1.00  0.00     0.115 A 
ATOM     16  C   UNL     1      16.034  -0.014  14.033  1.00  0.00     0.016 A 
ATOM     17  C   UNL     1      16.707   0.240  15.231  1.00  0.00     0.047 A 
BRANCH  15  18
ATOM     18  O   UNL     1      17.963  -0.568  17.145  1.00  0.00    -0.508 OA
ATOM     19  H   UNL     1      17.488  -0.619  18.039  1.00  0.00     0.293 HD
ENDBRANCH  15  18
ENDBRANCH   1  12
BRANCH   2  20
ATOM     20  O   UNL     1      13.109  -1.989  13.368  1.00  0.00    -0.502 OA
ATOM     21  H   UNL     1      12.253  -2.528  13.427  1.00  0.00     0.293 HD
ENDBRANCH   2  20
BRANCH   6  22
ATOM     22  O   UNL     1      12.226  -2.665   8.287  1.00  0.00    -0.507 OA
ATOM     23  H   UNL     1      11.607  -2.888   9.057  1.00  0.00     0.293 HD
ENDBRANCH   6  22
BRANCH   8  24
ATOM     24  O   UNL     1      16.639  -2.041   6.438  1.00  0.00    -0.508 OA
ATOM     25  H   UNL     1      16.933  -1.166   6.019  1.00  0.00     0.293 HD
ENDBRANCH   8  24
TORSDOF 5
ENDMDL
MODEL 7
REMARK VINA RESULT:    -5.578      3.997      5.479
REMARK INTER + INTRA:          -6.809
REMARK INTER:                  -6.511
REMARK INTRA:                  -0.298
REMARK UNBOUND:                -0.252
REMARK SMILES O=c1c(O)c(-c2ccc(O)cc2)oc2cc(O)cc(O)c12
REMARK SMILES IDX 5 1 3 2 2 3 1 4 21 5 19 6 18 7 16 8 15 9 14 10 13 11 6 12
REMARK SMILES IDX 7 13 8 14 9 15 12 16 11 17 10 18 4 20 20 22 17 24
REMARK H PARENT 10 19 4 21 20 23 17 25
REMARK Flexibility Score: inf
ROOT
ATOM      1  C   UNL     1      15.693  -1.097  14.095  1.00  0.00     0.180 A 
ATOM      2  C   UNL     1      15.813  -1.353  12.716  1.00  0.00     0.208 A 
ATOM      3  C   UNL     1      14.686  -1.797  12.006  1.00  0.00     0.238 A 
ATOM      4  O   UNL     1      14.785  -2.039  10.773  1.00  0.00    -0.285 OA
ATOM      5  C   UNL     1      13.458  -1.959  12.681  1.00  0.00     0.111 A 
ATOM      6  C   UNL     1      12.275  -2.398  12.039  1.00  0.00     0.134 A 
ATOM      7  C   UNL     1      11.089  -2.525  12.778  1.00  0.00     0.093 A 
ATOM      8  C   UNL     1      11.063  -2.222  14.141  1.00  0.00     0.123 A 
ATOM      9  C   UNL     1      12.229  -1.788  14.780  1.00  0.00     0.094 A 
ATOM     10  C   UNL     1      13.421  -1.657  14.062  1.00  0.00     0.146 A 
ATOM     11  O   UNL     1      14.514  -1.247  14.694  1.00  0.00    -0.452 OA
ENDROOT
BRANCH   1  12
ATOM     12  C   UNL     1      16.839  -0.645  14.915  1.00  0.00     0.021 A 
ATOM     13  C   UNL     1      17.035   0.729  15.133  1.00  0.00     0.016 A 
ATOM     14  C   UNL     1      18.098   1.179  15.921  1.00  0.00     0.047 A 
ATOM     15  C   UNL     1      18.970   0.261  16.516  1.00  0.00     0.115 A 
ATOM     16  C   UNL     1      17.708  -1.564  15.532  1.00  0.00     0.016 A 
ATOM     17  C   UNL     1      18.769  -1.112  16.322  1.00  0.00     0.047 A 
BRANCH  15  18
ATOM     18  O   UNL     1      20.025   0.722  17.299  1.00  0.00    -0.508 OA
ATOM     19  H   UNL     1      20.939   0.905  16.902  1.00  0.00     0.293 HD
ENDBRANCH  15  18
ENDBRANCH   1  12
BRANCH   2  20
ATOM     20  O   UNL     1      17.029  -1.137  12.062  1.00  0.00    -0.502 OA
ATOM     21  H   UNL     1      17.806  -0.660  12.504  1.00  0.00     0.293 HD
ENDBRANCH   2  20
BRANCH   6  22
ATOM     22  O   UNL     1      12.268  -2.708  10.679  1.00  0.00    -0.507 OA
ATOM     23  H   UNL     1      12.991  -2.376  10.051  1.00  0.00     0.293 HD
ENDBRANCH   6  22
BRANCH   8  24
ATOM     24  O   UNL     1       9.872  -2.356  14.851  1.00  0.00    -0.508 OA
ATOM     25  H   UNL     1       8.981  -2.088  14.449  1.00  0.00     0.293 HD
ENDBRANCH   8  24
TORSDOF 5
ENDMDL
MODEL 8
REMARK VINA RESULT:    -5.483      4.285      6.424
REMARK INTER + INTRA:          -6.697
REMARK INTER:                  -6.451
REMARK INTRA:                  -0.246
REMARK UNBOUND:                -0.252
REMARK SMILES O=c1c(O)c(-c2ccc(O)cc2)oc2cc(O)cc(O)c12
REMARK SMILES IDX 5 1 3 2 2 3 1 4 21 5 19 6 18 7 16 8 15 9 14 10 13 11 6 12
REMARK SMILES IDX 7 13 8 14 9 15 12 16 11 17 10 18 4 20 20 22 17 24
REMARK H PARENT 10 19 4 21 20 23 17 25
REMARK Flexibility Score: inf
ROOT
ATOM      1  C   UNL     1      18.021  -1.127  14.266  1.00  0.00     0.180 A 
ATOM      2  C   UNL     1      18.562  -1.777  15.391  1.00  0.00     0.208 A 
ATOM      3  C   UNL     1      17.694  -2.235  16.394  1.00  0.00     0.238 A 
ATOM      4  O   UNL     1      18.168  -2.810  17.412  1.00  0.00    -0.285 OA
ATOM      5  C   UNL     1      16.303  -2.053  16.248  1.00  0.00     0.111 A 
ATOM      6  C   UNL     1      15.360  -2.489  17.210  1.00  0.00     0.134 A 
ATOM      7  C   UNL     1      13.991  -2.279  16.986  1.00  0.00     0.093 A 
ATOM      8  C   UNL     1      13.547  -1.645  15.823  1.00  0.00     0.123 A 
ATOM      9  C   UNL     1      14.475  -1.213  14.869  1.00  0.00     0.094 A 
ATOM     10  C   UNL     1      15.843  -1.411  15.074  1.00  0.00     0.146 A 
ATOM     11  O   UNL     1      16.703  -0.987  14.155  1.00  0.00    -0.452 OA
ENDROOT
BRANCH   1  12
ATOM     12  C   UNL     1      18.873  -0.600  13.176  1.00  0.00     0.021 A 
ATOM     13  C   UNL     1      18.888  -1.254  11.933  1.00  0.00     0.016 A 
ATOM     14  C   UNL     1      19.668  -0.761  10.882  1.00  0.00     0.047 A 
ATOM     15  C   UNL     1      20.429   0.399  11.055  1.00  0.00     0.115 A 
ATOM     16  C   UNL     1      19.625   0.579  13.337  1.00  0.00     0.016 A 
ATOM     17  C   UNL     1      20.402   1.070  12.284  1.00  0.00     0.047 A 
BRANCH  15  18
ATOM     18  O   UNL     1      21.202   0.879  10.000  1.00  0.00    -0.508 OA
ATOM     19  H   UNL     1      22.042   0.400   9.698  1.00  0.00     0.293 HD
ENDBRANCH  15  18
ENDBRANCH   1  12
BRANCH   2  20
ATOM     20  O   UNL     1      19.940  -1.989  15.489  1.00  0.00    -0.502 OA
ATOM     21  H   UNL     1      20.529  -1.451  16.113  1.00  0.00     0.293 HD
ENDBRANCH   2  20
BRANCH   6  22
ATOM     22  O   UNL     1      15.770  -3.125  18.382  1.00  0.00    -0.507 OA
ATOM     23  H   UNL     1      16.289  -3.995  18.364  1.00  0.00     0.293 HD
ENDBRANCH   6  22
BRANCH   8  24
ATOM     24  O   UNL     1      12.183  -1.450  15.624  1.00  0.00    -0.508 OA
ATOM     25  H   UNL     1      11.490  -1.981  16.140  1.00  0.00     0.293 HD
ENDBRANCH   8  24
TORSDOF 5
ENDMDL
MODEL 9
REMARK VINA RESULT:    -5.375      2.774      3.638
REMARK INTER + INTRA:          -6.570
REMARK INTER:                  -6.285
REMARK INTRA:                  -0.285
REMARK UNBOUND:                -0.252
REMARK SMILES O=c1c(O)c(-c2ccc(O)cc2)oc2cc(O)cc(O)c12
REMARK SMILES IDX 5 1 3 2 2 3 1 4 21 5 19 6 18 7 16 8 15 9 14 10 13 11 6 12
REMARK SMILES IDX 7 13 8 14 9 15 12 16 11 17 10 18 4 20 20 22 17 24
REMARK H PARENT 10 19 4 21 20 23 17 25
REMARK Flexibility Score: inf
ROOT
ATOM      1  C   UNL     1      17.023  -1.187  13.789  1.00  0.00     0.180 A 
ATOM      2  C   UNL     1      16.096  -1.598  14.766  1.00  0.00     0.208 A 
ATOM      3  C   UNL     1      14.809  -1.985  14.361  1.00  0.00     0.238 A 
ATOM      4  O   UNL     1      13.967  -2.345  15.228  1.00  0.00    -0.285 OA
ATOM      5  C   UNL     1      14.477  -1.973  12.990  1.00  0.00     0.111 A 
ATOM      6  C   UNL     1      13.205  -2.351  12.499  1.00  0.00     0.134 A 
ATOM      7  C   UNL     1      12.955  -2.322  11.119  1.00  0.00     0.093 A 
ATOM      8  C   UNL     1      13.950  -1.923  10.223  1.00  0.00     0.123 A 
ATOM      9  C   UNL     1      15.209  -1.548  10.703  1.00  0.00     0.094 A 
ATOM     10  C   UNL     1      15.477  -1.569  12.074  1.00  0.00     0.146 A 
ATOM     11  O   UNL     1      16.679  -1.203  12.504  1.00  0.00    -0.452 OA
ENDROOT
BRANCH   1  12
ATOM     12  C   UNL     1      18.392  -0.747  14.139  1.00  0.00     0.021 A 
ATOM     13  C   UNL     1      18.614   0.586  14.522  1.00  0.00     0.016 A 
ATOM     14  C   UNL     1      19.894   1.019  14.878  1.00  0.00     0.047 A 
ATOM     15  C   UNL     1      20.967   0.122  14.872  1.00  0.00     0.115 A 
ATOM     16  C   UNL     1      19.472  -1.649  14.154  1.00  0.00     0.016 A 
ATOM     17  C   UNL     1      20.752  -1.214  14.512  1.00  0.00     0.047 A 
BRANCH  15  18
ATOM     18  O   UNL     1      22.238   0.566  15.229  1.00  0.00    -0.508 OA
ATOM     19  H   UNL     1      22.956  -0.077  15.541  1.00  0.00     0.293 HD
ENDBRANCH  15  18
ENDBRANCH   1  12
BRANCH   2  20
ATOM     20  O   UNL     1      16.466  -1.648  16.112  1.00  0.00    -0.502 OA
ATOM     21  H   UNL     1      16.049  -1.046  16.812  1.00  0.00     0.293 HD
ENDBRANCH   2  20
BRANCH   6  22
ATOM     22  O   UNL     1      12.190  -2.755  13.367  1.00  0.00    -0.507 OA
ATOM     23  H   UNL     1      12.260  -2.623  14.369  1.00  0.00     0.293 HD
ENDBRANCH   6  22
BRANCH   8  24
ATOM     24  O   UNL     1      13.677  -1.903   8.857  1.00  0.00    -0.508 OA
ATOM     25  H   UNL     1      14.056  -1.185   8.251  1.00  0.00     0.293 HD
ENDBRANCH   8  24
TORSDOF 5
ENDMDL
