MODEL 1
REMARK VINA RESULT:    -4.847      0.000      0.000
REMARK INTER + INTRA:         -10.255
REMARK INTER:                  -8.815
REMARK INTRA:                  -1.440
REMARK UNBOUND:                -1.440
REMARK SMILES CCCCCCCCCCCCCCCC(=O)[O-]
REMARK SMILES IDX 9 1 10 2 11 3 12 4 13 5 14 6 15 7 16 8 17 9 18 10 8 11 7 12
REMARK SMILES IDX 6 13 5 14 4 15 3 16 2 17 1 18
REMARK H PARENT
REMARK Flexibility Score: inf
ROOT
ATOM      1  C   UNL     1      -9.368  -6.109  -6.596  1.00  0.00     0.000 C 
ENDROOT
BRANCH   1   2
ATOM      2  C   UNL     1      -9.548  -6.862  -5.266  1.00  0.00     0.000 C 
BRANCH   2   3
ATOM      3  C   UNL     1     -10.205  -8.238  -5.453  1.00  0.00     0.000 C 
BRANCH   3   4
ATOM      4  C   UNL     1      -9.325  -9.390  -4.933  1.00  0.00     0.000 C 
BRANCH   4   5
ATOM      5  C   UNL     1      -7.826  -9.153  -5.173  1.00  0.00     0.000 C 
BRANCH   5   6
ATOM      6  C   UNL     1      -6.997 -10.445  -5.090  1.00  0.00     0.006 C 
BRANCH   6   7
ATOM      7  C   UNL     1      -6.229 -10.694  -6.393  1.00  0.00     0.053 C 
BRANCH   7   8
ATOM      8  C   UNL     1      -6.823 -11.842  -7.148  1.00  0.00     0.041 C 
ATOM      9  O   UNL     1      -7.980 -12.255  -6.868  1.00  0.00    -0.550 OA
ATOM     10  O   UNL     1      -6.113 -12.434  -8.184  1.00  0.00    -0.550 OA
ENDBRANCH   7   8
ENDBRANCH   6   7
ENDBRANCH   5   6
ENDBRANCH   4   5
ENDBRANCH   3   4
ENDBRANCH   2   3
ENDBRANCH   1   2
BRANCH   1  11
ATOM     11  C   UNL     1     -10.443  -6.469  -7.634  1.00  0.00     0.000 C 
BRANCH  11  12
ATOM     12  C   UNL     1     -11.119  -5.231  -8.243  1.00  0.00    -0.000 C 
BRANCH  12  13
ATOM     13  C   UNL     1     -10.837  -3.982  -7.394  1.00  0.00    -0.000 C 
BRANCH  13  14
ATOM     14  C   UNL     1     -12.021  -3.617  -6.481  1.00  0.00    -0.000 C 
BRANCH  14  15
ATOM     15  C   UNL     1     -12.799  -4.850  -5.972  1.00  0.00    -0.000 C 
BRANCH  15  16
ATOM     16  C   UNL     1     -12.580  -5.156  -4.478  1.00  0.00    -0.000 C 
BRANCH  16  17
ATOM     17  C   UNL     1     -13.584  -6.167  -3.888  1.00  0.00    -0.003 C 
ATOM     18  C   UNL     1     -13.735  -7.421  -4.747  1.00  0.00     0.004 C 
ENDBRANCH  16  17
ENDBRANCH  15  16
ENDBRANCH  14  15
ENDBRANCH  13  14
ENDBRANCH  12  13
ENDBRANCH  11  12
ENDBRANCH   1  11
TORSDOF 14
ENDMDL
MODEL 2
REMARK VINA RESULT:    -4.718      1.326      2.990
REMARK INTER + INTRA:         -10.019
REMARK INTER:                  -8.690
REMARK INTRA:                  -1.329
REMARK UNBOUND:                -1.440
REMARK SMILES CCCCCCCCCCCCCCCC(=O)[O-]
REMARK SMILES IDX 9 1 10 2 11 3 12 4 13 5 14 6 15 7 16 8 17 9 18 10 8 11 7 12
REMARK SMILES IDX 6 13 5 14 4 15 3 16 2 17 1 18
REMARK H PARENT
REMARK Flexibility Score: inf
ROOT
ATOM      1  C   UNL     1      -9.739  -7.099  -5.483  1.00  0.00     0.000 C 
ENDROOT
BRANCH   1   2
ATOM      2  C   UNL     1      -8.781  -8.140  -4.879  1.00  0.00     0.000 C 
BRANCH   2   3
ATOM      3  C   UNL     1      -9.304  -9.577  -5.024  1.00  0.00     0.000 C 
BRANCH   3   4
ATOM      4  C   UNL     1      -8.179 -10.593  -5.293  1.00  0.00     0.000 C 
BRANCH   4   5
ATOM      5  C   UNL     1      -6.825  -9.924  -5.576  1.00  0.00     0.000 C 
BRANCH   5   6
ATOM      6  C   UNL     1      -5.894 -10.799  -6.431  1.00  0.00     0.006 C 
BRANCH   6   7
ATOM      7  C   UNL     1      -6.696 -11.777  -7.297  1.00  0.00     0.053 C 
BRANCH   7   8
ATOM      8  C   UNL     1      -5.782 -12.619  -8.132  1.00  0.00     0.041 C 
ATOM      9  O   UNL     1      -4.633 -12.918  -7.711  1.00  0.00    -0.550 OA
ATOM     10  O   UNL     1      -6.212 -13.102  -9.360  1.00  0.00    -0.550 OA
ENDBRANCH   7   8
ENDBRANCH   6   7
ENDBRANCH   5   6
ENDBRANCH   4   5
ENDBRANCH   3   4
ENDBRANCH   2   3
ENDBRANCH   1   2
BRANCH   1  11
ATOM     11  C   UNL     1     -11.050  -7.721  -5.990  1.00  0.00     0.000 C 
BRANCH  11  12
ATOM     12  C   UNL     1     -12.296  -7.040  -5.404  1.00  0.00    -0.000 C 
BRANCH  12  13
ATOM     13  C   UNL     1     -12.053  -5.536  -5.205  1.00  0.00    -0.000 C 
BRANCH  13  14
ATOM     14  C   UNL     1     -12.597  -4.697  -6.375  1.00  0.00    -0.000 C 
BRANCH  14  15
ATOM     15  C   UNL     1     -11.553  -3.721  -6.959  1.00  0.00    -0.000 C 
BRANCH  15  16
ATOM     16  C   UNL     1     -10.476  -4.401  -7.826  1.00  0.00    -0.000 C 
BRANCH  16  17
ATOM     17  C   UNL     1     -11.042  -5.249  -8.983  1.00  0.00    -0.003 C 
ATOM     18  C   UNL     1     -11.216  -4.450 -10.273  1.00  0.00     0.004 C 
ENDBRANCH  16  17
ENDBRANCH  15  16
ENDBRANCH  14  15
ENDBRANCH  13  14
ENDBRANCH  12  13
ENDBRANCH  11  12
ENDBRANCH   1  11
TORSDOF 14
ENDMDL
MODEL 3
REMARK VINA RESULT:    -4.681      2.989      7.607
REMARK INTER + INTRA:          -9.951
REMARK INTER:                  -8.659
REMARK INTRA:                  -1.293
REMARK UNBOUND:                -1.440
REMARK SMILES CCCCCCCCCCCCCCCC(=O)[O-]
REMARK SMILES IDX 9 1 10 2 11 3 12 4 13 5 14 6 15 7 16 8 17 9 18 10 8 11 7 12
REMARK SMILES IDX 6 13 5 14 4 15 3 16 2 17 1 18
REMARK H PARENT
REMARK Flexibility Score: inf
ROOT
ATOM      1  C   UNL     1      -9.551  -6.993  -5.441  1.00  0.00     0.000 C 
ENDROOT
BRANCH   1   2
ATOM      2  C   UNL     1      -9.256  -6.171  -6.707  1.00  0.00     0.000 C 
BRANCH   2   3
ATOM      3  C   UNL     1     -10.395  -6.246  -7.736  1.00  0.00     0.000 C 
BRANCH   3   4
ATOM      4  C   UNL     1     -10.711  -4.878  -8.369  1.00  0.00     0.000 C 
BRANCH   4   5
ATOM      5  C   UNL     1     -11.255  -3.861  -7.353  1.00  0.00     0.000 C 
BRANCH   5   6
ATOM      6  C   UNL     1     -12.495  -4.373  -6.602  1.00  0.00     0.006 C 
BRANCH   6   7
ATOM      7  C   UNL     1     -12.207  -4.532  -5.104  1.00  0.00     0.053 C 
BRANCH   7   8
ATOM      8  C   UNL     1     -13.026  -5.641  -4.522  1.00  0.00     0.041 C 
ATOM      9  O   UNL     1     -13.188  -6.715  -5.161  1.00  0.00    -0.550 OA
ATOM     10  O   UNL     1     -13.584  -5.502  -3.258  1.00  0.00    -0.550 OA
ENDBRANCH   7   8
ENDBRANCH   6   7
ENDBRANCH   5   6
ENDBRANCH   4   5
ENDBRANCH   3   4
ENDBRANCH   2   3
ENDBRANCH   1   2
BRANCH   1  11
ATOM     11  C   UNL     1     -10.216  -8.344  -5.749  1.00  0.00     0.000 C 
BRANCH  11  12
ATOM     12  C   UNL     1      -9.468  -9.530  -5.122  1.00  0.00    -0.000 C 
BRANCH  12  13
ATOM     13  C   UNL     1      -8.003  -9.164  -4.840  1.00  0.00    -0.000 C 
BRANCH  13  14
ATOM     14  C   UNL     1      -7.058 -10.368  -5.006  1.00  0.00    -0.000 C 
BRANCH  14  15
ATOM     15  C   UNL     1      -6.640 -10.615  -6.472  1.00  0.00    -0.000 C 
BRANCH  15  16
ATOM     16  C   UNL     1      -7.219 -11.908  -7.079  1.00  0.00    -0.000 C 
BRANCH  16  17
ATOM     17  C   UNL     1      -6.285 -12.600  -8.092  1.00  0.00    -0.003 C 
ATOM     18  C   UNL     1      -4.833 -12.651  -7.620  1.00  0.00     0.004 C 
ENDBRANCH  16  17
ENDBRANCH  15  16
ENDBRANCH  14  15
ENDBRANCH  13  14
ENDBRANCH  12  13
ENDBRANCH  11  12
ENDBRANCH   1  11
TORSDOF 14
ENDMDL
MODEL 4
REMARK VINA RESULT:    -4.633      2.263      3.575
REMARK INTER + INTRA:          -9.864
REMARK INTER:                  -8.841
REMARK INTRA:                  -1.023
REMARK UNBOUND:                -1.440
REMARK SMILES CCCCCCCCCCCCCCCC(=O)[O-]
REMARK SMILES IDX 9 1 10 2 11 3 12 4 13 5 14 6 15 7 16 8 17 9 18 10 8 11 7 12
REMARK SMILES IDX 6 13 5 14 4 15 3 16 2 17 1 18
REMARK H PARENT
REMARK Flexibility Score: inf
ROOT
ATOM      1  C   UNL     1      -9.732  -9.228  -5.130  1.00  0.00     0.000 C 
ENDROOT
BRANCH   1   2
ATOM      2  C   UNL     1      -8.205  -9.041  -5.152  1.00  0.00     0.000 C 
BRANCH   2   3
ATOM      3  C   UNL     1      -7.447 -10.377  -5.109  1.00  0.00     0.000 C 
BRANCH   3   4
ATOM      4  C   UNL     1      -5.999 -10.253  -5.617  1.00  0.00     0.000 C 
BRANCH   4   5
ATOM      5  C   UNL     1      -5.713 -11.145  -6.834  1.00  0.00     0.000 C 
BRANCH   5   6
ATOM      6  C   UNL     1      -4.315 -11.781  -6.793  1.00  0.00     0.006 C 
BRANCH   6   7
ATOM      7  C   UNL     1      -3.409 -11.061  -5.787  1.00  0.00     0.053 C 
BRANCH   7   8
ATOM      8  C   UNL     1      -2.554 -12.042  -5.047  1.00  0.00     0.041 C 
ATOM      9  O   UNL     1      -1.840 -12.865  -5.679  1.00  0.00    -0.550 OA
ATOM     10  O   UNL     1      -2.519 -12.025  -3.659  1.00  0.00    -0.550 OA
ENDBRANCH   7   8
ENDBRANCH   6   7
ENDBRANCH   5   6
ENDBRANCH   4   5
ENDBRANCH   3   4
ENDBRANCH   2   3
ENDBRANCH   1   2
BRANCH   1  11
ATOM     11  C   UNL     1     -10.492  -7.962  -5.555  1.00  0.00     0.000 C 
BRANCH  11  12
ATOM     12  C   UNL     1      -9.645  -6.688  -5.422  1.00  0.00    -0.000 C 
BRANCH  12  13
ATOM     13  C   UNL     1      -9.302  -6.113  -6.805  1.00  0.00    -0.000 C 
BRANCH  13  14
ATOM     14  C   UNL     1     -10.550  -5.623  -7.559  1.00  0.00    -0.000 C 
BRANCH  14  15
ATOM     15  C   UNL     1     -10.767  -4.098  -7.450  1.00  0.00    -0.000 C 
BRANCH  15  16
ATOM     16  C   UNL     1     -11.824  -3.689  -6.407  1.00  0.00    -0.000 C 
BRANCH  16  17
ATOM     17  C   UNL     1     -12.852  -4.793  -6.086  1.00  0.00    -0.003 C 
ATOM     18  C   UNL     1     -12.827  -5.217  -4.618  1.00  0.00     0.004 C 
ENDBRANCH  16  17
ENDBRANCH  15  16
ENDBRANCH  14  15
ENDBRANCH  13  14
ENDBRANCH  12  13
ENDBRANCH  11  12
ENDBRANCH   1  11
TORSDOF 14
ENDMDL
MODEL 5
REMARK VINA RESULT:    -4.613      3.122      7.735
REMARK INTER + INTRA:          -9.829
REMARK INTER:                  -8.732
REMARK INTRA:                  -1.097
REMARK UNBOUND:                -1.440
REMARK SMILES CCCCCCCCCCCCCCCC(=O)[O-]
REMARK SMILES IDX 9 1 10 2 11 3 12 4 13 5 14 6 15 7 16 8 17 9 18 10 8 11 7 12
REMARK SMILES IDX 6 13 5 14 4 15 3 16 2 17 1 18
REMARK H PARENT
REMARK Flexibility Score: inf
ROOT
ATOM      1  C   UNL     1      -9.382  -7.532  -5.331  1.00  0.00     0.000 C 
ENDROOT
BRANCH   1   2
ATOM      2  C   UNL     1     -10.726  -7.995  -5.920  1.00  0.00     0.000 C 
BRANCH   2   3
ATOM      3  C   UNL     1     -11.873  -7.023  -5.605  1.00  0.00     0.000 C 
BRANCH   3   4
ATOM      4  C   UNL     1     -11.375  -5.597  -5.303  1.00  0.00     0.000 C 
BRANCH   4   5
ATOM      5  C   UNL     1     -12.423  -4.518  -5.618  1.00  0.00     0.000 C 
BRANCH   5   6
ATOM      6  C   UNL     1     -12.280  -3.943  -7.036  1.00  0.00     0.006 C 
BRANCH   6   7
ATOM      7  C   UNL     1     -10.831  -4.039  -7.528  1.00  0.00     0.053 C 
BRANCH   7   8
ATOM      8  C   UNL     1     -10.766  -4.739  -8.850  1.00  0.00     0.041 C 
ATOM      9  O   UNL     1     -10.349  -5.925  -8.921  1.00  0.00    -0.550 OA
ATOM     10  O   UNL     1     -11.197  -4.091 -10.000  1.00  0.00    -0.550 OA
ENDBRANCH   7   8
ENDBRANCH   6   7
ENDBRANCH   5   6
ENDBRANCH   4   5
ENDBRANCH   3   4
ENDBRANCH   2   3
ENDBRANCH   1   2
BRANCH   1  11
ATOM     11  C   UNL     1      -8.562  -8.688  -4.738  1.00  0.00     0.000 C 
BRANCH  11  12
ATOM     12  C   UNL     1      -9.166 -10.066  -5.051  1.00  0.00    -0.000 C 
BRANCH  12  13
ATOM     13  C   UNL     1      -8.068 -11.069  -5.435  1.00  0.00    -0.000 C 
BRANCH  13  14
ATOM     14  C   UNL     1      -6.659 -10.458  -5.336  1.00  0.00    -0.000 C 
BRANCH  14  15
ATOM     15  C   UNL     1      -5.934 -10.380  -6.697  1.00  0.00    -0.000 C 
BRANCH  15  16
ATOM     16  C   UNL     1      -4.644 -11.219  -6.769  1.00  0.00    -0.000 C 
BRANCH  16  17
ATOM     17  C   UNL     1      -3.708 -11.039  -5.556  1.00  0.00    -0.003 C 
ATOM     18  C   UNL     1      -2.628 -12.117  -5.476  1.00  0.00     0.004 C 
ENDBRANCH  16  17
ENDBRANCH  15  16
ENDBRANCH  14  15
ENDBRANCH  13  14
ENDBRANCH  12  13
ENDBRANCH  11  12
ENDBRANCH   1  11
TORSDOF 14
ENDMDL
MODEL 6
REMARK VINA RESULT:    -4.601      4.414      9.261
REMARK INTER + INTRA:          -9.807
REMARK INTER:                  -9.301
REMARK INTRA:                  -0.506
REMARK UNBOUND:                -1.440
REMARK SMILES CCCCCCCCCCCCCCCC(=O)[O-]
REMARK SMILES IDX 9 1 10 2 11 3 12 4 13 5 14 6 15 7 16 8 17 9 18 10 8 11 7 12
REMARK SMILES IDX 6 13 5 14 4 15 3 16 2 17 1 18
REMARK H PARENT
REMARK Flexibility Score: inf
ROOT
ATOM      1  C   UNL     1      -6.532 -10.341  -5.071  1.00  0.00     0.000 C 
ENDROOT
BRANCH   1   2
ATOM      2  C   UNL     1      -8.039 -10.033  -5.104  1.00  0.00     0.000 C 
BRANCH   2   3
ATOM      3  C   UNL     1      -8.354  -8.589  -4.684  1.00  0.00     0.000 C 
BRANCH   3   4
ATOM      4  C   UNL     1      -9.675  -8.073  -5.284  1.00  0.00     0.000 C 
BRANCH   4   5
ATOM      5  C   UNL     1      -9.728  -6.541  -5.383  1.00  0.00     0.000 C 
BRANCH   5   6
ATOM      6  C   UNL     1      -9.671  -6.034  -6.833  1.00  0.00     0.006 C 
BRANCH   6   7
ATOM      7  C   UNL     1     -11.049  -5.560  -7.307  1.00  0.00     0.053 C 
BRANCH   7   8
ATOM      8  C   UNL     1     -10.956  -4.928  -8.661  1.00  0.00     0.041 C 
ATOM      9  O   UNL     1     -10.920  -5.646  -9.696  1.00  0.00    -0.550 OA
ATOM     10  O   UNL     1     -10.944  -3.545  -8.783  1.00  0.00    -0.550 OA
ENDBRANCH   7   8
ENDBRANCH   6   7
ENDBRANCH   5   6
ENDBRANCH   4   5
ENDBRANCH   3   4
ENDBRANCH   2   3
ENDBRANCH   1   2
BRANCH   1  11
ATOM     11  C   UNL     1      -5.887 -10.313  -6.466  1.00  0.00     0.000 C 
BRANCH  11  12
ATOM     12  C   UNL     1      -4.742 -11.327  -6.611  1.00  0.00    -0.000 C 
BRANCH  12  13
ATOM     13  C   UNL     1      -3.538 -10.917  -5.749  1.00  0.00    -0.000 C 
BRANCH  13  14
ATOM     14  C   UNL     1      -2.705 -12.129  -5.296  1.00  0.00    -0.000 C 
BRANCH  14  15
ATOM     15  C   UNL     1      -2.421 -12.139  -3.779  1.00  0.00    -0.000 C 
BRANCH  15  16
ATOM     16  C   UNL     1      -2.338 -13.551  -3.166  1.00  0.00    -0.000 C 
BRANCH  16  17
ATOM     17  C   UNL     1      -1.139 -13.756  -2.218  1.00  0.00    -0.003 C 
ATOM     18  C   UNL     1       0.207 -13.632  -2.929  1.00  0.00     0.004 C 
ENDBRANCH  16  17
ENDBRANCH  15  16
ENDBRANCH  14  15
ENDBRANCH  13  14
ENDBRANCH  12  13
ENDBRANCH  11  12
ENDBRANCH   1  11
TORSDOF 14
ENDMDL
MODEL 7
REMARK VINA RESULT:    -4.598      1.629      3.241
REMARK INTER + INTRA:          -9.801
REMARK INTER:                  -8.587
REMARK INTRA:                  -1.215
REMARK UNBOUND:                -1.440
REMARK SMILES CCCCCCCCCCCCCCCC(=O)[O-]
REMARK SMILES IDX 9 1 10 2 11 3 12 4 13 5 14 6 15 7 16 8 17 9 18 10 8 11 7 12
REMARK SMILES IDX 6 13 5 14 4 15 3 16 2 17 1 18
REMARK H PARENT
REMARK Flexibility Score: inf
ROOT
ATOM      1  C   UNL     1     -10.850  -7.957  -5.882  1.00  0.00     0.000 C 
ENDROOT
BRANCH   1   2
ATOM      2  C   UNL     1      -9.398  -7.617  -5.503  1.00  0.00     0.000 C 
BRANCH   2   3
ATOM      3  C   UNL     1      -8.700  -8.764  -4.758  1.00  0.00     0.000 C 
BRANCH   3   4
ATOM      4  C   UNL     1      -8.985 -10.140  -5.388  1.00  0.00     0.000 C 
BRANCH   4   5
ATOM      5  C   UNL     1      -7.807 -11.116  -5.251  1.00  0.00     0.000 C 
BRANCH   5   6
ATOM      6  C   UNL     1      -6.910 -11.148  -6.499  1.00  0.00     0.006 C 
BRANCH   6   7
ATOM      7  C   UNL     1      -5.635 -10.326  -6.285  1.00  0.00     0.053 C 
BRANCH   7   8
ATOM      8  C   UNL     1      -4.418 -11.183  -6.444  1.00  0.00     0.041 C 
ATOM      9  O   UNL     1      -3.330 -10.847  -5.906  1.00  0.00    -0.550 OA
ATOM     10  O   UNL     1      -4.494 -12.371  -7.159  1.00  0.00    -0.550 OA
ENDBRANCH   7   8
ENDBRANCH   6   7
ENDBRANCH   5   6
ENDBRANCH   4   5
ENDBRANCH   3   4
ENDBRANCH   2   3
ENDBRANCH   1   2
BRANCH   1  11
ATOM     11  C   UNL     1     -11.811  -6.775  -5.676  1.00  0.00     0.000 C 
BRANCH  11  12
ATOM     12  C   UNL     1     -11.191  -5.644  -4.842  1.00  0.00    -0.000 C 
BRANCH  12  13
ATOM     13  C   UNL     1     -11.700  -4.274  -5.315  1.00  0.00    -0.000 C 
BRANCH  13  14
ATOM     14  C   UNL     1     -12.527  -4.374  -6.610  1.00  0.00    -0.000 C 
BRANCH  14  15
ATOM     15  C   UNL     1     -11.831  -3.728  -7.827  1.00  0.00    -0.000 C 
BRANCH  15  16
ATOM     16  C   UNL     1     -10.564  -4.471  -8.292  1.00  0.00    -0.000 C 
BRANCH  16  17
ATOM     17  C   UNL     1     -10.805  -5.465  -9.446  1.00  0.00    -0.003 C 
ATOM     18  C   UNL     1     -11.223  -4.775 -10.744  1.00  0.00     0.004 C 
ENDBRANCH  16  17
ENDBRANCH  15  16
ENDBRANCH  14  15
ENDBRANCH  13  14
ENDBRANCH  12  13
ENDBRANCH  11  12
ENDBRANCH   1  11
TORSDOF 14
ENDMDL
MODEL 8
REMARK VINA RESULT:    -4.582      3.365      7.129
REMARK INTER + INTRA:          -9.772
REMARK INTER:                  -8.258
REMARK INTRA:                  -1.514
REMARK UNBOUND:                -1.440
REMARK SMILES CCCCCCCCCCCCCCCC(=O)[O-]
REMARK SMILES IDX 9 1 10 2 11 3 12 4 13 5 14 6 15 7 16 8 17 9 18 10 8 11 7 12
REMARK SMILES IDX 6 13 5 14 4 15 3 16 2 17 1 18
REMARK H PARENT
REMARK Flexibility Score: inf
ROOT
ATOM      1  C   UNL     1      -9.705  -7.419  -5.814  1.00  0.00     0.000 C 
ENDROOT
BRANCH   1   2
ATOM      2  C   UNL     1      -9.374  -6.271  -6.784  1.00  0.00     0.000 C 
BRANCH   2   3
ATOM      3  C   UNL     1     -10.337  -6.215  -7.980  1.00  0.00     0.000 C 
BRANCH   3   4
ATOM      4  C   UNL     1     -10.336  -4.843  -8.677  1.00  0.00     0.000 C 
BRANCH   4   5
ATOM      5  C   UNL     1     -11.574  -3.998  -8.337  1.00  0.00     0.000 C 
BRANCH   5   6
ATOM      6  C   UNL     1     -11.678  -3.667  -6.840  1.00  0.00     0.006 C 
BRANCH   6   7
ATOM      7  C   UNL     1     -12.805  -4.466  -6.175  1.00  0.00     0.053 C 
BRANCH   7   8
ATOM      8  C   UNL     1     -12.418  -4.873  -4.787  1.00  0.00     0.041 C 
ATOM      9  O   UNL     1     -11.256  -4.645  -4.359  1.00  0.00    -0.550 OA
ATOM     10  O   UNL     1     -13.353  -5.475  -3.954  1.00  0.00    -0.550 OA
ENDBRANCH   7   8
ENDBRANCH   6   7
ENDBRANCH   5   6
ENDBRANCH   4   5
ENDBRANCH   3   4
ENDBRANCH   2   3
ENDBRANCH   1   2
BRANCH   1  11
ATOM     11  C   UNL     1     -11.106  -8.007  -6.043  1.00  0.00     0.000 C 
BRANCH  11  12
ATOM     12  C   UNL     1     -11.251  -9.431  -5.485  1.00  0.00    -0.000 C 
BRANCH  12  13
ATOM     13  C   UNL     1     -11.690 -10.406  -6.588  1.00  0.00    -0.000 C 
BRANCH  13  14
ATOM     14  C   UNL     1     -10.877 -11.713  -6.568  1.00  0.00    -0.000 C 
BRANCH  14  15
ATOM     15  C   UNL     1      -9.819 -11.754  -5.445  1.00  0.00    -0.000 C 
BRANCH  15  16
ATOM     16  C   UNL     1      -8.366 -11.658  -5.949  1.00  0.00    -0.000 C 
BRANCH  16  17
ATOM     17  C   UNL     1      -7.583 -10.455  -5.387  1.00  0.00    -0.003 C 
ATOM     18  C   UNL     1      -6.296 -10.172  -6.160  1.00  0.00     0.004 C 
ENDBRANCH  16  17
ENDBRANCH  15  16
ENDBRANCH  14  15
ENDBRANCH  13  14
ENDBRANCH  12  13
ENDBRANCH  11  12
ENDBRANCH   1  11
TORSDOF 14
ENDMDL
MODEL 9
REMARK VINA RESULT:    -4.565      3.343      5.291
REMARK INTER + INTRA:          -9.741
REMARK INTER:                  -9.126
REMARK INTRA:                  -0.615
REMARK UNBOUND:                -1.440
REMARK SMILES CCCCCCCCCCCCCCCC(=O)[O-]
REMARK SMILES IDX 9 1 10 2 11 3 12 4 13 5 14 6 15 7 16 8 17 9 18 10 8 11 7 12
REMARK SMILES IDX 6 13 5 14 4 15 3 16 2 17 1 18
REMARK H PARENT
REMARK Flexibility Score: inf
ROOT
ATOM      1  C   UNL     1      -7.077 -10.070  -4.952  1.00  0.00     0.000 C 
ENDROOT
BRANCH   1   2
ATOM      2  C   UNL     1      -6.277 -10.001  -6.265  1.00  0.00     0.000 C 
BRANCH   2   3
ATOM      3  C   UNL     1      -6.051 -11.386  -6.890  1.00  0.00     0.000 C 
BRANCH   3   4
ATOM      4  C   UNL     1      -4.559 -11.752  -6.993  1.00  0.00     0.000 C 
BRANCH   4   5
ATOM      5  C   UNL     1      -3.711 -11.126  -5.875  1.00  0.00     0.000 C 
BRANCH   5   6
ATOM      6  C   UNL     1      -2.593 -12.059  -5.381  1.00  0.00     0.006 C 
BRANCH   6   7
ATOM      7  C   UNL     1      -2.586 -12.152  -3.851  1.00  0.00     0.053 C 
BRANCH   7   8
ATOM      8  C   UNL     1      -1.602 -13.180  -3.387  1.00  0.00     0.041 C 
ATOM      9  O   UNL     1      -0.633 -13.509  -4.122  1.00  0.00    -0.550 OA
ATOM     10  O   UNL     1      -1.735 -13.750  -2.127  1.00  0.00    -0.550 OA
ENDBRANCH   7   8
ENDBRANCH   6   7
ENDBRANCH   5   6
ENDBRANCH   4   5
ENDBRANCH   3   4
ENDBRANCH   2   3
ENDBRANCH   1   2
BRANCH   1  11
ATOM     11  C   UNL     1      -8.544  -9.649  -5.126  1.00  0.00     0.000 C 
BRANCH  11  12
ATOM     12  C   UNL     1      -8.733  -8.125  -5.089  1.00  0.00    -0.000 C 
BRANCH  12  13
ATOM     13  C   UNL     1     -10.163  -7.743  -5.500  1.00  0.00    -0.000 C 
BRANCH  13  14
ATOM     14  C   UNL     1     -10.351  -6.219  -5.608  1.00  0.00    -0.000 C 
BRANCH  14  15
ATOM     15  C   UNL     1     -11.262  -5.801  -6.783  1.00  0.00    -0.000 C 
BRANCH  15  16
ATOM     16  C   UNL     1     -10.684  -6.133  -8.173  1.00  0.00    -0.000 C 
BRANCH  16  17
ATOM     17  C   UNL     1     -10.751  -4.965  -9.178  1.00  0.00    -0.003 C 
ATOM     18  C   UNL     1     -11.055  -3.626  -8.509  1.00  0.00     0.004 C 
ENDBRANCH  16  17
ENDBRANCH  15  16
ENDBRANCH  14  15
ENDBRANCH  13  14
ENDBRANCH  12  13
ENDBRANCH  11  12
ENDBRANCH   1  11
TORSDOF 14
ENDMDL
