MODEL 1
REMARK VINA RESULT:    -5.115      0.000      0.000
REMARK INTER + INTRA:          -8.889
REMARK INTER:                  -8.106
REMARK INTRA:                  -0.784
REMARK UNBOUND:                -0.784
REMARK SMILES CCCCCCCCCCCC(=O)[O-]
REMARK SMILES IDX 7 1 8 2 9 3 10 4 11 5 12 6 13 7 14 8 6 9 5 10 4 11 3 12 2 13
REMARK SMILES IDX 1 14
REMARK H PARENT
REMARK Flexibility Score: inf
ROOT
ATOM      1  C   UNL     1     -10.778 -15.102  26.309  1.00  0.00     0.000 C 
ENDROOT
BRANCH   1   2
ATOM      2  C   UNL     1     -10.738 -16.023  27.540  1.00  0.00     0.000 C 
BRANCH   2   3
ATOM      3  C   UNL     1     -12.138 -16.480  27.981  1.00  0.00     0.000 C 
BRANCH   3   4
ATOM      4  C   UNL     1     -12.096 -17.681  28.937  1.00  0.00     0.006 C 
BRANCH   4   5
ATOM      5  C   UNL     1     -10.651 -18.084  29.246  1.00  0.00     0.053 C 
BRANCH   5   6
ATOM      6  C   UNL     1     -10.518 -18.505  30.676  1.00  0.00     0.041 C 
ATOM      7  O   UNL     1     -11.546 -18.716  31.372  1.00  0.00    -0.550 OA
ATOM      8  O   UNL     1      -9.260 -18.617  31.254  1.00  0.00    -0.550 OA
ENDBRANCH   5   6
ENDBRANCH   4   5
ENDBRANCH   3   4
ENDBRANCH   2   3
ENDBRANCH   1   2
BRANCH   1   9
ATOM      9  C   UNL     1      -9.376 -14.654  25.861  1.00  0.00     0.000 C 
BRANCH   9  10
ATOM     10  C   UNL     1      -8.255 -15.269  26.717  1.00  0.00    -0.000 C 
BRANCH  10  11
ATOM     11  C   UNL     1      -7.105 -14.284  26.982  1.00  0.00    -0.000 C 
BRANCH  11  12
ATOM     12  C   UNL     1      -6.360 -14.584  28.290  1.00  0.00    -0.000 C 
BRANCH  12  13
ATOM     13  C   UNL     1      -7.120 -14.018  29.496  1.00  0.00    -0.003 C 
ATOM     14  C   UNL     1      -7.747 -15.133  30.327  1.00  0.00     0.004 C 
ENDBRANCH  12  13
ENDBRANCH  11  12
ENDBRANCH  10  11
ENDBRANCH   9  10
ENDBRANCH   1   9
TORSDOF 10
ENDMDL
MODEL 2
REMARK VINA RESULT:    -5.101      2.580      4.562
REMARK INTER + INTRA:          -8.867
REMARK INTER:                  -8.082
REMARK INTRA:                  -0.785
REMARK UNBOUND:                -0.784
REMARK SMILES CCCCCCCCCCCC(=O)[O-]
REMARK SMILES IDX 7 1 8 2 9 3 10 4 11 5 12 6 13 7 14 8 6 9 5 10 4 11 3 12 2 13
REMARK SMILES IDX 1 14
REMARK H PARENT
REMARK Flexibility Score: inf
ROOT
ATOM      1  C   UNL     1     -12.100 -18.482  29.761  1.00  0.00     0.000 C 
ENDROOT
BRANCH   1   2
ATOM      2  C   UNL     1     -13.150 -17.364  29.646  1.00  0.00     0.000 C 
BRANCH   2   3
ATOM      3  C   UNL     1     -12.692 -16.217  28.730  1.00  0.00     0.000 C 
BRANCH   3   4
ATOM      4  C   UNL     1     -11.641 -16.663  27.703  1.00  0.00     0.006 C 
BRANCH   4   5
ATOM      5  C   UNL     1     -11.474 -15.612  26.601  1.00  0.00     0.053 C 
BRANCH   5   6
ATOM      6  C   UNL     1     -10.066 -15.107  26.567  1.00  0.00     0.041 C 
ATOM      7  O   UNL     1      -9.204 -15.579  27.355  1.00  0.00    -0.550 OA
ATOM      8  O   UNL     1      -9.715 -14.079  25.700  1.00  0.00    -0.550 OA
ENDBRANCH   5   6
ENDBRANCH   4   5
ENDBRANCH   3   4
ENDBRANCH   2   3
ENDBRANCH   1   2
BRANCH   1   9
ATOM      9  C   UNL     1     -11.405 -18.499  31.133  1.00  0.00     0.000 C 
BRANCH   9  10
ATOM     10  C   UNL     1      -9.887 -18.264  31.031  1.00  0.00    -0.000 C 
BRANCH  10  11
ATOM     11  C   UNL     1      -9.535 -16.795  30.744  1.00  0.00    -0.000 C 
BRANCH  11  12
ATOM     12  C   UNL     1      -8.190 -16.381  31.357  1.00  0.00    -0.000 C 
BRANCH  12  13
ATOM     13  C   UNL     1      -7.568 -15.215  30.579  1.00  0.00    -0.003 C 
ATOM     14  C   UNL     1      -6.948 -14.189  31.522  1.00  0.00     0.004 C 
ENDBRANCH  12  13
ENDBRANCH  11  12
ENDBRANCH  10  11
ENDBRANCH   9  10
ENDBRANCH   1   9
TORSDOF 10
ENDMDL
MODEL 3
REMARK VINA RESULT:    -5.030      3.710      5.418
REMARK INTER + INTRA:          -8.755
REMARK INTER:                  -7.776
REMARK INTRA:                  -0.979
REMARK UNBOUND:                -0.784
REMARK SMILES CCCCCCCCCCCC(=O)[O-]
REMARK SMILES IDX 7 1 8 2 9 3 10 4 11 5 12 6 13 7 14 8 6 9 5 10 4 11 3 12 2 13
REMARK SMILES IDX 1 14
REMARK H PARENT
REMARK Flexibility Score: inf
ROOT
ATOM      1  C   UNL     1     -13.455 -18.053  30.498  1.00  0.00     0.000 C 
ENDROOT
BRANCH   1   2
ATOM      2  C   UNL     1     -12.933 -17.529  31.847  1.00  0.00     0.000 C 
BRANCH   2   3
ATOM      3  C   UNL     1     -13.447 -18.354  33.039  1.00  0.00     0.000 C 
BRANCH   3   4
ATOM      4  C   UNL     1     -12.644 -19.644  33.258  1.00  0.00     0.006 C 
BRANCH   4   5
ATOM      5  C   UNL     1     -13.554 -20.873  33.190  1.00  0.00     0.053 C 
BRANCH   5   6
ATOM      6  C   UNL     1     -13.754 -21.455  34.554  1.00  0.00     0.041 C 
ATOM      7  O   UNL     1     -14.486 -20.867  35.392  1.00  0.00    -0.550 OA
ATOM      8  O   UNL     1     -13.092 -22.622  34.917  1.00  0.00    -0.550 OA
ENDBRANCH   5   6
ENDBRANCH   4   5
ENDBRANCH   3   4
ENDBRANCH   2   3
ENDBRANCH   1   2
BRANCH   1   9
ATOM      9  C   UNL     1     -13.601 -16.937  29.449  1.00  0.00     0.000 C 
BRANCH   9  10
ATOM     10  C   UNL     1     -12.310 -16.118  29.271  1.00  0.00    -0.000 C 
BRANCH  10  11
ATOM     11  C   UNL     1     -11.241 -16.869  28.462  1.00  0.00    -0.000 C 
BRANCH  11  12
ATOM     12  C   UNL     1     -10.041 -17.292  29.320  1.00  0.00    -0.000 C 
BRANCH  12  13
ATOM     13  C   UNL     1     -10.126 -18.777  29.690  1.00  0.00    -0.003 C 
ATOM     14  C   UNL     1      -9.692 -19.013  31.133  1.00  0.00     0.004 C 
ENDBRANCH  12  13
ENDBRANCH  11  12
ENDBRANCH  10  11
ENDBRANCH   9  10
ENDBRANCH   1   9
TORSDOF 10
ENDMDL
MODEL 4
REMARK VINA RESULT:    -4.989      1.212      2.477
REMARK INTER + INTRA:          -8.690
REMARK INTER:                  -7.973
REMARK INTRA:                  -0.717
REMARK UNBOUND:                -0.784
REMARK SMILES CCCCCCCCCCCC(=O)[O-]
REMARK SMILES IDX 7 1 8 2 9 3 10 4 11 5 12 6 13 7 14 8 6 9 5 10 4 11 3 12 2 13
REMARK SMILES IDX 1 14
REMARK H PARENT
REMARK Flexibility Score: inf
ROOT
ATOM      1  C   UNL     1      -8.149 -15.187  26.545  1.00  0.00     0.000 C 
ENDROOT
BRANCH   1   2
ATOM      2  C   UNL     1      -9.381 -14.496  25.936  1.00  0.00     0.000 C 
BRANCH   2   3
ATOM      3  C   UNL     1     -10.698 -15.187  26.325  1.00  0.00     0.000 C 
BRANCH   3   4
ATOM      4  C   UNL     1     -10.576 -16.010  27.616  1.00  0.00     0.006 C 
BRANCH   4   5
ATOM      5  C   UNL     1     -11.896 -16.714  27.942  1.00  0.00     0.053 C 
BRANCH   5   6
ATOM      6  C   UNL     1     -11.709 -17.686  29.065  1.00  0.00     0.041 C 
ATOM      7  O   UNL     1     -11.664 -17.276  30.255  1.00  0.00    -0.550 OA
ATOM      8  O   UNL     1     -11.535 -19.037  28.795  1.00  0.00    -0.550 OA
ENDBRANCH   5   6
ENDBRANCH   4   5
ENDBRANCH   3   4
ENDBRANCH   2   3
ENDBRANCH   1   2
BRANCH   1   9
ATOM      9  C   UNL     1      -6.970 -14.220  26.747  1.00  0.00     0.000 C 
BRANCH   9  10
ATOM     10  C   UNL     1      -6.506 -14.149  28.213  1.00  0.00    -0.000 C 
BRANCH  10  11
ATOM     11  C   UNL     1      -7.552 -14.707  29.192  1.00  0.00    -0.000 C 
BRANCH  11  12
ATOM     12  C   UNL     1      -7.412 -14.119  30.603  1.00  0.00    -0.000 C 
BRANCH  12  13
ATOM     13  C   UNL     1      -7.123 -15.220  31.630  1.00  0.00    -0.003 C 
ATOM     14  C   UNL     1      -8.136 -16.355  31.523  1.00  0.00     0.004 C 
ENDBRANCH  12  13
ENDBRANCH  11  12
ENDBRANCH  10  11
ENDBRANCH   9  10
ENDBRANCH   1   9
TORSDOF 10
ENDMDL
MODEL 5
REMARK VINA RESULT:    -4.976      2.578      5.076
REMARK INTER + INTRA:          -8.668
REMARK INTER:                  -7.756
REMARK INTRA:                  -0.913
REMARK UNBOUND:                -0.784
REMARK SMILES CCCCCCCCCCCC(=O)[O-]
REMARK SMILES IDX 7 1 8 2 9 3 10 4 11 5 12 6 13 7 14 8 6 9 5 10 4 11 3 12 2 13
REMARK SMILES IDX 1 14
REMARK H PARENT
REMARK Flexibility Score: inf
ROOT
ATOM      1  C   UNL     1      -9.023 -15.535  27.351  1.00  0.00     0.000 C 
ENDROOT
BRANCH   1   2
ATOM      2  C   UNL     1      -7.887 -14.520  27.136  1.00  0.00     0.000 C 
BRANCH   2   3
ATOM      3  C   UNL     1      -6.894 -14.489  28.308  1.00  0.00     0.000 C 
BRANCH   3   4
ATOM      4  C   UNL     1      -7.583 -14.622  29.674  1.00  0.00     0.006 C 
BRANCH   4   5
ATOM      5  C   UNL     1      -6.561 -14.913  30.777  1.00  0.00     0.053 C 
BRANCH   5   6
ATOM      6  C   UNL     1      -6.539 -13.800  31.777  1.00  0.00     0.041 C 
ATOM      7  O   UNL     1      -6.324 -14.046  32.993  1.00  0.00    -0.550 OA
ATOM      8  O   UNL     1      -6.804 -12.497  31.375  1.00  0.00    -0.550 OA
ENDBRANCH   5   6
ENDBRANCH   4   5
ENDBRANCH   3   4
ENDBRANCH   2   3
ENDBRANCH   1   2
BRANCH   1   9
ATOM      9  C   UNL     1     -10.286 -15.188  26.544  1.00  0.00     0.000 C 
BRANCH   9  10
ATOM     10  C   UNL     1     -11.520 -15.987  26.999  1.00  0.00    -0.000 C 
BRANCH  10  11
ATOM     11  C   UNL     1     -11.403 -16.479  28.450  1.00  0.00    -0.000 C 
BRANCH  11  12
ATOM     12  C   UNL     1     -11.570 -18.000  28.573  1.00  0.00    -0.000 C 
BRANCH  12  13
ATOM     13  C   UNL     1     -10.569 -18.583  29.578  1.00  0.00    -0.003 C 
ATOM     14  C   UNL     1      -9.973 -17.491  30.461  1.00  0.00     0.004 C 
ENDBRANCH  12  13
ENDBRANCH  11  12
ENDBRANCH  10  11
ENDBRANCH   9  10
ENDBRANCH   1   9
TORSDOF 10
ENDMDL
MODEL 6
REMARK VINA RESULT:    -4.957      2.019      4.205
REMARK INTER + INTRA:          -8.639
REMARK INTER:                  -7.690
REMARK INTRA:                  -0.949
REMARK UNBOUND:                -0.784
REMARK SMILES CCCCCCCCCCCC(=O)[O-]
REMARK SMILES IDX 7 1 8 2 9 3 10 4 11 5 12 6 13 7 14 8 6 9 5 10 4 11 3 12 2 13
REMARK SMILES IDX 1 14
REMARK H PARENT
REMARK Flexibility Score: inf
ROOT
ATOM      1  C   UNL     1     -12.973 -17.285  29.751  1.00  0.00     0.000 C 
ENDROOT
BRANCH   1   2
ATOM      2  C   UNL     1     -11.975 -17.620  30.872  1.00  0.00     0.000 C 
BRANCH   2   3
ATOM      3  C   UNL     1     -10.571 -17.940  30.335  1.00  0.00     0.000 C 
BRANCH   3   4
ATOM      4  C   UNL     1      -9.472 -17.112  31.017  1.00  0.00     0.006 C 
BRANCH   4   5
ATOM      5  C   UNL     1      -8.980 -15.992  30.096  1.00  0.00     0.053 C 
BRANCH   5   6
ATOM      6  C   UNL     1      -7.898 -15.202  30.762  1.00  0.00     0.041 C 
ATOM      7  O   UNL     1      -7.387 -15.609  31.838  1.00  0.00    -0.550 OA
ATOM      8  O   UNL     1      -7.486 -13.991  30.219  1.00  0.00    -0.550 OA
ENDBRANCH   5   6
ENDBRANCH   4   5
ENDBRANCH   3   4
ENDBRANCH   2   3
ENDBRANCH   1   2
BRANCH   1   9
ATOM      9  C   UNL     1     -12.601 -15.999  28.995  1.00  0.00     0.000 C 
BRANCH   9  10
ATOM     10  C   UNL     1     -12.337 -16.244  27.498  1.00  0.00    -0.000 C 
BRANCH  10  11
ATOM     11  C   UNL     1     -10.858 -16.060  27.122  1.00  0.00    -0.000 C 
BRANCH  11  12
ATOM     12  C   UNL     1     -10.653 -14.987  26.043  1.00  0.00    -0.000 C 
BRANCH  12  13
ATOM     13  C   UNL     1      -9.308 -14.275  26.226  1.00  0.00    -0.003 C 
ATOM     14  C   UNL     1      -8.207 -15.263  26.599  1.00  0.00     0.004 C 
ENDBRANCH  12  13
ENDBRANCH  11  12
ENDBRANCH  10  11
ENDBRANCH   9  10
ENDBRANCH   1   9
TORSDOF 10
ENDMDL
MODEL 7
REMARK VINA RESULT:    -4.908      3.038      4.764
REMARK INTER + INTRA:          -8.561
REMARK INTER:                  -8.258
REMARK INTRA:                  -0.303
REMARK UNBOUND:                -0.784
REMARK SMILES CCCCCCCCCCCC(=O)[O-]
REMARK SMILES IDX 7 1 8 2 9 3 10 4 11 5 12 6 13 7 14 8 6 9 5 10 4 11 3 12 2 13
REMARK SMILES IDX 1 14
REMARK H PARENT
REMARK Flexibility Score: inf
ROOT
ATOM      1  C   UNL     1     -13.482 -17.263  29.964  1.00  0.00     0.000 C 
ENDROOT
BRANCH   1   2
ATOM      2  C   UNL     1     -12.716 -18.412  30.642  1.00  0.00     0.000 C 
BRANCH   2   3
ATOM      3  C   UNL     1     -12.992 -18.494  32.152  1.00  0.00     0.000 C 
BRANCH   3   4
ATOM      4  C   UNL     1     -13.249 -19.931  32.631  1.00  0.00     0.006 C 
BRANCH   4   5
ATOM      5  C   UNL     1     -12.885 -20.087  34.111  1.00  0.00     0.053 C 
BRANCH   5   6
ATOM      6  C   UNL     1     -12.725 -21.533  34.462  1.00  0.00     0.041 C 
ATOM      7  O   UNL     1     -13.720 -22.304  34.442  1.00  0.00    -0.550 OA
ATOM      8  O   UNL     1     -11.485 -22.019  34.858  1.00  0.00    -0.550 OA
ENDBRANCH   5   6
ENDBRANCH   4   5
ENDBRANCH   3   4
ENDBRANCH   2   3
ENDBRANCH   1   2
BRANCH   1   9
ATOM      9  C   UNL     1     -12.550 -16.288  29.226  1.00  0.00     0.000 C 
BRANCH   9  10
ATOM     10  C   UNL     1     -11.854 -16.934  28.014  1.00  0.00    -0.000 C 
BRANCH  10  11
ATOM     11  C   UNL     1     -10.591 -16.173  27.583  1.00  0.00    -0.000 C 
BRANCH  11  12
ATOM     12  C   UNL     1     -10.826 -15.289  26.350  1.00  0.00    -0.000 C 
BRANCH  12  13
ATOM     13  C   UNL     1      -9.544 -14.550  25.952  1.00  0.00    -0.003 C 
ATOM     14  C   UNL     1      -8.358 -15.006  26.797  1.00  0.00     0.004 C 
ENDBRANCH  12  13
ENDBRANCH  11  12
ENDBRANCH  10  11
ENDBRANCH   9  10
ENDBRANCH   1   9
TORSDOF 10
ENDMDL
MODEL 8
REMARK VINA RESULT:    -4.801      2.711      5.616
REMARK INTER + INTRA:          -8.392
REMARK INTER:                  -7.840
REMARK INTRA:                  -0.552
REMARK UNBOUND:                -0.784
REMARK SMILES CCCCCCCCCCCC(=O)[O-]
REMARK SMILES IDX 7 1 8 2 9 3 10 4 11 5 12 6 13 7 14 8 6 9 5 10 4 11 3 12 2 13
REMARK SMILES IDX 1 14
REMARK H PARENT
REMARK Flexibility Score: inf
ROOT
ATOM      1  C   UNL     1      -6.954 -14.180  26.854  1.00  0.00     0.000 C 
ENDROOT
BRANCH   1   2
ATOM      2  C   UNL     1      -6.040 -14.555  28.034  1.00  0.00     0.000 C 
BRANCH   2   3
ATOM      3  C   UNL     1      -6.656 -14.194  29.395  1.00  0.00     0.000 C 
BRANCH   3   4
ATOM      4  C   UNL     1      -6.201 -12.819  29.906  1.00  0.00     0.006 C 
BRANCH   4   5
ATOM      5  C   UNL     1      -6.658 -12.594  31.350  1.00  0.00     0.053 C 
BRANCH   5   6
ATOM      6  C   UNL     1      -5.855 -13.436  32.292  1.00  0.00     0.041 C 
ATOM      7  O   UNL     1      -6.424 -14.295  33.016  1.00  0.00    -0.550 OA
ATOM      8  O   UNL     1      -4.484 -13.240  32.405  1.00  0.00    -0.550 OA
ENDBRANCH   5   6
ENDBRANCH   4   5
ENDBRANCH   3   4
ENDBRANCH   2   3
ENDBRANCH   1   2
BRANCH   1   9
ATOM      9  C   UNL     1      -8.084 -15.201  26.637  1.00  0.00     0.000 C 
BRANCH   9  10
ATOM     10  C   UNL     1      -9.360 -14.560  26.063  1.00  0.00    -0.000 C 
BRANCH  10  11
ATOM     11  C   UNL     1     -10.634 -15.324  26.458  1.00  0.00    -0.000 C 
BRANCH  11  12
ATOM     12  C   UNL     1     -10.476 -16.091  27.779  1.00  0.00    -0.000 C 
BRANCH  12  13
ATOM     13  C   UNL     1     -11.657 -17.041  28.006  1.00  0.00    -0.003 C 
ATOM     14  C   UNL     1     -12.950 -16.267  28.244  1.00  0.00     0.004 C 
ENDBRANCH  12  13
ENDBRANCH  11  12
ENDBRANCH  10  11
ENDBRANCH   9  10
ENDBRANCH   1   9
TORSDOF 10
ENDMDL
MODEL 9
REMARK VINA RESULT:    -4.704      1.376      2.086
REMARK INTER + INTRA:          -8.237
REMARK INTER:                  -7.592
REMARK INTRA:                  -0.645
REMARK UNBOUND:                -0.784
REMARK SMILES CCCCCCCCCCCC(=O)[O-]
REMARK SMILES IDX 7 1 8 2 9 3 10 4 11 5 12 6 13 7 14 8 6 9 5 10 4 11 3 12 2 13
REMARK SMILES IDX 1 14
REMARK H PARENT
REMARK Flexibility Score: inf
ROOT
ATOM      1  C   UNL     1     -11.621 -15.817  26.943  1.00  0.00     0.000 C 
ENDROOT
BRANCH   1   2
ATOM      2  C   UNL     1     -11.836 -16.730  28.162  1.00  0.00     0.000 C 
BRANCH   2   3
ATOM      3  C   UNL     1     -10.518 -17.093  28.867  1.00  0.00     0.000 C 
BRANCH   3   4
ATOM      4  C   UNL     1     -10.626 -18.379  29.699  1.00  0.00     0.006 C 
BRANCH   4   5
ATOM      5  C   UNL     1     -11.077 -18.068  31.129  1.00  0.00     0.053 C 
BRANCH   5   6
ATOM      6  C   UNL     1     -12.344 -18.797  31.450  1.00  0.00     0.041 C 
ATOM      7  O   UNL     1     -12.428 -19.490  32.498  1.00  0.00    -0.550 OA
ATOM      8  O   UNL     1     -13.416 -18.751  30.568  1.00  0.00    -0.550 OA
ENDBRANCH   5   6
ENDBRANCH   4   5
ENDBRANCH   3   4
ENDBRANCH   2   3
ENDBRANCH   1   2
BRANCH   1   9
ATOM      9  C   UNL     1     -10.132 -15.596  26.627  1.00  0.00     0.000 C 
BRANCH   9  10
ATOM     10  C   UNL     1      -9.873 -14.276  25.880  1.00  0.00    -0.000 C 
BRANCH  10  11
ATOM     11  C   UNL     1      -8.458 -13.726  26.125  1.00  0.00    -0.000 C 
BRANCH  11  12
ATOM     12  C   UNL     1      -7.483 -14.805  26.616  1.00  0.00    -0.000 C 
BRANCH  12  13
ATOM     13  C   UNL     1      -6.351 -14.186  27.443  1.00  0.00    -0.003 C 
ATOM     14  C   UNL     1      -6.610 -14.344  28.939  1.00  0.00     0.004 C 
ENDBRANCH  12  13
ENDBRANCH  11  12
ENDBRANCH  10  11
ENDBRANCH   9  10
ENDBRANCH   1   9
TORSDOF 10
ENDMDL
