MODEL 1
REMARK VINA RESULT:    -6.195      0.000      0.000
REMARK INTER + INTRA:          -7.793
REMARK INTER:                  -7.462
REMARK INTRA:                  -0.330
REMARK UNBOUND:                -0.330
REMARK SMILES O=c1c(O)c(-c2ccc(O)c(O)c2)oc2cc(O)cc(O)c12
REMARK SMILES IDX 5 1 3 2 2 3 1 4 22 5 20 6 19 7 17 8 16 9 15 10 14 11 6 12
REMARK SMILES IDX 7 13 8 14 9 15 13 16 11 17 10 18 12 20 4 22 21 24 18 26
REMARK H PARENT 10 19 12 21 4 23 21 25 18 27
REMARK Flexibility Score: inf
ROOT
ATOM      1  C   UNL     1      30.193  40.613  31.339  1.00  0.00     0.180 A 
ATOM      2  C   UNL     1      31.428  39.948  31.248  1.00  0.00     0.208 A 
ATOM      3  C   UNL     1      32.606  40.707  31.162  1.00  0.00     0.238 A 
ATOM      4  O   UNL     1      33.704  40.106  31.027  1.00  0.00    -0.285 OA
ATOM      5  C   UNL     1      32.537  42.121  31.185  1.00  0.00     0.111 A 
ATOM      6  C   UNL     1      33.669  42.990  31.145  1.00  0.00     0.134 A 
ATOM      7  C   UNL     1      33.476  44.371  31.040  1.00  0.00     0.093 A 
ATOM      8  C   UNL     1      32.195  44.923  31.040  1.00  0.00     0.123 A 
ATOM      9  C   UNL     1      31.082  44.086  31.140  1.00  0.00     0.094 A 
ATOM     10  C   UNL     1      31.241  42.701  31.208  1.00  0.00     0.146 A 
ATOM     11  O   UNL     1      30.156  41.940  31.290  1.00  0.00    -0.452 OA
ENDROOT
BRANCH   1  12
ATOM     12  C   UNL     1      28.912  39.883  31.457  1.00  0.00     0.025 A 
ATOM     13  C   UNL     1      28.187  39.564  30.297  1.00  0.00     0.016 A 
ATOM     14  C   UNL     1      26.966  38.893  30.387  1.00  0.00     0.051 A 
ATOM     15  C   UNL     1      26.440  38.544  31.635  1.00  0.00     0.157 A 
ATOM     16  C   UNL     1      28.372  39.549  32.712  1.00  0.00     0.062 A 
ATOM     17  C   UNL     1      27.144  38.877  32.805  1.00  0.00     0.158 A 
BRANCH  15  18
ATOM     18  O   UNL     1      25.220  37.873  31.694  1.00  0.00    -0.504 OA
ATOM     19  H   UNL     1      24.588  37.972  32.478  1.00  0.00     0.293 HD
ENDBRANCH  15  18
BRANCH  17  20
ATOM     20  O   UNL     1      26.619  38.544  34.052  1.00  0.00    -0.504 OA
ATOM     21  H   UNL     1      26.920  37.713  34.550  1.00  0.00     0.293 HD
ENDBRANCH  17  20
ENDBRANCH   1  12
BRANCH   2  22
ATOM     22  O   UNL     1      31.473  38.552  31.205  1.00  0.00    -0.502 OA
ATOM     23  H   UNL     1      32.342  38.033  31.241  1.00  0.00     0.293 HD
ENDBRANCH   2  22
BRANCH   6  24
ATOM     24  O   UNL     1      34.993  42.549  31.231  1.00  0.00    -0.507 OA
ATOM     25  H   UNL     1      35.717  43.002  31.767  1.00  0.00     0.293 HD
ENDBRANCH   6  24
BRANCH   8  26
ATOM     26  O   UNL     1      32.040  46.303  30.950  1.00  0.00    -0.508 OA
ATOM     27  H   UNL     1      31.402  46.724  30.283  1.00  0.00     0.293 HD
ENDBRANCH   8  26
TORSDOF 6
ENDMDL
MODEL 2
REMARK VINA RESULT:    -5.861      1.768      7.304
REMARK INTER + INTRA:          -7.391
REMARK INTER:                  -7.095
REMARK INTRA:                  -0.296
REMARK UNBOUND:                -0.330
REMARK SMILES O=c1c(O)c(-c2ccc(O)c(O)c2)oc2cc(O)cc(O)c12
REMARK SMILES IDX 5 1 3 2 2 3 1 4 22 5 20 6 19 7 17 8 16 9 15 10 14 11 6 12
REMARK SMILES IDX 7 13 8 14 9 15 13 16 11 17 10 18 12 20 4 22 21 24 18 26
REMARK H PARENT 10 19 12 21 4 23 21 25 18 27
REMARK Flexibility Score: inf
ROOT
ATOM      1  C   UNL     1      29.386  39.811  31.862  1.00  0.00     0.180 A 
ATOM      2  C   UNL     1      28.564  39.373  30.809  1.00  0.00     0.208 A 
ATOM      3  C   UNL     1      27.490  38.516  31.096  1.00  0.00     0.238 A 
ATOM      4  O   UNL     1      26.791  38.084  30.141  1.00  0.00    -0.285 OA
ATOM      5  C   UNL     1      27.240  38.119  32.432  1.00  0.00     0.111 A 
ATOM      6  C   UNL     1      26.156  37.285  32.841  1.00  0.00     0.134 A 
ATOM      7  C   UNL     1      26.083  36.851  34.169  1.00  0.00     0.093 A 
ATOM      8  C   UNL     1      27.015  37.271  35.118  1.00  0.00     0.123 A 
ATOM      9  C   UNL     1      28.045  38.134  34.741  1.00  0.00     0.094 A 
ATOM     10  C   UNL     1      28.166  38.556  33.415  1.00  0.00     0.146 A 
ATOM     11  O   UNL     1      29.166  39.368  33.096  1.00  0.00    -0.452 OA
ENDROOT
BRANCH   1  12
ATOM     12  C   UNL     1      30.521  40.735  31.644  1.00  0.00     0.025 A 
ATOM     13  C   UNL     1      31.834  40.236  31.671  1.00  0.00     0.016 A 
ATOM     14  C   UNL     1      32.921  41.093  31.488  1.00  0.00     0.051 A 
ATOM     15  C   UNL     1      32.717  42.462  31.291  1.00  0.00     0.157 A 
ATOM     16  C   UNL     1      30.319  42.115  31.467  1.00  0.00     0.062 A 
ATOM     17  C   UNL     1      31.409  42.978  31.285  1.00  0.00     0.158 A 
BRANCH  15  18
ATOM     18  O   UNL     1      33.821  43.294  31.109  1.00  0.00    -0.504 OA
ATOM     19  H   UNL     1      33.922  44.171  31.604  1.00  0.00     0.293 HD
ENDBRANCH  15  18
BRANCH  17  20
ATOM     20  O   UNL     1      31.200  44.344  31.103  1.00  0.00    -0.504 OA
ATOM     21  H   UNL     1      31.534  45.026  31.775  1.00  0.00     0.293 HD
ENDBRANCH  17  20
ENDBRANCH   1  12
BRANCH   2  22
ATOM     22  O   UNL     1      28.841  39.759  29.495  1.00  0.00    -0.502 OA
ATOM     23  H   UNL     1      28.215  40.344  28.956  1.00  0.00     0.293 HD
ENDBRANCH   2  22
BRANCH   6  24
ATOM     24  O   UNL     1      25.120  36.882  31.994  1.00  0.00    -0.507 OA
ATOM     25  H   UNL     1      24.975  37.226  31.057  1.00  0.00     0.293 HD
ENDBRANCH   6  24
BRANCH   8  26
ATOM     26  O   UNL     1      26.903  36.831  36.434  1.00  0.00    -0.508 OA
ATOM     27  H   UNL     1      27.680  36.892  37.082  1.00  0.00     0.293 HD
ENDBRANCH   8  26
TORSDOF 6
ENDMDL
MODEL 3
REMARK VINA RESULT:    -5.794      2.134      3.382
REMARK INTER + INTRA:          -7.310
REMARK INTER:                  -7.079
REMARK INTRA:                  -0.231
REMARK UNBOUND:                -0.330
REMARK SMILES O=c1c(O)c(-c2ccc(O)c(O)c2)oc2cc(O)cc(O)c12
REMARK SMILES IDX 5 1 3 2 2 3 1 4 22 5 20 6 19 7 17 8 16 9 15 10 14 11 6 12
REMARK SMILES IDX 7 13 8 14 9 15 13 16 11 17 10 18 12 20 4 22 21 24 18 26
REMARK H PARENT 10 19 12 21 4 23 21 25 18 27
REMARK Flexibility Score: inf
ROOT
ATOM      1  C   UNL     1      28.907  39.325  32.313  1.00  0.00     0.180 A 
ATOM      2  C   UNL     1      28.772  38.859  30.993  1.00  0.00     0.208 A 
ATOM      3  C   UNL     1      29.647  39.343  30.008  1.00  0.00     0.238 A 
ATOM      4  O   UNL     1      29.487  38.963  28.819  1.00  0.00    -0.285 OA
ATOM      5  C   UNL     1      30.657  40.273  30.356  1.00  0.00     0.111 A 
ATOM      6  C   UNL     1      31.623  40.799  29.447  1.00  0.00     0.134 A 
ATOM      7  C   UNL     1      32.491  41.811  29.872  1.00  0.00     0.093 A 
ATOM      8  C   UNL     1      32.473  42.271  31.188  1.00  0.00     0.123 A 
ATOM      9  C   UNL     1      31.572  41.722  32.101  1.00  0.00     0.094 A 
ATOM     10  C   UNL     1      30.668  40.736  31.698  1.00  0.00     0.146 A 
ATOM     11  O   UNL     1      29.820  40.248  32.595  1.00  0.00    -0.452 OA
ENDROOT
BRANCH   1  12
ATOM     12  C   UNL     1      28.038  38.844  33.411  1.00  0.00     0.025 A 
ATOM     13  C   UNL     1      26.703  39.274  33.476  1.00  0.00     0.016 A 
ATOM     14  C   UNL     1      25.872  38.849  34.514  1.00  0.00     0.051 A 
ATOM     15  C   UNL     1      26.364  38.001  35.512  1.00  0.00     0.157 A 
ATOM     16  C   UNL     1      28.536  38.008  34.426  1.00  0.00     0.062 A 
ATOM     17  C   UNL     1      27.704  37.581  35.471  1.00  0.00     0.158 A 
BRANCH  15  18
ATOM     18  O   UNL     1      25.511  37.591  36.536  1.00  0.00    -0.504 OA
ATOM     19  H   UNL     1      24.622  37.143  36.349  1.00  0.00     0.293 HD
ENDBRANCH  15  18
BRANCH  17  20
ATOM     20  O   UNL     1      28.204  36.747  36.470  1.00  0.00    -0.504 OA
ATOM     21  H   UNL     1      29.190  36.517  36.524  1.00  0.00     0.293 HD
ENDBRANCH  17  20
ENDBRANCH   1  12
BRANCH   2  22
ATOM     22  O   UNL     1      27.755  37.958  30.667  1.00  0.00    -0.502 OA
ATOM     23  H   UNL     1      27.281  37.974  29.772  1.00  0.00     0.293 HD
ENDBRANCH   2  22
BRANCH   6  24
ATOM     24  O   UNL     1      31.788  40.345  28.135  1.00  0.00    -0.507 OA
ATOM     25  H   UNL     1      32.301  39.517  27.873  1.00  0.00     0.293 HD
ENDBRANCH   6  24
BRANCH   8  26
ATOM     26  O   UNL     1      33.361  43.269  31.580  1.00  0.00    -0.508 OA
ATOM     27  H   UNL     1      34.316  43.294  31.239  1.00  0.00     0.293 HD
ENDBRANCH   8  26
TORSDOF 6
ENDMDL
MODEL 4
REMARK VINA RESULT:    -5.514      2.770      7.453
REMARK INTER + INTRA:          -6.973
REMARK INTER:                  -6.665
REMARK INTRA:                  -0.308
REMARK UNBOUND:                -0.330
REMARK SMILES O=c1c(O)c(-c2ccc(O)c(O)c2)oc2cc(O)cc(O)c12
REMARK SMILES IDX 5 1 3 2 2 3 1 4 22 5 20 6 19 7 17 8 16 9 15 10 14 11 6 12
REMARK SMILES IDX 7 13 8 14 9 15 13 16 11 17 10 18 12 20 4 22 21 24 18 26
REMARK H PARENT 10 19 12 21 4 23 21 25 18 27
REMARK Flexibility Score: inf
ROOT
ATOM      1  C   UNL     1      28.356  38.723  31.566  1.00  0.00     0.180 A 
ATOM      2  C   UNL     1      27.004  38.839  31.201  1.00  0.00     0.208 A 
ATOM      3  C   UNL     1      26.015  38.577  32.161  1.00  0.00     0.238 A 
ATOM      4  O   UNL     1      24.806  38.630  31.813  1.00  0.00    -0.285 OA
ATOM      5  C   UNL     1      26.388  38.218  33.479  1.00  0.00     0.111 A 
ATOM      6  C   UNL     1      25.469  37.969  34.543  1.00  0.00     0.134 A 
ATOM      7  C   UNL     1      25.946  37.494  35.769  1.00  0.00     0.093 A 
ATOM      8  C   UNL     1      27.311  37.321  35.994  1.00  0.00     0.123 A 
ATOM      9  C   UNL     1      28.222  37.618  34.980  1.00  0.00     0.094 A 
ATOM     10  C   UNL     1      27.776  38.059  33.733  1.00  0.00     0.146 A 
ATOM     11  O   UNL     1      28.675  38.320  32.792  1.00  0.00    -0.452 OA
ENDROOT
BRANCH   1  12
ATOM     12  C   UNL     1      29.456  39.007  30.618  1.00  0.00     0.025 A 
ATOM     13  C   UNL     1      29.893  37.999  29.742  1.00  0.00     0.016 A 
ATOM     14  C   UNL     1      30.942  38.239  28.853  1.00  0.00     0.051 A 
ATOM     15  C   UNL     1      31.584  39.482  28.834  1.00  0.00     0.157 A 
ATOM     16  C   UNL     1      30.116  40.249  30.611  1.00  0.00     0.062 A 
ATOM     17  C   UNL     1      31.172  40.492  29.720  1.00  0.00     0.158 A 
BRANCH  15  18
ATOM     18  O   UNL     1      32.627  39.693  27.934  1.00  0.00    -0.504 OA
ATOM     19  H   UNL     1      33.374  40.351  28.120  1.00  0.00     0.293 HD
ENDBRANCH  15  18
BRANCH  17  20
ATOM     20  O   UNL     1      31.816  41.728  29.716  1.00  0.00    -0.504 OA
ATOM     21  H   UNL     1      31.651  42.414  30.444  1.00  0.00     0.293 HD
ENDBRANCH  17  20
ENDBRANCH   1  12
BRANCH   2  22
ATOM     22  O   UNL     1      26.658  39.173  29.889  1.00  0.00    -0.502 OA
ATOM     23  H   UNL     1      27.084  38.730  29.083  1.00  0.00     0.293 HD
ENDBRANCH   2  22
BRANCH   6  24
ATOM     24  O   UNL     1      24.093  38.198  34.453  1.00  0.00    -0.507 OA
ATOM     25  H   UNL     1      23.669  38.996  34.005  1.00  0.00     0.293 HD
ENDBRANCH   6  24
BRANCH   8  26
ATOM     26  O   UNL     1      27.751  36.861  37.232  1.00  0.00    -0.508 OA
ATOM     27  H   UNL     1      28.174  35.945  37.339  1.00  0.00     0.293 HD
ENDBRANCH   8  26
TORSDOF 6
ENDMDL
MODEL 5
REMARK VINA RESULT:    -5.490      2.911      7.459
REMARK INTER + INTRA:          -6.943
REMARK INTER:                  -6.620
REMARK INTRA:                  -0.323
REMARK UNBOUND:                -0.330
REMARK SMILES O=c1c(O)c(-c2ccc(O)c(O)c2)oc2cc(O)cc(O)c12
REMARK SMILES IDX 5 1 3 2 2 3 1 4 22 5 20 6 19 7 17 8 16 9 15 10 14 11 6 12
REMARK SMILES IDX 7 13 8 14 9 15 13 16 11 17 10 18 12 20 4 22 21 24 18 26
REMARK H PARENT 10 19 12 21 4 23 21 25 18 27
REMARK Flexibility Score: inf
ROOT
ATOM      1  C   UNL     1      27.541  38.985  32.760  1.00  0.00     0.180 A 
ATOM      2  C   UNL     1      27.952  38.236  33.877  1.00  0.00     0.208 A 
ATOM      3  C   UNL     1      27.045  38.030  34.928  1.00  0.00     0.238 A 
ATOM      4  O   UNL     1      27.436  37.405  35.949  1.00  0.00    -0.285 OA
ATOM      5  C   UNL     1      25.734  38.558  34.844  1.00  0.00     0.111 A 
ATOM      6  C   UNL     1      24.721  38.376  35.832  1.00  0.00     0.134 A 
ATOM      7  C   UNL     1      23.503  39.054  35.706  1.00  0.00     0.093 A 
ATOM      8  C   UNL     1      23.236  39.855  34.596  1.00  0.00     0.123 A 
ATOM      9  C   UNL     1      24.198  39.993  33.594  1.00  0.00     0.094 A 
ATOM     10  C   UNL     1      25.436  39.359  33.709  1.00  0.00     0.146 A 
ATOM     11  O   UNL     1      26.327  39.525  32.739  1.00  0.00    -0.452 OA
ENDROOT
BRANCH   1  12
ATOM     12  C   UNL     1      28.431  39.225  31.602  1.00  0.00     0.025 A 
ATOM     13  C   UNL     1      28.450  38.303  30.542  1.00  0.00     0.016 A 
ATOM     14  C   UNL     1      29.297  38.499  29.449  1.00  0.00     0.051 A 
ATOM     15  C   UNL     1      30.149  39.607  29.403  1.00  0.00     0.157 A 
ATOM     16  C   UNL     1      29.303  40.327  31.564  1.00  0.00     0.062 A 
ATOM     17  C   UNL     1      30.156  40.525  30.468  1.00  0.00     0.158 A 
BRANCH  15  18
ATOM     18  O   UNL     1      30.982  39.778  28.298  1.00  0.00    -0.504 OA
ATOM     19  H   UNL     1      30.755  39.396  27.389  1.00  0.00     0.293 HD
ENDBRANCH  15  18
BRANCH  17  20
ATOM     20  O   UNL     1      31.012  41.624  30.435  1.00  0.00    -0.504 OA
ATOM     21  H   UNL     1      30.711  42.541  30.745  1.00  0.00     0.293 HD
ENDBRANCH  17  20
ENDBRANCH   1  12
BRANCH   2  22
ATOM     22  O   UNL     1      29.257  37.742  33.950  1.00  0.00    -0.502 OA
ATOM     23  H   UNL     1      29.465  36.795  34.243  1.00  0.00     0.293 HD
ENDBRANCH   2  22
BRANCH   6  24
ATOM     24  O   UNL     1      24.850  37.525  36.934  1.00  0.00    -0.507 OA
ATOM     25  H   UNL     1      24.792  36.519  36.894  1.00  0.00     0.293 HD
ENDBRANCH   6  24
BRANCH   8  26
ATOM     26  O   UNL     1      22.008  40.503  34.495  1.00  0.00    -0.508 OA
ATOM     27  H   UNL     1      21.921  41.503  34.642  1.00  0.00     0.293 HD
ENDBRANCH   8  26
TORSDOF 6
ENDMDL
MODEL 6
REMARK VINA RESULT:    -5.475      3.130      7.438
REMARK INTER + INTRA:          -6.926
REMARK INTER:                  -6.679
REMARK INTRA:                  -0.247
REMARK UNBOUND:                -0.330
REMARK SMILES O=c1c(O)c(-c2ccc(O)c(O)c2)oc2cc(O)cc(O)c12
REMARK SMILES IDX 5 1 3 2 2 3 1 4 22 5 20 6 19 7 17 8 16 9 15 10 14 11 6 12
REMARK SMILES IDX 7 13 8 14 9 15 13 16 11 17 10 18 12 20 4 22 21 24 18 26
REMARK H PARENT 10 19 12 21 4 23 21 25 18 27
REMARK Flexibility Score: inf
ROOT
ATOM      1  C   UNL     1      28.935  37.773  33.032  1.00  0.00     0.180 A 
ATOM      2  C   UNL     1      29.692  36.829  33.748  1.00  0.00     0.208 A 
ATOM      3  C   UNL     1      29.152  36.268  34.915  1.00  0.00     0.238 A 
ATOM      4  O   UNL     1      29.856  35.464  35.581  1.00  0.00    -0.285 OA
ATOM      5  C   UNL     1      27.856  36.644  35.345  1.00  0.00     0.111 A 
ATOM      6  C   UNL     1      27.194  36.109  36.491  1.00  0.00     0.134 A 
ATOM      7  C   UNL     1      25.968  36.650  36.895  1.00  0.00     0.093 A 
ATOM      8  C   UNL     1      25.348  37.660  36.160  1.00  0.00     0.123 A 
ATOM      9  C   UNL     1      25.958  38.149  35.004  1.00  0.00     0.094 A 
ATOM     10  C   UNL     1      27.199  37.656  34.595  1.00  0.00     0.146 A 
ATOM     11  O   UNL     1      27.750  38.156  33.496  1.00  0.00    -0.452 OA
ENDROOT
BRANCH   1  12
ATOM     12  C   UNL     1      29.426  38.390  31.779  1.00  0.00     0.025 A 
ATOM     13  C   UNL     1      29.482  37.622  30.605  1.00  0.00     0.016 A 
ATOM     14  C   UNL     1      29.961  38.178  29.417  1.00  0.00     0.051 A 
ATOM     15  C   UNL     1      30.406  39.503  29.385  1.00  0.00     0.157 A 
ATOM     16  C   UNL     1      29.893  39.716  31.750  1.00  0.00     0.062 A 
ATOM     17  C   UNL     1      30.377  40.277  30.558  1.00  0.00     0.158 A 
BRANCH  15  18
ATOM     18  O   UNL     1      30.877  40.032  28.184  1.00  0.00    -0.504 OA
ATOM     19  H   UNL     1      31.822  39.872  27.859  1.00  0.00     0.293 HD
ENDBRANCH  15  18
BRANCH  17  20
ATOM     20  O   UNL     1      30.832  41.594  30.536  1.00  0.00    -0.504 OA
ATOM     21  H   UNL     1      31.079  42.055  29.668  1.00  0.00     0.293 HD
ENDBRANCH  17  20
ENDBRANCH   1  12
BRANCH   2  22
ATOM     22  O   UNL     1      30.977  36.489  33.319  1.00  0.00    -0.502 OA
ATOM     23  H   UNL     1      31.217  36.393  32.339  1.00  0.00     0.293 HD
ENDBRANCH   2  22
BRANCH   6  24
ATOM     24  O   UNL     1      27.683  35.037  37.243  1.00  0.00    -0.507 OA
ATOM     25  H   UNL     1      28.068  34.190  36.855  1.00  0.00     0.293 HD
ENDBRANCH   6  24
BRANCH   8  26
ATOM     26  O   UNL     1      24.121  38.164  36.583  1.00  0.00    -0.508 OA
ATOM     27  H   UNL     1      23.256  37.661  36.420  1.00  0.00     0.293 HD
ENDBRANCH   8  26
TORSDOF 6
ENDMDL
MODEL 7
REMARK VINA RESULT:    -5.457      3.252      8.334
REMARK INTER + INTRA:          -6.904
REMARK INTER:                  -6.584
REMARK INTRA:                  -0.320
REMARK UNBOUND:                -0.330
REMARK SMILES O=c1c(O)c(-c2ccc(O)c(O)c2)oc2cc(O)cc(O)c12
REMARK SMILES IDX 5 1 3 2 2 3 1 4 22 5 20 6 19 7 17 8 16 9 15 10 14 11 6 12
REMARK SMILES IDX 7 13 8 14 9 15 13 16 11 17 10 18 12 20 4 22 21 24 18 26
REMARK H PARENT 10 19 12 21 4 23 21 25 18 27
REMARK Flexibility Score: inf
ROOT
ATOM      1  C   UNL     1      26.118  38.628  31.827  1.00  0.00     0.180 A 
ATOM      2  C   UNL     1      25.953  37.337  32.356  1.00  0.00     0.208 A 
ATOM      3  C   UNL     1      24.690  36.954  32.835  1.00  0.00     0.238 A 
ATOM      4  O   UNL     1      24.562  35.816  33.357  1.00  0.00    -0.285 OA
ATOM      5  C   UNL     1      23.604  37.860  32.765  1.00  0.00     0.111 A 
ATOM      6  C   UNL     1      22.273  37.564  33.184  1.00  0.00     0.134 A 
ATOM      7  C   UNL     1      21.310  38.580  33.190  1.00  0.00     0.093 A 
ATOM      8  C   UNL     1      21.610  39.862  32.732  1.00  0.00     0.123 A 
ATOM      9  C   UNL     1      22.894  40.146  32.264  1.00  0.00     0.094 A 
ATOM     10  C   UNL     1      23.887  39.164  32.279  1.00  0.00     0.146 A 
ATOM     11  O   UNL     1      25.098  39.479  31.836  1.00  0.00    -0.452 OA
ENDROOT
BRANCH   1  12
ATOM     12  C   UNL     1      27.412  39.096  31.280  1.00  0.00     0.025 A 
ATOM     13  C   UNL     1      27.695  38.909  29.917  1.00  0.00     0.016 A 
ATOM     14  C   UNL     1      28.917  39.324  29.384  1.00  0.00     0.051 A 
ATOM     15  C   UNL     1      29.882  39.917  30.205  1.00  0.00     0.157 A 
ATOM     16  C   UNL     1      28.391  39.674  32.107  1.00  0.00     0.062 A 
ATOM     17  C   UNL     1      29.621  40.090  31.575  1.00  0.00     0.158 A 
BRANCH  15  18
ATOM     18  O   UNL     1      31.092  40.324  29.645  1.00  0.00    -0.504 OA
ATOM     19  H   UNL     1      31.972  40.225  30.135  1.00  0.00     0.293 HD
ENDBRANCH  15  18
BRANCH  17  20
ATOM     20  O   UNL     1      30.583  40.667  32.401  1.00  0.00    -0.504 OA
ATOM     21  H   UNL     1      31.330  40.117  32.811  1.00  0.00     0.293 HD
ENDBRANCH  17  20
ENDBRANCH   1  12
BRANCH   2  22
ATOM     22  O   UNL     1      27.043  36.466  32.436  1.00  0.00    -0.502 OA
ATOM     23  H   UNL     1      26.971  35.539  32.840  1.00  0.00     0.293 HD
ENDBRANCH   2  22
BRANCH   6  24
ATOM     24  O   UNL     1      21.842  36.293  33.574  1.00  0.00    -0.507 OA
ATOM     25  H   UNL     1      21.121  36.113  34.255  1.00  0.00     0.293 HD
ENDBRANCH   6  24
BRANCH   8  26
ATOM     26  O   UNL     1      20.623  40.843  32.738  1.00  0.00    -0.508 OA
ATOM     27  H   UNL     1      19.676  40.646  32.435  1.00  0.00     0.293 HD
ENDBRANCH   8  26
TORSDOF 6
ENDMDL
MODEL 8
REMARK VINA RESULT:    -5.415      3.810      6.535
REMARK INTER + INTRA:          -6.853
REMARK INTER:                  -6.542
REMARK INTRA:                  -0.311
REMARK UNBOUND:                -0.330
REMARK SMILES O=c1c(O)c(-c2ccc(O)c(O)c2)oc2cc(O)cc(O)c12
REMARK SMILES IDX 5 1 3 2 2 3 1 4 22 5 20 6 19 7 17 8 16 9 15 10 14 11 6 12
REMARK SMILES IDX 7 13 8 14 9 15 13 16 11 17 10 18 12 20 4 22 21 24 18 26
REMARK H PARENT 10 19 12 21 4 23 21 25 18 27
REMARK Flexibility Score: inf
ROOT
ATOM      1  C   UNL     1      25.079  37.355  32.455  1.00  0.00     0.180 A 
ATOM      2  C   UNL     1      25.785  37.666  33.630  1.00  0.00     0.208 A 
ATOM      3  C   UNL     1      27.006  38.350  33.529  1.00  0.00     0.238 A 
ATOM      4  O   UNL     1      27.660  38.577  34.580  1.00  0.00    -0.285 OA
ATOM      5  C   UNL     1      27.499  38.731  32.257  1.00  0.00     0.111 A 
ATOM      6  C   UNL     1      28.705  39.462  32.040  1.00  0.00     0.134 A 
ATOM      7  C   UNL     1      29.161  39.669  30.733  1.00  0.00     0.093 A 
ATOM      8  C   UNL     1      28.425  39.229  29.634  1.00  0.00     0.123 A 
ATOM      9  C   UNL     1      27.214  38.564  29.834  1.00  0.00     0.094 A 
ATOM     10  C   UNL     1      26.750  38.311  31.126  1.00  0.00     0.146 A 
ATOM     11  O   UNL     1      25.599  37.666  31.273  1.00  0.00    -0.452 OA
ENDROOT
BRANCH   1  12
ATOM     12  C   UNL     1      23.773  36.658  32.482  1.00  0.00     0.025 A 
ATOM     13  C   UNL     1      23.713  35.291  32.166  1.00  0.00     0.016 A 
ATOM     14  C   UNL     1      22.489  34.618  32.164  1.00  0.00     0.051 A 
ATOM     15  C   UNL     1      21.306  35.300  32.463  1.00  0.00     0.157 A 
ATOM     16  C   UNL     1      22.580  37.347  32.762  1.00  0.00     0.062 A 
ATOM     17  C   UNL     1      21.349  36.674  32.759  1.00  0.00     0.158 A 
BRANCH  15  18
ATOM     18  O   UNL     1      20.099  34.602  32.456  1.00  0.00    -0.504 OA
ATOM     19  H   UNL     1      19.997  33.709  31.991  1.00  0.00     0.293 HD
ENDBRANCH  15  18
BRANCH  17  20
ATOM     20  O   UNL     1      20.172  37.363  33.044  1.00  0.00    -0.504 OA
ATOM     21  H   UNL     1      19.675  37.881  32.329  1.00  0.00     0.293 HD
ENDBRANCH  17  20
ENDBRANCH   1  12
BRANCH   2  22
ATOM     22  O   UNL     1      25.292  37.262  34.874  1.00  0.00    -0.502 OA
ATOM     23  H   UNL     1      24.438  36.726  34.973  1.00  0.00     0.293 HD
ENDBRANCH   2  22
BRANCH   6  24
ATOM     24  O   UNL     1      29.470  40.026  33.065  1.00  0.00    -0.507 OA
ATOM     25  H   UNL     1      30.477  39.989  33.120  1.00  0.00     0.293 HD
ENDBRANCH   6  24
BRANCH   8  26
ATOM     26  O   UNL     1      28.901  39.465  28.348  1.00  0.00    -0.508 OA
ATOM     27  H   UNL     1      28.370  39.196  27.527  1.00  0.00     0.293 HD
ENDBRANCH   8  26
TORSDOF 6
ENDMDL
MODEL 9
REMARK VINA RESULT:    -5.341      2.870      4.743
REMARK INTER + INTRA:          -6.765
REMARK INTER:                  -6.463
REMARK INTRA:                  -0.302
REMARK UNBOUND:                -0.330
REMARK SMILES O=c1c(O)c(-c2ccc(O)c(O)c2)oc2cc(O)cc(O)c12
REMARK SMILES IDX 5 1 3 2 2 3 1 4 22 5 20 6 19 7 17 8 16 9 15 10 14 11 6 12
REMARK SMILES IDX 7 13 8 14 9 15 13 16 11 17 10 18 12 20 4 22 21 24 18 26
REMARK H PARENT 10 19 12 21 4 23 21 25 18 27
REMARK Flexibility Score: inf
ROOT
ATOM      1  C   UNL     1      27.244  39.070  32.962  1.00  0.00     0.180 A 
ATOM      2  C   UNL     1      27.847  37.916  33.492  1.00  0.00     0.208 A 
ATOM      3  C   UNL     1      29.178  37.628  33.154  1.00  0.00     0.238 A 
ATOM      4  O   UNL     1      29.695  36.565  33.588  1.00  0.00    -0.285 OA
ATOM      5  C   UNL     1      29.897  38.505  32.306  1.00  0.00     0.111 A 
ATOM      6  C   UNL     1      31.263  38.332  31.931  1.00  0.00     0.134 A 
ATOM      7  C   UNL     1      31.832  39.189  30.982  1.00  0.00     0.093 A 
ATOM      8  C   UNL     1      31.108  40.251  30.444  1.00  0.00     0.123 A 
ATOM      9  C   UNL     1      29.789  40.465  30.848  1.00  0.00     0.094 A 
ATOM     10  C   UNL     1      29.181  39.606  31.765  1.00  0.00     0.146 A 
ATOM     11  O   UNL     1      27.922  39.838  32.115  1.00  0.00    -0.452 OA
ENDROOT
BRANCH   1  12
ATOM     12  C   UNL     1      25.853  39.455  33.291  1.00  0.00     0.025 A 
ATOM     13  C   UNL     1      25.584  40.105  34.506  1.00  0.00     0.016 A 
ATOM     14  C   UNL     1      24.276  40.458  34.846  1.00  0.00     0.051 A 
ATOM     15  C   UNL     1      23.215  40.154  33.987  1.00  0.00     0.157 A 
ATOM     16  C   UNL     1      24.783  39.132  32.438  1.00  0.00     0.062 A 
ATOM     17  C   UNL     1      23.468  39.484  32.777  1.00  0.00     0.158 A 
BRANCH  15  18
ATOM     18  O   UNL     1      21.921  40.521  34.351  1.00  0.00    -0.504 OA
ATOM     19  H   UNL     1      21.570  41.461  34.221  1.00  0.00     0.293 HD
ENDBRANCH  15  18
BRANCH  17  20
ATOM     20  O   UNL     1      22.414  39.166  31.923  1.00  0.00    -0.504 OA
ATOM     21  H   UNL     1      21.601  39.766  31.838  1.00  0.00     0.293 HD
ENDBRANCH  17  20
ENDBRANCH   1  12
BRANCH   2  22
ATOM     22  O   UNL     1      27.113  37.053  34.309  1.00  0.00    -0.502 OA
ATOM     23  H   UNL     1      26.299  37.357  34.830  1.00  0.00     0.293 HD
ENDBRANCH   2  22
BRANCH   6  24
ATOM     24  O   UNL     1      32.104  37.358  32.477  1.00  0.00    -0.507 OA
ATOM     25  H   UNL     1      33.074  37.502  32.714  1.00  0.00     0.293 HD
ENDBRANCH   6  24
BRANCH   8  26
ATOM     26  O   UNL     1      31.711  41.094  29.514  1.00  0.00    -0.508 OA
ATOM     27  H   UNL     1      32.098  41.992  29.783  1.00  0.00     0.293 HD
ENDBRANCH   8  26
TORSDOF 6
ENDMDL
