MODEL 1
REMARK VINA RESULT:     0.663      0.000      0.000
REMARK INTER + INTRA:           0.979
REMARK INTER:                   1.670
REMARK INTRA:                  -0.692
REMARK UNBOUND:                -0.692
REMARK SMILES CCCCCCCCCCCCCCCCCCCCCCCCCCCC(=O)[O-]
REMARK SMILES IDX 15 1 16 2 17 3 18 4 19 5 20 6 21 7 22 8 23 9 24 10 25 11
REMARK SMILES IDX 26 12 27 13 28 14 29 15 30 16 14 17 13 18 12 19 11 20 10 21
REMARK SMILES IDX 9 22 8 23 7 24 6 25 5 26 4 27 3 28 2 29 1 30
REMARK H PARENT
REMARK Flexibility Score: inf
ROOT
ATOM      1  C   UNL     1      25.205  18.657  55.042  1.00  0.00     0.000 C 
ENDROOT
BRANCH   1   2
ATOM      2  C   UNL     1      24.950  19.003  56.517  1.00  0.00     0.000 C 
BRANCH   2   3
ATOM      3  C   UNL     1      23.553  18.551  56.961  1.00  0.00     0.000 C 
BRANCH   3   4
ATOM      4  C   UNL     1      22.927  19.578  57.914  1.00  0.00     0.000 C 
BRANCH   4   5
ATOM      5  C   UNL     1      22.899  21.008  57.346  1.00  0.00     0.000 C 
BRANCH   5   6
ATOM      6  C   UNL     1      23.268  22.111  58.362  1.00  0.00     0.000 C 
BRANCH   6   7
ATOM      7  C   UNL     1      23.240  21.710  59.855  1.00  0.00     0.000 C 
BRANCH   7   8
ATOM      8  C   UNL     1      24.593  21.339  60.500  1.00  0.00     0.000 C 
BRANCH   8   9
ATOM      9  C   UNL     1      25.782  21.252  59.516  1.00  0.00     0.000 C 
BRANCH   9  10
ATOM     10  C   UNL     1      27.011  22.073  59.946  1.00  0.00     0.000 C 
BRANCH  10  11
ATOM     11  C   UNL     1      27.911  21.329  60.943  1.00  0.00     0.000 C 
BRANCH  11  12
ATOM     12  C   UNL     1      27.096  20.364  61.812  1.00  0.00     0.006 C 
BRANCH  12  13
ATOM     13  C   UNL     1      26.660  21.039  63.118  1.00  0.00     0.053 C 
BRANCH  13  14
ATOM     14  C   UNL     1      25.467  20.353  63.710  1.00  0.00     0.041 C 
ATOM     15  O   UNL     1      24.772  20.931  64.586  1.00  0.00    -0.550 OA
ATOM     16  O   UNL     1      25.132  19.066  63.303  1.00  0.00    -0.550 OA
ENDBRANCH  13  14
ENDBRANCH  12  13
ENDBRANCH  11  12
ENDBRANCH  10  11
ENDBRANCH   9  10
ENDBRANCH   8   9
ENDBRANCH   7   8
ENDBRANCH   6   7
ENDBRANCH   5   6
ENDBRANCH   4   5
ENDBRANCH   3   4
ENDBRANCH   2   3
ENDBRANCH   1   2
BRANCH   1  17
ATOM     17  C   UNL     1      23.903  18.363  54.261  1.00  0.00     0.000 C 
BRANCH  17  18
ATOM     18  C   UNL     1      22.933  19.557  54.196  1.00  0.00     0.000 C 
BRANCH  18  19
ATOM     19  C   UNL     1      22.960  20.350  52.877  1.00  0.00     0.000 C 
BRANCH  19  20
ATOM     20  C   UNL     1      23.761  21.669  52.957  1.00  0.00     0.000 C 
BRANCH  20  21
ATOM     21  C   UNL     1      24.482  21.847  54.300  1.00  0.00     0.000 C 
BRANCH  21  22
ATOM     22  C   UNL     1      25.981  22.103  54.096  1.00  0.00    -0.000 C 
BRANCH  22  23
ATOM     23  C   UNL     1      26.817  20.938  54.648  1.00  0.00    -0.000 C 
BRANCH  23  24
ATOM     24  C   UNL     1      28.013  21.413  55.491  1.00  0.00    -0.000 C 
BRANCH  24  25
ATOM     25  C   UNL     1      29.340  20.773  55.041  1.00  0.00    -0.000 C 
BRANCH  25  26
ATOM     26  C   UNL     1      30.561  21.651  55.368  1.00  0.00    -0.000 C 
BRANCH  26  27
ATOM     27  C   UNL     1      31.723  20.899  56.048  1.00  0.00    -0.000 C 
BRANCH  27  28
ATOM     28  C   UNL     1      33.078  21.603  55.854  1.00  0.00    -0.000 C 
BRANCH  28  29
ATOM     29  C   UNL     1      33.816  21.837  57.182  1.00  0.00    -0.003 C 
ATOM     30  C   UNL     1      32.868  21.876  58.383  1.00  0.00     0.004 C 
ENDBRANCH  28  29
ENDBRANCH  27  28
ENDBRANCH  26  27
ENDBRANCH  25  26
ENDBRANCH  24  25
ENDBRANCH  23  24
ENDBRANCH  22  23
ENDBRANCH  21  22
ENDBRANCH  20  21
ENDBRANCH  19  20
ENDBRANCH  18  19
ENDBRANCH  17  18
ENDBRANCH   1  17
TORSDOF 26
ENDMDL
MODEL 2
REMARK VINA RESULT:     1.330      2.436      5.197
REMARK INTER + INTRA:           2.661
REMARK INTER:                   4.532
REMARK INTRA:                  -1.871
REMARK UNBOUND:                -0.692
REMARK SMILES CCCCCCCCCCCCCCCCCCCCCCCCCCCC(=O)[O-]
REMARK SMILES IDX 15 1 16 2 17 3 18 4 19 5 20 6 21 7 22 8 23 9 24 10 25 11
REMARK SMILES IDX 26 12 27 13 28 14 29 15 30 16 14 17 13 18 12 19 11 20 10 21
REMARK SMILES IDX 9 22 8 23 7 24 6 25 5 26 4 27 3 28 2 29 1 30
REMARK H PARENT
REMARK Flexibility Score: inf
ROOT
ATOM      1  C   UNL     1      28.310  18.086  60.258  1.00  0.00     0.000 C 
ENDROOT
BRANCH   1   2
ATOM      2  C   UNL     1      27.472  19.371  60.185  1.00  0.00     0.000 C 
BRANCH   2   3
ATOM      3  C   UNL     1      28.318  20.608  60.514  1.00  0.00     0.000 C 
BRANCH   3   4
ATOM      4  C   UNL     1      27.533  21.894  60.228  1.00  0.00     0.000 C 
BRANCH   4   5
ATOM      5  C   UNL     1      27.085  22.030  58.762  1.00  0.00     0.000 C 
BRANCH   5   6
ATOM      6  C   UNL     1      25.557  22.119  58.562  1.00  0.00     0.000 C 
BRANCH   6   7
ATOM      7  C   UNL     1      24.743  20.850  58.905  1.00  0.00     0.000 C 
BRANCH   7   8
ATOM      8  C   UNL     1      23.280  21.063  59.351  1.00  0.00     0.000 C 
BRANCH   8   9
ATOM      9  C   UNL     1      23.096  22.043  60.532  1.00  0.00     0.000 C 
BRANCH   9  10
ATOM     10  C   UNL     1      23.293  21.400  61.916  1.00  0.00     0.000 C 
BRANCH  10  11
ATOM     11  C   UNL     1      24.343  22.125  62.771  1.00  0.00     0.000 C 
BRANCH  11  12
ATOM     12  C   UNL     1      25.593  21.259  62.963  1.00  0.00     0.006 C 
BRANCH  12  13
ATOM     13  C   UNL     1      25.225  19.773  63.031  1.00  0.00     0.053 C 
BRANCH  13  14
ATOM     14  C   UNL     1      25.930  19.092  64.164  1.00  0.00     0.041 C 
ATOM     15  O   UNL     1      27.085  19.459  64.506  1.00  0.00    -0.550 OA
ATOM     16  O   UNL     1      25.315  18.040  64.834  1.00  0.00    -0.550 OA
ENDBRANCH  13  14
ENDBRANCH  12  13
ENDBRANCH  11  12
ENDBRANCH  10  11
ENDBRANCH   9  10
ENDBRANCH   8   9
ENDBRANCH   7   8
ENDBRANCH   6   7
ENDBRANCH   5   6
ENDBRANCH   4   5
ENDBRANCH   3   4
ENDBRANCH   2   3
ENDBRANCH   1   2
BRANCH   1  17
ATOM     17  C   UNL     1      27.914  17.049  59.181  1.00  0.00     0.000 C 
BRANCH  17  18
ATOM     18  C   UNL     1      26.811  17.537  58.223  1.00  0.00     0.000 C 
BRANCH  18  19
ATOM     19  C   UNL     1      27.053  18.924  57.602  1.00  0.00     0.000 C 
BRANCH  19  20
ATOM     20  C   UNL     1      26.050  19.292  56.485  1.00  0.00     0.000 C 
BRANCH  20  21
ATOM     21  C   UNL     1      25.230  18.089  56.001  1.00  0.00     0.000 C 
BRANCH  21  22
ATOM     22  C   UNL     1      23.800  18.132  56.555  1.00  0.00    -0.000 C 
BRANCH  22  23
ATOM     23  C   UNL     1      22.890  18.986  55.659  1.00  0.00    -0.000 C 
BRANCH  23  24
ATOM     24  C   UNL     1      22.947  18.565  54.181  1.00  0.00    -0.000 C 
BRANCH  24  25
ATOM     25  C   UNL     1      23.592  19.641  53.287  1.00  0.00    -0.000 C 
BRANCH  25  26
ATOM     26  C   UNL     1      22.875  20.999  53.385  1.00  0.00    -0.000 C 
BRANCH  26  27
ATOM     27  C   UNL     1      23.704  22.109  54.064  1.00  0.00    -0.000 C 
BRANCH  27  28
ATOM     28  C   UNL     1      25.218  21.940  53.837  1.00  0.00    -0.000 C 
BRANCH  28  29
ATOM     29  C   UNL     1      26.004  21.854  55.155  1.00  0.00    -0.003 C 
ATOM     30  C   UNL     1      27.510  21.699  54.933  1.00  0.00     0.004 C 
ENDBRANCH  28  29
ENDBRANCH  27  28
ENDBRANCH  26  27
ENDBRANCH  25  26
ENDBRANCH  24  25
ENDBRANCH  23  24
ENDBRANCH  22  23
ENDBRANCH  21  22
ENDBRANCH  20  21
ENDBRANCH  19  20
ENDBRANCH  18  19
ENDBRANCH  17  18
ENDBRANCH   1  17
TORSDOF 26
ENDMDL
MODEL 3
REMARK VINA RESULT:     1.553      1.586      2.181
REMARK INTER + INTRA:           3.222
REMARK INTER:                   3.456
REMARK INTRA:                  -0.234
REMARK UNBOUND:                -0.692
REMARK SMILES CCCCCCCCCCCCCCCCCCCCCCCCCCCC(=O)[O-]
REMARK SMILES IDX 15 1 16 2 17 3 18 4 19 5 20 6 21 7 22 8 23 9 24 10 25 11
REMARK SMILES IDX 26 12 27 13 28 14 29 15 30 16 14 17 13 18 12 19 11 20 10 21
REMARK SMILES IDX 9 22 8 23 7 24 6 25 5 26 4 27 3 28 2 29 1 30
REMARK H PARENT
REMARK Flexibility Score: inf
ROOT
ATOM      1  C   UNL     1      25.253  18.712  55.141  1.00  0.00     0.000 C 
ENDROOT
BRANCH   1   2
ATOM      2  C   UNL     1      24.974  19.168  56.581  1.00  0.00     0.000 C 
BRANCH   2   3
ATOM      3  C   UNL     1      23.735  18.469  57.157  1.00  0.00     0.000 C 
BRANCH   3   4
ATOM      4  C   UNL     1      22.910  19.442  58.010  1.00  0.00     0.000 C 
BRANCH   4   5
ATOM      5  C   UNL     1      22.901  20.881  57.468  1.00  0.00     0.000 C 
BRANCH   5   6
ATOM      6  C   UNL     1      22.987  21.978  58.552  1.00  0.00     0.000 C 
BRANCH   6   7
ATOM      7  C   UNL     1      22.900  21.503  60.021  1.00  0.00     0.000 C 
BRANCH   7   8
ATOM      8  C   UNL     1      24.035  21.954  60.966  1.00  0.00     0.000 C 
BRANCH   8   9
ATOM      9  C   UNL     1      23.888  21.483  62.430  1.00  0.00     0.000 C 
BRANCH   9  10
ATOM     10  C   UNL     1      25.125  20.750  62.978  1.00  0.00     0.000 C 
BRANCH  10  11
ATOM     11  C   UNL     1      26.352  21.663  63.117  1.00  0.00     0.000 C 
BRANCH  11  12
ATOM     12  C   UNL     1      26.922  22.037  61.744  1.00  0.00     0.006 C 
BRANCH  12  13
ATOM     13  C   UNL     1      27.359  20.786  60.973  1.00  0.00     0.053 C 
BRANCH  13  14
ATOM     14  C   UNL     1      27.258  20.999  59.493  1.00  0.00     0.041 C 
ATOM     15  O   UNL     1      26.476  20.295  58.802  1.00  0.00    -0.550 OA
ATOM     16  O   UNL     1      28.041  21.968  58.875  1.00  0.00    -0.550 OA
ENDBRANCH  13  14
ENDBRANCH  12  13
ENDBRANCH  11  12
ENDBRANCH  10  11
ENDBRANCH   9  10
ENDBRANCH   8   9
ENDBRANCH   7   8
ENDBRANCH   6   7
ENDBRANCH   5   6
ENDBRANCH   4   5
ENDBRANCH   3   4
ENDBRANCH   2   3
ENDBRANCH   1   2
BRANCH   1  17
ATOM     17  C   UNL     1      23.975  18.257  54.398  1.00  0.00     0.000 C 
BRANCH  17  18
ATOM     18  C   UNL     1      22.917  19.366  54.243  1.00  0.00     0.000 C 
BRANCH  18  19
ATOM     19  C   UNL     1      22.981  20.148  52.918  1.00  0.00     0.000 C 
BRANCH  19  20
ATOM     20  C   UNL     1      23.736  21.493  53.022  1.00  0.00     0.000 C 
BRANCH  20  21
ATOM     21  C   UNL     1      24.555  21.617  54.314  1.00  0.00     0.000 C 
BRANCH  21  22
ATOM     22  C   UNL     1      25.974  22.125  54.024  1.00  0.00    -0.000 C 
BRANCH  22  23
ATOM     23  C   UNL     1      27.006  21.001  54.203  1.00  0.00    -0.000 C 
BRANCH  23  24
ATOM     24  C   UNL     1      28.089  21.349  55.238  1.00  0.00    -0.000 C 
BRANCH  24  25
ATOM     25  C   UNL     1      29.483  21.506  54.601  1.00  0.00    -0.000 C 
BRANCH  25  26
ATOM     26  C   UNL     1      30.536  22.017  55.601  1.00  0.00    -0.000 C 
BRANCH  26  27
ATOM     27  C   UNL     1      31.913  21.335  55.480  1.00  0.00    -0.000 C 
BRANCH  27  28
ATOM     28  C   UNL     1      33.029  22.122  56.192  1.00  0.00    -0.000 C 
BRANCH  28  29
ATOM     29  C   UNL     1      33.045  21.879  57.710  1.00  0.00    -0.003 C 
ATOM     30  C   UNL     1      31.680  22.119  58.360  1.00  0.00     0.004 C 
ENDBRANCH  28  29
ENDBRANCH  27  28
ENDBRANCH  26  27
ENDBRANCH  25  26
ENDBRANCH  24  25
ENDBRANCH  23  24
ENDBRANCH  22  23
ENDBRANCH  21  22
ENDBRANCH  20  21
ENDBRANCH  19  20
ENDBRANCH  18  19
ENDBRANCH  17  18
ENDBRANCH   1  17
TORSDOF 26
ENDMDL
MODEL 4
REMARK VINA RESULT:     2.135      3.393      7.437
REMARK INTER + INTRA:           4.688
REMARK INTER:                   4.044
REMARK INTRA:                   0.643
REMARK UNBOUND:                -0.692
REMARK SMILES CCCCCCCCCCCCCCCCCCCCCCCCCCCC(=O)[O-]
REMARK SMILES IDX 15 1 16 2 17 3 18 4 19 5 20 6 21 7 22 8 23 9 24 10 25 11
REMARK SMILES IDX 26 12 27 13 28 14 29 15 30 16 14 17 13 18 12 19 11 20 10 21
REMARK SMILES IDX 9 22 8 23 7 24 6 25 5 26 4 27 3 28 2 29 1 30
REMARK H PARENT
REMARK Flexibility Score: inf
ROOT
ATOM      1  C   UNL     1      25.867  18.185  57.228  1.00  0.00     0.000 C 
ENDROOT
BRANCH   1   2
ATOM      2  C   UNL     1      25.080  18.277  55.912  1.00  0.00     0.000 C 
BRANCH   2   3
ATOM      3  C   UNL     1      23.570  18.154  56.156  1.00  0.00     0.000 C 
BRANCH   3   4
ATOM      4  C   UNL     1      22.893  19.528  56.079  1.00  0.00     0.000 C 
BRANCH   4   5
ATOM      5  C   UNL     1      23.296  20.344  54.838  1.00  0.00     0.000 C 
BRANCH   5   6
ATOM      6  C   UNL     1      24.819  20.511  54.644  1.00  0.00     0.000 C 
BRANCH   6   7
ATOM      7  C   UNL     1      25.291  21.834  54.000  1.00  0.00     0.000 C 
BRANCH   7   8
ATOM      8  C   UNL     1      26.817  22.050  53.893  1.00  0.00     0.000 C 
BRANCH   8   9
ATOM      9  C   UNL     1      27.577  22.001  55.238  1.00  0.00     0.000 C 
BRANCH   9  10
ATOM     10  C   UNL     1      29.108  21.995  55.092  1.00  0.00     0.000 C 
BRANCH  10  11
ATOM     11  C   UNL     1      29.801  21.025  56.060  1.00  0.00     0.000 C 
BRANCH  11  12
ATOM     12  C   UNL     1      31.183  21.545  56.471  1.00  0.00     0.006 C 
BRANCH  12  13
ATOM     13  C   UNL     1      31.931  22.125  55.264  1.00  0.00     0.053 C 
BRANCH  13  14
ATOM     14  C   UNL     1      32.025  21.123  54.154  1.00  0.00     0.041 C 
ATOM     15  O   UNL     1      31.734  19.916  54.361  1.00  0.00    -0.550 OA
ATOM     16  O   UNL     1      32.449  21.523  52.891  1.00  0.00    -0.550 OA
ENDBRANCH  13  14
ENDBRANCH  12  13
ENDBRANCH  11  12
ENDBRANCH  10  11
ENDBRANCH   9  10
ENDBRANCH   8   9
ENDBRANCH   7   8
ENDBRANCH   6   7
ENDBRANCH   5   6
ENDBRANCH   4   5
ENDBRANCH   3   4
ENDBRANCH   2   3
ENDBRANCH   1   2
BRANCH   1  17
ATOM     17  C   UNL     1      26.619  19.493  57.570  1.00  0.00     0.000 C 
BRANCH  17  18
ATOM     18  C   UNL     1      25.918  20.354  58.637  1.00  0.00     0.000 C 
BRANCH  18  19
ATOM     19  C   UNL     1      25.632  21.807  58.218  1.00  0.00     0.000 C 
BRANCH  19  20
ATOM     20  C   UNL     1      24.241  22.011  57.577  1.00  0.00     0.000 C 
BRANCH  20  21
ATOM     21  C   UNL     1      23.100  21.456  58.440  1.00  0.00     0.000 C 
BRANCH  21  22
ATOM     22  C   UNL     1      23.086  22.109  59.828  1.00  0.00    -0.000 C 
BRANCH  22  23
ATOM     23  C   UNL     1      23.970  21.327  60.812  1.00  0.00    -0.000 C 
BRANCH  23  24
ATOM     24  C   UNL     1      23.263  21.044  62.148  1.00  0.00    -0.000 C 
BRANCH  24  25
ATOM     25  C   UNL     1      23.552  22.125  63.208  1.00  0.00    -0.000 C 
BRANCH  25  26
ATOM     26  C   UNL     1      24.866  21.872  63.968  1.00  0.00    -0.000 C 
BRANCH  26  27
ATOM     27  C   UNL     1      26.124  21.851  63.076  1.00  0.00    -0.000 C 
BRANCH  27  28
ATOM     28  C   UNL     1      26.698  20.433  62.895  1.00  0.00    -0.000 C 
BRANCH  28  29
ATOM     29  C   UNL     1      25.893  19.370  63.661  1.00  0.00    -0.003 C 
ATOM     30  C   UNL     1      26.699  18.719  64.787  1.00  0.00     0.004 C 
ENDBRANCH  28  29
ENDBRANCH  27  28
ENDBRANCH  26  27
ENDBRANCH  25  26
ENDBRANCH  24  25
ENDBRANCH  23  24
ENDBRANCH  22  23
ENDBRANCH  21  22
ENDBRANCH  20  21
ENDBRANCH  19  20
ENDBRANCH  18  19
ENDBRANCH  17  18
ENDBRANCH   1  17
TORSDOF 26
ENDMDL
MODEL 5
REMARK VINA RESULT:     2.436      2.806      5.691
REMARK INTER + INTRA:           5.446
REMARK INTER:                   5.217
REMARK INTRA:                   0.229
REMARK UNBOUND:                -0.692
REMARK SMILES CCCCCCCCCCCCCCCCCCCCCCCCCCCC(=O)[O-]
REMARK SMILES IDX 15 1 16 2 17 3 18 4 19 5 20 6 21 7 22 8 23 9 24 10 25 11
REMARK SMILES IDX 26 12 27 13 28 14 29 15 30 16 14 17 13 18 12 19 11 20 10 21
REMARK SMILES IDX 9 22 8 23 7 24 6 25 5 26 4 27 3 28 2 29 1 30
REMARK H PARENT
REMARK Flexibility Score: inf
ROOT
ATOM      1  C   UNL     1      26.162  22.125  58.574  1.00  0.00     0.000 C 
ENDROOT
BRANCH   1   2
ATOM      2  C   UNL     1      27.469  21.450  59.017  1.00  0.00     0.000 C 
BRANCH   2   3
ATOM      3  C   UNL     1      27.419  21.058  60.499  1.00  0.00     0.000 C 
BRANCH   3   4
ATOM      4  C   UNL     1      26.677  22.122  61.318  1.00  0.00     0.000 C 
BRANCH   4   5
ATOM      5  C   UNL     1      26.952  22.039  62.830  1.00  0.00     0.000 C 
BRANCH   5   6
ATOM      6  C   UNL     1      25.698  21.806  63.700  1.00  0.00     0.000 C 
BRANCH   6   7
ATOM      7  C   UNL     1      24.899  20.512  63.426  1.00  0.00     0.000 C 
BRANCH   7   8
ATOM      8  C   UNL     1      25.125  19.336  64.402  1.00  0.00     0.000 C 
BRANCH   8   9
ATOM      9  C   UNL     1      26.496  18.635  64.269  1.00  0.00     0.000 C 
BRANCH   9  10
ATOM     10  C   UNL     1      27.320  19.096  63.054  1.00  0.00     0.000 C 
BRANCH  10  11
ATOM     11  C   UNL     1      27.063  18.250  61.799  1.00  0.00     0.000 C 
BRANCH  11  12
ATOM     12  C   UNL     1      28.362  17.625  61.277  1.00  0.00     0.006 C 
BRANCH  12  13
ATOM     13  C   UNL     1      28.343  17.520  59.747  1.00  0.00     0.053 C 
BRANCH  13  14
ATOM     14  C   UNL     1      27.741  16.222  59.301  1.00  0.00     0.041 C 
ATOM     15  O   UNL     1      27.770  15.893  58.087  1.00  0.00    -0.550 OA
ATOM     16  O   UNL     1      27.132  15.383  60.228  1.00  0.00    -0.550 OA
ENDBRANCH  13  14
ENDBRANCH  12  13
ENDBRANCH  11  12
ENDBRANCH  10  11
ENDBRANCH   9  10
ENDBRANCH   8   9
ENDBRANCH   7   8
ENDBRANCH   6   7
ENDBRANCH   5   6
ENDBRANCH   4   5
ENDBRANCH   3   4
ENDBRANCH   2   3
ENDBRANCH   1   2
BRANCH   1  17
ATOM     17  C   UNL     1      25.027  21.976  59.615  1.00  0.00     0.000 C 
BRANCH  17  18
ATOM     18  C   UNL     1      23.783  21.244  59.080  1.00  0.00     0.000 C 
BRANCH  18  19
ATOM     19  C   UNL     1      23.944  20.622  57.680  1.00  0.00     0.000 C 
BRANCH  19  20
ATOM     20  C   UNL     1      25.072  19.570  57.590  1.00  0.00     0.000 C 
BRANCH  20  21
ATOM     21  C   UNL     1      24.787  18.478  56.550  1.00  0.00     0.000 C 
BRANCH  21  22
ATOM     22  C   UNL     1      23.422  18.691  55.882  1.00  0.00    -0.000 C 
BRANCH  22  23
ATOM     23  C   UNL     1      23.496  18.393  54.376  1.00  0.00    -0.000 C 
BRANCH  23  24
ATOM     24  C   UNL     1      22.875  19.509  53.519  1.00  0.00    -0.000 C 
BRANCH  24  25
ATOM     25  C   UNL     1      22.926  20.883  54.216  1.00  0.00    -0.000 C 
BRANCH  25  26
ATOM     26  C   UNL     1      23.525  21.979  53.317  1.00  0.00    -0.000 C 
BRANCH  26  27
ATOM     27  C   UNL     1      25.057  22.124  53.424  1.00  0.00    -0.000 C 
BRANCH  27  28
ATOM     28  C   UNL     1      25.619  21.520  54.724  1.00  0.00    -0.000 C 
BRANCH  28  29
ATOM     29  C   UNL     1      27.142  21.314  54.667  1.00  0.00    -0.003 C 
ATOM     30  C   UNL     1      27.686  20.600  55.906  1.00  0.00     0.004 C 
ENDBRANCH  28  29
ENDBRANCH  27  28
ENDBRANCH  26  27
ENDBRANCH  25  26
ENDBRANCH  24  25
ENDBRANCH  23  24
ENDBRANCH  22  23
ENDBRANCH  21  22
ENDBRANCH  20  21
ENDBRANCH  19  20
ENDBRANCH  18  19
ENDBRANCH  17  18
ENDBRANCH   1  17
TORSDOF 26
ENDMDL
MODEL 6
REMARK VINA RESULT:     2.848      3.125      7.624
REMARK INTER + INTRA:           6.485
REMARK INTER:                   6.922
REMARK INTRA:                  -0.437
REMARK UNBOUND:                -0.692
REMARK SMILES CCCCCCCCCCCCCCCCCCCCCCCCCCCC(=O)[O-]
REMARK SMILES IDX 15 1 16 2 17 3 18 4 19 5 20 6 21 7 22 8 23 9 24 10 25 11
REMARK SMILES IDX 26 12 27 13 28 14 29 15 30 16 14 17 13 18 12 19 11 20 10 21
REMARK SMILES IDX 9 22 8 23 7 24 6 25 5 26 4 27 3 28 2 29 1 30
REMARK H PARENT
REMARK Flexibility Score: inf
ROOT
ATOM      1  C   UNL     1      28.277  17.934  60.485  1.00  0.00     0.000 C 
ENDROOT
BRANCH   1   2
ATOM      2  C   UNL     1      27.271  17.670  59.355  1.00  0.00     0.000 C 
BRANCH   2   3
ATOM      3  C   UNL     1      26.888  18.969  58.634  1.00  0.00     0.000 C 
BRANCH   3   4
ATOM      4  C   UNL     1      26.557  18.696  57.161  1.00  0.00     0.000 C 
BRANCH   4   5
ATOM      5  C   UNL     1      25.613  17.498  56.954  1.00  0.00     0.000 C 
BRANCH   5   6
ATOM      6  C   UNL     1      24.609  17.664  55.793  1.00  0.00     0.000 C 
BRANCH   6   7
ATOM      7  C   UNL     1      24.367  19.106  55.291  1.00  0.00     0.000 C 
BRANCH   7   8
ATOM      8  C   UNL     1      22.941  19.673  55.465  1.00  0.00     0.000 C 
BRANCH   8   9
ATOM      9  C   UNL     1      22.877  21.162  55.874  1.00  0.00     0.000 C 
BRANCH   9  10
ATOM     10  C   UNL     1      24.108  21.981  55.447  1.00  0.00     0.000 C 
BRANCH  10  11
ATOM     11  C   UNL     1      24.728  21.491  54.130  1.00  0.00     0.000 C 
BRANCH  11  12
ATOM     12  C   UNL     1      26.231  21.790  54.081  1.00  0.00     0.006 C 
BRANCH  12  13
ATOM     13  C   UNL     1      26.773  22.106  55.480  1.00  0.00     0.053 C 
BRANCH  13  14
ATOM     14  C   UNL     1      28.223  21.748  55.593  1.00  0.00     0.041 C 
ATOM     15  O   UNL     1      28.807  21.160  54.645  1.00  0.00    -0.550 OA
ATOM     16  O   UNL     1      28.926  22.051  56.753  1.00  0.00    -0.550 OA
ENDBRANCH  13  14
ENDBRANCH  12  13
ENDBRANCH  11  12
ENDBRANCH  10  11
ENDBRANCH   9  10
ENDBRANCH   8   9
ENDBRANCH   7   8
ENDBRANCH   6   7
ENDBRANCH   5   6
ENDBRANCH   4   5
ENDBRANCH   3   4
ENDBRANCH   2   3
ENDBRANCH   1   2
BRANCH   1  17
ATOM     17  C   UNL     1      28.515  19.442  60.736  1.00  0.00     0.000 C 
BRANCH  17  18
ATOM     18  C   UNL     1      27.221  20.246  60.963  1.00  0.00     0.000 C 
BRANCH  18  19
ATOM     19  C   UNL     1      27.282  21.718  60.516  1.00  0.00     0.000 C 
BRANCH  19  20
ATOM     20  C   UNL     1      26.818  21.948  59.059  1.00  0.00     0.000 C 
BRANCH  20  21
ATOM     21  C   UNL     1      25.290  21.992  58.920  1.00  0.00     0.000 C 
BRANCH  21  22
ATOM     22  C   UNL     1      24.631  20.816  59.653  1.00  0.00    -0.000 C 
BRANCH  22  23
ATOM     23  C   UNL     1      23.400  21.282  60.444  1.00  0.00    -0.000 C 
BRANCH  23  24
ATOM     24  C   UNL     1      23.770  22.124  61.677  1.00  0.00    -0.000 C 
BRANCH  24  25
ATOM     25  C   UNL     1      22.916  21.769  62.909  1.00  0.00    -0.000 C 
BRANCH  25  26
ATOM     26  C   UNL     1      23.771  21.379  64.129  1.00  0.00    -0.000 C 
BRANCH  26  27
ATOM     27  C   UNL     1      25.220  21.905  64.085  1.00  0.00    -0.000 C 
BRANCH  27  28
ATOM     28  C   UNL     1      26.257  20.774  63.963  1.00  0.00    -0.000 C 
BRANCH  28  29
ATOM     29  C   UNL     1      25.604  19.392  63.800  1.00  0.00    -0.003 C 
ATOM     30  C   UNL     1      26.506  18.253  64.281  1.00  0.00     0.004 C 
ENDBRANCH  28  29
ENDBRANCH  27  28
ENDBRANCH  26  27
ENDBRANCH  25  26
ENDBRANCH  24  25
ENDBRANCH  23  24
ENDBRANCH  22  23
ENDBRANCH  21  22
ENDBRANCH  20  21
ENDBRANCH  19  20
ENDBRANCH  18  19
ENDBRANCH  17  18
ENDBRANCH   1  17
TORSDOF 26
ENDMDL
MODEL 7
REMARK VINA RESULT:     3.167      3.225      8.053
REMARK INTER + INTRA:           7.289
REMARK INTER:                   9.102
REMARK INTRA:                  -1.813
REMARK UNBOUND:                -0.692
REMARK SMILES CCCCCCCCCCCCCCCCCCCCCCCCCCCC(=O)[O-]
REMARK SMILES IDX 15 1 16 2 17 3 18 4 19 5 20 6 21 7 22 8 23 9 24 10 25 11
REMARK SMILES IDX 26 12 27 13 28 14 29 15 30 16 14 17 13 18 12 19 11 20 10 21
REMARK SMILES IDX 9 22 8 23 7 24 6 25 5 26 4 27 3 28 2 29 1 30
REMARK H PARENT
REMARK Flexibility Score: inf
ROOT
ATOM      1  C   UNL     1      27.943  16.555  59.296  1.00  0.00     0.000 C 
ENDROOT
BRANCH   1   2
ATOM      2  C   UNL     1      27.612  16.570  57.796  1.00  0.00     0.000 C 
BRANCH   2   3
ATOM      3  C   UNL     1      26.242  17.209  57.534  1.00  0.00     0.000 C 
BRANCH   3   4
ATOM      4  C   UNL     1      26.402  18.590  56.885  1.00  0.00     0.000 C 
BRANCH   4   5
ATOM      5  C   UNL     1      26.682  19.717  57.895  1.00  0.00     0.000 C 
BRANCH   5   6
ATOM      6  C   UNL     1      27.221  21.022  57.270  1.00  0.00     0.000 C 
BRANCH   6   7
ATOM      7  C   UNL     1      26.283  21.752  56.282  1.00  0.00     0.000 C 
BRANCH   7   8
ATOM      8  C   UNL     1      26.668  21.694  54.787  1.00  0.00     0.000 C 
BRANCH   8   9
ATOM      9  C   UNL     1      25.474  21.728  53.806  1.00  0.00     0.000 C 
BRANCH   9  10
ATOM     10  C   UNL     1      24.111  21.939  54.487  1.00  0.00     0.000 C 
BRANCH  10  11
ATOM     11  C   UNL     1      22.942  21.348  53.685  1.00  0.00     0.000 C 
BRANCH  11  12
ATOM     12  C   UNL     1      22.888  19.823  53.828  1.00  0.00     0.006 C 
BRANCH  12  13
ATOM     13  C   UNL     1      23.649  19.362  55.077  1.00  0.00     0.053 C 
BRANCH  13  14
ATOM     14  C   UNL     1      23.170  18.019  55.537  1.00  0.00     0.041 C 
ATOM     15  O   UNL     1      23.005  17.086  54.708  1.00  0.00    -0.550 OA
ATOM     16  O   UNL     1      22.891  17.804  56.882  1.00  0.00    -0.550 OA
ENDBRANCH  13  14
ENDBRANCH  12  13
ENDBRANCH  11  12
ENDBRANCH  10  11
ENDBRANCH   9  10
ENDBRANCH   8   9
ENDBRANCH   7   8
ENDBRANCH   6   7
ENDBRANCH   5   6
ENDBRANCH   4   5
ENDBRANCH   3   4
ENDBRANCH   2   3
ENDBRANCH   1   2
BRANCH   1  17
ATOM     17  C   UNL     1      27.338  17.759  60.056  1.00  0.00     0.000 C 
BRANCH  17  18
ATOM     18  C   UNL     1      28.204  18.254  61.229  1.00  0.00     0.000 C 
BRANCH  18  19
ATOM     19  C   UNL     1      27.742  19.575  61.870  1.00  0.00     0.000 C 
BRANCH  19  20
ATOM     20  C   UNL     1      27.186  20.600  60.855  1.00  0.00     0.000 C 
BRANCH  20  21
ATOM     21  C   UNL     1      26.741  21.911  61.516  1.00  0.00     0.000 C 
BRANCH  21  22
ATOM     22  C   UNL     1      27.238  22.000  62.965  1.00  0.00    -0.000 C 
BRANCH  22  23
ATOM     23  C   UNL     1      26.072  21.856  63.955  1.00  0.00    -0.000 C 
BRANCH  23  24
ATOM     24  C   UNL     1      25.045  20.799  63.513  1.00  0.00    -0.000 C 
BRANCH  24  25
ATOM     25  C   UNL     1      23.592  21.278  63.695  1.00  0.00    -0.000 C 
BRANCH  25  26
ATOM     26  C   UNL     1      23.060  22.032  62.464  1.00  0.00    -0.000 C 
BRANCH  26  27
ATOM     27  C   UNL     1      23.088  21.216  61.156  1.00  0.00    -0.000 C 
BRANCH  27  28
ATOM     28  C   UNL     1      22.875  22.091  59.907  1.00  0.00    -0.000 C 
BRANCH  28  29
ATOM     29  C   UNL     1      23.843  21.736  58.767  1.00  0.00    -0.003 C 
ATOM     30  C   UNL     1      23.219  20.793  57.736  1.00  0.00     0.004 C 
ENDBRANCH  28  29
ENDBRANCH  27  28
ENDBRANCH  26  27
ENDBRANCH  25  26
ENDBRANCH  24  25
ENDBRANCH  23  24
ENDBRANCH  22  23
ENDBRANCH  21  22
ENDBRANCH  20  21
ENDBRANCH  19  20
ENDBRANCH  18  19
ENDBRANCH  17  18
ENDBRANCH   1  17
TORSDOF 26
ENDMDL
