MODEL 1
REMARK VINA RESULT:    -5.471      0.000      0.000
REMARK INTER + INTRA:         -17.784
REMARK INTER:                 -14.426
REMARK INTRA:                  -3.358
REMARK UNBOUND:                -3.358
REMARK SMILES CCCCCCCCCCCCCCCCCCCCCCCCCCCCCC(=O)[O-]
REMARK SMILES IDX 16 1 17 2 18 3 19 4 20 5 21 6 22 7 23 8 24 9 25 10 26 11
REMARK SMILES IDX 27 12 28 13 29 14 30 15 31 16 32 17 15 18 14 19 13 20 12 21
REMARK SMILES IDX 11 22 10 23 9 24 8 25 7 26 6 27 5 28 4 29 3 30 2 31 1 32
REMARK H PARENT
REMARK Flexibility Score: inf
ROOT
ATOM      1  C   UNL     1      48.798  25.339  16.878  1.00  0.00     0.000 C 
ENDROOT
BRANCH   1   2
ATOM      2  C   UNL     1      49.274  25.053  18.308  1.00  0.00     0.000 C 
BRANCH   2   3
ATOM      3  C   UNL     1      48.796  26.146  19.278  1.00  0.00     0.000 C 
BRANCH   3   4
ATOM      4  C   UNL     1      48.479  25.598  20.680  1.00  0.00     0.000 C 
BRANCH   4   5
ATOM      5  C   UNL     1      48.033  26.660  21.699  1.00  0.00     0.000 C 
BRANCH   5   6
ATOM      6  C   UNL     1      49.180  27.105  22.624  1.00  0.00     0.000 C 
BRANCH   6   7
ATOM      7  C   UNL     1      50.382  26.147  22.581  1.00  0.00     0.000 C 
BRANCH   7   8
ATOM      8  C   UNL     1      51.730  26.888  22.577  1.00  0.00     0.000 C 
BRANCH   8   9
ATOM      9  C   UNL     1      52.811  26.066  21.859  1.00  0.00     0.000 C 
BRANCH   9  10
ATOM     10  C   UNL     1      52.237  25.196  20.728  1.00  0.00     0.000 C 
BRANCH  10  11
ATOM     11  C   UNL     1      52.616  25.715  19.331  1.00  0.00     0.000 C 
BRANCH  11  12
ATOM     12  C   UNL     1      53.646  26.857  19.376  1.00  0.00     0.000 C 
BRANCH  12  13
ATOM     13  C   UNL     1      53.062  28.231  18.982  1.00  0.00     0.006 C 
BRANCH  13  14
ATOM     14  C   UNL     1      52.317  28.182  17.643  1.00  0.00     0.053 C 
BRANCH  14  15
ATOM     15  C   UNL     1      53.281  28.080  16.503  1.00  0.00     0.041 C 
ATOM     16  O   UNL     1      54.520  28.180  16.711  1.00  0.00    -0.550 OA
ATOM     17  O   UNL     1      52.810  27.850  15.215  1.00  0.00    -0.550 OA
ENDBRANCH  14  15
ENDBRANCH  13  14
ENDBRANCH  12  13
ENDBRANCH  11  12
ENDBRANCH  10  11
ENDBRANCH   9  10
ENDBRANCH   8   9
ENDBRANCH   7   8
ENDBRANCH   6   7
ENDBRANCH   5   6
ENDBRANCH   4   5
ENDBRANCH   3   4
ENDBRANCH   2   3
ENDBRANCH   1   2
BRANCH   1  18
ATOM     18  C   UNL     1      49.878  26.069  16.069  1.00  0.00     0.000 C 
BRANCH  18  19
ATOM     19  C   UNL     1      49.251  27.131  15.155  1.00  0.00     0.000 C 
BRANCH  19  20
ATOM     20  C   UNL     1      48.188  27.996  15.858  1.00  0.00     0.000 C 
BRANCH  20  21
ATOM     21  C   UNL     1      48.716  29.276  16.535  1.00  0.00     0.000 C 
BRANCH  21  22
ATOM     22  C   UNL     1      47.697  30.427  16.546  1.00  0.00     0.000 C 
BRANCH  22  23
ATOM     23  C   UNL     1      47.895  31.383  17.736  1.00  0.00     0.000 C 
BRANCH  23  24
ATOM     24  C   UNL     1      49.249  32.125  17.725  1.00  0.00    -0.000 C 
BRANCH  24  25
ATOM     25  C   UNL     1      49.141  33.534  17.117  1.00  0.00    -0.000 C 
BRANCH  25  26
ATOM     26  C   UNL     1      47.685  33.931  16.806  1.00  0.00    -0.000 C 
BRANCH  26  27
ATOM     27  C   UNL     1      47.318  33.835  15.315  1.00  0.00    -0.000 C 
BRANCH  27  28
ATOM     28  C   UNL     1      48.529  33.533  14.417  1.00  0.00    -0.000 C 
BRANCH  28  29
ATOM     29  C   UNL     1      48.675  34.543  13.266  1.00  0.00    -0.000 C 
BRANCH  29  30
ATOM     30  C   UNL     1      47.441  34.554  12.342  1.00  0.00    -0.000 C 
BRANCH  30  31
ATOM     31  C   UNL     1      47.662  33.750  11.051  1.00  0.00    -0.003 C 
ATOM     32  C   UNL     1      49.133  33.427  10.792  1.00  0.00     0.004 C 
ENDBRANCH  30  31
ENDBRANCH  29  30
ENDBRANCH  28  29
ENDBRANCH  27  28
ENDBRANCH  26  27
ENDBRANCH  25  26
ENDBRANCH  24  25
ENDBRANCH  23  24
ENDBRANCH  22  23
ENDBRANCH  21  22
ENDBRANCH  20  21
ENDBRANCH  19  20
ENDBRANCH  18  19
ENDBRANCH   1  18
TORSDOF 28
ENDMDL
MODEL 2
REMARK VINA RESULT:    -5.467      4.412     10.642
REMARK INTER + INTRA:         -17.773
REMARK INTER:                 -15.245
REMARK INTRA:                  -2.529
REMARK UNBOUND:                -3.358
REMARK SMILES CCCCCCCCCCCCCCCCCCCCCCCCCCCCCC(=O)[O-]
REMARK SMILES IDX 16 1 17 2 18 3 19 4 20 5 21 6 22 7 23 8 24 9 25 10 26 11
REMARK SMILES IDX 27 12 28 13 29 14 30 15 31 16 32 17 15 18 14 19 13 20 12 21
REMARK SMILES IDX 11 22 10 23 9 24 8 25 7 26 6 27 5 28 4 29 3 30 2 31 1 32
REMARK H PARENT
REMARK Flexibility Score: inf
ROOT
ATOM      1  C   UNL     1      49.553  29.984  16.612  1.00  0.00     0.000 C 
ENDROOT
BRANCH   1   2
ATOM      2  C   UNL     1      48.123  30.284  17.077  1.00  0.00     0.000 C 
BRANCH   2   3
ATOM      3  C   UNL     1      48.061  31.615  17.846  1.00  0.00     0.000 C 
BRANCH   3   4
ATOM      4  C   UNL     1      49.247  32.542  17.524  1.00  0.00     0.000 C 
BRANCH   4   5
ATOM      5  C   UNL     1      48.855  33.897  16.912  1.00  0.00     0.000 C 
BRANCH   5   6
ATOM      6  C   UNL     1      47.811  33.756  15.790  1.00  0.00     0.000 C 
BRANCH   6   7
ATOM      7  C   UNL     1      48.427  33.276  14.464  1.00  0.00     0.000 C 
BRANCH   7   8
ATOM      8  C   UNL     1      48.718  34.433  13.494  1.00  0.00     0.000 C 
BRANCH   8   9
ATOM      9  C   UNL     1      47.584  34.597  12.471  1.00  0.00     0.000 C 
BRANCH   9  10
ATOM     10  C   UNL     1      46.583  35.695  12.870  1.00  0.00     0.000 C 
BRANCH  10  11
ATOM     11  C   UNL     1      45.130  35.322  12.532  1.00  0.00     0.000 C 
BRANCH  11  12
ATOM     12  C   UNL     1      44.138  36.463  12.814  1.00  0.00     0.000 C 
BRANCH  12  13
ATOM     13  C   UNL     1      43.177  36.751  11.641  1.00  0.00     0.006 C 
BRANCH  13  14
ATOM     14  C   UNL     1      41.822  36.056  11.818  1.00  0.00     0.053 C 
BRANCH  14  15
ATOM     15  C   UNL     1      40.958  36.814  12.777  1.00  0.00     0.041 C 
ATOM     16  O   UNL     1      41.206  38.021  13.033  1.00  0.00    -0.550 OA
ATOM     17  O   UNL     1      39.866  36.189  13.369  1.00  0.00    -0.550 OA
ENDBRANCH  14  15
ENDBRANCH  13  14
ENDBRANCH  12  13
ENDBRANCH  11  12
ENDBRANCH  10  11
ENDBRANCH   9  10
ENDBRANCH   8   9
ENDBRANCH   7   8
ENDBRANCH   6   7
ENDBRANCH   5   6
ENDBRANCH   4   5
ENDBRANCH   3   4
ENDBRANCH   2   3
ENDBRANCH   1   2
BRANCH   1  18
ATOM     18  C   UNL     1      49.640  28.608  15.939  1.00  0.00     0.000 C 
BRANCH  18  19
ATOM     19  C   UNL     1      48.518  27.685  16.436  1.00  0.00     0.000 C 
BRANCH  19  20
ATOM     20  C   UNL     1      48.884  26.190  16.384  1.00  0.00     0.000 C 
BRANCH  20  21
ATOM     21  C   UNL     1      48.816  25.444  17.731  1.00  0.00     0.000 C 
BRANCH  21  22
ATOM     22  C   UNL     1      48.552  26.370  18.929  1.00  0.00     0.000 C 
BRANCH  22  23
ATOM     23  C   UNL     1      48.564  25.620  20.273  1.00  0.00     0.000 C 
BRANCH  23  24
ATOM     24  C   UNL     1      47.823  26.357  21.409  1.00  0.00    -0.000 C 
BRANCH  24  25
ATOM     25  C   UNL     1      48.756  26.729  22.574  1.00  0.00    -0.000 C 
BRANCH  25  26
ATOM     26  C   UNL     1      50.150  26.087  22.440  1.00  0.00    -0.000 C 
BRANCH  26  27
ATOM     27  C   UNL     1      51.313  27.081  22.606  1.00  0.00    -0.000 C 
BRANCH  27  28
ATOM     28  C   UNL     1      52.564  26.681  21.805  1.00  0.00    -0.000 C 
BRANCH  28  29
ATOM     29  C   UNL     1      52.279  26.543  20.299  1.00  0.00    -0.000 C 
BRANCH  29  30
ATOM     30  C   UNL     1      53.461  27.028  19.437  1.00  0.00    -0.000 C 
BRANCH  30  31
ATOM     31  C   UNL     1      53.445  28.549  19.215  1.00  0.00    -0.003 C 
ATOM     32  C   UNL     1      52.913  28.948  17.839  1.00  0.00     0.004 C 
ENDBRANCH  30  31
ENDBRANCH  29  30
ENDBRANCH  28  29
ENDBRANCH  27  28
ENDBRANCH  26  27
ENDBRANCH  25  26
ENDBRANCH  24  25
ENDBRANCH  23  24
ENDBRANCH  22  23
ENDBRANCH  21  22
ENDBRANCH  20  21
ENDBRANCH  19  20
ENDBRANCH  18  19
ENDBRANCH   1  18
TORSDOF 28
ENDMDL
MODEL 3
REMARK VINA RESULT:    -5.400      3.799      9.738
REMARK INTER + INTRA:         -17.598
REMARK INTER:                 -14.447
REMARK INTRA:                  -3.151
REMARK UNBOUND:                -3.358
REMARK SMILES CCCCCCCCCCCCCCCCCCCCCCCCCCCCCC(=O)[O-]
REMARK SMILES IDX 16 1 17 2 18 3 19 4 20 5 21 6 22 7 23 8 24 9 25 10 26 11
REMARK SMILES IDX 27 12 28 13 29 14 30 15 31 16 32 17 15 18 14 19 13 20 12 21
REMARK SMILES IDX 11 22 10 23 9 24 8 25 7 26 6 27 5 28 4 29 3 30 2 31 1 32
REMARK H PARENT
REMARK Flexibility Score: inf
ROOT
ATOM      1  C   UNL     1      47.809  28.265  15.937  1.00  0.00     0.000 C 
ENDROOT
BRANCH   1   2
ATOM      2  C   UNL     1      48.622  29.184  16.857  1.00  0.00     0.000 C 
BRANCH   2   3
ATOM      3  C   UNL     1      47.728  29.813  17.938  1.00  0.00     0.000 C 
BRANCH   3   4
ATOM      4  C   UNL     1      47.861  31.345  18.001  1.00  0.00     0.000 C 
BRANCH   4   5
ATOM      5  C   UNL     1      48.957  31.932  17.097  1.00  0.00     0.000 C 
BRANCH   5   6
ATOM      6  C   UNL     1      49.211  33.424  17.374  1.00  0.00     0.000 C 
BRANCH   6   7
ATOM      7  C   UNL     1      48.600  34.340  16.299  1.00  0.00     0.000 C 
BRANCH   7   8
ATOM      8  C   UNL     1      48.500  33.655  14.926  1.00  0.00     0.000 C 
BRANCH   8   9
ATOM      9  C   UNL     1      48.970  34.594  13.804  1.00  0.00     0.000 C 
BRANCH   9  10
ATOM     10  C   UNL     1      48.822  33.966  12.408  1.00  0.00     0.000 C 
BRANCH  10  11
ATOM     11  C   UNL     1      47.426  34.190  11.803  1.00  0.00     0.000 C 
BRANCH  11  12
ATOM     12  C   UNL     1      46.667  35.353  12.465  1.00  0.00     0.000 C 
BRANCH  12  13
ATOM     13  C   UNL     1      45.132  35.232  12.351  1.00  0.00     0.006 C 
BRANCH  13  14
ATOM     14  C   UNL     1      44.411  36.464  12.909  1.00  0.00     0.053 C 
BRANCH  14  15
ATOM     15  C   UNL     1      43.235  36.823  12.056  1.00  0.00     0.041 C 
ATOM     16  O   UNL     1      42.263  36.029  11.952  1.00  0.00    -0.550 OA
ATOM     17  O   UNL     1      43.204  38.047  11.396  1.00  0.00    -0.550 OA
ENDBRANCH  14  15
ENDBRANCH  13  14
ENDBRANCH  12  13
ENDBRANCH  11  12
ENDBRANCH  10  11
ENDBRANCH   9  10
ENDBRANCH   8   9
ENDBRANCH   7   8
ENDBRANCH   6   7
ENDBRANCH   5   6
ENDBRANCH   4   5
ENDBRANCH   3   4
ENDBRANCH   2   3
ENDBRANCH   1   2
BRANCH   1  18
ATOM     18  C   UNL     1      48.615  27.022  15.540  1.00  0.00     0.000 C 
BRANCH  18  19
ATOM     19  C   UNL     1      49.993  27.025  16.219  1.00  0.00     0.000 C 
BRANCH  19  20
ATOM     20  C   UNL     1      50.210  25.836  17.173  1.00  0.00     0.000 C 
BRANCH  20  21
ATOM     21  C   UNL     1      48.926  25.181  17.719  1.00  0.00     0.000 C 
BRANCH  21  22
ATOM     22  C   UNL     1      48.825  25.221  19.253  1.00  0.00     0.000 C 
BRANCH  22  23
ATOM     23  C   UNL     1      48.501  26.625  19.791  1.00  0.00     0.000 C 
BRANCH  23  24
ATOM     24  C   UNL     1      48.156  26.656  21.295  1.00  0.00    -0.000 C 
BRANCH  24  25
ATOM     25  C   UNL     1      49.260  26.029  22.163  1.00  0.00    -0.000 C 
BRANCH  25  26
ATOM     26  C   UNL     1      50.299  27.066  22.634  1.00  0.00    -0.000 C 
BRANCH  26  27
ATOM     27  C   UNL     1      51.752  26.566  22.570  1.00  0.00    -0.000 C 
BRANCH  27  28
ATOM     28  C   UNL     1      52.577  27.257  21.471  1.00  0.00    -0.000 C 
BRANCH  28  29
ATOM     29  C   UNL     1      52.267  26.704  20.069  1.00  0.00    -0.000 C 
BRANCH  29  30
ATOM     30  C   UNL     1      53.498  26.747  19.142  1.00  0.00    -0.000 C 
BRANCH  30  31
ATOM     31  C   UNL     1      53.893  28.180  18.750  1.00  0.00    -0.003 C 
ATOM     32  C   UNL     1      52.788  28.920  17.997  1.00  0.00     0.004 C 
ENDBRANCH  30  31
ENDBRANCH  29  30
ENDBRANCH  28  29
ENDBRANCH  27  28
ENDBRANCH  26  27
ENDBRANCH  25  26
ENDBRANCH  24  25
ENDBRANCH  23  24
ENDBRANCH  22  23
ENDBRANCH  21  22
ENDBRANCH  20  21
ENDBRANCH  19  20
ENDBRANCH  18  19
ENDBRANCH   1  18
TORSDOF 28
ENDMDL
MODEL 4
REMARK VINA RESULT:    -5.329      3.002      5.193
REMARK INTER + INTRA:         -17.411
REMARK INTER:                 -14.766
REMARK INTRA:                  -2.645
REMARK UNBOUND:                -3.358
REMARK SMILES CCCCCCCCCCCCCCCCCCCCCCCCCCCCCC(=O)[O-]
REMARK SMILES IDX 16 1 17 2 18 3 19 4 20 5 21 6 22 7 23 8 24 9 25 10 26 11
REMARK SMILES IDX 27 12 28 13 29 14 30 15 31 16 32 17 15 18 14 19 13 20 12 21
REMARK SMILES IDX 11 22 10 23 9 24 8 25 7 26 6 27 5 28 4 29 3 30 2 31 1 32
REMARK H PARENT
REMARK Flexibility Score: inf
ROOT
ATOM      1  C   UNL     1      49.715  30.807  16.992  1.00  0.00     0.000 C 
ENDROOT
BRANCH   1   2
ATOM      2  C   UNL     1      49.633  29.648  15.991  1.00  0.00     0.000 C 
BRANCH   2   3
ATOM      3  C   UNL     1      50.038  28.320  16.652  1.00  0.00     0.000 C 
BRANCH   3   4
ATOM      4  C   UNL     1      48.847  27.592  17.301  1.00  0.00     0.000 C 
BRANCH   4   5
ATOM      5  C   UNL     1      48.914  26.058  17.226  1.00  0.00     0.000 C 
BRANCH   5   6
ATOM      6  C   UNL     1      48.934  25.401  18.618  1.00  0.00     0.000 C 
BRANCH   6   7
ATOM      7  C   UNL     1      48.456  26.352  19.729  1.00  0.00     0.000 C 
BRANCH   7   8
ATOM      8  C   UNL     1      48.300  25.645  21.086  1.00  0.00     0.000 C 
BRANCH   8   9
ATOM      9  C   UNL     1      48.479  26.634  22.248  1.00  0.00     0.000 C 
BRANCH   9  10
ATOM     10  C   UNL     1      49.957  26.863  22.606  1.00  0.00     0.000 C 
BRANCH  10  11
ATOM     11  C   UNL     1      50.778  25.563  22.594  1.00  0.00     0.000 C 
BRANCH  11  12
ATOM     12  C   UNL     1      51.963  25.612  21.615  1.00  0.00     0.000 C 
BRANCH  12  13
ATOM     13  C   UNL     1      52.095  26.958  20.871  1.00  0.00     0.006 C 
BRANCH  13  14
ATOM     14  C   UNL     1      52.334  26.769  19.369  1.00  0.00     0.053 C 
BRANCH  14  15
ATOM     15  C   UNL     1      53.406  27.693  18.882  1.00  0.00     0.041 C 
ATOM     16  O   UNL     1      53.118  28.868  18.531  1.00  0.00    -0.550 OA
ATOM     17  O   UNL     1      54.727  27.261  18.839  1.00  0.00    -0.550 OA
ENDBRANCH  14  15
ENDBRANCH  13  14
ENDBRANCH  12  13
ENDBRANCH  11  12
ENDBRANCH  10  11
ENDBRANCH   9  10
ENDBRANCH   8   9
ENDBRANCH   7   8
ENDBRANCH   6   7
ENDBRANCH   5   6
ENDBRANCH   4   5
ENDBRANCH   3   4
ENDBRANCH   2   3
ENDBRANCH   1   2
BRANCH   1  18
ATOM     18  C   UNL     1      48.357  31.502  17.150  1.00  0.00     0.000 C 
BRANCH  18  19
ATOM     19  C   UNL     1      48.538  33.009  17.381  1.00  0.00     0.000 C 
BRANCH  19  20
ATOM     20  C   UNL     1      47.934  33.879  16.263  1.00  0.00     0.000 C 
BRANCH  20  21
ATOM     21  C   UNL     1      48.113  33.336  14.832  1.00  0.00     0.000 C 
BRANCH  21  22
ATOM     22  C   UNL     1      48.844  34.313  13.895  1.00  0.00     0.000 C 
BRANCH  22  23
ATOM     23  C   UNL     1      48.531  34.058  12.410  1.00  0.00     0.000 C 
BRANCH  23  24
ATOM     24  C   UNL     1      47.061  34.331  12.024  1.00  0.00    -0.000 C 
BRANCH  24  25
ATOM     25  C   UNL     1      46.551  35.677  12.567  1.00  0.00    -0.000 C 
BRANCH  25  26
ATOM     26  C   UNL     1      45.103  35.591  13.086  1.00  0.00    -0.000 C 
BRANCH  26  27
ATOM     27  C   UNL     1      44.079  36.320  12.198  1.00  0.00    -0.000 C 
BRANCH  27  28
ATOM     28  C   UNL     1      42.648  36.258  12.756  1.00  0.00    -0.000 C 
BRANCH  28  29
ATOM     29  C   UNL     1      41.588  36.606  11.697  1.00  0.00    -0.000 C 
BRANCH  29  30
ATOM     30  C   UNL     1      41.273  35.411  10.775  1.00  0.00    -0.000 C 
BRANCH  30  31
ATOM     31  C   UNL     1      39.785  35.023  10.798  1.00  0.00    -0.003 C 
ATOM     32  C   UNL     1      39.368  34.331  12.095  1.00  0.00     0.004 C 
ENDBRANCH  30  31
ENDBRANCH  29  30
ENDBRANCH  28  29
ENDBRANCH  27  28
ENDBRANCH  26  27
ENDBRANCH  25  26
ENDBRANCH  24  25
ENDBRANCH  23  24
ENDBRANCH  22  23
ENDBRANCH  21  22
ENDBRANCH  20  21
ENDBRANCH  19  20
ENDBRANCH  18  19
ENDBRANCH   1  18
TORSDOF 28
ENDMDL
MODEL 5
REMARK VINA RESULT:    -5.313      4.277     10.925
REMARK INTER + INTRA:         -17.369
REMARK INTER:                 -14.968
REMARK INTRA:                  -2.400
REMARK UNBOUND:                -3.358
REMARK SMILES CCCCCCCCCCCCCCCCCCCCCCCCCCCCCC(=O)[O-]
REMARK SMILES IDX 16 1 17 2 18 3 19 4 20 5 21 6 22 7 23 8 24 9 25 10 26 11
REMARK SMILES IDX 27 12 28 13 29 14 30 15 31 16 32 17 15 18 14 19 13 20 12 21
REMARK SMILES IDX 11 22 10 23 9 24 8 25 7 26 6 27 5 28 4 29 3 30 2 31 1 32
REMARK H PARENT
REMARK Flexibility Score: inf
ROOT
ATOM      1  C   UNL     1      50.457  30.341  16.945  1.00  0.00     0.000 C 
ENDROOT
BRANCH   1   2
ATOM      2  C   UNL     1      49.187  31.197  17.024  1.00  0.00     0.000 C 
BRANCH   2   3
ATOM      3  C   UNL     1      49.466  32.536  17.726  1.00  0.00     0.000 C 
BRANCH   3   4
ATOM      4  C   UNL     1      48.473  33.639  17.317  1.00  0.00     0.000 C 
BRANCH   4   5
ATOM      5  C   UNL     1      47.833  33.446  15.932  1.00  0.00     0.000 C 
BRANCH   5   6
ATOM      6  C   UNL     1      48.753  33.912  14.790  1.00  0.00     0.000 C 
BRANCH   6   7
ATOM      7  C   UNL     1      48.633  33.030  13.535  1.00  0.00     0.000 C 
BRANCH   7   8
ATOM      8  C   UNL     1      48.777  33.833  12.231  1.00  0.00     0.000 C 
BRANCH   8   9
ATOM      9  C   UNL     1      47.402  34.194  11.649  1.00  0.00     0.000 C 
BRANCH   9  10
ATOM     10  C   UNL     1      46.646  35.219  12.511  1.00  0.00     0.000 C 
BRANCH  10  11
ATOM     11  C   UNL     1      45.129  35.197  12.263  1.00  0.00     0.000 C 
BRANCH  11  12
ATOM     12  C   UNL     1      44.414  36.444  12.810  1.00  0.00     0.000 C 
BRANCH  12  13
ATOM     13  C   UNL     1      43.184  36.866  11.978  1.00  0.00     0.006 C 
BRANCH  13  14
ATOM     14  C   UNL     1      41.865  36.546  12.691  1.00  0.00     0.053 C 
BRANCH  14  15
ATOM     15  C   UNL     1      41.001  35.670  11.840  1.00  0.00     0.041 C 
ATOM     16  O   UNL     1      40.010  35.077  12.343  1.00  0.00    -0.550 OA
ATOM     17  O   UNL     1      41.278  35.529  10.484  1.00  0.00    -0.550 OA
ENDBRANCH  14  15
ENDBRANCH  13  14
ENDBRANCH  12  13
ENDBRANCH  11  12
ENDBRANCH  10  11
ENDBRANCH   9  10
ENDBRANCH   8   9
ENDBRANCH   7   8
ENDBRANCH   6   7
ENDBRANCH   5   6
ENDBRANCH   4   5
ENDBRANCH   3   4
ENDBRANCH   2   3
ENDBRANCH   1   2
BRANCH   1  18
ATOM     18  C   UNL     1      50.208  29.047  16.161  1.00  0.00     0.000 C 
BRANCH  18  19
ATOM     19  C   UNL     1      48.760  28.569  16.343  1.00  0.00     0.000 C 
BRANCH  19  20
ATOM     20  C   UNL     1      48.287  27.609  15.235  1.00  0.00     0.000 C 
BRANCH  20  21
ATOM     21  C   UNL     1      47.991  26.166  15.690  1.00  0.00     0.000 C 
BRANCH  21  22
ATOM     22  C   UNL     1      49.257  25.317  15.889  1.00  0.00     0.000 C 
BRANCH  22  23
ATOM     23  C   UNL     1      49.618  25.130  17.374  1.00  0.00     0.000 C 
BRANCH  23  24
ATOM     24  C   UNL     1      48.435  25.354  18.340  1.00  0.00    -0.000 C 
BRANCH  24  25
ATOM     25  C   UNL     1      48.819  26.234  19.542  1.00  0.00    -0.000 C 
BRANCH  25  26
ATOM     26  C   UNL     1      48.113  25.796  20.841  1.00  0.00    -0.000 C 
BRANCH  26  27
ATOM     27  C   UNL     1      48.186  26.837  21.971  1.00  0.00    -0.000 C 
BRANCH  27  28
ATOM     28  C   UNL     1      49.602  26.998  22.548  1.00  0.00    -0.000 C 
BRANCH  28  29
ATOM     29  C   UNL     1      50.254  25.648  22.893  1.00  0.00    -0.000 C 
BRANCH  29  30
ATOM     30  C   UNL     1      51.542  25.400  22.084  1.00  0.00    -0.000 C 
BRANCH  30  31
ATOM     31  C   UNL     1      52.107  26.688  21.464  1.00  0.00    -0.003 C 
ATOM     32  C   UNL     1      52.915  26.435  20.192  1.00  0.00     0.004 C 
ENDBRANCH  30  31
ENDBRANCH  29  30
ENDBRANCH  28  29
ENDBRANCH  27  28
ENDBRANCH  26  27
ENDBRANCH  25  26
ENDBRANCH  24  25
ENDBRANCH  23  24
ENDBRANCH  22  23
ENDBRANCH  21  22
ENDBRANCH  20  21
ENDBRANCH  19  20
ENDBRANCH  18  19
ENDBRANCH   1  18
TORSDOF 28
ENDMDL
MODEL 6
REMARK VINA RESULT:    -5.279      2.250      4.028
REMARK INTER + INTRA:         -17.277
REMARK INTER:                 -14.205
REMARK INTRA:                  -3.072
REMARK UNBOUND:                -3.358
REMARK SMILES CCCCCCCCCCCCCCCCCCCCCCCCCCCCCC(=O)[O-]
REMARK SMILES IDX 16 1 17 2 18 3 19 4 20 5 21 6 22 7 23 8 24 9 25 10 26 11
REMARK SMILES IDX 27 12 28 13 29 14 30 15 31 16 32 17 15 18 14 19 13 20 12 21
REMARK SMILES IDX 11 22 10 23 9 24 8 25 7 26 6 27 5 28 4 29 3 30 2 31 1 32
REMARK H PARENT
REMARK Flexibility Score: inf
ROOT
ATOM      1  C   UNL     1      48.214  29.811  16.457  1.00  0.00     0.000 C 
ENDROOT
BRANCH   1   2
ATOM      2  C   UNL     1      48.227  28.291  16.254  1.00  0.00     0.000 C 
BRANCH   2   3
ATOM      3  C   UNL     1      48.719  27.570  17.520  1.00  0.00     0.000 C 
BRANCH   3   4
ATOM      4  C   UNL     1      48.636  26.038  17.401  1.00  0.00     0.000 C 
BRANCH   4   5
ATOM      5  C   UNL     1      48.865  25.278  18.718  1.00  0.00     0.000 C 
BRANCH   5   6
ATOM      6  C   UNL     1      48.546  26.137  19.955  1.00  0.00     0.000 C 
BRANCH   6   7
ATOM      7  C   UNL     1      49.221  25.610  21.233  1.00  0.00     0.000 C 
BRANCH   7   8
ATOM      8  C   UNL     1      49.148  26.611  22.397  1.00  0.00     0.000 C 
BRANCH   8   9
ATOM      9  C   UNL     1      50.536  27.182  22.724  1.00  0.00     0.000 C 
BRANCH   9  10
ATOM     10  C   UNL     1      51.672  26.399  22.044  1.00  0.00     0.000 C 
BRANCH  10  11
ATOM     11  C   UNL     1      52.445  27.247  21.020  1.00  0.00     0.000 C 
BRANCH  11  12
ATOM     12  C   UNL     1      52.715  26.498  19.704  1.00  0.00     0.000 C 
BRANCH  12  13
ATOM     13  C   UNL     1      52.088  27.177  18.468  1.00  0.00     0.006 C 
BRANCH  13  14
ATOM     14  C   UNL     1      52.751  28.521  18.145  1.00  0.00     0.053 C 
BRANCH  14  15
ATOM     15  C   UNL     1      54.227  28.354  17.959  1.00  0.00     0.041 C 
ATOM     16  O   UNL     1      54.670  27.675  16.995  1.00  0.00    -0.550 OA
ATOM     17  O   UNL     1      55.111  28.969  18.839  1.00  0.00    -0.550 OA
ENDBRANCH  14  15
ENDBRANCH  13  14
ENDBRANCH  12  13
ENDBRANCH  11  12
ENDBRANCH  10  11
ENDBRANCH   9  10
ENDBRANCH   8   9
ENDBRANCH   7   8
ENDBRANCH   6   7
ENDBRANCH   5   6
ENDBRANCH   4   5
ENDBRANCH   3   4
ENDBRANCH   2   3
ENDBRANCH   1   2
BRANCH   1  18
ATOM     18  C   UNL     1      49.637  30.362  16.612  1.00  0.00     0.000 C 
BRANCH  18  19
ATOM     19  C   UNL     1      49.626  31.694  17.376  1.00  0.00     0.000 C 
BRANCH  19  20
ATOM     20  C   UNL     1      48.213  32.166  17.768  1.00  0.00     0.000 C 
BRANCH  20  21
ATOM     21  C   UNL     1      47.752  33.486  17.120  1.00  0.00     0.000 C 
BRANCH  21  22
ATOM     22  C   UNL     1      48.707  33.998  16.029  1.00  0.00     0.000 C 
BRANCH  22  23
ATOM     23  C   UNL     1      48.243  33.624  14.610  1.00  0.00     0.000 C 
BRANCH  23  24
ATOM     24  C   UNL     1      48.832  34.523  13.502  1.00  0.00    -0.000 C 
BRANCH  24  25
ATOM     25  C   UNL     1      48.216  34.233  12.122  1.00  0.00    -0.000 C 
BRANCH  25  26
ATOM     26  C   UNL     1      46.679  34.341  12.129  1.00  0.00    -0.000 C 
BRANCH  26  27
ATOM     27  C   UNL     1      46.154  35.735  12.513  1.00  0.00    -0.000 C 
BRANCH  27  28
ATOM     28  C   UNL     1      44.949  35.681  13.466  1.00  0.00    -0.000 C 
BRANCH  28  29
ATOM     29  C   UNL     1      43.634  36.083  12.775  1.00  0.00    -0.000 C 
BRANCH  29  30
ATOM     30  C   UNL     1      43.814  37.298  11.844  1.00  0.00    -0.000 C 
BRANCH  30  31
ATOM     31  C   UNL     1      42.549  38.168  11.756  1.00  0.00    -0.003 C 
ATOM     32  C   UNL     1      41.372  37.592  12.541  1.00  0.00     0.004 C 
ENDBRANCH  30  31
ENDBRANCH  29  30
ENDBRANCH  28  29
ENDBRANCH  27  28
ENDBRANCH  26  27
ENDBRANCH  25  26
ENDBRANCH  24  25
ENDBRANCH  23  24
ENDBRANCH  22  23
ENDBRANCH  21  22
ENDBRANCH  20  21
ENDBRANCH  19  20
ENDBRANCH  18  19
ENDBRANCH   1  18
TORSDOF 28
ENDMDL
MODEL 7
REMARK VINA RESULT:    -5.241      5.305     11.942
REMARK INTER + INTRA:         -17.177
REMARK INTER:                 -14.890
REMARK INTRA:                  -2.287
REMARK UNBOUND:                -3.358
REMARK SMILES CCCCCCCCCCCCCCCCCCCCCCCCCCCCCC(=O)[O-]
REMARK SMILES IDX 16 1 17 2 18 3 19 4 20 5 21 6 22 7 23 8 24 9 25 10 26 11
REMARK SMILES IDX 27 12 28 13 29 14 30 15 31 16 32 17 15 18 14 19 13 20 12 21
REMARK SMILES IDX 11 22 10 23 9 24 8 25 7 26 6 27 5 28 4 29 3 30 2 31 1 32
REMARK H PARENT
REMARK Flexibility Score: inf
ROOT
ATOM      1  C   UNL     1      48.684  31.441  17.240  1.00  0.00     0.000 C 
ENDROOT
BRANCH   1   2
ATOM      2  C   UNL     1      49.345  32.817  17.388  1.00  0.00     0.000 C 
BRANCH   2   3
ATOM      3  C   UNL     1      48.515  33.905  16.687  1.00  0.00     0.000 C 
BRANCH   3   4
ATOM      4  C   UNL     1      47.740  33.369  15.470  1.00  0.00     0.000 C 
BRANCH   4   5
ATOM      5  C   UNL     1      48.557  33.298  14.169  1.00  0.00     0.000 C 
BRANCH   5   6
ATOM      6  C   UNL     1      48.474  34.599  13.351  1.00  0.00     0.000 C 
BRANCH   6   7
ATOM      7  C   UNL     1      47.231  34.652  12.446  1.00  0.00     0.000 C 
BRANCH   7   8
ATOM      8  C   UNL     1      46.320  35.851  12.761  1.00  0.00     0.000 C 
BRANCH   8   9
ATOM      9  C   UNL     1      44.841  35.437  12.758  1.00  0.00     0.000 C 
BRANCH   9  10
ATOM     10  C   UNL     1      43.900  36.613  12.443  1.00  0.00     0.000 C 
BRANCH  10  11
ATOM     11  C   UNL     1      42.737  36.210  11.521  1.00  0.00     0.000 C 
BRANCH  11  12
ATOM     12  C   UNL     1      41.364  36.320  12.205  1.00  0.00     0.000 C 
BRANCH  12  13
ATOM     13  C   UNL     1      41.320  37.370  13.336  1.00  0.00     0.006 C 
BRANCH  13  14
ATOM     14  C   UNL     1      40.200  38.396  13.131  1.00  0.00     0.053 C 
BRANCH  14  15
ATOM     15  C   UNL     1      40.766  39.749  12.833  1.00  0.00     0.041 C 
ATOM     16  O   UNL     1      40.480  40.730  13.569  1.00  0.00    -0.550 OA
ATOM     17  O   UNL     1      41.629  39.918  11.756  1.00  0.00    -0.550 OA
ENDBRANCH  14  15
ENDBRANCH  13  14
ENDBRANCH  12  13
ENDBRANCH  11  12
ENDBRANCH  10  11
ENDBRANCH   9  10
ENDBRANCH   8   9
ENDBRANCH   7   8
ENDBRANCH   6   7
ENDBRANCH   5   6
ENDBRANCH   4   5
ENDBRANCH   3   4
ENDBRANCH   2   3
ENDBRANCH   1   2
BRANCH   1  18
ATOM     18  C   UNL     1      49.631  30.440  16.565  1.00  0.00     0.000 C 
BRANCH  18  19
ATOM     19  C   UNL     1      48.943  29.755  15.375  1.00  0.00     0.000 C 
BRANCH  19  20
ATOM     20  C   UNL     1      48.272  28.418  15.741  1.00  0.00     0.000 C 
BRANCH  20  21
ATOM     21  C   UNL     1      49.090  27.497  16.668  1.00  0.00     0.000 C 
BRANCH  21  22
ATOM     22  C   UNL     1      48.536  26.066  16.751  1.00  0.00     0.000 C 
BRANCH  22  23
ATOM     23  C   UNL     1      49.527  25.082  17.397  1.00  0.00     0.000 C 
BRANCH  23  24
ATOM     24  C   UNL     1      49.643  25.226  18.930  1.00  0.00    -0.000 C 
BRANCH  24  25
ATOM     25  C   UNL     1      48.336  25.719  19.574  1.00  0.00    -0.000 C 
BRANCH  25  26
ATOM     26  C   UNL     1      48.305  25.484  21.097  1.00  0.00    -0.000 C 
BRANCH  26  27
ATOM     27  C   UNL     1      49.691  25.235  21.717  1.00  0.00    -0.000 C 
BRANCH  27  28
ATOM     28  C   UNL     1      50.245  26.461  22.461  1.00  0.00    -0.000 C 
BRANCH  28  29
ATOM     29  C   UNL     1      51.783  26.501  22.465  1.00  0.00    -0.000 C 
BRANCH  29  30
ATOM     30  C   UNL     1      52.345  27.365  21.318  1.00  0.00    -0.000 C 
BRANCH  30  31
ATOM     31  C   UNL     1      52.921  26.521  20.170  1.00  0.00    -0.003 C 
ATOM     32  C   UNL     1      53.021  27.292  18.854  1.00  0.00     0.004 C 
ENDBRANCH  30  31
ENDBRANCH  29  30
ENDBRANCH  28  29
ENDBRANCH  27  28
ENDBRANCH  26  27
ENDBRANCH  25  26
ENDBRANCH  24  25
ENDBRANCH  23  24
ENDBRANCH  22  23
ENDBRANCH  21  22
ENDBRANCH  20  21
ENDBRANCH  19  20
ENDBRANCH  18  19
ENDBRANCH   1  18
TORSDOF 28
ENDMDL
MODEL 8
REMARK VINA RESULT:    -5.218      2.324      8.265
REMARK INTER + INTRA:         -17.119
REMARK INTER:                 -13.358
REMARK INTRA:                  -3.761
REMARK UNBOUND:                -3.358
REMARK SMILES CCCCCCCCCCCCCCCCCCCCCCCCCCCCCC(=O)[O-]
REMARK SMILES IDX 16 1 17 2 18 3 19 4 20 5 21 6 22 7 23 8 24 9 25 10 26 11
REMARK SMILES IDX 27 12 28 13 29 14 30 15 31 16 32 17 15 18 14 19 13 20 12 21
REMARK SMILES IDX 11 22 10 23 9 24 8 25 7 26 6 27 5 28 4 29 3 30 2 31 1 32
REMARK H PARENT
REMARK Flexibility Score: inf
ROOT
ATOM      1  C   UNL     1      48.818  26.205  19.204  1.00  0.00     0.000 C 
ENDROOT
BRANCH   1   2
ATOM      2  C   UNL     1      49.085  25.235  18.047  1.00  0.00     0.000 C 
BRANCH   2   3
ATOM      3  C   UNL     1      48.215  25.579  16.827  1.00  0.00     0.000 C 
BRANCH   3   4
ATOM      4  C   UNL     1      49.048  25.980  15.597  1.00  0.00     0.000 C 
BRANCH   4   5
ATOM      5  C   UNL     1      48.923  27.457  15.189  1.00  0.00     0.000 C 
BRANCH   5   6
ATOM      6  C   UNL     1      49.521  28.409  16.239  1.00  0.00     0.000 C 
BRANCH   6   7
ATOM      7  C   UNL     1      48.445  29.184  17.019  1.00  0.00     0.000 C 
BRANCH   7   8
ATOM      8  C   UNL     1      48.312  30.644  16.555  1.00  0.00     0.000 C 
BRANCH   8   9
ATOM      9  C   UNL     1      47.796  31.541  17.690  1.00  0.00     0.000 C 
BRANCH   9  10
ATOM     10  C   UNL     1      48.149  33.023  17.478  1.00  0.00     0.000 C 
BRANCH  10  11
ATOM     11  C   UNL     1      48.740  33.297  16.085  1.00  0.00     0.000 C 
BRANCH  11  12
ATOM     12  C   UNL     1      47.704  33.853  15.094  1.00  0.00     0.000 C 
BRANCH  12  13
ATOM     13  C   UNL     1      48.309  34.268  13.736  1.00  0.00     0.006 C 
BRANCH  13  14
ATOM     14  C   UNL     1      48.794  33.062  12.924  1.00  0.00     0.053 C 
BRANCH  14  15
ATOM     15  C   UNL     1      49.025  33.441  11.495  1.00  0.00     0.041 C 
ATOM     16  O   UNL     1      48.047  33.638  10.727  1.00  0.00    -0.550 OA
ATOM     17  O   UNL     1      50.323  33.599  11.020  1.00  0.00    -0.550 OA
ENDBRANCH  14  15
ENDBRANCH  13  14
ENDBRANCH  12  13
ENDBRANCH  11  12
ENDBRANCH  10  11
ENDBRANCH   9  10
ENDBRANCH   8   9
ENDBRANCH   7   8
ENDBRANCH   6   7
ENDBRANCH   5   6
ENDBRANCH   4   5
ENDBRANCH   3   4
ENDBRANCH   2   3
ENDBRANCH   1   2
BRANCH   1  18
ATOM     18  C   UNL     1      47.860  25.591  20.233  1.00  0.00     0.000 C 
BRANCH  18  19
ATOM     19  C   UNL     1      48.141  26.144  21.638  1.00  0.00     0.000 C 
BRANCH  19  20
ATOM     20  C   UNL     1      49.374  27.065  21.700  1.00  0.00     0.000 C 
BRANCH  20  21
ATOM     21  C   UNL     1      50.463  26.649  22.708  1.00  0.00     0.000 C 
BRANCH  21  22
ATOM     22  C   UNL     1      50.796  25.149  22.661  1.00  0.00     0.000 C 
BRANCH  22  23
ATOM     23  C   UNL     1      52.310  24.875  22.692  1.00  0.00     0.000 C 
BRANCH  23  24
ATOM     24  C   UNL     1      53.137  25.827  21.800  1.00  0.00    -0.000 C 
BRANCH  24  25
ATOM     25  C   UNL     1      53.608  25.151  20.500  1.00  0.00    -0.000 C 
BRANCH  25  26
ATOM     26  C   UNL     1      52.659  25.426  19.317  1.00  0.00    -0.000 C 
BRANCH  26  27
ATOM     27  C   UNL     1      52.249  26.902  19.177  1.00  0.00    -0.000 C 
BRANCH  27  28
ATOM     28  C   UNL     1      52.522  27.470  17.774  1.00  0.00    -0.000 C 
BRANCH  28  29
ATOM     29  C   UNL     1      53.267  28.817  17.820  1.00  0.00    -0.000 C 
BRANCH  29  30
ATOM     30  C   UNL     1      54.467  28.785  18.786  1.00  0.00    -0.000 C 
BRANCH  30  31
ATOM     31  C   UNL     1      55.790  28.456  18.076  1.00  0.00    -0.003 C 
ATOM     32  C   UNL     1      56.145  26.971  18.132  1.00  0.00     0.004 C 
ENDBRANCH  30  31
ENDBRANCH  29  30
ENDBRANCH  28  29
ENDBRANCH  27  28
ENDBRANCH  26  27
ENDBRANCH  25  26
ENDBRANCH  24  25
ENDBRANCH  23  24
ENDBRANCH  22  23
ENDBRANCH  21  22
ENDBRANCH  20  21
ENDBRANCH  19  20
ENDBRANCH  18  19
ENDBRANCH   1  18
TORSDOF 28
ENDMDL
MODEL 9
REMARK VINA RESULT:    -5.145      5.263     12.282
REMARK INTER + INTRA:         -16.924
REMARK INTER:                 -14.765
REMARK INTRA:                  -2.159
REMARK UNBOUND:                -3.358
REMARK SMILES CCCCCCCCCCCCCCCCCCCCCCCCCCCCCC(=O)[O-]
REMARK SMILES IDX 16 1 17 2 18 3 19 4 20 5 21 6 22 7 23 8 24 9 25 10 26 11
REMARK SMILES IDX 27 12 28 13 29 14 30 15 31 16 32 17 15 18 14 19 13 20 12 21
REMARK SMILES IDX 11 22 10 23 9 24 8 25 7 26 6 27 5 28 4 29 3 30 2 31 1 32
REMARK H PARENT
REMARK Flexibility Score: inf
ROOT
ATOM      1  C   UNL     1      49.209  33.024  16.888  1.00  0.00     0.000 C 
ENDROOT
BRANCH   1   2
ATOM      2  C   UNL     1      47.855  33.741  16.813  1.00  0.00     0.000 C 
BRANCH   2   3
ATOM      3  C   UNL     1      47.372  33.856  15.358  1.00  0.00     0.000 C 
BRANCH   3   4
ATOM      4  C   UNL     1      48.477  33.530  14.338  1.00  0.00     0.000 C 
BRANCH   4   5
ATOM      5  C   UNL     1      48.212  34.050  12.915  1.00  0.00     0.000 C 
BRANCH   5   6
ATOM      6  C   UNL     1      47.288  35.281  12.902  1.00  0.00     0.000 C 
BRANCH   6   7
ATOM      7  C   UNL     1      45.861  34.947  12.436  1.00  0.00     0.000 C 
BRANCH   7   8
ATOM      8  C   UNL     1      44.793  35.801  13.140  1.00  0.00     0.000 C 
BRANCH   8   9
ATOM      9  C   UNL     1      43.536  35.944  12.268  1.00  0.00     0.000 C 
BRANCH   9  10
ATOM     10  C   UNL     1      43.366  37.365  11.705  1.00  0.00     0.000 C 
BRANCH  10  11
ATOM     11  C   UNL     1      42.186  37.477  10.726  1.00  0.00     0.000 C 
BRANCH  11  12
ATOM     12  C   UNL     1      41.321  36.205  10.683  1.00  0.00     0.000 C 
BRANCH  12  13
ATOM     13  C   UNL     1      39.868  36.430  11.153  1.00  0.00     0.006 C 
BRANCH  13  14
ATOM     14  C   UNL     1      39.622  35.873  12.560  1.00  0.00     0.053 C 
BRANCH  14  15
ATOM     15  C   UNL     1      39.682  36.966  13.582  1.00  0.00     0.041 C 
ATOM     16  O   UNL     1      40.781  37.275  14.113  1.00  0.00    -0.550 OA
ATOM     17  O   UNL     1      38.525  37.655  13.928  1.00  0.00    -0.550 OA
ENDBRANCH  14  15
ENDBRANCH  13  14
ENDBRANCH  12  13
ENDBRANCH  11  12
ENDBRANCH  10  11
ENDBRANCH   9  10
ENDBRANCH   8   9
ENDBRANCH   7   8
ENDBRANCH   6   7
ENDBRANCH   5   6
ENDBRANCH   4   5
ENDBRANCH   3   4
ENDBRANCH   2   3
ENDBRANCH   1   2
BRANCH   1  18
ATOM     18  C   UNL     1      49.046  31.582  17.384  1.00  0.00     0.000 C 
BRANCH  18  19
ATOM     19  C   UNL     1      50.278  30.739  17.024  1.00  0.00     0.000 C 
BRANCH  19  20
ATOM     20  C   UNL     1      49.972  29.591  16.044  1.00  0.00     0.000 C 
BRANCH  20  21
ATOM     21  C   UNL     1      51.025  28.468  15.987  1.00  0.00     0.000 C 
BRANCH  21  22
ATOM     22  C   UNL     1      50.560  27.233  15.199  1.00  0.00     0.000 C 
BRANCH  22  23
ATOM     23  C   UNL     1      49.029  27.163  15.053  1.00  0.00     0.000 C 
BRANCH  23  24
ATOM     24  C   UNL     1      48.429  25.783  15.397  1.00  0.00    -0.000 C 
BRANCH  24  25
ATOM     25  C   UNL     1      48.241  25.585  16.911  1.00  0.00    -0.000 C 
BRANCH  25  26
ATOM     26  C   UNL     1      49.442  24.877  17.566  1.00  0.00    -0.000 C 
BRANCH  26  27
ATOM     27  C   UNL     1      49.616  25.200  19.060  1.00  0.00    -0.000 C 
BRANCH  27  28
ATOM     28  C   UNL     1      48.364  25.835  19.687  1.00  0.00    -0.000 C 
BRANCH  28  29
ATOM     29  C   UNL     1      48.233  25.518  21.188  1.00  0.00    -0.000 C 
BRANCH  29  30
ATOM     30  C   UNL     1      49.598  25.521  21.904  1.00  0.00    -0.000 C 
BRANCH  30  31
ATOM     31  C   UNL     1      49.993  26.915  22.417  1.00  0.00    -0.003 C 
ATOM     32  C   UNL     1      51.505  27.101  22.540  1.00  0.00     0.004 C 
ENDBRANCH  30  31
ENDBRANCH  29  30
ENDBRANCH  28  29
ENDBRANCH  27  28
ENDBRANCH  26  27
ENDBRANCH  25  26
ENDBRANCH  24  25
ENDBRANCH  23  24
ENDBRANCH  22  23
ENDBRANCH  21  22
ENDBRANCH  20  21
ENDBRANCH  19  20
ENDBRANCH  18  19
ENDBRANCH   1  18
TORSDOF 28
ENDMDL
