MODEL 1
REMARK VINA RESULT:    -3.650      0.000      0.000
REMARK INTER + INTRA:          -7.401
REMARK INTER:                  -6.211
REMARK INTRA:                  -1.191
REMARK UNBOUND:                -1.191
REMARK SMILES CCCCCCCCCCCCCC(=O)[O-]
REMARK SMILES IDX 8 1 9 2 10 3 11 4 12 5 13 6 14 7 15 8 16 9 7 10 6 11 5 12
REMARK SMILES IDX 4 13 3 14 2 15 1 16
REMARK H PARENT
REMARK Flexibility Score: inf
ROOT
ATOM      1  C   UNL     1      63.177  45.318  17.259  1.00  0.00     0.000 C 
ENDROOT
BRANCH   1   2
ATOM      2  C   UNL     1      61.787  44.695  17.081  1.00  0.00     0.000 C 
BRANCH   2   3
ATOM      3  C   UNL     1      61.094  44.502  18.438  1.00  0.00     0.000 C 
BRANCH   3   4
ATOM      4  C   UNL     1      59.562  44.584  18.339  1.00  0.00     0.000 C 
BRANCH   4   5
ATOM      5  C   UNL     1      59.085  45.127  16.984  1.00  0.00     0.006 C 
BRANCH   5   6
ATOM      6  C   UNL     1      58.109  44.153  16.318  1.00  0.00     0.053 C 
BRANCH   6   7
ATOM      7  C   UNL     1      57.047  44.901  15.576  1.00  0.00     0.041 C 
ATOM      8  O   UNL     1      57.361  45.802  14.754  1.00  0.00    -0.550 OA
ATOM      9  O   UNL     1      55.709  44.569  15.754  1.00  0.00    -0.550 OA
ENDBRANCH   6   7
ENDBRANCH   5   6
ENDBRANCH   4   5
ENDBRANCH   3   4
ENDBRANCH   2   3
ENDBRANCH   1   2
BRANCH   1  10
ATOM     10  C   UNL     1      64.246  44.492  16.528  1.00  0.00     0.000 C 
BRANCH  10  11
ATOM     11  C   UNL     1      63.837  44.131  15.091  1.00  0.00    -0.000 C 
BRANCH  11  12
ATOM     12  C   UNL     1      63.824  42.617  14.842  1.00  0.00    -0.000 C 
BRANCH  12  13
ATOM     13  C   UNL     1      64.560  41.869  15.961  1.00  0.00    -0.000 C 
BRANCH  13  14
ATOM     14  C   UNL     1      63.787  40.611  16.383  1.00  0.00    -0.000 C 
BRANCH  14  15
ATOM     15  C   UNL     1      63.845  40.363  17.899  1.00  0.00    -0.003 C 
ATOM     16  C   UNL     1      63.528  41.616  18.715  1.00  0.00     0.004 C 
ENDBRANCH  14  15
ENDBRANCH  13  14
ENDBRANCH  12  13
ENDBRANCH  11  12
ENDBRANCH  10  11
ENDBRANCH   1  10
TORSDOF 12
ENDMDL
MODEL 2
REMARK VINA RESULT:    -3.377     10.154     12.283
REMARK INTER + INTRA:          -6.936
REMARK INTER:                  -5.481
REMARK INTRA:                  -1.455
REMARK UNBOUND:                -1.191
REMARK SMILES CCCCCCCCCCCCCC(=O)[O-]
REMARK SMILES IDX 8 1 9 2 10 3 11 4 12 5 13 6 14 7 15 8 16 9 7 10 6 11 5 12
REMARK SMILES IDX 4 13 3 14 2 15 1 16
REMARK H PARENT
REMARK Flexibility Score: inf
ROOT
ATOM      1  C   UNL     1      57.553  32.539  12.764  1.00  0.00     0.000 C 
ENDROOT
BRANCH   1   2
ATOM      2  C   UNL     1      58.296  33.580  11.917  1.00  0.00     0.000 C 
BRANCH   2   3
ATOM      3  C   UNL     1      59.811  33.327  11.939  1.00  0.00     0.000 C 
BRANCH   3   4
ATOM      4  C   UNL     1      60.600  34.503  12.536  1.00  0.00     0.000 C 
BRANCH   4   5
ATOM      5  C   UNL     1      61.124  34.208  13.950  1.00  0.00     0.006 C 
BRANCH   5   6
ATOM      6  C   UNL     1      62.244  33.165  13.911  1.00  0.00     0.053 C 
BRANCH   6   7
ATOM      7  C   UNL     1      63.581  33.826  14.035  1.00  0.00     0.041 C 
ATOM      8  O   UNL     1      64.157  33.888  15.153  1.00  0.00    -0.550 OA
ATOM      9  O   UNL     1      64.214  34.332  12.906  1.00  0.00    -0.550 OA
ENDBRANCH   6   7
ENDBRANCH   5   6
ENDBRANCH   4   5
ENDBRANCH   3   4
ENDBRANCH   2   3
ENDBRANCH   1   2
BRANCH   1  10
ATOM     10  C   UNL     1      56.698  33.218  13.843  1.00  0.00     0.000 C 
BRANCH  10  11
ATOM     11  C   UNL     1      57.518  34.146  14.753  1.00  0.00    -0.000 C 
BRANCH  11  12
ATOM     12  C   UNL     1      56.757  35.423  15.138  1.00  0.00    -0.000 C 
BRANCH  12  13
ATOM     13  C   UNL     1      55.323  35.393  14.593  1.00  0.00    -0.000 C 
BRANCH  13  14
ATOM     14  C   UNL     1      55.036  36.630  13.729  1.00  0.00    -0.000 C 
BRANCH  14  15
ATOM     15  C   UNL     1      55.056  36.316  12.224  1.00  0.00    -0.003 C 
ATOM     16  C   UNL     1      56.399  36.640  11.570  1.00  0.00     0.004 C 
ENDBRANCH  14  15
ENDBRANCH  13  14
ENDBRANCH  12  13
ENDBRANCH  11  12
ENDBRANCH  10  11
ENDBRANCH   1  10
TORSDOF 12
ENDMDL
MODEL 3
REMARK VINA RESULT:    -3.334      9.158     10.368
REMARK INTER + INTRA:          -6.863
REMARK INTER:                  -5.536
REMARK INTRA:                  -1.328
REMARK UNBOUND:                -1.191
REMARK SMILES CCCCCCCCCCCCCC(=O)[O-]
REMARK SMILES IDX 8 1 9 2 10 3 11 4 12 5 13 6 14 7 15 8 16 9 7 10 6 11 5 12
REMARK SMILES IDX 4 13 3 14 2 15 1 16
REMARK H PARENT
REMARK Flexibility Score: inf
ROOT
ATOM      1  C   UNL     1      59.156  32.871  12.409  1.00  0.00     0.000 C 
ENDROOT
BRANCH   1   2
ATOM      2  C   UNL     1      57.748  33.288  11.966  1.00  0.00     0.000 C 
BRANCH   2   3
ATOM      3  C   UNL     1      57.462  34.749  12.344  1.00  0.00     0.000 C 
BRANCH   3   4
ATOM      4  C   UNL     1      56.385  34.880  13.432  1.00  0.00     0.000 C 
BRANCH   4   5
ATOM      5  C   UNL     1      55.875  36.320  13.590  1.00  0.00     0.006 C 
BRANCH   5   6
ATOM      6  C   UNL     1      54.700  36.591  12.647  1.00  0.00     0.053 C 
BRANCH   6   7
ATOM      7  C   UNL     1      53.403  36.516  13.389  1.00  0.00     0.041 C 
ATOM      8  O   UNL     1      53.006  37.495  14.074  1.00  0.00    -0.550 OA
ATOM      9  O   UNL     1      52.608  35.381  13.285  1.00  0.00    -0.550 OA
ENDBRANCH   6   7
ENDBRANCH   5   6
ENDBRANCH   4   5
ENDBRANCH   3   4
ENDBRANCH   2   3
ENDBRANCH   1   2
BRANCH   1  10
ATOM     10  C   UNL     1      60.180  33.970  12.090  1.00  0.00     0.000 C 
BRANCH  10  11
ATOM     11  C   UNL     1      61.093  34.294  13.284  1.00  0.00    -0.000 C 
BRANCH  11  12
ATOM     12  C   UNL     1      60.732  33.490  14.541  1.00  0.00    -0.000 C 
BRANCH  12  13
ATOM     13  C   UNL     1      60.330  34.422  15.692  1.00  0.00    -0.000 C 
BRANCH  13  14
ATOM     14  C   UNL     1      58.827  34.311  15.990  1.00  0.00    -0.000 C 
BRANCH  14  15
ATOM     15  C   UNL     1      58.419  35.074  17.260  1.00  0.00    -0.003 C 
ATOM     16  C   UNL     1      57.115  35.852  17.090  1.00  0.00     0.004 C 
ENDBRANCH  14  15
ENDBRANCH  13  14
ENDBRANCH  12  13
ENDBRANCH  11  12
ENDBRANCH  10  11
ENDBRANCH   1  10
TORSDOF 12
ENDMDL
MODEL 4
REMARK VINA RESULT:    -3.333      2.071      3.985
REMARK INTER + INTRA:          -6.862
REMARK INTER:                  -5.995
REMARK INTRA:                  -0.868
REMARK UNBOUND:                -1.191
REMARK SMILES CCCCCCCCCCCCCC(=O)[O-]
REMARK SMILES IDX 8 1 9 2 10 3 11 4 12 5 13 6 14 7 15 8 16 9 7 10 6 11 5 12
REMARK SMILES IDX 4 13 3 14 2 15 1 16
REMARK H PARENT
REMARK Flexibility Score: inf
ROOT
ATOM      1  C   UNL     1      59.418  45.350  17.310  1.00  0.00     0.000 C 
ENDROOT
BRANCH   1   2
ATOM      2  C   UNL     1      58.452  44.439  16.544  1.00  0.00     0.000 C 
BRANCH   2   3
ATOM      3  C   UNL     1      57.611  45.245  15.543  1.00  0.00     0.000 C 
BRANCH   3   4
ATOM      4  C   UNL     1      57.496  46.730  15.925  1.00  0.00     0.000 C 
BRANCH   4   5
ATOM      5  C   UNL     1      57.295  47.641  14.705  1.00  0.00     0.006 C 
BRANCH   5   6
ATOM      6  C   UNL     1      56.454  46.942  13.633  1.00  0.00     0.053 C 
BRANCH   6   7
ATOM      7  C   UNL     1      55.019  47.356  13.741  1.00  0.00     0.041 C 
ATOM      8  O   UNL     1      54.235  46.731  14.502  1.00  0.00    -0.550 OA
ATOM      9  O   UNL     1      54.561  48.463  13.038  1.00  0.00    -0.550 OA
ENDBRANCH   6   7
ENDBRANCH   5   6
ENDBRANCH   4   5
ENDBRANCH   3   4
ENDBRANCH   2   3
ENDBRANCH   1   2
BRANCH   1  10
ATOM     10  C   UNL     1      60.847  44.790  17.275  1.00  0.00     0.000 C 
BRANCH  10  11
ATOM     11  C   UNL     1      61.886  45.781  17.823  1.00  0.00    -0.000 C 
BRANCH  11  12
ATOM     12  C   UNL     1      63.330  45.325  17.568  1.00  0.00    -0.000 C 
BRANCH  12  13
ATOM     13  C   UNL     1      63.882  45.943  16.277  1.00  0.00    -0.000 C 
BRANCH  13  14
ATOM     14  C   UNL     1      64.767  44.939  15.522  1.00  0.00    -0.000 C 
BRANCH  14  15
ATOM     15  C   UNL     1      64.308  43.485  15.716  1.00  0.00    -0.003 C 
ATOM     16  C   UNL     1      63.335  43.022  14.633  1.00  0.00     0.004 C 
ENDBRANCH  14  15
ENDBRANCH  13  14
ENDBRANCH  12  13
ENDBRANCH  11  12
ENDBRANCH  10  11
ENDBRANCH   1  10
TORSDOF 12
ENDMDL
MODEL 5
REMARK VINA RESULT:    -3.322     11.610     13.969
REMARK INTER + INTRA:          -6.843
REMARK INTER:                  -6.170
REMARK INTRA:                  -0.673
REMARK UNBOUND:                -1.191
REMARK SMILES CCCCCCCCCCCCCC(=O)[O-]
REMARK SMILES IDX 8 1 9 2 10 3 11 4 12 5 13 6 14 7 15 8 16 9 7 10 6 11 5 12
REMARK SMILES IDX 4 13 3 14 2 15 1 16
REMARK H PARENT
REMARK Flexibility Score: inf
ROOT
ATOM      1  C   UNL     1      48.165  45.135  15.234  1.00  0.00     0.000 C 
ENDROOT
BRANCH   1   2
ATOM      2  C   UNL     1      49.311  46.151  15.145  1.00  0.00     0.000 C 
BRANCH   2   3
ATOM      3  C   UNL     1      50.490  45.582  14.341  1.00  0.00     0.000 C 
BRANCH   3   4
ATOM      4  C   UNL     1      51.358  46.679  13.704  1.00  0.00     0.000 C 
BRANCH   4   5
ATOM      5  C   UNL     1      50.689  48.060  13.742  1.00  0.00     0.006 C 
BRANCH   5   6
ATOM      6  C   UNL     1      51.401  49.039  12.805  1.00  0.00     0.053 C 
BRANCH   6   7
ATOM      7  C   UNL     1      50.410  49.936  12.131  1.00  0.00     0.041 C 
ATOM      8  O   UNL     1      50.396  50.035  10.876  1.00  0.00    -0.550 OA
ATOM      9  O   UNL     1      49.469  50.624  12.887  1.00  0.00    -0.550 OA
ENDBRANCH   6   7
ENDBRANCH   5   6
ENDBRANCH   4   5
ENDBRANCH   3   4
ENDBRANCH   2   3
ENDBRANCH   1   2
BRANCH   1  10
ATOM     10  C   UNL     1      48.705  43.698  15.239  1.00  0.00     0.000 C 
BRANCH  10  11
ATOM     11  C   UNL     1      47.663  42.675  15.719  1.00  0.00    -0.000 C 
BRANCH  11  12
ATOM     12  C   UNL     1      46.602  42.367  14.653  1.00  0.00    -0.000 C 
BRANCH  12  13
ATOM     13  C   UNL     1      45.451  41.542  15.244  1.00  0.00    -0.000 C 
BRANCH  13  14
ATOM     14  C   UNL     1      45.802  40.046  15.268  1.00  0.00    -0.000 C 
BRANCH  14  15
ATOM     15  C   UNL     1      45.896  39.485  16.695  1.00  0.00    -0.003 C 
ATOM     16  C   UNL     1      47.336  39.212  17.130  1.00  0.00     0.004 C 
ENDBRANCH  14  15
ENDBRANCH  13  14
ENDBRANCH  12  13
ENDBRANCH  11  12
ENDBRANCH  10  11
ENDBRANCH   1  10
TORSDOF 12
ENDMDL
MODEL 6
REMARK VINA RESULT:    -3.311      9.655     11.429
REMARK INTER + INTRA:          -6.825
REMARK INTER:                  -5.425
REMARK INTRA:                  -1.400
REMARK UNBOUND:                -1.191
REMARK SMILES CCCCCCCCCCCCCC(=O)[O-]
REMARK SMILES IDX 8 1 9 2 10 3 11 4 12 5 13 6 14 7 15 8 16 9 7 10 6 11 5 12
REMARK SMILES IDX 4 13 3 14 2 15 1 16
REMARK H PARENT
REMARK Flexibility Score: inf
ROOT
ATOM      1  C   UNL     1      56.662  35.796  15.960  1.00  0.00     0.000 C 
ENDROOT
BRANCH   1   2
ATOM      2  C   UNL     1      57.490  35.482  17.212  1.00  0.00     0.000 C 
BRANCH   2   3
ATOM      3  C   UNL     1      58.814  34.799  16.839  1.00  0.00     0.000 C 
BRANCH   3   4
ATOM      4  C   UNL     1      58.621  33.612  15.882  1.00  0.00     0.000 C 
BRANCH   4   5
ATOM      5  C   UNL     1      59.295  33.834  14.520  1.00  0.00     0.006 C 
BRANCH   5   6
ATOM      6  C   UNL     1      60.778  34.175  14.693  1.00  0.00     0.053 C 
BRANCH   6   7
ATOM      7  C   UNL     1      61.454  34.267  13.361  1.00  0.00     0.041 C 
ATOM      8  O   UNL     1      60.780  34.499  12.323  1.00  0.00    -0.550 OA
ATOM      9  O   UNL     1      62.836  34.147  13.273  1.00  0.00    -0.550 OA
ENDBRANCH   6   7
ENDBRANCH   5   6
ENDBRANCH   4   5
ENDBRANCH   3   4
ENDBRANCH   2   3
ENDBRANCH   1   2
BRANCH   1  10
ATOM     10  C   UNL     1      55.242  35.225  16.083  1.00  0.00     0.000 C 
BRANCH  10  11
ATOM     11  C   UNL     1      54.200  36.056  15.318  1.00  0.00    -0.000 C 
BRANCH  11  12
ATOM     12  C   UNL     1      54.834  36.973  14.262  1.00  0.00    -0.000 C 
BRANCH  12  13
ATOM     13  C   UNL     1      54.671  36.385  12.854  1.00  0.00    -0.000 C 
BRANCH  13  14
ATOM     14  C   UNL     1      55.995  36.440  12.078  1.00  0.00    -0.000 C 
BRANCH  14  15
ATOM     15  C   UNL     1      56.863  35.192  12.305  1.00  0.00    -0.003 C 
ATOM     16  C   UNL     1      56.037  33.948  12.631  1.00  0.00     0.004 C 
ENDBRANCH  14  15
ENDBRANCH  13  14
ENDBRANCH  12  13
ENDBRANCH  11  12
ENDBRANCH  10  11
ENDBRANCH   1  10
TORSDOF 12
ENDMDL
MODEL 7
REMARK VINA RESULT:    -3.230      9.829     11.936
REMARK INTER + INTRA:          -6.686
REMARK INTER:                  -5.241
REMARK INTRA:                  -1.445
REMARK UNBOUND:                -1.191
REMARK SMILES CCCCCCCCCCCCCC(=O)[O-]
REMARK SMILES IDX 8 1 9 2 10 3 11 4 12 5 13 6 14 7 15 8 16 9 7 10 6 11 5 12
REMARK SMILES IDX 4 13 3 14 2 15 1 16
REMARK H PARENT
REMARK Flexibility Score: inf
ROOT
ATOM      1  C   UNL     1      56.173  33.928  12.628  1.00  0.00     0.000 C 
ENDROOT
BRANCH   1   2
ATOM      2  C   UNL     1      56.893  33.264  13.808  1.00  0.00     0.000 C 
BRANCH   2   3
ATOM      3  C   UNL     1      58.098  34.103  14.260  1.00  0.00     0.000 C 
BRANCH   3   4
ATOM      4  C   UNL     1      59.438  33.385  14.035  1.00  0.00     0.000 C 
BRANCH   4   5
ATOM      5  C   UNL     1      60.648  34.307  14.253  1.00  0.00     0.006 C 
BRANCH   5   6
ATOM      6  C   UNL     1      61.578  34.285  13.037  1.00  0.00     0.053 C 
BRANCH   6   7
ATOM      7  C   UNL     1      62.876  33.625  13.382  1.00  0.00     0.041 C 
ATOM      8  O   UNL     1      63.941  34.295  13.409  1.00  0.00    -0.550 OA
ATOM      9  O   UNL     1      62.902  32.277  13.721  1.00  0.00    -0.550 OA
ENDBRANCH   6   7
ENDBRANCH   5   6
ENDBRANCH   4   5
ENDBRANCH   3   4
ENDBRANCH   2   3
ENDBRANCH   1   2
BRANCH   1  10
ATOM     10  C   UNL     1      56.877  35.229  12.217  1.00  0.00     0.000 C 
BRANCH  10  11
ATOM     11  C   UNL     1      55.962  36.459  12.331  1.00  0.00    -0.000 C 
BRANCH  11  12
ATOM     12  C   UNL     1      54.539  36.099  12.781  1.00  0.00    -0.000 C 
BRANCH  12  13
ATOM     13  C   UNL     1      54.271  36.598  14.207  1.00  0.00    -0.000 C 
BRANCH  13  14
ATOM     14  C   UNL     1      55.550  37.167  14.841  1.00  0.00    -0.000 C 
BRANCH  14  15
ATOM     15  C   UNL     1      56.000  36.372  16.076  1.00  0.00    -0.003 C 
ATOM     16  C   UNL     1      55.030  35.248  16.442  1.00  0.00     0.004 C 
ENDBRANCH  14  15
ENDBRANCH  13  14
ENDBRANCH  12  13
ENDBRANCH  11  12
ENDBRANCH  10  11
ENDBRANCH   1  10
TORSDOF 12
ENDMDL
MODEL 8
REMARK VINA RESULT:    -3.211     11.136     13.228
REMARK INTER + INTRA:          -6.654
REMARK INTER:                  -5.383
REMARK INTRA:                  -1.272
REMARK UNBOUND:                -1.191
REMARK SMILES CCCCCCCCCCCCCC(=O)[O-]
REMARK SMILES IDX 8 1 9 2 10 3 11 4 12 5 13 6 14 7 15 8 16 9 7 10 6 11 5 12
REMARK SMILES IDX 4 13 3 14 2 15 1 16
REMARK H PARENT
REMARK Flexibility Score: inf
ROOT
ATOM      1  C   UNL     1      50.585  45.880  14.219  1.00  0.00     0.000 C 
ENDROOT
BRANCH   1   2
ATOM      2  C   UNL     1      49.955  47.251  14.495  1.00  0.00     0.000 C 
BRANCH   2   3
ATOM      3  C   UNL     1      50.664  48.353  13.694  1.00  0.00     0.000 C 
BRANCH   3   4
ATOM      4  C   UNL     1      49.745  49.545  13.383  1.00  0.00     0.000 C 
BRANCH   4   5
ATOM      5  C   UNL     1      50.177  50.313  12.125  1.00  0.00     0.006 C 
BRANCH   5   6
ATOM      6  C   UNL     1      51.365  49.626  11.445  1.00  0.00     0.053 C 
BRANCH   6   7
ATOM      7  C   UNL     1      51.418  49.985   9.993  1.00  0.00     0.041 C 
ATOM      8  O   UNL     1      52.468  50.472   9.499  1.00  0.00    -0.550 OA
ATOM      9  O   UNL     1      50.323  49.735   9.175  1.00  0.00    -0.550 OA
ENDBRANCH   6   7
ENDBRANCH   5   6
ENDBRANCH   4   5
ENDBRANCH   3   4
ENDBRANCH   2   3
ENDBRANCH   1   2
BRANCH   1  10
ATOM     10  C   UNL     1      51.225  45.304  15.490  1.00  0.00     0.000 C 
BRANCH  10  11
ATOM     11  C   UNL     1      50.748  46.012  16.768  1.00  0.00    -0.000 C 
BRANCH  11  12
ATOM     12  C   UNL     1      49.727  45.183  17.559  1.00  0.00    -0.000 C 
BRANCH  12  13
ATOM     13  C   UNL     1      48.330  45.813  17.483  1.00  0.00    -0.000 C 
BRANCH  13  14
ATOM     14  C   UNL     1      47.298  44.800  16.964  1.00  0.00    -0.000 C 
BRANCH  14  15
ATOM     15  C   UNL     1      47.275  44.713  15.430  1.00  0.00    -0.003 C 
ATOM     16  C   UNL     1      47.818  43.384  14.905  1.00  0.00     0.004 C 
ENDBRANCH  14  15
ENDBRANCH  13  14
ENDBRANCH  12  13
ENDBRANCH  11  12
ENDBRANCH  10  11
ENDBRANCH   1  10
TORSDOF 12
ENDMDL
MODEL 9
REMARK VINA RESULT:    -3.192     11.502     13.712
REMARK INTER + INTRA:          -6.622
REMARK INTER:                  -5.545
REMARK INTRA:                  -1.077
REMARK UNBOUND:                -1.191
REMARK SMILES CCCCCCCCCCCCCC(=O)[O-]
REMARK SMILES IDX 8 1 9 2 10 3 11 4 12 5 13 6 14 7 15 8 16 9 7 10 6 11 5 12
REMARK SMILES IDX 4 13 3 14 2 15 1 16
REMARK H PARENT
REMARK Flexibility Score: inf
ROOT
ATOM      1  C   UNL     1      50.527  45.519  14.205  1.00  0.00     0.000 C 
ENDROOT
BRANCH   1   2
ATOM      2  C   UNL     1      51.244  46.812  13.800  1.00  0.00     0.000 C 
BRANCH   2   3
ATOM      3  C   UNL     1      51.178  47.853  14.928  1.00  0.00     0.000 C 
BRANCH   3   4
ATOM      4  C   UNL     1      50.751  49.243  14.428  1.00  0.00     0.000 C 
BRANCH   4   5
ATOM      5  C   UNL     1      50.134  49.203  13.022  1.00  0.00     0.006 C 
BRANCH   5   6
ATOM      6  C   UNL     1      50.743  50.285  12.127  1.00  0.00     0.053 C 
BRANCH   6   7
ATOM      7  C   UNL     1      51.703  49.679  11.151  1.00  0.00     0.041 C 
ATOM      8  O   UNL     1      52.798  49.204  11.550  1.00  0.00    -0.550 OA
ATOM      9  O   UNL     1      51.365  49.594   9.805  1.00  0.00    -0.550 OA
ENDBRANCH   6   7
ENDBRANCH   5   6
ENDBRANCH   4   5
ENDBRANCH   3   4
ENDBRANCH   2   3
ENDBRANCH   1   2
BRANCH   1  10
ATOM     10  C   UNL     1      49.551  45.771  15.363  1.00  0.00     0.000 C 
BRANCH  10  11
ATOM     11  C   UNL     1      49.068  44.471  16.026  1.00  0.00    -0.000 C 
BRANCH  11  12
ATOM     12  C   UNL     1      48.232  43.598  15.078  1.00  0.00    -0.000 C 
BRANCH  12  13
ATOM     13  C   UNL     1      46.874  44.249  14.787  1.00  0.00    -0.000 C 
BRANCH  13  14
ATOM     14  C   UNL     1      45.820  43.806  15.812  1.00  0.00    -0.000 C 
BRANCH  14  15
ATOM     15  C   UNL     1      44.914  44.962  16.265  1.00  0.00    -0.003 C 
ATOM     16  C   UNL     1      45.700  46.222  16.628  1.00  0.00     0.004 C 
ENDBRANCH  14  15
ENDBRANCH  13  14
ENDBRANCH  12  13
ENDBRANCH  11  12
ENDBRANCH  10  11
ENDBRANCH   1  10
TORSDOF 12
ENDMDL
