MODEL 1
REMARK VINA RESULT:    -6.623      0.000      0.000
REMARK INTER + INTRA:          -6.816
REMARK INTER:                  -6.816
REMARK INTRA:                   0.000
REMARK UNBOUND:                 0.000
REMARK SMILES O=c1ccc2ccc(O)cc2o1
REMARK SMILES IDX 6 1 7 2 8 3 10 4 11 5 5 6 4 7 3 8 2 9 1 10 12 11 9 12
REMARK H PARENT 9 13
REMARK Flexibility Score: inf
ROOT
ATOM      1  C   UNL     1     -30.955  65.949  85.433  1.00  0.00     0.016 A 
ATOM      2  C   UNL     1     -31.983  66.692  86.022  1.00  0.00     0.047 A 
ATOM      3  C   UNL     1     -31.717  67.958  86.568  1.00  0.00     0.119 A 
ATOM      4  C   UNL     1     -30.419  68.479  86.524  1.00  0.00     0.094 A 
ATOM      5  C   UNL     1     -29.384  67.742  85.937  1.00  0.00     0.142 A 
ATOM      6  C   UNL     1     -29.654  66.469  85.388  1.00  0.00     0.018 A 
ATOM      7  C   UNL     1     -28.600  65.756  84.807  1.00  0.00     0.019 A 
ATOM      8  C   UNL     1     -27.323  66.318  84.788  1.00  0.00     0.094 A 
ATOM      9  C   UNL     1     -27.131  67.584  85.351  1.00  0.00     0.336 A 
ATOM     10  O   UNL     1     -25.986  68.108  85.342  1.00  0.00    -0.246 OA
ATOM     11  O   UNL     1     -28.151  68.241  85.897  1.00  0.00    -0.423 OA
ENDROOT
BRANCH   3  12
ATOM     12  O   UNL     1     -32.737  68.703  87.157  1.00  0.00    -0.508 OA
ATOM     13  H   UNL     1     -32.565  69.292  87.962  1.00  0.00     0.293 HD
ENDBRANCH   3  12
TORSDOF 1
ENDMDL
MODEL 2
REMARK VINA RESULT:    -6.539      1.248      4.158
REMARK INTER + INTRA:          -6.730
REMARK INTER:                  -6.730
REMARK INTRA:                   0.000
REMARK UNBOUND:                 0.000
REMARK SMILES O=c1ccc2ccc(O)cc2o1
REMARK SMILES IDX 6 1 7 2 8 3 10 4 11 5 5 6 4 7 3 8 2 9 1 10 12 11 9 12
REMARK H PARENT 9 13
REMARK Flexibility Score: inf
ROOT
ATOM      1  C   UNL     1     -27.604  66.605  84.601  1.00  0.00     0.016 A 
ATOM      2  C   UNL     1     -26.622  67.457  85.116  1.00  0.00     0.047 A 
ATOM      3  C   UNL     1     -26.948  68.394  86.110  1.00  0.00     0.119 A 
ATOM      4  C   UNL     1     -28.261  68.476  86.588  1.00  0.00     0.094 A 
ATOM      5  C   UNL     1     -29.250  67.627  86.079  1.00  0.00     0.142 A 
ATOM      6  C   UNL     1     -28.919  66.685  85.079  1.00  0.00     0.018 A 
ATOM      7  C   UNL     1     -29.928  65.849  84.589  1.00  0.00     0.019 A 
ATOM      8  C   UNL     1     -31.222  65.970  85.097  1.00  0.00     0.094 A 
ATOM      9  C   UNL     1     -31.476  66.925  86.087  1.00  0.00     0.336 A 
ATOM     10  O   UNL     1     -32.637  67.048  86.559  1.00  0.00    -0.246 OA
ATOM     11  O   UNL     1     -30.498  67.707  86.536  1.00  0.00    -0.423 OA
ENDROOT
BRANCH   3  12
ATOM     12  O   UNL     1     -25.975  69.246  86.626  1.00  0.00    -0.508 OA
ATOM     13  H   UNL     1     -25.471  69.022  87.476  1.00  0.00     0.293 HD
ENDBRANCH   3  12
TORSDOF 1
ENDMDL
MODEL 3
REMARK VINA RESULT:    -6.506      2.364      3.059
REMARK INTER + INTRA:          -6.696
REMARK INTER:                  -6.696
REMARK INTRA:                   0.000
REMARK UNBOUND:                 0.000
REMARK SMILES O=c1ccc2ccc(O)cc2o1
REMARK SMILES IDX 6 1 7 2 8 3 10 4 11 5 5 6 4 7 3 8 2 9 1 10 12 11 9 12
REMARK H PARENT 9 13
REMARK Flexibility Score: inf
ROOT
ATOM      1  C   UNL     1     -28.888  68.157  85.665  1.00  0.00     0.016 A 
ATOM      2  C   UNL     1     -29.867  68.410  86.630  1.00  0.00     0.047 A 
ATOM      3  C   UNL     1     -31.037  67.635  86.672  1.00  0.00     0.119 A 
ATOM      4  C   UNL     1     -31.224  66.604  85.745  1.00  0.00     0.094 A 
ATOM      5  C   UNL     1     -30.249  66.342  84.776  1.00  0.00     0.142 A 
ATOM      6  C   UNL     1     -29.073  67.125  84.735  1.00  0.00     0.018 A 
ATOM      7  C   UNL     1     -28.116  66.840  83.756  1.00  0.00     0.019 A 
ATOM      8  C   UNL     1     -28.349  65.802  82.853  1.00  0.00     0.094 A 
ATOM      9  C   UNL     1     -29.537  65.070  82.953  1.00  0.00     0.336 A 
ATOM     10  O   UNL     1     -29.764  64.129  82.149  1.00  0.00    -0.246 OA
ATOM     11  O   UNL     1     -30.430  65.361  83.895  1.00  0.00    -0.423 OA
ENDROOT
BRANCH   3  12
ATOM     12  O   UNL     1     -32.017  67.882  87.631  1.00  0.00    -0.508 OA
ATOM     13  H   UNL     1     -32.012  68.729  88.187  1.00  0.00     0.293 HD
ENDBRANCH   3  12
TORSDOF 1
ENDMDL
MODEL 4
REMARK VINA RESULT:    -6.472      3.285      5.064
REMARK INTER + INTRA:          -6.661
REMARK INTER:                  -6.661
REMARK INTRA:                   0.000
REMARK UNBOUND:                 0.000
REMARK SMILES O=c1ccc2ccc(O)cc2o1
REMARK SMILES IDX 6 1 7 2 8 3 10 4 11 5 5 6 4 7 3 8 2 9 1 10 12 11 9 12
REMARK H PARENT 9 13
REMARK Flexibility Score: inf
ROOT
ATOM      1  C   UNL     1     -28.472  67.119  83.416  1.00  0.00     0.016 A 
ATOM      2  C   UNL     1     -28.222  66.748  82.091  1.00  0.00     0.047 A 
ATOM      3  C   UNL     1     -28.488  65.439  81.660  1.00  0.00     0.119 A 
ATOM      4  C   UNL     1     -29.007  64.500  82.559  1.00  0.00     0.094 A 
ATOM      5  C   UNL     1     -29.261  64.862  83.886  1.00  0.00     0.142 A 
ATOM      6  C   UNL     1     -28.991  66.180  84.318  1.00  0.00     0.018 A 
ATOM      7  C   UNL     1     -29.255  66.513  85.651  1.00  0.00     0.019 A 
ATOM      8  C   UNL     1     -29.771  65.541  86.509  1.00  0.00     0.094 A 
ATOM      9  C   UNL     1     -30.013  64.256  86.011  1.00  0.00     0.336 A 
ATOM     10  O   UNL     1     -30.480  63.367  86.770  1.00  0.00    -0.246 OA
ATOM     11  O   UNL     1     -29.754  63.966  84.739  1.00  0.00    -0.423 OA
ENDROOT
BRANCH   3  12
ATOM     12  O   UNL     1     -28.241  65.064  80.341  1.00  0.00    -0.508 OA
ATOM     13  H   UNL     1     -27.933  65.735  79.648  1.00  0.00     0.293 HD
ENDBRANCH   3  12
TORSDOF 1
ENDMDL
MODEL 5
REMARK VINA RESULT:    -6.470      2.282      4.289
REMARK INTER + INTRA:          -6.659
REMARK INTER:                  -6.659
REMARK INTRA:                   0.000
REMARK UNBOUND:                 0.000
REMARK SMILES O=c1ccc2ccc(O)cc2o1
REMARK SMILES IDX 6 1 7 2 8 3 10 4 11 5 5 6 4 7 3 8 2 9 1 10 12 11 9 12
REMARK H PARENT 9 13
REMARK Flexibility Score: inf
ROOT
ATOM      1  C   UNL     1     -29.779  64.309  84.283  1.00  0.00     0.016 A 
ATOM      2  C   UNL     1     -29.010  64.143  83.127  1.00  0.00     0.047 A 
ATOM      3  C   UNL     1     -28.451  65.258  82.482  1.00  0.00     0.119 A 
ATOM      4  C   UNL     1     -28.665  66.541  82.998  1.00  0.00     0.094 A 
ATOM      5  C   UNL     1     -29.433  66.717  84.155  1.00  0.00     0.142 A 
ATOM      6  C   UNL     1     -29.994  65.593  84.801  1.00  0.00     0.018 A 
ATOM      7  C   UNL     1     -30.756  65.799  85.955  1.00  0.00     0.019 A 
ATOM      8  C   UNL     1     -30.941  67.098  86.430  1.00  0.00     0.094 A 
ATOM      9  C   UNL     1     -30.355  68.163  85.738  1.00  0.00     0.336 A 
ATOM     10  O   UNL     1     -30.509  69.342  86.151  1.00  0.00    -0.246 OA
ATOM     11  O   UNL     1     -29.634  67.939  84.643  1.00  0.00    -0.423 OA
ENDROOT
BRANCH   3  12
ATOM     12  O   UNL     1     -27.684  65.100  81.330  1.00  0.00    -0.508 OA
ATOM     13  H   UNL     1     -27.505  64.184  80.935  1.00  0.00     0.293 HD
ENDBRANCH   3  12
TORSDOF 1
ENDMDL
MODEL 6
REMARK VINA RESULT:    -6.433      2.348      3.397
REMARK INTER + INTRA:          -6.621
REMARK INTER:                  -6.621
REMARK INTRA:                   0.000
REMARK UNBOUND:                 0.000
REMARK SMILES O=c1ccc2ccc(O)cc2o1
REMARK SMILES IDX 6 1 7 2 8 3 10 4 11 5 5 6 4 7 3 8 2 9 1 10 12 11 9 12
REMARK H PARENT 9 13
REMARK Flexibility Score: inf
ROOT
ATOM      1  C   UNL     1     -28.591  65.015  83.728  1.00  0.00     0.016 A 
ATOM      2  C   UNL     1     -29.389  63.892  83.969  1.00  0.00     0.047 A 
ATOM      3  C   UNL     1     -30.042  63.739  85.202  1.00  0.00     0.119 A 
ATOM      4  C   UNL     1     -29.895  64.714  86.195  1.00  0.00     0.094 A 
ATOM      5  C   UNL     1     -29.100  65.842  85.963  1.00  0.00     0.142 A 
ATOM      6  C   UNL     1     -28.443  65.993  84.721  1.00  0.00     0.018 A 
ATOM      7  C   UNL     1     -27.655  67.130  84.517  1.00  0.00     0.019 A 
ATOM      8  C   UNL     1     -27.539  68.074  85.538  1.00  0.00     0.094 A 
ATOM      9  C   UNL     1     -28.219  67.858  86.742  1.00  0.00     0.336 A 
ATOM     10  O   UNL     1     -28.128  68.699  87.674  1.00  0.00    -0.246 OA
ATOM     11  O   UNL     1     -28.963  66.768  86.909  1.00  0.00    -0.423 OA
ENDROOT
BRANCH   3  12
ATOM     12  O   UNL     1     -30.838  62.623  85.448  1.00  0.00    -0.508 OA
ATOM     13  H   UNL     1     -30.432  61.722  85.671  1.00  0.00     0.293 HD
ENDBRANCH   3  12
TORSDOF 1
ENDMDL
MODEL 7
REMARK VINA RESULT:    -6.353      2.255      3.948
REMARK INTER + INTRA:          -6.538
REMARK INTER:                  -6.538
REMARK INTRA:                   0.000
REMARK UNBOUND:                 0.000
REMARK SMILES O=c1ccc2ccc(O)cc2o1
REMARK SMILES IDX 6 1 7 2 8 3 10 4 11 5 5 6 4 7 3 8 2 9 1 10 12 11 9 12
REMARK H PARENT 9 13
REMARK Flexibility Score: inf
ROOT
ATOM      1  C   UNL     1     -29.658  67.543  86.495  1.00  0.00     0.016 A 
ATOM      2  C   UNL     1     -28.653  68.514  86.442  1.00  0.00     0.047 A 
ATOM      3  C   UNL     1     -27.430  68.231  85.814  1.00  0.00     0.119 A 
ATOM      4  C   UNL     1     -27.214  66.974  85.240  1.00  0.00     0.094 A 
ATOM      5  C   UNL     1     -28.214  65.996  85.288  1.00  0.00     0.142 A 
ATOM      6  C   UNL     1     -29.445  66.283  85.921  1.00  0.00     0.018 A 
ATOM      7  C   UNL     1     -30.426  65.287  85.953  1.00  0.00     0.019 A 
ATOM      8  C   UNL     1     -30.163  64.048  85.367  1.00  0.00     0.094 A 
ATOM      9  C   UNL     1     -28.922  63.836  84.758  1.00  0.00     0.336 A 
ATOM     10  O   UNL     1     -28.667  62.726  84.223  1.00  0.00    -0.246 OA
ATOM     11  O   UNL     1     -28.006  64.801  84.740  1.00  0.00    -0.423 OA
ENDROOT
BRANCH   3  12
ATOM     12  O   UNL     1     -26.424  69.194  85.757  1.00  0.00    -0.508 OA
ATOM     13  H   UNL     1     -25.821  69.282  84.948  1.00  0.00     0.293 HD
ENDBRANCH   3  12
TORSDOF 1
ENDMDL
MODEL 8
REMARK VINA RESULT:    -6.140      2.226      3.888
REMARK INTER + INTRA:          -6.319
REMARK INTER:                  -6.319
REMARK INTRA:                   0.000
REMARK UNBOUND:                 0.000
REMARK SMILES O=c1ccc2ccc(O)cc2o1
REMARK SMILES IDX 6 1 7 2 8 3 10 4 11 5 5 6 4 7 3 8 2 9 1 10 12 11 9 12
REMARK H PARENT 9 13
REMARK Flexibility Score: inf
ROOT
ATOM      1  C   UNL     1     -28.101  65.246  85.756  1.00  0.00     0.016 A 
ATOM      2  C   UNL     1     -28.539  64.289  84.835  1.00  0.00     0.047 A 
ATOM      3  C   UNL     1     -29.674  64.535  84.045  1.00  0.00     0.119 A 
ATOM      4  C   UNL     1     -30.369  65.742  84.179  1.00  0.00     0.094 A 
ATOM      5  C   UNL     1     -29.937  66.706  85.098  1.00  0.00     0.142 A 
ATOM      6  C   UNL     1     -28.795  66.456  85.892  1.00  0.00     0.018 A 
ATOM      7  C   UNL     1     -28.387  67.437  86.800  1.00  0.00     0.019 A 
ATOM      8  C   UNL     1     -29.113  68.624  86.898  1.00  0.00     0.094 A 
ATOM      9  C   UNL     1     -30.234  68.803  86.079  1.00  0.00     0.336 A 
ATOM     10  O   UNL     1     -30.901  69.868  86.151  1.00  0.00    -0.246 OA
ATOM     11  O   UNL     1     -30.600  67.853  85.222  1.00  0.00    -0.423 OA
ENDROOT
BRANCH   3  12
ATOM     12  O   UNL     1     -30.117  63.586  83.127  1.00  0.00    -0.508 OA
ATOM     13  H   UNL     1     -30.306  62.630  83.403  1.00  0.00     0.293 HD
ENDBRANCH   3  12
TORSDOF 1
ENDMDL
MODEL 9
REMARK VINA RESULT:    -6.032      2.192      3.247
REMARK INTER + INTRA:          -6.208
REMARK INTER:                  -6.208
REMARK INTRA:                   0.000
REMARK UNBOUND:                 0.000
REMARK SMILES O=c1ccc2ccc(O)cc2o1
REMARK SMILES IDX 6 1 7 2 8 3 10 4 11 5 5 6 4 7 3 8 2 9 1 10 12 11 9 12
REMARK H PARENT 9 13
REMARK Flexibility Score: inf
ROOT
ATOM      1  C   UNL     1     -30.391  67.311  85.988  1.00  0.00     0.016 A 
ATOM      2  C   UNL     1     -29.625  68.059  86.888  1.00  0.00     0.047 A 
ATOM      3  C   UNL     1     -28.256  68.262  86.653  1.00  0.00     0.119 A 
ATOM      4  C   UNL     1     -27.655  67.713  85.515  1.00  0.00     0.094 A 
ATOM      5  C   UNL     1     -28.413  66.963  84.609  1.00  0.00     0.142 A 
ATOM      6  C   UNL     1     -29.791  66.760  84.848  1.00  0.00     0.018 A 
ATOM      7  C   UNL     1     -30.524  66.007  83.925  1.00  0.00     0.019 A 
ATOM      8  C   UNL     1     -29.879  65.480  82.806  1.00  0.00     0.094 A 
ATOM      9  C   UNL     1     -28.511  65.722  82.635  1.00  0.00     0.336 A 
ATOM     10  O   UNL     1     -27.912  65.257  81.631  1.00  0.00    -0.246 OA
ATOM     11  O   UNL     1     -27.838  66.443  83.527  1.00  0.00    -0.423 OA
ENDROOT
BRANCH   3  12
ATOM     12  O   UNL     1     -27.487  69.006  87.545  1.00  0.00    -0.508 OA
ATOM     13  H   UNL     1     -27.625  70.004  87.659  1.00  0.00     0.293 HD
ENDBRANCH   3  12
TORSDOF 1
ENDMDL
