MODEL 1
REMARK VINA RESULT:    -6.814      0.000      0.000
REMARK INTER + INTRA:          -8.453
REMARK INTER:                  -8.208
REMARK INTRA:                  -0.244
REMARK UNBOUND:                -0.244
REMARK SMILES O=c1c(O)c(-c2ccc(O)c(O)c2)oc2cc(O)cc(O)c12
REMARK SMILES IDX 5 1 3 2 2 3 1 4 22 5 20 6 19 7 17 8 16 9 15 10 14 11 6 12
REMARK SMILES IDX 7 13 8 14 9 15 13 16 11 17 10 18 12 20 4 22 21 24 18 26
REMARK H PARENT 10 19 12 21 4 23 21 25 18 27
REMARK Flexibility Score: inf
ROOT
ATOM      1  C   UNL     1      16.513  67.233  95.049  1.00  0.00     0.180 A 
ATOM      2  C   UNL     1      15.722  68.255  95.611  1.00  0.00     0.208 A 
ATOM      3  C   UNL     1      14.404  68.419  95.156  1.00  0.00     0.238 A 
ATOM      4  O   UNL     1      13.684  69.324  95.660  1.00  0.00    -0.285 OA
ATOM      5  C   UNL     1      13.907  67.579  94.140  1.00  0.00     0.111 A 
ATOM      6  C   UNL     1      12.592  67.682  93.624  1.00  0.00     0.134 A 
ATOM      7  C   UNL     1      12.175  66.812  92.606  1.00  0.00     0.093 A 
ATOM      8  C   UNL     1      13.043  65.847  92.093  1.00  0.00     0.123 A 
ATOM      9  C   UNL     1      14.343  65.739  92.599  1.00  0.00     0.094 A 
ATOM     10  C   UNL     1      14.778  66.595  93.615  1.00  0.00     0.146 A 
ATOM     11  O   UNL     1      16.014  66.469  94.081  1.00  0.00    -0.452 OA
ENDROOT
BRANCH   1  12
ATOM     12  C   UNL     1      17.904  66.984  95.488  1.00  0.00     0.025 A 
ATOM     13  C   UNL     1      18.964  67.241  94.603  1.00  0.00     0.016 A 
ATOM     14  C   UNL     1      20.284  66.995  94.988  1.00  0.00     0.051 A 
ATOM     15  C   UNL     1      20.565  66.474  96.255  1.00  0.00     0.157 A 
ATOM     16  C   UNL     1      18.188  66.441  96.753  1.00  0.00     0.062 A 
ATOM     17  C   UNL     1      19.512  66.190  97.141  1.00  0.00     0.158 A 
BRANCH  15  18
ATOM     18  O   UNL     1      21.892  66.239  96.613  1.00  0.00    -0.504 OA
ATOM     19  H   UNL     1      22.242  66.437  97.542  1.00  0.00     0.293 HD
ENDBRANCH  15  18
BRANCH  17  20
ATOM     20  O   UNL     1      19.785  65.657  98.400  1.00  0.00    -0.504 OA
ATOM     21  H   UNL     1      19.870  64.659  98.547  1.00  0.00     0.293 HD
ENDBRANCH  17  20
ENDBRANCH   1  12
BRANCH   2  22
ATOM     22  O   UNL     1      16.255  69.107  96.581  1.00  0.00    -0.502 OA
ATOM     23  H   UNL     1      17.224  69.060  96.871  1.00  0.00     0.293 HD
ENDBRANCH   2  22
BRANCH   6  24
ATOM     24  O   UNL     1      11.701  68.637  94.115  1.00  0.00    -0.507 OA
ATOM     25  H   UNL     1      11.529  68.744  95.108  1.00  0.00     0.293 HD
ENDBRANCH   6  24
BRANCH   8  26
ATOM     26  O   UNL     1      12.604  64.996  91.080  1.00  0.00    -0.508 OA
ATOM     27  H   UNL     1      13.255  64.457  90.522  1.00  0.00     0.293 HD
ENDBRANCH   8  26
TORSDOF 6
ENDMDL
MODEL 2
REMARK VINA RESULT:    -6.575      1.812      2.271
REMARK INTER + INTRA:          -8.165
REMARK INTER:                  -8.009
REMARK INTRA:                  -0.156
REMARK UNBOUND:                -0.244
REMARK SMILES O=c1c(O)c(-c2ccc(O)c(O)c2)oc2cc(O)cc(O)c12
REMARK SMILES IDX 5 1 3 2 2 3 1 4 22 5 20 6 19 7 17 8 16 9 15 10 14 11 6 12
REMARK SMILES IDX 7 13 8 14 9 15 13 16 11 17 10 18 12 20 4 22 21 24 18 26
REMARK H PARENT 10 19 12 21 4 23 21 25 18 27
REMARK Flexibility Score: inf
ROOT
ATOM      1  C   UNL     1      17.078  66.932  95.816  1.00  0.00     0.180 A 
ATOM      2  C   UNL     1      16.573  68.191  95.435  1.00  0.00     0.208 A 
ATOM      3  C   UNL     1      15.215  68.303  95.097  1.00  0.00     0.238 A 
ATOM      4  O   UNL     1      14.750  69.427  94.766  1.00  0.00    -0.285 OA
ATOM      5  C   UNL     1      14.393  67.159  95.125  1.00  0.00     0.111 A 
ATOM      6  C   UNL     1      13.016  67.185  94.795  1.00  0.00     0.134 A 
ATOM      7  C   UNL     1      12.267  66.000  94.839  1.00  0.00     0.093 A 
ATOM      8  C   UNL     1      12.865  64.793  95.204  1.00  0.00     0.123 A 
ATOM      9  C   UNL     1      14.225  64.759  95.532  1.00  0.00     0.094 A 
ATOM     10  C   UNL     1      14.988  65.930  95.496  1.00  0.00     0.146 A 
ATOM     11  O   UNL     1      16.275  65.871  95.817  1.00  0.00    -0.452 OA
ENDROOT
BRANCH   1  12
ATOM     12  C   UNL     1      18.493  66.737  96.205  1.00  0.00     0.025 A 
ATOM     13  C   UNL     1      18.804  66.395  97.530  1.00  0.00     0.016 A 
ATOM     14  C   UNL     1      20.134  66.226  97.924  1.00  0.00     0.051 A 
ATOM     15  C   UNL     1      21.172  66.411  97.007  1.00  0.00     0.157 A 
ATOM     16  C   UNL     1      19.540  66.943  95.288  1.00  0.00     0.062 A 
ATOM     17  C   UNL     1      20.875  66.776  95.682  1.00  0.00     0.158 A 
BRANCH  15  18
ATOM     18  O   UNL     1      22.489  66.233  97.428  1.00  0.00    -0.504 OA
ATOM     19  H   UNL     1      23.210  66.922  97.246  1.00  0.00     0.293 HD
ENDBRANCH  15  18
BRANCH  17  20
ATOM     20  O   UNL     1      21.906  66.976  94.766  1.00  0.00    -0.504 OA
ATOM     21  H   UNL     1      22.872  67.052  95.061  1.00  0.00     0.293 HD
ENDBRANCH  17  20
ENDBRANCH   1  12
BRANCH   2  22
ATOM     22  O   UNL     1      17.420  69.300  95.367  1.00  0.00    -0.502 OA
ATOM     23  H   UNL     1      18.242  69.320  94.777  1.00  0.00     0.293 HD
ENDBRANCH   2  22
BRANCH   6  24
ATOM     24  O   UNL     1      12.389  68.376  94.427  1.00  0.00    -0.507 OA
ATOM     25  H   UNL     1      12.450  69.210  95.000  1.00  0.00     0.293 HD
ENDBRANCH   6  24
BRANCH   8  26
ATOM     26  O   UNL     1      12.099  63.629  95.238  1.00  0.00    -0.508 OA
ATOM     27  H   UNL     1      12.523  62.719  95.371  1.00  0.00     0.293 HD
ENDBRANCH   8  26
TORSDOF 6
ENDMDL
MODEL 3
REMARK VINA RESULT:    -6.572      1.707      3.380
REMARK INTER + INTRA:          -8.161
REMARK INTER:                  -8.104
REMARK INTRA:                  -0.057
REMARK UNBOUND:                -0.244
REMARK SMILES O=c1c(O)c(-c2ccc(O)c(O)c2)oc2cc(O)cc(O)c12
REMARK SMILES IDX 5 1 3 2 2 3 1 4 22 5 20 6 19 7 17 8 16 9 15 10 14 11 6 12
REMARK SMILES IDX 7 13 8 14 9 15 13 16 11 17 10 18 12 20 4 22 21 24 18 26
REMARK H PARENT 10 19 12 21 4 23 21 25 18 27
REMARK Flexibility Score: inf
ROOT
ATOM      1  C   UNL     1      16.944  66.678  95.588  1.00  0.00     0.180 A 
ATOM      2  C   UNL     1      16.486  66.021  94.428  1.00  0.00     0.208 A 
ATOM      3  C   UNL     1      15.127  66.114  94.088  1.00  0.00     0.238 A 
ATOM      4  O   UNL     1      14.709  65.539  93.046  1.00  0.00    -0.285 OA
ATOM      5  C   UNL     1      14.249  66.839  94.918  1.00  0.00     0.111 A 
ATOM      6  C   UNL     1      12.865  66.977  94.648  1.00  0.00     0.134 A 
ATOM      7  C   UNL     1      12.055  67.708  95.529  1.00  0.00     0.093 A 
ATOM      8  C   UNL     1      12.597  68.301  96.670  1.00  0.00     0.123 A 
ATOM      9  C   UNL     1      13.963  68.170  96.943  1.00  0.00     0.094 A 
ATOM     10  C   UNL     1      14.788  67.446  96.076  1.00  0.00     0.146 A 
ATOM     11  O   UNL     1      16.082  67.341  96.354  1.00  0.00    -0.452 OA
ENDROOT
BRANCH   1  12
ATOM     12  C   UNL     1      18.364  66.644  96.002  1.00  0.00     0.025 A 
ATOM     13  C   UNL     1      18.690  66.294  97.322  1.00  0.00     0.016 A 
ATOM     14  C   UNL     1      20.022  66.275  97.741  1.00  0.00     0.051 A 
ATOM     15  C   UNL     1      21.047  66.619  96.855  1.00  0.00     0.157 A 
ATOM     16  C   UNL     1      19.395  67.010  95.118  1.00  0.00     0.062 A 
ATOM     17  C   UNL     1      20.733  66.994  95.538  1.00  0.00     0.158 A 
BRANCH  15  18
ATOM     18  O   UNL     1      22.368  66.589  97.301  1.00  0.00    -0.504 OA
ATOM     19  H   UNL     1      22.747  67.304  97.909  1.00  0.00     0.293 HD
ENDBRANCH  15  18
BRANCH  17  20
ATOM     20  O   UNL     1      21.749  67.352  94.653  1.00  0.00    -0.504 OA
ATOM     21  H   UNL     1      22.085  66.712  93.943  1.00  0.00     0.293 HD
ENDBRANCH  17  20
ENDBRANCH   1  12
BRANCH   2  22
ATOM     22  O   UNL     1      17.368  65.268  93.649  1.00  0.00    -0.502 OA
ATOM     23  H   UNL     1      17.417  65.360  92.642  1.00  0.00     0.293 HD
ENDBRANCH   2  22
BRANCH   6  24
ATOM     24  O   UNL     1      12.293  66.395  93.516  1.00  0.00    -0.507 OA
ATOM     25  H   UNL     1      12.745  65.634  93.023  1.00  0.00     0.293 HD
ENDBRANCH   6  24
BRANCH   8  26
ATOM     26  O   UNL     1      11.769  69.021  97.530  1.00  0.00    -0.508 OA
ATOM     27  H   UNL     1      10.777  69.120  97.350  1.00  0.00     0.293 HD
ENDBRANCH   8  26
TORSDOF 6
ENDMDL
MODEL 4
REMARK VINA RESULT:    -6.311      1.604      3.134
REMARK INTER + INTRA:          -7.846
REMARK INTER:                  -7.881
REMARK INTRA:                   0.035
REMARK UNBOUND:                -0.244
REMARK SMILES O=c1c(O)c(-c2ccc(O)c(O)c2)oc2cc(O)cc(O)c12
REMARK SMILES IDX 5 1 3 2 2 3 1 4 22 5 20 6 19 7 17 8 16 9 15 10 14 11 6 12
REMARK SMILES IDX 7 13 8 14 9 15 13 16 11 17 10 18 12 20 4 22 21 24 18 26
REMARK H PARENT 10 19 12 21 4 23 21 25 18 27
REMARK Flexibility Score: inf
ROOT
ATOM      1  C   UNL     1      16.688  66.769  95.374  1.00  0.00     0.180 A 
ATOM      2  C   UNL     1      16.128  65.973  94.355  1.00  0.00     0.208 A 
ATOM      3  C   UNL     1      14.735  65.971  94.185  1.00  0.00     0.238 A 
ATOM      4  O   UNL     1      14.223  65.271  93.270  1.00  0.00    -0.285 OA
ATOM      5  C   UNL     1      13.927  66.743  95.044  1.00  0.00     0.111 A 
ATOM      6  C   UNL     1      12.515  66.793  94.942  1.00  0.00     0.134 A 
ATOM      7  C   UNL     1      11.780  67.580  95.841  1.00  0.00     0.093 A 
ATOM      8  C   UNL     1      12.426  68.315  96.837  1.00  0.00     0.123 A 
ATOM      9  C   UNL     1      13.820  68.271  96.944  1.00  0.00     0.094 A 
ATOM     10  C   UNL     1      14.571  67.493  96.056  1.00  0.00     0.146 A 
ATOM     11  O   UNL     1      15.893  67.473  96.175  1.00  0.00    -0.452 OA
ENDROOT
BRANCH   1  12
ATOM     12  C   UNL     1      18.149  66.839  95.604  1.00  0.00     0.025 A 
ATOM     13  C   UNL     1      19.008  67.065  94.518  1.00  0.00     0.016 A 
ATOM     14  C   UNL     1      20.392  67.115  94.708  1.00  0.00     0.051 A 
ATOM     15  C   UNL     1      20.938  66.924  95.980  1.00  0.00     0.157 A 
ATOM     16  C   UNL     1      18.701  66.626  96.880  1.00  0.00     0.062 A 
ATOM     17  C   UNL     1      20.090  66.673  97.072  1.00  0.00     0.158 A 
BRANCH  15  18
ATOM     18  O   UNL     1      22.322  66.980  96.140  1.00  0.00    -0.504 OA
ATOM     19  H   UNL     1      22.753  67.186  97.033  1.00  0.00     0.293 HD
ENDBRANCH  15  18
BRANCH  17  20
ATOM     20  O   UNL     1      20.628  66.467  98.342  1.00  0.00    -0.504 OA
ATOM     21  H   UNL     1      21.243  67.145  98.774  1.00  0.00     0.293 HD
ENDBRANCH  17  20
ENDBRANCH   1  12
BRANCH   2  22
ATOM     22  O   UNL     1      16.947  65.178  93.550  1.00  0.00    -0.502 OA
ATOM     23  H   UNL     1      16.778  65.054  92.559  1.00  0.00     0.293 HD
ENDBRANCH   2  22
BRANCH   6  24
ATOM     24  O   UNL     1      11.840  66.070  93.957  1.00  0.00    -0.507 OA
ATOM     25  H   UNL     1      12.333  65.467  93.309  1.00  0.00     0.293 HD
ENDBRANCH   6  24
BRANCH   8  26
ATOM     26  O   UNL     1      11.672  69.088  97.719  1.00  0.00    -0.508 OA
ATOM     27  H   UNL     1      10.729  69.379  97.494  1.00  0.00     0.293 HD
ENDBRANCH   8  26
TORSDOF 6
ENDMDL
MODEL 5
REMARK VINA RESULT:    -5.218      1.761      2.387
REMARK INTER + INTRA:          -6.530
REMARK INTER:                  -6.495
REMARK INTRA:                  -0.035
REMARK UNBOUND:                -0.244
REMARK SMILES O=c1c(O)c(-c2ccc(O)c(O)c2)oc2cc(O)cc(O)c12
REMARK SMILES IDX 5 1 3 2 2 3 1 4 22 5 20 6 19 7 17 8 16 9 15 10 14 11 6 12
REMARK SMILES IDX 7 13 8 14 9 15 13 16 11 17 10 18 12 20 4 22 21 24 18 26
REMARK H PARENT 10 19 12 21 4 23 21 25 18 27
REMARK Flexibility Score: inf
ROOT
ATOM      1  C   UNL     1      15.683  66.813  94.765  1.00  0.00     0.180 A 
ATOM      2  C   UNL     1      14.755  65.863  95.235  1.00  0.00     0.208 A 
ATOM      3  C   UNL     1      13.425  65.939  94.792  1.00  0.00     0.238 A 
ATOM      4  O   UNL     1      12.588  65.087  95.197  1.00  0.00    -0.285 OA
ATOM      5  C   UNL     1      13.041  66.967  93.908  1.00  0.00     0.111 A 
ATOM      6  C   UNL     1      11.721  67.116  93.418  1.00  0.00     0.134 A 
ATOM      7  C   UNL     1      11.417  68.173  92.548  1.00  0.00     0.093 A 
ATOM      8  C   UNL     1      12.403  69.082  92.159  1.00  0.00     0.123 A 
ATOM      9  C   UNL     1      13.709  68.941  92.639  1.00  0.00     0.094 A 
ATOM     10  C   UNL     1      14.033  67.893  93.507  1.00  0.00     0.146 A 
ATOM     11  O   UNL     1      15.282  67.779  93.943  1.00  0.00    -0.452 OA
ENDROOT
BRANCH   1  12
ATOM     12  C   UNL     1      17.107  66.789  95.170  1.00  0.00     0.025 A 
ATOM     13  C   UNL     1      18.104  66.720  94.185  1.00  0.00     0.016 A 
ATOM     14  C   UNL     1      19.453  66.675  94.545  1.00  0.00     0.051 A 
ATOM     15  C   UNL     1      19.826  66.683  95.893  1.00  0.00     0.157 A 
ATOM     16  C   UNL     1      17.483  66.775  96.525  1.00  0.00     0.062 A 
ATOM     17  C   UNL     1      18.836  66.728  96.889  1.00  0.00     0.158 A 
BRANCH  15  18
ATOM     18  O   UNL     1      21.180  66.639  96.222  1.00  0.00    -0.504 OA
ATOM     19  H   UNL     1      21.889  66.362  95.554  1.00  0.00     0.293 HD
ENDBRANCH  15  18
BRANCH  17  20
ATOM     20  O   UNL     1      19.200  66.721  98.235  1.00  0.00    -0.504 OA
ATOM     21  H   UNL     1      19.497  67.565  98.709  1.00  0.00     0.293 HD
ENDBRANCH  17  20
ENDBRANCH   1  12
BRANCH   2  22
ATOM     22  O   UNL     1      15.149  64.883  96.150  1.00  0.00    -0.502 OA
ATOM     23  H   UNL     1      15.411  63.948  95.863  1.00  0.00     0.293 HD
ENDBRANCH   2  22
BRANCH   6  24
ATOM     24  O   UNL     1      10.714  66.224  93.788  1.00  0.00    -0.507 OA
ATOM     25  H   UNL     1       9.927  66.027  93.179  1.00  0.00     0.293 HD
ENDBRANCH   6  24
BRANCH   8  26
ATOM     26  O   UNL     1      12.074  70.125  91.294  1.00  0.00    -0.508 OA
ATOM     27  H   UNL     1      11.707  71.003  91.640  1.00  0.00     0.293 HD
ENDBRANCH   8  26
TORSDOF 6
ENDMDL
MODEL 6
REMARK VINA RESULT:    -5.010      2.335      7.499
REMARK INTER + INTRA:          -6.280
REMARK INTER:                  -5.998
REMARK INTRA:                  -0.282
REMARK UNBOUND:                -0.244
REMARK SMILES O=c1c(O)c(-c2ccc(O)c(O)c2)oc2cc(O)cc(O)c12
REMARK SMILES IDX 5 1 3 2 2 3 1 4 22 5 20 6 19 7 17 8 16 9 15 10 14 11 6 12
REMARK SMILES IDX 7 13 8 14 9 15 13 16 11 17 10 18 12 20 4 22 21 24 18 26
REMARK H PARENT 10 19 12 21 4 23 21 25 18 27
REMARK Flexibility Score: inf
ROOT
ATOM      1  C   UNL     1      17.715  66.580  95.903  1.00  0.00     0.180 A 
ATOM      2  C   UNL     1      18.544  66.571  94.764  1.00  0.00     0.208 A 
ATOM      3  C   UNL     1      19.932  66.693  94.935  1.00  0.00     0.238 A 
ATOM      4  O   UNL     1      20.684  66.675  93.923  1.00  0.00    -0.285 OA
ATOM      5  C   UNL     1      20.464  66.842  96.231  1.00  0.00     0.111 A 
ATOM      6  C   UNL     1      21.851  66.975  96.489  1.00  0.00     0.134 A 
ATOM      7  C   UNL     1      22.301  67.127  97.808  1.00  0.00     0.093 A 
ATOM      8  C   UNL     1      21.397  67.152  98.871  1.00  0.00     0.123 A 
ATOM      9  C   UNL     1      20.026  67.021  98.625  1.00  0.00     0.094 A 
ATOM     10  C   UNL     1      19.557  66.866  97.316  1.00  0.00     0.146 A 
ATOM     11  O   UNL     1      18.252  66.738  97.110  1.00  0.00    -0.452 OA
ENDROOT
BRANCH   1  12
ATOM     12  C   UNL     1      16.245  66.438  95.807  1.00  0.00     0.025 A 
ATOM     13  C   UNL     1      15.426  67.554  96.040  1.00  0.00     0.016 A 
ATOM     14  C   UNL     1      14.035  67.438  95.975  1.00  0.00     0.051 A 
ATOM     15  C   UNL     1      13.441  66.205  95.692  1.00  0.00     0.157 A 
ATOM     16  C   UNL     1      15.645  65.194  95.542  1.00  0.00     0.062 A 
ATOM     17  C   UNL     1      14.248  65.075  95.479  1.00  0.00     0.158 A 
BRANCH  15  18
ATOM     18  O   UNL     1      12.050  66.120  95.631  1.00  0.00    -0.504 OA
ATOM     19  H   UNL     1      11.484  65.964  96.456  1.00  0.00     0.293 HD
ENDBRANCH  15  18
BRANCH  17  20
ATOM     20  O   UNL     1      13.662  63.839  95.210  1.00  0.00    -0.504 OA
ATOM     21  H   UNL     1      13.026  63.711  94.433  1.00  0.00     0.293 HD
ENDBRANCH  17  20
ENDBRANCH   1  12
BRANCH   2  22
ATOM     22  O   UNL     1      17.987  66.473  93.486  1.00  0.00    -0.502 OA
ATOM     23  H   UNL     1      18.280  65.769  92.820  1.00  0.00     0.293 HD
ENDBRANCH   2  22
BRANCH   6  24
ATOM     24  O   UNL     1      22.779  66.955  95.447  1.00  0.00    -0.507 OA
ATOM     25  H   UNL     1      23.422  67.723  95.293  1.00  0.00     0.293 HD
ENDBRANCH   6  24
BRANCH   8  26
ATOM     26  O   UNL     1      21.871  67.307 100.173  1.00  0.00    -0.508 OA
ATOM     27  H   UNL     1      22.764  66.924 100.460  1.00  0.00     0.293 HD
ENDBRANCH   8  26
TORSDOF 6
ENDMDL
MODEL 7
REMARK VINA RESULT:    -4.763      2.110      2.688
REMARK INTER + INTRA:          -5.982
REMARK INTER:                  -6.156
REMARK INTRA:                   0.174
REMARK UNBOUND:                -0.244
REMARK SMILES O=c1c(O)c(-c2ccc(O)c(O)c2)oc2cc(O)cc(O)c12
REMARK SMILES IDX 5 1 3 2 2 3 1 4 22 5 20 6 19 7 17 8 16 9 15 10 14 11 6 12
REMARK SMILES IDX 7 13 8 14 9 15 13 16 11 17 10 18 12 20 4 22 21 24 18 26
REMARK H PARENT 10 19 12 21 4 23 21 25 18 27
REMARK Flexibility Score: inf
ROOT
ATOM      1  C   UNL     1      14.625  67.692  94.828  1.00  0.00     0.180 A 
ATOM      2  C   UNL     1      13.686  67.887  95.861  1.00  0.00     0.208 A 
ATOM      3  C   UNL     1      12.432  68.431  95.544  1.00  0.00     0.238 A 
ATOM      4  O   UNL     1      11.580  68.599  96.458  1.00  0.00    -0.285 OA
ATOM      5  C   UNL     1      12.143  68.788  94.211  1.00  0.00     0.111 A 
ATOM      6  C   UNL     1      10.905  69.346  93.809  1.00  0.00     0.134 A 
ATOM      7  C   UNL     1      10.699  69.683  92.464  1.00  0.00     0.093 A 
ATOM      8  C   UNL     1      11.702  69.477  91.515  1.00  0.00     0.123 A 
ATOM      9  C   UNL     1      12.928  68.927  91.905  1.00  0.00     0.094 A 
ATOM     10  C   UNL     1      13.153  68.582  93.242  1.00  0.00     0.146 A 
ATOM     11  O   UNL     1      14.322  68.056  93.585  1.00  0.00    -0.452 OA
ENDROOT
BRANCH   1  12
ATOM     12  C   UNL     1      15.961  67.107  95.079  1.00  0.00     0.025 A 
ATOM     13  C   UNL     1      16.493  66.184  94.165  1.00  0.00     0.016 A 
ATOM     14  C   UNL     1      17.743  65.603  94.392  1.00  0.00     0.051 A 
ATOM     15  C   UNL     1      18.473  65.923  95.540  1.00  0.00     0.157 A 
ATOM     16  C   UNL     1      16.687  67.412  96.244  1.00  0.00     0.062 A 
ATOM     17  C   UNL     1      17.941  66.828  96.475  1.00  0.00     0.158 A 
BRANCH  15  18
ATOM     18  O   UNL     1      19.719  65.330  95.740  1.00  0.00    -0.504 OA
ATOM     19  H   UNL     1      20.489  65.465  95.097  1.00  0.00     0.293 HD
ENDBRANCH  15  18
BRANCH  17  20
ATOM     20  O   UNL     1      18.657  67.141  97.629  1.00  0.00    -0.504 OA
ATOM     21  H   UNL     1      19.661  67.276  97.612  1.00  0.00     0.293 HD
ENDBRANCH  17  20
ENDBRANCH   1  12
BRANCH   2  22
ATOM     22  O   UNL     1      14.015  67.570  97.182  1.00  0.00    -0.502 OA
ATOM     23  H   UNL     1      14.961  67.349  97.467  1.00  0.00     0.293 HD
ENDBRANCH   2  22
BRANCH   6  24
ATOM     24  O   UNL     1       9.883  69.564  94.733  1.00  0.00    -0.507 OA
ATOM     25  H   UNL     1       9.550  70.497  94.949  1.00  0.00     0.293 HD
ENDBRANCH   6  24
BRANCH   8  26
ATOM     26  O   UNL     1      11.472  69.823  90.185  1.00  0.00    -0.508 OA
ATOM     27  H   UNL     1      11.079  69.162  89.526  1.00  0.00     0.293 HD
ENDBRANCH   8  26
TORSDOF 6
ENDMDL
MODEL 8
REMARK VINA RESULT:    -3.897      4.608      7.334
REMARK INTER + INTRA:          -4.939
REMARK INTER:                  -5.039
REMARK INTRA:                   0.099
REMARK UNBOUND:                -0.244
REMARK SMILES O=c1c(O)c(-c2ccc(O)c(O)c2)oc2cc(O)cc(O)c12
REMARK SMILES IDX 5 1 3 2 2 3 1 4 22 5 20 6 19 7 17 8 16 9 15 10 14 11 6 12
REMARK SMILES IDX 7 13 8 14 9 15 13 16 11 17 10 18 12 20 4 22 21 24 18 26
REMARK H PARENT 10 19 12 21 4 23 21 25 18 27
REMARK Flexibility Score: inf
ROOT
ATOM      1  C   UNL     1      12.364  69.087  92.915  1.00  0.00     0.180 A 
ATOM      2  C   UNL     1      11.206  68.379  93.293  1.00  0.00     0.208 A 
ATOM      3  C   UNL     1      10.956  68.169  94.659  1.00  0.00     0.238 A 
ATOM      4  O   UNL     1       9.917  67.547  95.010  1.00  0.00    -0.285 OA
ATOM      5  C   UNL     1      11.872  68.648  95.617  1.00  0.00     0.111 A 
ATOM      6  C   UNL     1      11.696  68.474  97.012  1.00  0.00     0.134 A 
ATOM      7  C   UNL     1      12.659  68.973  97.901  1.00  0.00     0.093 A 
ATOM      8  C   UNL     1      13.791  69.639  97.427  1.00  0.00     0.123 A 
ATOM      9  C   UNL     1      13.971  69.814  96.051  1.00  0.00     0.094 A 
ATOM     10  C   UNL     1      13.022  69.326  95.147  1.00  0.00     0.146 A 
ATOM     11  O   UNL     1      13.214  69.510  93.847  1.00  0.00    -0.452 OA
ENDROOT
BRANCH   1  12
ATOM     12  C   UNL     1      12.687  69.365  91.498  1.00  0.00     0.025 A 
ATOM     13  C   UNL     1      11.674  69.807  90.632  1.00  0.00     0.016 A 
ATOM     14  C   UNL     1      11.951  70.056  89.286  1.00  0.00     0.051 A 
ATOM     15  C   UNL     1      13.239  69.854  88.780  1.00  0.00     0.157 A 
ATOM     16  C   UNL     1      13.977  69.142  90.982  1.00  0.00     0.062 A 
ATOM     17  C   UNL     1      14.257  69.390  89.630  1.00  0.00     0.158 A 
BRANCH  15  18
ATOM     18  O   UNL     1      13.487  70.112  87.432  1.00  0.00    -0.504 OA
ATOM     19  H   UNL     1      14.322  69.781  86.965  1.00  0.00     0.293 HD
ENDBRANCH  15  18
BRANCH  17  20
ATOM     20  O   UNL     1      15.539  69.172  89.129  1.00  0.00    -0.504 OA
ATOM     21  H   UNL     1      15.764  68.347  88.586  1.00  0.00     0.293 HD
ENDBRANCH  17  20
ENDBRANCH   1  12
BRANCH   2  22
ATOM     22  O   UNL     1      10.339  67.872  92.322  1.00  0.00    -0.502 OA
ATOM     23  H   UNL     1      10.670  67.504  91.439  1.00  0.00     0.293 HD
ENDBRANCH   2  22
BRANCH   6  24
ATOM     24  O   UNL     1      10.576  67.813  97.517  1.00  0.00    -0.507 OA
ATOM     25  H   UNL     1      10.648  66.900  97.952  1.00  0.00     0.293 HD
ENDBRANCH   6  24
BRANCH   8  26
ATOM     26  O   UNL     1      14.733  70.123  98.333  1.00  0.00    -0.508 OA
ATOM     27  H   UNL     1      15.228  70.991  98.168  1.00  0.00     0.293 HD
ENDBRANCH   8  26
TORSDOF 6
ENDMDL
