MODEL 1
REMARK VINA RESULT:    -4.065      0.000      0.000
REMARK INTER + INTRA:          -9.513
REMARK INTER:                  -8.818
REMARK INTRA:                  -0.695
REMARK UNBOUND:                -0.695
REMARK SMILES CCCCCCCCCCCCCCCCCCCCCC(=O)[O-]
REMARK SMILES IDX 12 1 11 2 10 3 9 4 8 5 7 6 6 7 5 8 4 9 3 10 2 11 1 12 13 13
REMARK SMILES IDX 14 14 15 15 16 16 17 17 18 18 19 19 20 20 21 21 22 22 23 23
REMARK SMILES IDX 24 24
REMARK H PARENT
REMARK Flexibility Score: inf
ROOT
ATOM      1  C   UNL     1      -0.691   0.159  -9.980  1.00  0.00     0.000 C 
ENDROOT
BRANCH   1   2
ATOM      2  C   UNL     1      -0.947   1.539  -9.338  1.00  0.00     0.000 C 
BRANCH   2   3
ATOM      3  C   UNL     1      -2.069   2.378  -9.988  1.00  0.00     0.000 C 
BRANCH   3   4
ATOM      4  C   UNL     1      -3.498   2.028  -9.534  1.00  0.00    -0.000 C 
BRANCH   4   5
ATOM      5  C   UNL     1      -4.557   2.976 -10.124  1.00  0.00    -0.000 C 
BRANCH   5   6
ATOM      6  C   UNL     1      -4.112   4.447 -10.100  1.00  0.00    -0.000 C 
BRANCH   6   7
ATOM      7  C   UNL     1      -5.303   5.420 -10.124  1.00  0.00    -0.000 C 
BRANCH   7   8
ATOM      8  C   UNL     1      -5.702   5.911  -8.720  1.00  0.00    -0.000 C 
BRANCH   8   9
ATOM      9  C   UNL     1      -7.210   5.842  -8.406  1.00  0.00    -0.000 C 
BRANCH   9  10
ATOM     10  C   UNL     1      -7.788   7.078  -7.688  1.00  0.00    -0.000 C 
BRANCH  10  11
ATOM     11  C   UNL     1      -8.089   8.276  -8.605  1.00  0.00    -0.003 C 
ATOM     12  C   UNL     1      -8.647   7.858  -9.965  1.00  0.00     0.004 C 
ENDBRANCH  10  11
ENDBRANCH   9  10
ENDBRANCH   8   9
ENDBRANCH   7   8
ENDBRANCH   6   7
ENDBRANCH   5   6
ENDBRANCH   4   5
ENDBRANCH   3   4
ENDBRANCH   2   3
ENDBRANCH   1   2
BRANCH   1  13
ATOM     13  C   UNL     1       0.800  -0.232 -10.082  1.00  0.00     0.000 C 
BRANCH  13  14
ATOM     14  C   UNL     1       1.068  -1.737  -9.888  1.00  0.00     0.000 C 
BRANCH  14  15
ATOM     15  C   UNL     1       2.547  -2.162  -9.982  1.00  0.00     0.000 C 
BRANCH  15  16
ATOM     16  C   UNL     1       2.798  -3.670  -9.775  1.00  0.00     0.000 C 
BRANCH  16  17
ATOM     17  C   UNL     1       4.264  -4.094 -10.007  1.00  0.00     0.000 C 
BRANCH  17  18
ATOM     18  C   UNL     1       4.568  -5.553  -9.611  1.00  0.00     0.000 C 
BRANCH  18  19
ATOM     19  C   UNL     1       6.048  -5.955  -9.782  1.00  0.00     0.000 C 
BRANCH  19  20
ATOM     20  C   UNL     1       6.677  -6.456  -8.474  1.00  0.00     0.006 C 
BRANCH  20  21
ATOM     21  C   UNL     1       8.203  -6.512  -8.584  1.00  0.00     0.053 C 
BRANCH  21  22
ATOM     22  C   UNL     1       8.656  -7.905  -8.885  1.00  0.00     0.041 C 
ATOM     23  O   UNL     1       9.868  -8.137  -9.135  1.00  0.00    -0.550 OA
ATOM     24  O   UNL     1       7.730  -8.938  -8.944  1.00  0.00    -0.550 OA
ENDBRANCH  21  22
ENDBRANCH  20  21
ENDBRANCH  19  20
ENDBRANCH  18  19
ENDBRANCH  17  18
ENDBRANCH  16  17
ENDBRANCH  15  16
ENDBRANCH  14  15
ENDBRANCH  13  14
ENDBRANCH   1  13
TORSDOF 20
ENDMDL
MODEL 2
REMARK VINA RESULT:    -3.915     20.608     22.047
REMARK INTER + INTRA:          -9.187
REMARK INTER:                  -8.431
REMARK INTRA:                  -0.757
REMARK UNBOUND:                -0.695
REMARK SMILES CCCCCCCCCCCCCCCCCCCCCC(=O)[O-]
REMARK SMILES IDX 12 1 11 2 10 3 9 4 8 5 7 6 6 7 5 8 4 9 3 10 2 11 1 12 13 13
REMARK SMILES IDX 14 14 15 15 16 16 17 17 18 18 19 19 20 20 21 21 22 22 23 23
REMARK SMILES IDX 24 24
REMARK H PARENT
REMARK Flexibility Score: inf
ROOT
ATOM      1  C   UNL     1       1.111  -0.032  10.053  1.00  0.00     0.000 C 
ENDROOT
BRANCH   1   2
ATOM      2  C   UNL     1       1.596   1.207   9.270  1.00  0.00     0.000 C 
BRANCH   2   3
ATOM      3  C   UNL     1       1.918   2.452  10.124  1.00  0.00     0.000 C 
BRANCH   3   4
ATOM      4  C   UNL     1       3.383   2.920  10.076  1.00  0.00    -0.000 C 
BRANCH   4   5
ATOM      5  C   UNL     1       3.516   4.453  10.051  1.00  0.00    -0.000 C 
BRANCH   5   6
ATOM      6  C   UNL     1       4.822   4.922   9.389  1.00  0.00    -0.000 C 
BRANCH   6   7
ATOM      7  C   UNL     1       6.017   4.022   9.746  1.00  0.00    -0.000 C 
BRANCH   7   8
ATOM      8  C   UNL     1       7.369   4.632   9.332  1.00  0.00    -0.000 C 
BRANCH   8   9
ATOM      9  C   UNL     1       7.751   5.934  10.066  1.00  0.00    -0.000 C 
BRANCH   9  10
ATOM     10  C   UNL     1       8.649   6.899   9.266  1.00  0.00    -0.000 C 
BRANCH  10  11
ATOM     11  C   UNL     1       7.995   8.247   8.915  1.00  0.00    -0.003 C 
ATOM     12  C   UNL     1       6.478   8.238   9.096  1.00  0.00     0.004 C 
ENDBRANCH  10  11
ENDBRANCH   9  10
ENDBRANCH   8   9
ENDBRANCH   7   8
ENDBRANCH   6   7
ENDBRANCH   5   6
ENDBRANCH   4   5
ENDBRANCH   3   4
ENDBRANCH   2   3
ENDBRANCH   1   2
BRANCH   1  13
ATOM     13  C   UNL     1      -0.423  -0.188  10.117  1.00  0.00     0.000 C 
BRANCH  13  14
ATOM     14  C   UNL     1      -0.936  -1.553   9.618  1.00  0.00     0.000 C 
BRANCH  14  15
ATOM     15  C   UNL     1      -2.432  -1.828   9.865  1.00  0.00     0.000 C 
BRANCH  15  16
ATOM     16  C   UNL     1      -2.782  -3.308  10.121  1.00  0.00     0.000 C 
BRANCH  16  17
ATOM     17  C   UNL     1      -4.214  -3.693   9.690  1.00  0.00     0.000 C 
BRANCH  17  18
ATOM     18  C   UNL     1      -4.417  -5.204   9.457  1.00  0.00     0.000 C 
BRANCH  18  19
ATOM     19  C   UNL     1      -5.780  -5.565   8.833  1.00  0.00     0.000 C 
BRANCH  19  20
ATOM     20  C   UNL     1      -5.929  -7.073   8.577  1.00  0.00     0.006 C 
BRANCH  20  21
ATOM     21  C   UNL     1      -7.148  -7.636   9.312  1.00  0.00     0.053 C 
BRANCH  21  22
ATOM     22  C   UNL     1      -8.237  -7.967   8.342  1.00  0.00     0.041 C 
ATOM     23  O   UNL     1      -8.245  -7.446   7.195  1.00  0.00    -0.550 OA
ATOM     24  O   UNL     1      -9.274  -8.808   8.722  1.00  0.00    -0.550 OA
ENDBRANCH  21  22
ENDBRANCH  20  21
ENDBRANCH  19  20
ENDBRANCH  18  19
ENDBRANCH  17  18
ENDBRANCH  16  17
ENDBRANCH  15  16
ENDBRANCH  14  15
ENDBRANCH  13  14
ENDBRANCH   1  13
TORSDOF 20
ENDMDL
MODEL 3
REMARK VINA RESULT:    -3.893     20.631     21.773
REMARK INTER + INTRA:          -9.140
REMARK INTER:                  -8.421
REMARK INTRA:                  -0.719
REMARK UNBOUND:                -0.695
REMARK SMILES CCCCCCCCCCCCCCCCCCCCCC(=O)[O-]
REMARK SMILES IDX 12 1 11 2 10 3 9 4 8 5 7 6 6 7 5 8 4 9 3 10 2 11 1 12 13 13
REMARK SMILES IDX 14 14 15 15 16 16 17 17 18 18 19 19 20 20 21 21 22 22 23 23
REMARK SMILES IDX 24 24
REMARK H PARENT
REMARK Flexibility Score: inf
ROOT
ATOM      1  C   UNL     1      -0.685  -1.229  10.039  1.00  0.00     0.000 C 
ENDROOT
BRANCH   1   2
ATOM      2  C   UNL     1      -1.919  -1.682   9.230  1.00  0.00     0.000 C 
BRANCH   2   3
ATOM      3  C   UNL     1      -3.129  -2.151  10.068  1.00  0.00     0.000 C 
BRANCH   3   4
ATOM      4  C   UNL     1      -3.337  -3.674  10.125  1.00  0.00    -0.000 C 
BRANCH   4   5
ATOM      5  C   UNL     1      -4.524  -4.144   9.266  1.00  0.00    -0.000 C 
BRANCH   5   6
ATOM      6  C   UNL     1      -5.721  -4.604  10.112  1.00  0.00    -0.000 C 
BRANCH   6   7
ATOM      7  C   UNL     1      -5.900  -6.132  10.097  1.00  0.00    -0.000 C 
BRANCH   7   8
ATOM      8  C   UNL     1      -6.103  -6.695   8.679  1.00  0.00    -0.000 C 
BRANCH   8   9
ATOM      9  C   UNL     1      -7.506  -6.470   8.081  1.00  0.00    -0.000 C 
BRANCH   9  10
ATOM     10  C   UNL     1      -8.365  -7.742   7.923  1.00  0.00    -0.000 C 
BRANCH  10  11
ATOM     11  C   UNL     1      -9.233  -8.090   9.144  1.00  0.00    -0.003 C 
ATOM     12  C   UNL     1      -9.564  -6.872  10.005  1.00  0.00     0.004 C 
ENDBRANCH  10  11
ENDBRANCH   9  10
ENDBRANCH   8   9
ENDBRANCH   7   8
ENDBRANCH   6   7
ENDBRANCH   5   6
ENDBRANCH   4   5
ENDBRANCH   3   4
ENDBRANCH   2   3
ENDBRANCH   1   2
BRANCH   1  13
ATOM     13  C   UNL     1      -0.279   0.244   9.814  1.00  0.00     0.000 C 
BRANCH  13  14
ATOM     14  C   UNL     1       1.224   0.518  10.020  1.00  0.00     0.000 C 
BRANCH  14  15
ATOM     15  C   UNL     1       1.707   1.915   9.583  1.00  0.00     0.000 C 
BRANCH  15  16
ATOM     16  C   UNL     1       3.095   2.316  10.125  1.00  0.00     0.000 C 
BRANCH  16  17
ATOM     17  C   UNL     1       3.381   3.831  10.043  1.00  0.00     0.000 C 
BRANCH  17  18
ATOM     18  C   UNL     1       4.866   4.180   9.819  1.00  0.00     0.000 C 
BRANCH  18  19
ATOM     19  C   UNL     1       5.107   5.627   9.342  1.00  0.00     0.000 C 
BRANCH  19  20
ATOM     20  C   UNL     1       6.515   6.134   9.687  1.00  0.00     0.006 C 
BRANCH  20  21
ATOM     21  C   UNL     1       6.795   7.479   9.011  1.00  0.00     0.053 C 
BRANCH  21  22
ATOM     22  C   UNL     1       8.250   7.612   8.692  1.00  0.00     0.041 C 
ATOM     23  O   UNL     1       9.112   7.495   9.603  1.00  0.00    -0.550 OA
ATOM     24  O   UNL     1       8.652   7.919   7.400  1.00  0.00    -0.550 OA
ENDBRANCH  21  22
ENDBRANCH  20  21
ENDBRANCH  19  20
ENDBRANCH  18  19
ENDBRANCH  17  18
ENDBRANCH  16  17
ENDBRANCH  15  16
ENDBRANCH  14  15
ENDBRANCH  13  14
ENDBRANCH   1  13
TORSDOF 20
ENDMDL
MODEL 4
REMARK VINA RESULT:    -3.556     20.743     22.342
REMARK INTER + INTRA:          -8.408
REMARK INTER:                  -7.725
REMARK INTRA:                  -0.683
REMARK UNBOUND:                -0.695
REMARK SMILES CCCCCCCCCCCCCCCCCCCCCC(=O)[O-]
REMARK SMILES IDX 12 1 11 2 10 3 9 4 8 5 7 6 6 7 5 8 4 9 3 10 2 11 1 12 13 13
REMARK SMILES IDX 14 14 15 15 16 16 17 17 18 18 19 19 20 20 21 21 22 22 23 23
REMARK SMILES IDX 24 24
REMARK H PARENT
REMARK Flexibility Score: inf
ROOT
ATOM      1  C   UNL     1      -0.552  -0.607   9.451  1.00  0.00     0.000 C 
ENDROOT
BRANCH   1   2
ATOM      2  C   UNL     1      -0.046   0.741  10.007  1.00  0.00     0.000 C 
BRANCH   2   3
ATOM      3  C   UNL     1       1.489   0.901  10.074  1.00  0.00     0.000 C 
BRANCH   3   4
ATOM      4  C   UNL     1       2.084   1.934   9.101  1.00  0.00    -0.000 C 
BRANCH   4   5
ATOM      5  C   UNL     1       3.383   2.567   9.630  1.00  0.00    -0.000 C 
BRANCH   5   6
ATOM      6  C   UNL     1       3.188   4.021  10.088  1.00  0.00    -0.000 C 
BRANCH   6   7
ATOM      7  C   UNL     1       4.315   4.947   9.600  1.00  0.00    -0.000 C 
BRANCH   7   8
ATOM      8  C   UNL     1       5.700   4.529  10.124  1.00  0.00    -0.000 C 
BRANCH   8   9
ATOM      9  C   UNL     1       6.847   4.634   9.098  1.00  0.00    -0.000 C 
BRANCH   9  10
ATOM     10  C   UNL     1       8.259   4.372   9.662  1.00  0.00    -0.000 C 
BRANCH  10  11
ATOM     11  C   UNL     1       9.176   5.607   9.705  1.00  0.00    -0.003 C 
ATOM     12  C   UNL     1       8.418   6.918   9.501  1.00  0.00     0.004 C 
ENDBRANCH  10  11
ENDBRANCH   9  10
ENDBRANCH   8   9
ENDBRANCH   7   8
ENDBRANCH   6   7
ENDBRANCH   5   6
ENDBRANCH   4   5
ENDBRANCH   3   4
ENDBRANCH   2   3
ENDBRANCH   1   2
BRANCH   1  13
ATOM     13  C   UNL     1      -1.950  -1.024   9.958  1.00  0.00     0.000 C 
BRANCH  13  14
ATOM     14  C   UNL     1      -2.129  -2.545  10.125  1.00  0.00     0.000 C 
BRANCH  14  15
ATOM     15  C   UNL     1      -3.585  -3.049  10.074  1.00  0.00     0.000 C 
BRANCH  15  16
ATOM     16  C   UNL     1      -3.746  -4.507   9.595  1.00  0.00     0.000 C 
BRANCH  16  17
ATOM     17  C   UNL     1      -5.082  -5.156  10.017  1.00  0.00     0.000 C 
BRANCH  17  18
ATOM     18  C   UNL     1      -6.332  -4.431   9.480  1.00  0.00     0.000 C 
BRANCH  18  19
ATOM     19  C   UNL     1      -7.480  -5.377   9.071  1.00  0.00     0.000 C 
BRANCH  19  20
ATOM     20  C   UNL     1      -7.082  -6.858   9.159  1.00  0.00     0.006 C 
BRANCH  20  21
ATOM     21  C   UNL     1      -8.024  -7.730   8.324  1.00  0.00     0.053 C 
BRANCH  21  22
ATOM     22  C   UNL     1      -8.463  -8.925   9.108  1.00  0.00     0.041 C 
ATOM     23  O   UNL     1      -7.812 -10.002   9.042  1.00  0.00    -0.550 OA
ATOM     24  O   UNL     1      -9.622  -8.868   9.870  1.00  0.00    -0.550 OA
ENDBRANCH  21  22
ENDBRANCH  20  21
ENDBRANCH  19  20
ENDBRANCH  18  19
ENDBRANCH  17  18
ENDBRANCH  16  17
ENDBRANCH  15  16
ENDBRANCH  14  15
ENDBRANCH  13  14
ENDBRANCH   1  13
TORSDOF 20
ENDMDL
MODEL 5
REMARK VINA RESULT:    -2.587      1.360      2.191
REMARK INTER + INTRA:          -6.307
REMARK INTER:                  -5.360
REMARK INTRA:                  -0.947
REMARK UNBOUND:                -0.695
REMARK SMILES CCCCCCCCCCCCCCCCCCCCCC(=O)[O-]
REMARK SMILES IDX 12 1 11 2 10 3 9 4 8 5 7 6 6 7 5 8 4 9 3 10 2 11 1 12 13 13
REMARK SMILES IDX 14 14 15 15 16 16 17 17 18 18 19 19 20 20 21 21 22 22 23 23
REMARK SMILES IDX 24 24
REMARK H PARENT
REMARK Flexibility Score: inf
ROOT
ATOM      1  C   UNL     1      -1.660   1.482  -9.325  1.00  0.00     0.000 C 
ENDROOT
BRANCH   1   2
ATOM      2  C   UNL     1      -2.997   1.490 -10.096  1.00  0.00     0.000 C 
BRANCH   2   3
ATOM      3  C   UNL     1      -3.741   2.843 -10.125  1.00  0.00     0.000 C 
BRANCH   3   4
ATOM      4  C   UNL     1      -3.541   3.730  -8.883  1.00  0.00    -0.000 C 
BRANCH   4   5
ATOM      5  C   UNL     1      -3.643   5.231  -9.203  1.00  0.00    -0.000 C 
BRANCH   5   6
ATOM      6  C   UNL     1      -4.920   5.584  -9.982  1.00  0.00    -0.000 C 
BRANCH   6   7
ATOM      7  C   UNL     1      -5.249   7.085  -9.920  1.00  0.00    -0.000 C 
BRANCH   7   8
ATOM      8  C   UNL     1      -5.905   7.498  -8.590  1.00  0.00    -0.000 C 
BRANCH   8   9
ATOM      9  C   UNL     1      -7.111   6.638  -8.161  1.00  0.00    -0.000 C 
BRANCH   9  10
ATOM     10  C   UNL     1      -8.394   6.844  -8.991  1.00  0.00    -0.000 C 
BRANCH  10  11
ATOM     11  C   UNL     1      -8.678   5.740 -10.025  1.00  0.00    -0.003 C 
ATOM     12  C   UNL     1      -7.997   4.416  -9.683  1.00  0.00     0.004 C 
ENDBRANCH  10  11
ENDBRANCH   9  10
ENDBRANCH   8   9
ENDBRANCH   7   8
ENDBRANCH   6   7
ENDBRANCH   5   6
ENDBRANCH   4   5
ENDBRANCH   3   4
ENDBRANCH   2   3
ENDBRANCH   1   2
BRANCH   1  13
ATOM     13  C   UNL     1      -0.515   0.730 -10.038  1.00  0.00     0.000 C 
BRANCH  13  14
ATOM     14  C   UNL     1      -0.485  -0.784  -9.752  1.00  0.00     0.000 C 
BRANCH  14  15
ATOM     15  C   UNL     1       0.817  -1.310  -9.116  1.00  0.00     0.000 C 
BRANCH  15  16
ATOM     16  C   UNL     1       1.963  -1.570 -10.115  1.00  0.00     0.000 C 
BRANCH  16  17
ATOM     17  C   UNL     1       2.537  -3.001 -10.045  1.00  0.00     0.000 C 
BRANCH  17  18
ATOM     18  C   UNL     1       3.949  -3.085  -9.431  1.00  0.00     0.000 C 
BRANCH  18  19
ATOM     19  C   UNL     1       4.876  -4.105 -10.124  1.00  0.00     0.000 C 
BRANCH  19  20
ATOM     20  C   UNL     1       6.023  -4.571  -9.214  1.00  0.00     0.006 C 
BRANCH  20  21
ATOM     21  C   UNL     1       5.673  -5.891  -8.522  1.00  0.00     0.053 C 
BRANCH  21  22
ATOM     22  C   UNL     1       6.917  -6.630  -8.145  1.00  0.00     0.041 C 
ATOM     23  O   UNL     1       7.491  -6.388  -7.050  1.00  0.00    -0.550 OA
ATOM     24  O   UNL     1       7.474  -7.546  -9.026  1.00  0.00    -0.550 OA
ENDBRANCH  21  22
ENDBRANCH  20  21
ENDBRANCH  19  20
ENDBRANCH  18  19
ENDBRANCH  17  18
ENDBRANCH  16  17
ENDBRANCH  15  16
ENDBRANCH  14  15
ENDBRANCH  13  14
ENDBRANCH   1  13
TORSDOF 20
ENDMDL
MODEL 6
REMARK VINA RESULT:    -2.337      1.639      2.208
REMARK INTER + INTRA:          -5.764
REMARK INTER:                  -5.346
REMARK INTRA:                  -0.418
REMARK UNBOUND:                -0.695
REMARK SMILES CCCCCCCCCCCCCCCCCCCCCC(=O)[O-]
REMARK SMILES IDX 12 1 11 2 10 3 9 4 8 5 7 6 6 7 5 8 4 9 3 10 2 11 1 12 13 13
REMARK SMILES IDX 14 14 15 15 16 16 17 17 18 18 19 19 20 20 21 21 22 22 23 23
REMARK SMILES IDX 24 24
REMARK H PARENT
REMARK Flexibility Score: inf
ROOT
ATOM      1  C   UNL     1      -1.410   1.321  -9.973  1.00  0.00     0.000 C 
ENDROOT
BRANCH   1   2
ATOM      2  C   UNL     1      -2.232   2.405  -9.245  1.00  0.00     0.000 C 
BRANCH   2   3
ATOM      3  C   UNL     1      -3.495   2.894  -9.987  1.00  0.00     0.000 C 
BRANCH   3   4
ATOM      4  C   UNL     1      -4.744   2.013  -9.809  1.00  0.00    -0.000 C 
BRANCH   4   5
ATOM      5  C   UNL     1      -6.050   2.764 -10.120  1.00  0.00    -0.000 C 
BRANCH   5   6
ATOM      6  C   UNL     1      -5.950   4.270  -9.826  1.00  0.00    -0.000 C 
BRANCH   6   7
ATOM      7  C   UNL     1      -7.328   4.919  -9.610  1.00  0.00    -0.000 C 
BRANCH   7   8
ATOM      8  C   UNL     1      -7.470   5.571  -8.223  1.00  0.00    -0.000 C 
BRANCH   8   9
ATOM      9  C   UNL     1      -7.015   7.042  -8.141  1.00  0.00    -0.000 C 
BRANCH   9  10
ATOM     10  C   UNL     1      -7.957   8.060  -8.814  1.00  0.00    -0.000 C 
BRANCH  10  11
ATOM     11  C   UNL     1      -7.389   9.484  -8.935  1.00  0.00    -0.003 C 
ATOM     12  C   UNL     1      -5.987   9.515  -9.545  1.00  0.00     0.004 C 
ENDBRANCH  10  11
ENDBRANCH   9  10
ENDBRANCH   8   9
ENDBRANCH   7   8
ENDBRANCH   6   7
ENDBRANCH   5   6
ENDBRANCH   4   5
ENDBRANCH   3   4
ENDBRANCH   2   3
ENDBRANCH   1   2
BRANCH   1  13
ATOM     13  C   UNL     1       0.117   1.436  -9.775  1.00  0.00     0.000 C 
BRANCH  13  14
ATOM     14  C   UNL     1       0.780   0.149  -9.245  1.00  0.00     0.000 C 
BRANCH  14  15
ATOM     15  C   UNL     1       1.913  -0.420 -10.121  1.00  0.00     0.000 C 
BRANCH  15  16
ATOM     16  C   UNL     1       2.325  -1.867  -9.780  1.00  0.00     0.000 C 
BRANCH  16  17
ATOM     17  C   UNL     1       3.841  -2.130  -9.917  1.00  0.00     0.000 C 
BRANCH  17  18
ATOM     18  C   UNL     1       4.328  -3.398  -9.187  1.00  0.00     0.000 C 
BRANCH  18  19
ATOM     19  C   UNL     1       5.296  -4.267 -10.015  1.00  0.00     0.000 C 
BRANCH  19  20
ATOM     20  C   UNL     1       6.613  -4.550  -9.276  1.00  0.00     0.006 C 
BRANCH  20  21
ATOM     21  C   UNL     1       6.937  -6.046  -9.285  1.00  0.00     0.053 C 
BRANCH  21  22
ATOM     22  C   UNL     1       5.683  -6.854  -9.182  1.00  0.00     0.041 C 
ATOM     23  O   UNL     1       4.887  -6.670  -8.222  1.00  0.00    -0.550 OA
ATOM     24  O   UNL     1       5.418  -7.848 -10.114  1.00  0.00    -0.550 OA
ENDBRANCH  21  22
ENDBRANCH  20  21
ENDBRANCH  19  20
ENDBRANCH  18  19
ENDBRANCH  17  18
ENDBRANCH  16  17
ENDBRANCH  15  16
ENDBRANCH  14  15
ENDBRANCH  13  14
ENDBRANCH   1  13
TORSDOF 20
ENDMDL
