MODEL 1
REMARK VINA RESULT:    -4.609      0.000      0.000
REMARK INTER + INTRA:         -10.414
REMARK INTER:                  -8.920
REMARK INTRA:                  -1.494
REMARK UNBOUND:                -1.494
REMARK SMILES CCCCCCCCCCCCCCCCCC(=O)[O-]
REMARK SMILES IDX 10 1 11 2 12 3 13 4 14 5 15 6 16 7 17 8 18 9 19 10 20 11
REMARK SMILES IDX 9 12 8 13 7 14 6 15 5 16 4 17 3 18 2 19 1 20
REMARK H PARENT
REMARK Flexibility Score: inf
ROOT
ATOM      1  C   UNL     1      13.021  -1.138  40.830  1.00  0.00     0.000 C 
ENDROOT
BRANCH   1   2
ATOM      2  C   UNL     1      12.300  -0.104  41.710  1.00  0.00     0.000 C 
BRANCH   2   3
ATOM      3  C   UNL     1      11.909   1.165  40.939  1.00  0.00     0.000 C 
BRANCH   3   4
ATOM      4  C   UNL     1      10.483   1.050  40.381  1.00  0.00     0.000 C 
BRANCH   4   5
ATOM      5  C   UNL     1      10.437   0.434  38.971  1.00  0.00     0.000 C 
BRANCH   5   6
ATOM      6  C   UNL     1       9.411  -0.698  38.788  1.00  0.00     0.000 C 
BRANCH   6   7
ATOM      7  C   UNL     1       9.527  -1.791  39.861  1.00  0.00     0.006 C 
BRANCH   7   8
ATOM      8  C   UNL     1       8.182  -2.023  40.555  1.00  0.00     0.053 C 
BRANCH   8   9
ATOM      9  C   UNL     1       8.161  -1.349  41.891  1.00  0.00     0.041 C 
ATOM     10  O   UNL     1       8.680  -1.909  42.891  1.00  0.00    -0.550 OA
ATOM     11  O   UNL     1       7.519  -0.126  42.042  1.00  0.00    -0.550 OA
ENDBRANCH   8   9
ENDBRANCH   7   8
ENDBRANCH   6   7
ENDBRANCH   5   6
ENDBRANCH   4   5
ENDBRANCH   3   4
ENDBRANCH   2   3
ENDBRANCH   1   2
BRANCH   1  12
ATOM     12  C   UNL     1      14.188  -0.531  40.037  1.00  0.00     0.000 C 
BRANCH  12  13
ATOM     13  C   UNL     1      15.333  -0.123  40.972  1.00  0.00    -0.000 C 
BRANCH  13  14
ATOM     14  C   UNL     1      15.628   1.378  40.860  1.00  0.00    -0.000 C 
BRANCH  14  15
ATOM     15  C   UNL     1      17.128   1.631  40.665  1.00  0.00    -0.000 C 
BRANCH  15  16
ATOM     16  C   UNL     1      17.629   2.731  41.612  1.00  0.00    -0.000 C 
BRANCH  16  17
ATOM     17  C   UNL     1      17.348   4.146  41.061  1.00  0.00    -0.000 C 
BRANCH  17  18
ATOM     18  C   UNL     1      16.224   4.884  41.806  1.00  0.00    -0.000 C 
BRANCH  18  19
ATOM     19  C   UNL     1      14.951   5.034  40.964  1.00  0.00    -0.003 C 
ATOM     20  C   UNL     1      14.111   6.215  41.442  1.00  0.00     0.004 C 
ENDBRANCH  18  19
ENDBRANCH  17  18
ENDBRANCH  16  17
ENDBRANCH  15  16
ENDBRANCH  14  15
ENDBRANCH  13  14
ENDBRANCH  12  13
ENDBRANCH   1  12
TORSDOF 16
ENDMDL
MODEL 2
REMARK VINA RESULT:    -4.577      2.623      4.644
REMARK INTER + INTRA:         -10.352
REMARK INTER:                  -8.500
REMARK INTRA:                  -1.853
REMARK UNBOUND:                -1.494
REMARK SMILES CCCCCCCCCCCCCCCCCC(=O)[O-]
REMARK SMILES IDX 10 1 11 2 12 3 13 4 14 5 15 6 16 7 17 8 18 9 19 10 20 11
REMARK SMILES IDX 9 12 8 13 7 14 6 15 5 16 4 17 3 18 2 19 1 20
REMARK H PARENT
REMARK Flexibility Score: inf
ROOT
ATOM      1  C   UNL     1      10.822   3.902  40.107  1.00  0.00     0.000 C 
ENDROOT
BRANCH   1   2
ATOM      2  C   UNL     1      10.442   2.465  40.497  1.00  0.00     0.000 C 
BRANCH   2   3
ATOM      3  C   UNL     1      10.611   1.469  39.340  1.00  0.00     0.000 C 
BRANCH   3   4
ATOM      4  C   UNL     1      11.392   0.228  39.795  1.00  0.00     0.000 C 
BRANCH   4   5
ATOM      5  C   UNL     1      12.057   0.406  41.171  1.00  0.00     0.000 C 
BRANCH   5   6
ATOM      6  C   UNL     1      13.355  -0.394  41.376  1.00  0.00     0.000 C 
BRANCH   6   7
ATOM      7  C   UNL     1      13.703  -1.289  40.176  1.00  0.00     0.006 C 
BRANCH   7   8
ATOM      8  C   UNL     1      14.158  -2.675  40.640  1.00  0.00     0.053 C 
BRANCH   8   9
ATOM      9  C   UNL     1      13.619  -3.734  39.729  1.00  0.00     0.041 C 
ATOM     10  O   UNL     1      12.379  -3.824  39.529  1.00  0.00    -0.550 OA
ATOM     11  O   UNL     1      14.480  -4.654  39.145  1.00  0.00    -0.550 OA
ENDBRANCH   8   9
ENDBRANCH   7   8
ENDBRANCH   6   7
ENDBRANCH   5   6
ENDBRANCH   4   5
ENDBRANCH   3   4
ENDBRANCH   2   3
ENDBRANCH   1   2
BRANCH   1  12
ATOM     12  C   UNL     1      11.263   4.747  41.311  1.00  0.00     0.000 C 
BRANCH  12  13
ATOM     13  C   UNL     1      12.326   4.013  42.138  1.00  0.00    -0.000 C 
BRANCH  13  14
ATOM     14  C   UNL     1      13.637   3.880  41.354  1.00  0.00    -0.000 C 
BRANCH  14  15
ATOM     15  C   UNL     1      14.179   5.256  40.950  1.00  0.00    -0.000 C 
BRANCH  15  16
ATOM     16  C   UNL     1      15.714   5.258  40.924  1.00  0.00    -0.000 C 
BRANCH  16  17
ATOM     17  C   UNL     1      16.319   4.675  42.219  1.00  0.00    -0.000 C 
BRANCH  17  18
ATOM     18  C   UNL     1      17.202   3.439  41.983  1.00  0.00    -0.000 C 
BRANCH  18  19
ATOM     19  C   UNL     1      17.049   2.858  40.571  1.00  0.00    -0.003 C 
ATOM     20  C   UNL     1      16.533   1.423  40.620  1.00  0.00     0.004 C 
ENDBRANCH  18  19
ENDBRANCH  17  18
ENDBRANCH  16  17
ENDBRANCH  15  16
ENDBRANCH  14  15
ENDBRANCH  13  14
ENDBRANCH  12  13
ENDBRANCH   1  12
TORSDOF 16
ENDMDL
MODEL 3
REMARK VINA RESULT:    -4.538      4.655      7.977
REMARK INTER + INTRA:         -10.278
REMARK INTER:                  -8.791
REMARK INTRA:                  -1.486
REMARK UNBOUND:                -1.494
REMARK SMILES CCCCCCCCCCCCCCCCCC(=O)[O-]
REMARK SMILES IDX 10 1 11 2 12 3 13 4 14 5 15 6 16 7 17 8 18 9 19 10 20 11
REMARK SMILES IDX 9 12 8 13 7 14 6 15 5 16 4 17 3 18 2 19 1 20
REMARK H PARENT
REMARK Flexibility Score: inf
ROOT
ATOM      1  C   UNL     1      15.176  -0.590  41.117  1.00  0.00     0.000 C 
ENDROOT
BRANCH   1   2
ATOM      2  C   UNL     1      15.294   0.866  40.639  1.00  0.00     0.000 C 
BRANCH   2   3
ATOM      3  C   UNL     1      16.692   1.458  40.873  1.00  0.00     0.000 C 
BRANCH   3   4
ATOM      4  C   UNL     1      16.834   2.820  40.178  1.00  0.00     0.000 C 
BRANCH   4   5
ATOM      5  C   UNL     1      17.034   3.982  41.166  1.00  0.00     0.000 C 
BRANCH   5   6
ATOM      6  C   UNL     1      16.447   5.331  40.714  1.00  0.00     0.000 C 
BRANCH   6   7
ATOM      7  C   UNL     1      16.472   6.397  41.820  1.00  0.00     0.006 C 
BRANCH   7   8
ATOM      8  C   UNL     1      17.693   7.310  41.674  1.00  0.00     0.053 C 
BRANCH   8   9
ATOM      9  C   UNL     1      17.360   8.491  40.816  1.00  0.00     0.041 C 
ATOM     10  O   UNL     1      17.815   8.571  39.646  1.00  0.00    -0.550 OA
ATOM     11  O   UNL     1      16.594   9.530  41.330  1.00  0.00    -0.550 OA
ENDBRANCH   8   9
ENDBRANCH   7   8
ENDBRANCH   6   7
ENDBRANCH   5   6
ENDBRANCH   4   5
ENDBRANCH   3   4
ENDBRANCH   2   3
ENDBRANCH   1   2
BRANCH   1  12
ATOM     12  C   UNL     1      14.046  -1.356  40.414  1.00  0.00     0.000 C 
BRANCH  12  13
ATOM     13  C   UNL     1      13.271  -0.437  39.461  1.00  0.00    -0.000 C 
BRANCH  13  14
ATOM     14  C   UNL     1      11.789  -0.367  39.847  1.00  0.00    -0.000 C 
BRANCH  14  15
ATOM     15  C   UNL     1      11.620  -0.282  41.369  1.00  0.00    -0.000 C 
BRANCH  15  16
ATOM     16  C   UNL     1      11.520   1.179  41.832  1.00  0.00    -0.000 C 
BRANCH  16  17
ATOM     17  C   UNL     1      11.168   2.134  40.672  1.00  0.00    -0.000 C 
BRANCH  17  18
ATOM     18  C   UNL     1      11.217   3.620  41.063  1.00  0.00    -0.000 C 
BRANCH  18  19
ATOM     19  C   UNL     1      12.635   4.103  41.392  1.00  0.00    -0.003 C 
ATOM     20  C   UNL     1      12.987   5.359  40.599  1.00  0.00     0.004 C 
ENDBRANCH  18  19
ENDBRANCH  17  18
ENDBRANCH  16  17
ENDBRANCH  15  16
ENDBRANCH  14  15
ENDBRANCH  13  14
ENDBRANCH  12  13
ENDBRANCH   1  12
TORSDOF 16
ENDMDL
MODEL 4
REMARK VINA RESULT:    -4.501      2.611      3.774
REMARK INTER + INTRA:         -10.205
REMARK INTER:                  -8.234
REMARK INTRA:                  -1.971
REMARK UNBOUND:                -1.494
REMARK SMILES CCCCCCCCCCCCCCCCCC(=O)[O-]
REMARK SMILES IDX 10 1 11 2 12 3 13 4 14 5 15 6 16 7 17 8 18 9 19 10 20 11
REMARK SMILES IDX 9 12 8 13 7 14 6 15 5 16 4 17 3 18 2 19 1 20
REMARK H PARENT
REMARK Flexibility Score: inf
ROOT
ATOM      1  C   UNL     1      15.361  -0.396  40.983  1.00  0.00     0.000 C 
ENDROOT
BRANCH   1   2
ATOM      2  C   UNL     1      13.954  -0.985  41.169  1.00  0.00     0.000 C 
BRANCH   2   3
ATOM      3  C   UNL     1      13.090  -0.877  39.903  1.00  0.00     0.000 C 
BRANCH   3   4
ATOM      4  C   UNL     1      11.612  -0.672  40.264  1.00  0.00     0.000 C 
BRANCH   4   5
ATOM      5  C   UNL     1      11.412  -0.083  41.671  1.00  0.00     0.000 C 
BRANCH   5   6
ATOM      6  C   UNL     1      10.673   1.266  41.714  1.00  0.00     0.000 C 
BRANCH   6   7
ATOM      7  C   UNL     1      11.299   2.321  40.789  1.00  0.00     0.006 C 
BRANCH   7   8
ATOM      8  C   UNL     1      12.249   3.238  41.565  1.00  0.00     0.053 C 
BRANCH   8   9
ATOM      9  C   UNL     1      11.476   4.129  42.487  1.00  0.00     0.041 C 
ATOM     10  O   UNL     1      10.726   5.025  42.019  1.00  0.00    -0.550 OA
ATOM     11  O   UNL     1      11.628   4.006  43.862  1.00  0.00    -0.550 OA
ENDBRANCH   8   9
ENDBRANCH   7   8
ENDBRANCH   6   7
ENDBRANCH   5   6
ENDBRANCH   4   5
ENDBRANCH   3   4
ENDBRANCH   2   3
ENDBRANCH   1   2
BRANCH   1  12
ATOM     12  C   UNL     1      15.365   1.140  40.970  1.00  0.00     0.000 C 
BRANCH  12  13
ATOM     13  C   UNL     1      16.750   1.682  40.596  1.00  0.00    -0.000 C 
BRANCH  13  14
ATOM     14  C   UNL     1      17.403   2.392  41.789  1.00  0.00    -0.000 C 
BRANCH  14  15
ATOM     15  C   UNL     1      17.786   3.833  41.429  1.00  0.00    -0.000 C 
BRANCH  15  16
ATOM     16  C   UNL     1      16.727   4.474  40.521  1.00  0.00    -0.000 C 
BRANCH  16  17
ATOM     17  C   UNL     1      16.417   5.931  40.926  1.00  0.00    -0.000 C 
BRANCH  17  18
ATOM     18  C   UNL     1      15.022   6.113  41.547  1.00  0.00    -0.000 C 
BRANCH  18  19
ATOM     19  C   UNL     1      14.900   5.472  42.935  1.00  0.00    -0.003 C 
ATOM     20  C   UNL     1      14.233   6.424  43.924  1.00  0.00     0.004 C 
ENDBRANCH  18  19
ENDBRANCH  17  18
ENDBRANCH  16  17
ENDBRANCH  15  16
ENDBRANCH  14  15
ENDBRANCH  13  14
ENDBRANCH  12  13
ENDBRANCH   1  12
TORSDOF 16
ENDMDL
MODEL 5
REMARK VINA RESULT:    -4.487      2.645      4.507
REMARK INTER + INTRA:         -10.178
REMARK INTER:                  -8.819
REMARK INTRA:                  -1.358
REMARK UNBOUND:                -1.494
REMARK SMILES CCCCCCCCCCCCCCCCCC(=O)[O-]
REMARK SMILES IDX 10 1 11 2 12 3 13 4 14 5 15 6 16 7 17 8 18 9 19 10 20 11
REMARK SMILES IDX 9 12 8 13 7 14 6 15 5 16 4 17 3 18 2 19 1 20
REMARK H PARENT
REMARK Flexibility Score: inf
ROOT
ATOM      1  C   UNL     1      11.056   3.690  41.643  1.00  0.00     0.000 C 
ENDROOT
BRANCH   1   2
ATOM      2  C   UNL     1      10.301   2.581  40.893  1.00  0.00     0.000 C 
BRANCH   2   3
ATOM      3  C   UNL     1      10.608   2.563  39.388  1.00  0.00     0.000 C 
BRANCH   3   4
ATOM      4  C   UNL     1      10.489   1.141  38.821  1.00  0.00     0.000 C 
BRANCH   4   5
ATOM      5  C   UNL     1      10.119   0.097  39.888  1.00  0.00     0.000 C 
BRANCH   5   6
ATOM      6  C   UNL     1      11.152  -1.026  40.088  1.00  0.00     0.000 C 
BRANCH   6   7
ATOM      7  C   UNL     1      12.471  -0.525  40.697  1.00  0.00     0.006 C 
BRANCH   7   8
ATOM      8  C   UNL     1      13.668  -0.967  39.852  1.00  0.00     0.053 C 
BRANCH   8   9
ATOM      9  C   UNL     1      14.080  -2.359  40.217  1.00  0.00     0.041 C 
ATOM     10  O   UNL     1      13.647  -3.340  39.559  1.00  0.00    -0.550 OA
ATOM     11  O   UNL     1      14.897  -2.576  41.319  1.00  0.00    -0.550 OA
ENDBRANCH   8   9
ENDBRANCH   7   8
ENDBRANCH   6   7
ENDBRANCH   5   6
ENDBRANCH   4   5
ENDBRANCH   3   4
ENDBRANCH   2   3
ENDBRANCH   1   2
BRANCH   1  12
ATOM     12  C   UNL     1      12.567   3.426  41.729  1.00  0.00     0.000 C 
BRANCH  12  13
ATOM     13  C   UNL     1      13.358   4.522  41.004  1.00  0.00    -0.000 C 
BRANCH  13  14
ATOM     14  C   UNL     1      14.722   4.748  41.669  1.00  0.00    -0.000 C 
BRANCH  14  15
ATOM     15  C   UNL     1      15.856   4.184  40.804  1.00  0.00    -0.000 C 
BRANCH  15  16
ATOM     16  C   UNL     1      16.656   3.121  41.570  1.00  0.00    -0.000 C 
BRANCH  16  17
ATOM     17  C   UNL     1      17.354   2.122  40.623  1.00  0.00    -0.000 C 
BRANCH  17  18
ATOM     18  C   UNL     1      18.813   2.490  40.307  1.00  0.00    -0.000 C 
BRANCH  18  19
ATOM     19  C   UNL     1      19.531   3.146  41.493  1.00  0.00    -0.003 C 
ATOM     20  C   UNL     1      21.018   2.799  41.496  1.00  0.00     0.004 C 
ENDBRANCH  18  19
ENDBRANCH  17  18
ENDBRANCH  16  17
ENDBRANCH  15  16
ENDBRANCH  14  15
ENDBRANCH  13  14
ENDBRANCH  12  13
ENDBRANCH   1  12
TORSDOF 16
ENDMDL
MODEL 6
REMARK VINA RESULT:    -4.466      3.569      7.583
REMARK INTER + INTRA:         -10.138
REMARK INTER:                  -8.680
REMARK INTRA:                  -1.458
REMARK UNBOUND:                -1.494
REMARK SMILES CCCCCCCCCCCCCCCCCC(=O)[O-]
REMARK SMILES IDX 10 1 11 2 12 3 13 4 14 5 15 6 16 7 17 8 18 9 19 10 20 11
REMARK SMILES IDX 9 12 8 13 7 14 6 15 5 16 4 17 3 18 2 19 1 20
REMARK H PARENT
REMARK Flexibility Score: inf
ROOT
ATOM      1  C   UNL     1      10.631   2.885  40.136  1.00  0.00     0.000 C 
ENDROOT
BRANCH   1   2
ATOM      2  C   UNL     1      10.980   3.801  41.320  1.00  0.00     0.000 C 
BRANCH   2   3
ATOM      3  C   UNL     1      12.481   3.802  41.649  1.00  0.00     0.000 C 
BRANCH   3   4
ATOM      4  C   UNL     1      13.053   5.226  41.595  1.00  0.00     0.000 C 
BRANCH   4   5
ATOM      5  C   UNL     1      14.451   5.289  40.955  1.00  0.00     0.000 C 
BRANCH   5   6
ATOM      6  C   UNL     1      15.598   5.623  41.926  1.00  0.00     0.000 C 
BRANCH   6   7
ATOM      7  C   UNL     1      16.823   4.714  41.741  1.00  0.00     0.006 C 
BRANCH   7   8
ATOM      8  C   UNL     1      16.645   3.794  40.530  1.00  0.00     0.053 C 
BRANCH   8   9
ATOM      9  C   UNL     1      17.334   2.486  40.763  1.00  0.00     0.041 C 
ATOM     10  O   UNL     1      16.719   1.404  40.573  1.00  0.00    -0.550 OA
ATOM     11  O   UNL     1      18.638   2.462  41.243  1.00  0.00    -0.550 OA
ENDBRANCH   8   9
ENDBRANCH   7   8
ENDBRANCH   6   7
ENDBRANCH   5   6
ENDBRANCH   4   5
ENDBRANCH   3   4
ENDBRANCH   2   3
ENDBRANCH   1   2
BRANCH   1  12
ATOM     12  C   UNL     1       9.880   1.617  40.569  1.00  0.00     0.000 C 
BRANCH  12  13
ATOM     13  C   UNL     1      10.040   0.503  39.527  1.00  0.00    -0.000 C 
BRANCH  13  14
ATOM     14  C   UNL     1      11.378  -0.227  39.701  1.00  0.00    -0.000 C 
BRANCH  14  15
ATOM     15  C   UNL     1      11.797  -0.263  41.176  1.00  0.00    -0.000 C 
BRANCH  15  16
ATOM     16  C   UNL     1      13.323  -0.361  41.312  1.00  0.00    -0.000 C 
BRANCH  16  17
ATOM     17  C   UNL     1      13.943  -1.305  40.260  1.00  0.00    -0.000 C 
BRANCH  17  18
ATOM     18  C   UNL     1      14.350  -2.675  40.826  1.00  0.00    -0.000 C 
BRANCH  18  19
ATOM     19  C   UNL     1      14.059  -3.829  39.858  1.00  0.00    -0.003 C 
ATOM     20  C   UNL     1      12.573  -3.900  39.517  1.00  0.00     0.004 C 
ENDBRANCH  18  19
ENDBRANCH  17  18
ENDBRANCH  16  17
ENDBRANCH  15  16
ENDBRANCH  14  15
ENDBRANCH  13  14
ENDBRANCH  12  13
ENDBRANCH   1  12
TORSDOF 16
ENDMDL
MODEL 7
REMARK VINA RESULT:    -4.431      2.007      4.654
REMARK INTER + INTRA:         -10.071
REMARK INTER:                  -7.992
REMARK INTRA:                  -2.079
REMARK UNBOUND:                -1.494
REMARK SMILES CCCCCCCCCCCCCCCCCC(=O)[O-]
REMARK SMILES IDX 10 1 11 2 12 3 13 4 14 5 15 6 16 7 17 8 18 9 19 10 20 11
REMARK SMILES IDX 9 12 8 13 7 14 6 15 5 16 4 17 3 18 2 19 1 20
REMARK H PARENT
REMARK Flexibility Score: inf
ROOT
ATOM      1  C   UNL     1      17.706   3.254  40.631  1.00  0.00     0.000 C 
ENDROOT
BRANCH   1   2
ATOM      2  C   UNL     1      17.337   1.762  40.601  1.00  0.00     0.000 C 
BRANCH   2   3
ATOM      3  C   UNL     1      15.821   1.522  40.669  1.00  0.00     0.000 C 
BRANCH   3   4
ATOM      4  C   UNL     1      15.512   0.053  40.992  1.00  0.00     0.000 C 
BRANCH   4   5
ATOM      5  C   UNL     1      14.113  -0.384  40.525  1.00  0.00     0.000 C 
BRANCH   5   6
ATOM      6  C   UNL     1      13.144  -0.782  41.653  1.00  0.00     0.000 C 
BRANCH   6   7
ATOM      7  C   UNL     1      11.795  -0.050  41.570  1.00  0.00     0.006 C 
BRANCH   7   8
ATOM      8  C   UNL     1      11.599   0.583  40.190  1.00  0.00     0.053 C 
BRANCH   8   9
ATOM      9  C   UNL     1      10.572  -0.177  39.409  1.00  0.00     0.041 C 
ATOM     10  O   UNL     1      10.014   0.353  38.413  1.00  0.00    -0.550 OA
ATOM     11  O   UNL     1      10.190  -1.449  39.816  1.00  0.00    -0.550 OA
ENDBRANCH   8   9
ENDBRANCH   7   8
ENDBRANCH   6   7
ENDBRANCH   5   6
ENDBRANCH   4   5
ENDBRANCH   3   4
ENDBRANCH   2   3
ENDBRANCH   1   2
BRANCH   1  12
ATOM     12  C   UNL     1      17.580   3.869  42.033  1.00  0.00     0.000 C 
BRANCH  12  13
ATOM     13  C   UNL     1      16.956   5.268  41.964  1.00  0.00    -0.000 C 
BRANCH  13  14
ATOM     14  C   UNL     1      16.195   5.468  40.647  1.00  0.00    -0.000 C 
BRANCH  14  15
ATOM     15  C   UNL     1      14.705   5.724  40.906  1.00  0.00    -0.000 C 
BRANCH  15  16
ATOM     16  C   UNL     1      14.166   4.786  41.994  1.00  0.00    -0.000 C 
BRANCH  16  17
ATOM     17  C   UNL     1      13.142   3.774  41.436  1.00  0.00    -0.000 C 
BRANCH  17  18
ATOM     18  C   UNL     1      11.766   3.853  42.116  1.00  0.00    -0.000 C 
BRANCH  18  19
ATOM     19  C   UNL     1      10.756   4.690  41.322  1.00  0.00    -0.003 C 
ATOM     20  C   UNL     1      10.851   4.395  39.827  1.00  0.00     0.004 C 
ENDBRANCH  18  19
ENDBRANCH  17  18
ENDBRANCH  16  17
ENDBRANCH  15  16
ENDBRANCH  14  15
ENDBRANCH  13  14
ENDBRANCH  12  13
ENDBRANCH   1  12
TORSDOF 16
ENDMDL
MODEL 8
REMARK VINA RESULT:    -4.398      3.259      4.693
REMARK INTER + INTRA:         -10.006
REMARK INTER:                  -8.423
REMARK INTRA:                  -1.584
REMARK UNBOUND:                -1.494
REMARK SMILES CCCCCCCCCCCCCCCCCC(=O)[O-]
REMARK SMILES IDX 10 1 11 2 12 3 13 4 14 5 15 6 16 7 17 8 18 9 19 10 20 11
REMARK SMILES IDX 9 12 8 13 7 14 6 15 5 16 4 17 3 18 2 19 1 20
REMARK H PARENT
REMARK Flexibility Score: inf
ROOT
ATOM      1  C   UNL     1      15.480  -0.083  41.008  1.00  0.00     0.000 C 
ENDROOT
BRANCH   1   2
ATOM      2  C   UNL     1      14.177  -0.627  40.401  1.00  0.00     0.000 C 
BRANCH   2   3
ATOM      3  C   UNL     1      12.972  -0.473  41.341  1.00  0.00     0.000 C 
BRANCH   3   4
ATOM      4  C   UNL     1      11.910   0.448  40.723  1.00  0.00     0.000 C 
BRANCH   4   5
ATOM      5  C   UNL     1      10.889   0.964  41.753  1.00  0.00     0.000 C 
BRANCH   5   6
ATOM      6  C   UNL     1      11.023   2.455  42.112  1.00  0.00     0.000 C 
BRANCH   6   7
ATOM      7  C   UNL     1      11.551   3.306  40.947  1.00  0.00     0.006 C 
BRANCH   7   8
ATOM      8  C   UNL     1      12.728   4.177  41.394  1.00  0.00     0.053 C 
BRANCH   8   9
ATOM      9  C   UNL     1      12.748   5.462  40.627  1.00  0.00     0.041 C 
ATOM     10  O   UNL     1      13.277   6.489  41.125  1.00  0.00    -0.550 OA
ATOM     11  O   UNL     1      12.133   5.539  39.384  1.00  0.00    -0.550 OA
ENDBRANCH   8   9
ENDBRANCH   7   8
ENDBRANCH   6   7
ENDBRANCH   5   6
ENDBRANCH   4   5
ENDBRANCH   3   4
ENDBRANCH   2   3
ENDBRANCH   1   2
BRANCH   1  12
ATOM     12  C   UNL     1      15.695   1.409  40.713  1.00  0.00     0.000 C 
BRANCH  12  13
ATOM     13  C   UNL     1      17.190   1.744  40.642  1.00  0.00    -0.000 C 
BRANCH  13  14
ATOM     14  C   UNL     1      17.407   3.228  40.322  1.00  0.00    -0.000 C 
BRANCH  14  15
ATOM     15  C   UNL     1      16.306   4.093  40.949  1.00  0.00    -0.000 C 
BRANCH  15  16
ATOM     16  C   UNL     1      16.683   4.514  42.377  1.00  0.00    -0.000 C 
BRANCH  16  17
ATOM     17  C   UNL     1      16.403   6.010  42.636  1.00  0.00    -0.000 C 
BRANCH  17  18
ATOM     18  C   UNL     1      17.654   6.896  42.532  1.00  0.00    -0.000 C 
BRANCH  18  19
ATOM     19  C   UNL     1      17.435   8.134  41.653  1.00  0.00    -0.003 C 
ATOM     20  C   UNL     1      17.051   7.737  40.230  1.00  0.00     0.004 C 
ENDBRANCH  18  19
ENDBRANCH  17  18
ENDBRANCH  16  17
ENDBRANCH  15  16
ENDBRANCH  14  15
ENDBRANCH  13  14
ENDBRANCH  12  13
ENDBRANCH   1  12
TORSDOF 16
ENDMDL
MODEL 9
REMARK VINA RESULT:    -4.389      4.349      7.122
REMARK INTER + INTRA:          -9.988
REMARK INTER:                  -8.169
REMARK INTRA:                  -1.819
REMARK UNBOUND:                -1.494
REMARK SMILES CCCCCCCCCCCCCCCCCC(=O)[O-]
REMARK SMILES IDX 10 1 11 2 12 3 13 4 14 5 15 6 16 7 17 8 18 9 19 10 20 11
REMARK SMILES IDX 9 12 8 13 7 14 6 15 5 16 4 17 3 18 2 19 1 20
REMARK H PARENT
REMARK Flexibility Score: inf
ROOT
ATOM      1  C   UNL     1      11.305   1.623  42.081  1.00  0.00     0.000 C 
ENDROOT
BRANCH   1   2
ATOM      2  C   UNL     1      12.063   2.592  41.159  1.00  0.00     0.000 C 
BRANCH   2   3
ATOM      3  C   UNL     1      12.200   4.000  41.759  1.00  0.00     0.000 C 
BRANCH   3   4
ATOM      4  C   UNL     1      12.032   5.076  40.677  1.00  0.00     0.000 C 
BRANCH   4   5
ATOM      5  C   UNL     1      13.230   6.038  40.594  1.00  0.00     0.000 C 
BRANCH   5   6
ATOM      6  C   UNL     1      14.534   5.511  41.219  1.00  0.00     0.000 C 
BRANCH   6   7
ATOM      7  C   UNL     1      15.162   6.499  42.215  1.00  0.00     0.006 C 
BRANCH   7   8
ATOM      8  C   UNL     1      16.108   5.777  43.179  1.00  0.00     0.053 C 
BRANCH   8   9
ATOM      9  C   UNL     1      17.457   6.428  43.170  1.00  0.00     0.041 C 
ATOM     10  O   UNL     1      18.172   6.387  42.136  1.00  0.00    -0.550 OA
ATOM     11  O   UNL     1      17.945   7.030  44.322  1.00  0.00    -0.550 OA
ENDBRANCH   8   9
ENDBRANCH   7   8
ENDBRANCH   6   7
ENDBRANCH   5   6
ENDBRANCH   4   5
ENDBRANCH   3   4
ENDBRANCH   2   3
ENDBRANCH   1   2
BRANCH   1  12
ATOM     12  C   UNL     1      11.478   0.154  41.667  1.00  0.00     0.000 C 
BRANCH  12  13
ATOM     13  C   UNL     1      11.646   0.028  40.147  1.00  0.00    -0.000 C 
BRANCH  13  14
ATOM     14  C   UNL     1      12.910  -0.767  39.797  1.00  0.00    -0.000 C 
BRANCH  14  15
ATOM     15  C   UNL     1      13.688  -1.149  41.063  1.00  0.00    -0.000 C 
BRANCH  15  16
ATOM     16  C   UNL     1      15.144  -0.669  40.981  1.00  0.00    -0.000 C 
BRANCH  16  17
ATOM     17  C   UNL     1      15.249   0.872  40.984  1.00  0.00    -0.000 C 
BRANCH  17  18
ATOM     18  C   UNL     1      16.654   1.392  40.641  1.00  0.00    -0.000 C 
BRANCH  18  19
ATOM     19  C   UNL     1      17.009   2.685  41.387  1.00  0.00    -0.003 C 
ATOM     20  C   UNL     1      18.520   2.901  41.423  1.00  0.00     0.004 C 
ENDBRANCH  18  19
ENDBRANCH  17  18
ENDBRANCH  16  17
ENDBRANCH  15  16
ENDBRANCH  14  15
ENDBRANCH  13  14
ENDBRANCH  12  13
ENDBRANCH   1  12
TORSDOF 16
ENDMDL
