MODEL 1
REMARK VINA RESULT:    -4.219      0.000      0.000
REMARK INTER + INTRA:          -5.243
REMARK INTER:                  -4.959
REMARK INTRA:                  -0.284
REMARK UNBOUND:                -0.284
REMARK SMILES O=c1c(O)c(-c2ccc(O)cc2)oc2cc(O)cc(O)c12
REMARK SMILES IDX 5 1 3 2 2 3 1 4 21 5 19 6 18 7 16 8 15 9 14 10 13 11 6 12
REMARK SMILES IDX 7 13 8 14 9 15 12 16 11 17 10 18 4 20 20 22 17 24
REMARK H PARENT 10 19 4 21 20 23 17 25
REMARK Flexibility Score: inf
ROOT
ATOM      1  C   UNL     1      11.982   8.071  28.548  1.00  0.00     0.180 A 
ATOM      2  C   UNL     1      10.644   8.209  28.130  1.00  0.00     0.208 A 
ATOM      3  C   UNL     1       9.885   9.280  28.627  1.00  0.00     0.238 A 
ATOM      4  O   UNL     1       8.682   9.407  28.268  1.00  0.00    -0.285 OA
ATOM      5  C   UNL     1      10.478  10.203  29.513  1.00  0.00     0.111 A 
ATOM      6  C   UNL     1       9.784  11.311  30.057  1.00  0.00     0.134 A 
ATOM      7  C   UNL     1      10.448  12.190  30.925  1.00  0.00     0.093 A 
ATOM      8  C   UNL     1      11.787  11.984  31.260  1.00  0.00     0.123 A 
ATOM      9  C   UNL     1      12.479  10.890  30.727  1.00  0.00     0.094 A 
ATOM     10  C   UNL     1      11.834  10.001  29.861  1.00  0.00     0.146 A 
ATOM     11  O   UNL     1      12.511   8.969  29.373  1.00  0.00    -0.452 OA
ENDROOT
BRANCH   1  12
ATOM     12  C   UNL     1      12.840   6.958  28.083  1.00  0.00     0.021 A 
ATOM     13  C   UNL     1      13.552   7.090  26.879  1.00  0.00     0.016 A 
ATOM     14  C   UNL     1      14.386   6.061  26.432  1.00  0.00     0.047 A 
ATOM     15  C   UNL     1      14.531   4.895  27.189  1.00  0.00     0.115 A 
ATOM     16  C   UNL     1      13.006   5.790  28.850  1.00  0.00     0.016 A 
ATOM     17  C   UNL     1      13.842   4.762  28.402  1.00  0.00     0.047 A 
BRANCH  15  18
ATOM     18  O   UNL     1      15.365   3.877  26.732  1.00  0.00    -0.508 OA
ATOM     19  H   UNL     1      16.034   4.034  25.988  1.00  0.00     0.293 HD
ENDBRANCH  15  18
ENDBRANCH   1  12
BRANCH   2  20
ATOM     20  O   UNL     1      10.094   7.310  27.212  1.00  0.00    -0.502 OA
ATOM     21  H   UNL     1       9.131   7.367  26.908  1.00  0.00     0.293 HD
ENDBRANCH   2  20
BRANCH   6  22
ATOM     22  O   UNL     1       8.445  11.544  29.740  1.00  0.00    -0.507 OA
ATOM     23  H   UNL     1       7.735  11.629  30.458  1.00  0.00     0.293 HD
ENDBRANCH   6  22
BRANCH   8  24
ATOM     24  O   UNL     1      12.424  12.872  32.124  1.00  0.00    -0.508 OA
ATOM     25  H   UNL     1      11.905  13.410  32.808  1.00  0.00     0.293 HD
ENDBRANCH   8  24
TORSDOF 5
ENDMDL
MODEL 2
REMARK VINA RESULT:    -3.715      1.141      2.898
REMARK INTER + INTRA:          -4.651
REMARK INTER:                  -4.370
REMARK INTRA:                  -0.281
REMARK UNBOUND:                -0.284
REMARK SMILES O=c1c(O)c(-c2ccc(O)cc2)oc2cc(O)cc(O)c12
REMARK SMILES IDX 5 1 3 2 2 3 1 4 21 5 19 6 18 7 16 8 15 9 14 10 13 11 6 12
REMARK SMILES IDX 7 13 8 14 9 15 12 16 11 17 10 18 4 20 20 22 17 24
REMARK H PARENT 10 19 4 21 20 23 17 25
REMARK Flexibility Score: inf
ROOT
ATOM      1  C   UNL     1      12.540   8.306  28.979  1.00  0.00     0.180 A 
ATOM      2  C   UNL     1      13.249   9.140  29.866  1.00  0.00     0.208 A 
ATOM      3  C   UNL     1      12.592  10.244  30.432  1.00  0.00     0.238 A 
ATOM      4  O   UNL     1      13.221  11.003  31.218  1.00  0.00    -0.285 OA
ATOM      5  C   UNL     1      11.238  10.484  30.120  1.00  0.00     0.111 A 
ATOM      6  C   UNL     1      10.502  11.572  30.650  1.00  0.00     0.134 A 
ATOM      7  C   UNL     1       9.154  11.738  30.298  1.00  0.00     0.093 A 
ATOM      8  C   UNL     1       8.530  10.841  29.430  1.00  0.00     0.123 A 
ATOM      9  C   UNL     1       9.251   9.765  28.902  1.00  0.00     0.094 A 
ATOM     10  C   UNL     1      10.596   9.582  29.239  1.00  0.00     0.146 A 
ATOM     11  O   UNL     1      11.259   8.556  28.720  1.00  0.00    -0.452 OA
ENDROOT
BRANCH   1  12
ATOM     12  C   UNL     1      13.168   7.135  28.327  1.00  0.00     0.021 A 
ATOM     13  C   UNL     1      13.751   7.281  27.057  1.00  0.00     0.016 A 
ATOM     14  C   UNL     1      14.369   6.194  26.432  1.00  0.00     0.047 A 
ATOM     15  C   UNL     1      14.427   4.953  27.074  1.00  0.00     0.115 A 
ATOM     16  C   UNL     1      13.247   5.889  28.976  1.00  0.00     0.016 A 
ATOM     17  C   UNL     1      13.867   4.804  28.350  1.00  0.00     0.047 A 
BRANCH  15  18
ATOM     18  O   UNL     1      15.046   3.878  26.440  1.00  0.00    -0.508 OA
ATOM     19  H   UNL     1      16.030   3.677  26.577  1.00  0.00     0.293 HD
ENDBRANCH  15  18
ENDBRANCH   1  12
BRANCH   2  20
ATOM     20  O   UNL     1      14.575   8.851  30.197  1.00  0.00    -0.502 OA
ATOM     21  H   UNL     1      15.304   9.554  30.178  1.00  0.00     0.293 HD
ENDBRANCH   2  20
BRANCH   6  22
ATOM     22  O   UNL     1      11.099  12.485  31.521  1.00  0.00    -0.507 OA
ATOM     23  H   UNL     1      12.090  12.452  31.729  1.00  0.00     0.293 HD
ENDBRANCH   6  22
BRANCH   8  24
ATOM     24  O   UNL     1       7.190  11.028  29.097  1.00  0.00    -0.508 OA
ATOM     25  H   UNL     1       6.843  11.925  28.776  1.00  0.00     0.293 HD
ENDBRANCH   8  24
TORSDOF 5
ENDMDL
