MODEL 1
REMARK VINA RESULT:    46.959      0.000      0.000
REMARK INTER + INTRA:          51.877
REMARK INTER:                  51.077
REMARK INTRA:                   0.800
REMARK UNBOUND:                 0.800
REMARK SMILES CC1(C)CC[C@@]2(C(=O)[O-])CC[C@@]3(C)C(=CC[C@H]4[C@@]5(C)CC[C@@H](O)C(C)(C)[C@@H]5CC[C@@]43C)[C@H]2C1
REMARK SMILES IDX 6 1 5 2 10 3 32 4 4 5 11 6 14 7 33 8 2 9 12 10 15 11 1 12
REMARK SMILES IDX 3 13 13 14 30 15 16 16 17 17 29 18 31 19 18 20 28 21 27 22
REMARK SMILES IDX 20 23 19 24 24 25 21 26 22 27 25 28 26 29 7 30 8 31 9 32
REMARK SMILES IDX 23 33
REMARK H PARENT 23 34
REMARK Flexibility Score: inf
ROOT
ATOM      1  C   UNL     1       5.400 174.823  46.128  1.00  0.00     0.017 C 
ATOM      2  C   UNL     1       3.873 174.698  45.864  1.00  0.00     0.014 C 
ATOM      3  C   UNL     1       6.205 174.338  44.894  1.00  0.00     0.014 C 
ATOM      4  C   UNL     1       5.786 176.303  46.448  1.00  0.00     0.028 C 
ATOM      5  C   UNL     1       3.316 175.729  44.874  1.00  0.00     0.007 C 
ATOM      6  C   UNL     1       7.725 174.370  45.142  1.00  0.00     0.013 C 
ATOM      7  C   UNL     1       7.303 176.499  46.543  1.00  0.00    -0.064 C 
ATOM      8  C   UNL     1       5.176 177.334  45.469  1.00  0.00     0.015 C 
ATOM      9  C   UNL     1       3.647 177.187  45.275  1.00  0.00    -0.035 C 
ATOM     10  C   UNL     1       8.281 175.769  45.585  1.00  0.00    -0.006 C 
ATOM     11  C   UNL     1       7.757 177.427  47.430  1.00  0.00    -0.027 C 
ATOM     12  C   UNL     1       2.878 177.602  46.554  1.00  0.00     0.011 C 
ATOM     13  C   UNL     1       3.200 178.124  44.130  1.00  0.00     0.011 C 
ATOM     14  C   UNL     1       8.382 176.642  44.288  1.00  0.00     0.017 C 
ATOM     15  C   UNL     1       9.687 175.594  46.351  1.00  0.00    -0.020 C 
ATOM     16  C   UNL     1       9.214 177.653  47.783  1.00  0.00     0.032 C 
ATOM     17  C   UNL     1      10.196 177.025  46.764  1.00  0.00     0.006 C 
ATOM     18  C   UNL     1      10.778 174.941  45.452  1.00  0.00     0.008 C 
ATOM     19  C   UNL     1       9.458 174.677  47.617  1.00  0.00     0.012 C 
ATOM     20  C   UNL     1      11.784 177.184  47.041  1.00  0.00    -0.025 C 
ATOM     21  C   UNL     1      12.137 174.746  46.155  1.00  0.00     0.005 C 
ATOM     22  C   UNL     1      12.448 175.776  47.281  1.00  0.00     0.003 C 
ATOM     23  C   UNL     1      12.063 178.075  48.293  1.00  0.00     0.010 C 
ATOM     24  C   UNL     1      12.408 177.897  45.794  1.00  0.00     0.012 C 
ATOM     25  C   UNL     1      13.948 175.746  47.799  1.00  0.00    -0.006 C 
ATOM     26  C   UNL     1      13.539 178.120  48.721  1.00  0.00     0.033 C 
ATOM     27  C   UNL     1      14.096 176.717  49.015  1.00  0.00     0.120 C 
ATOM     28  C   UNL     1      14.294 174.308  48.284  1.00  0.00     0.014 C 
ATOM     29  C   UNL     1      15.017 176.096  46.726  1.00  0.00     0.014 C 
ENDROOT
BRANCH   1  30
ATOM     30  C   UNL     1       5.697 173.915  47.320  1.00  0.00     0.048 C 
ATOM     31  O   UNL     1       6.767 173.250  47.359  1.00  0.00    -0.550 OA
ATOM     32  O   UNL     1       4.763 173.729  48.332  1.00  0.00    -0.550 OA
ENDBRANCH   1  30
BRANCH  27  33
ATOM     33  O   UNL     1      13.441 176.190  50.148  1.00  0.00    -0.393 OA
ATOM     34  H   UNL     1      14.127 176.101  50.863  1.00  0.00     0.210 HD
ENDBRANCH  27  33
TORSDOF 2
ENDMDL
MODEL 2
REMARK VINA RESULT:    49.880      1.446      8.091
REMARK INTER + INTRA:          55.054
REMARK INTER:                  53.773
REMARK INTRA:                   1.281
REMARK UNBOUND:                 0.800
REMARK SMILES CC1(C)CC[C@@]2(C(=O)[O-])CC[C@@]3(C)C(=CC[C@H]4[C@@]5(C)CC[C@@H](O)C(C)(C)[C@@H]5CC[C@@]43C)[C@H]2C1
REMARK SMILES IDX 6 1 5 2 10 3 32 4 4 5 11 6 14 7 33 8 2 9 12 10 15 11 1 12
REMARK SMILES IDX 3 13 13 14 30 15 16 16 17 17 29 18 31 19 18 20 28 21 27 22
REMARK SMILES IDX 20 23 19 24 24 25 21 26 22 27 25 28 26 29 7 30 8 31 9 32
REMARK SMILES IDX 23 33
REMARK H PARENT 23 34
REMARK Flexibility Score: inf
ROOT
ATOM      1  C   UNL     1      11.789 177.275  47.906  1.00  0.00     0.017 C 
ATOM      2  C   UNL     1      13.253 177.385  48.416  1.00  0.00     0.014 C 
ATOM      3  C   UNL     1      11.596 178.125  46.623  1.00  0.00     0.014 C 
ATOM      4  C   UNL     1      11.420 175.788  47.603  1.00  0.00     0.028 C 
ATOM      5  C   UNL     1      14.281 176.639  47.555  1.00  0.00     0.007 C 
ATOM      6  C   UNL     1      10.138 178.108  46.129  1.00  0.00     0.013 C 
ATOM      7  C   UNL     1      10.047 175.656  46.936  1.00  0.00    -0.064 C 
ATOM      8  C   UNL     1      12.488 175.035  46.775  1.00  0.00     0.015 C 
ATOM      9  C   UNL     1      13.922 175.147  47.350  1.00  0.00    -0.035 C 
ATOM     10  C   UNL     1       9.555 176.673  45.873  1.00  0.00    -0.006 C 
ATOM     11  C   UNL     1       9.315 174.546  47.230  1.00  0.00    -0.027 C 
ATOM     12  C   UNL     1      14.056 174.355  48.674  1.00  0.00     0.011 C 
ATOM     13  C   UNL     1      14.913 174.539  46.333  1.00  0.00     0.011 C 
ATOM     14  C   UNL     1      10.125 176.198  44.493  1.00  0.00     0.017 C 
ATOM     15  C   UNL     1       7.945 176.706  45.925  1.00  0.00    -0.020 C 
ATOM     16  C   UNL     1       7.881 174.310  46.801  1.00  0.00     0.032 C 
ATOM     17  C   UNL     1       7.421 175.247  45.657  1.00  0.00     0.006 C 
ATOM     18  C   UNL     1       7.333 177.640  44.840  1.00  0.00     0.008 C 
ATOM     19  C   UNL     1       7.500 177.226  47.349  1.00  0.00     0.012 C 
ATOM     20  C   UNL     1       5.899 175.104  45.121  1.00  0.00    -0.025 C 
ATOM     21  C   UNL     1       5.792 177.707  44.865  1.00  0.00     0.005 C 
ATOM     22  C   UNL     1       5.088 176.426  45.400  1.00  0.00     0.003 C 
ATOM     23  C   UNL     1       5.155 173.919  45.815  1.00  0.00     0.010 C 
ATOM     24  C   UNL     1       5.969 174.798  43.587  1.00  0.00     0.012 C 
ATOM     25  C   UNL     1       3.519 176.393  45.159  1.00  0.00    -0.006 C 
ATOM     26  C   UNL     1       3.654 173.838  45.490  1.00  0.00     0.033 C 
ATOM     27  C   UNL     1       2.913 175.134  45.861  1.00  0.00     0.120 C 
ATOM     28  C   UNL     1       2.877 177.658  45.799  1.00  0.00     0.014 C 
ATOM     29  C   UNL     1       3.086 176.411  43.667  1.00  0.00     0.014 C 
ENDROOT
BRANCH   1  30
ATOM     30  C   UNL     1      10.911 177.835  49.025  1.00  0.00     0.048 C 
ATOM     31  O   UNL     1       9.705 178.124  48.800  1.00  0.00    -0.550 OA
ATOM     32  O   UNL     1      11.441 178.124  50.277  1.00  0.00    -0.550 OA
ENDBRANCH   1  30
BRANCH  27  33
ATOM     33  O   UNL     1       2.938 175.292  47.263  1.00  0.00    -0.393 OA
ATOM     34  H   UNL     1       3.893 175.277  47.539  1.00  0.00     0.210 HD
ENDBRANCH  27  33
TORSDOF 2
ENDMDL
