MODEL 1
REMARK VINA RESULT:    -5.215      0.000      0.000
REMARK INTER + INTRA:         -15.932
REMARK INTER:                 -13.141
REMARK INTRA:                  -2.790
REMARK UNBOUND:                -2.790
REMARK SMILES CCCCCCCCCCCCCCCCCCCCCCCCCCCC(=O)[O-]
REMARK SMILES IDX 15 1 16 2 17 3 18 4 19 5 20 6 21 7 22 8 23 9 24 10 25 11
REMARK SMILES IDX 26 12 27 13 28 14 29 15 30 16 14 17 13 18 12 19 11 20 10 21
REMARK SMILES IDX 9 22 8 23 7 24 6 25 5 26 4 27 3 28 2 29 1 30
REMARK H PARENT
REMARK Flexibility Score: inf
ROOT
ATOM      1  C   UNL     1      -0.767 -40.102 -20.801  1.00  0.00     0.000 C 
ENDROOT
BRANCH   1   2
ATOM      2  C   UNL     1      -1.724 -40.656 -19.725  1.00  0.00     0.000 C 
BRANCH   2   3
ATOM      3  C   UNL     1      -1.228 -41.916 -18.988  1.00  0.00     0.000 C 
BRANCH   3   4
ATOM      4  C   UNL     1       0.251 -41.878 -18.563  1.00  0.00     0.000 C 
BRANCH   4   5
ATOM      5  C   UNL     1       0.430 -41.527 -17.077  1.00  0.00     0.000 C 
BRANCH   5   6
ATOM      6  C   UNL     1      -0.771 -41.951 -16.212  1.00  0.00     0.000 C 
BRANCH   6   7
ATOM      7  C   UNL     1      -0.441 -42.937 -15.073  1.00  0.00     0.000 C 
BRANCH   7   8
ATOM      8  C   UNL     1      -0.963 -44.373 -15.268  1.00  0.00     0.000 C 
BRANCH   8   9
ATOM      9  C   UNL     1      -1.931 -44.541 -16.458  1.00  0.00     0.000 C 
BRANCH   9  10
ATOM     10  C   UNL     1      -1.327 -45.379 -17.596  1.00  0.00     0.000 C 
BRANCH  10  11
ATOM     11  C   UNL     1      -0.012 -46.043 -17.165  1.00  0.00     0.000 C 
BRANCH  11  12
ATOM     12  C   UNL     1       1.222 -45.364 -17.783  1.00  0.00     0.006 C 
BRANCH  12  13
ATOM     13  C   UNL     1       2.422 -45.318 -16.825  1.00  0.00     0.053 C 
BRANCH  13  14
ATOM     14  C   UNL     1       3.045 -43.955 -16.789  1.00  0.00     0.041 C 
ATOM     15  O   UNL     1       3.218 -43.363 -15.690  1.00  0.00    -0.550 OA
ATOM     16  O   UNL     1       3.494 -43.364 -17.965  1.00  0.00    -0.550 OA
ENDBRANCH  13  14
ENDBRANCH  12  13
ENDBRANCH  11  12
ENDBRANCH  10  11
ENDBRANCH   9  10
ENDBRANCH   8   9
ENDBRANCH   7   8
ENDBRANCH   6   7
ENDBRANCH   5   6
ENDBRANCH   4   5
ENDBRANCH   3   4
ENDBRANCH   2   3
ENDBRANCH   1   2
BRANCH   1  17
ATOM     17  C   UNL     1      -1.319 -38.915 -21.612  1.00  0.00     0.000 C 
BRANCH  17  18
ATOM     18  C   UNL     1      -0.217 -38.140 -22.354  1.00  0.00     0.000 C 
BRANCH  18  19
ATOM     19  C   UNL     1       0.184 -36.848 -21.625  1.00  0.00     0.000 C 
BRANCH  19  20
ATOM     20  C   UNL     1       1.711 -36.680 -21.528  1.00  0.00     0.000 C 
BRANCH  20  21
ATOM     21  C   UNL     1       2.417 -36.918 -22.871  1.00  0.00     0.000 C 
BRANCH  21  22
ATOM     22  C   UNL     1       3.539 -35.899 -23.137  1.00  0.00    -0.000 C 
BRANCH  22  23
ATOM     23  C   UNL     1       4.879 -36.568 -23.498  1.00  0.00    -0.000 C 
BRANCH  23  24
ATOM     24  C   UNL     1       6.135 -35.763 -23.114  1.00  0.00    -0.000 C 
BRANCH  24  25
ATOM     25  C   UNL     1       6.591 -36.023 -21.667  1.00  0.00    -0.000 C 
BRANCH  25  26
ATOM     26  C   UNL     1       6.444 -37.496 -21.255  1.00  0.00    -0.000 C 
BRANCH  26  27
ATOM     27  C   UNL     1       6.505 -37.698 -19.732  1.00  0.00    -0.000 C 
BRANCH  27  28
ATOM     28  C   UNL     1       6.839 -39.157 -19.383  1.00  0.00    -0.000 C 
BRANCH  28  29
ATOM     29  C   UNL     1       8.199 -39.302 -18.681  1.00  0.00    -0.003 C 
ATOM     30  C   UNL     1       8.069 -39.710 -17.213  1.00  0.00     0.004 C 
ENDBRANCH  28  29
ENDBRANCH  27  28
ENDBRANCH  26  27
ENDBRANCH  25  26
ENDBRANCH  24  25
ENDBRANCH  23  24
ENDBRANCH  22  23
ENDBRANCH  21  22
ENDBRANCH  20  21
ENDBRANCH  19  20
ENDBRANCH  18  19
ENDBRANCH  17  18
ENDBRANCH   1  17
TORSDOF 26
ENDMDL
MODEL 2
REMARK VINA RESULT:    -4.941      2.505      3.394
REMARK INTER + INTRA:         -15.242
REMARK INTER:                 -13.111
REMARK INTRA:                  -2.131
REMARK UNBOUND:                -2.790
REMARK SMILES CCCCCCCCCCCCCCCCCCCCCCCCCCCC(=O)[O-]
REMARK SMILES IDX 15 1 16 2 17 3 18 4 19 5 20 6 21 7 22 8 23 9 24 10 25 11
REMARK SMILES IDX 26 12 27 13 28 14 29 15 30 16 14 17 13 18 12 19 11 20 10 21
REMARK SMILES IDX 9 22 8 23 7 24 6 25 5 26 4 27 3 28 2 29 1 30
REMARK H PARENT
REMARK Flexibility Score: inf
ROOT
ATOM      1  C   UNL     1      -0.634 -39.595 -21.108  1.00  0.00     0.000 C 
ENDROOT
BRANCH   1   2
ATOM      2  C   UNL     1      -1.951 -39.962 -20.395  1.00  0.00     0.000 C 
BRANCH   2   3
ATOM      3  C   UNL     1      -1.804 -40.907 -19.184  1.00  0.00     0.000 C 
BRANCH   3   4
ATOM      4  C   UNL     1      -0.401 -41.514 -19.004  1.00  0.00     0.000 C 
BRANCH   4   5
ATOM      5  C   UNL     1       0.097 -41.431 -17.551  1.00  0.00     0.000 C 
BRANCH   5   6
ATOM      6  C   UNL     1      -0.996 -41.774 -16.522  1.00  0.00     0.000 C 
BRANCH   6   7
ATOM      7  C   UNL     1      -0.545 -42.700 -15.375  1.00  0.00     0.000 C 
BRANCH   7   8
ATOM      8  C   UNL     1      -1.013 -44.164 -15.482  1.00  0.00     0.000 C 
BRANCH   8   9
ATOM      9  C   UNL     1      -1.964 -44.442 -16.665  1.00  0.00     0.000 C 
BRANCH   9  10
ATOM     10  C   UNL     1      -1.232 -45.014 -17.889  1.00  0.00     0.000 C 
BRANCH  10  11
ATOM     11  C   UNL     1      -0.406 -46.253 -17.517  1.00  0.00     0.000 C 
BRANCH  11  12
ATOM     12  C   UNL     1       1.107 -46.014 -17.645  1.00  0.00     0.006 C 
BRANCH  12  13
ATOM     13  C   UNL     1       1.448 -44.635 -18.228  1.00  0.00     0.053 C 
BRANCH  13  14
ATOM     14  C   UNL     1       2.540 -43.963 -17.450  1.00  0.00     0.041 C 
ATOM     15  O   UNL     1       3.222 -43.043 -17.976  1.00  0.00    -0.550 OA
ATOM     16  O   UNL     1       2.764 -44.311 -16.123  1.00  0.00    -0.550 OA
ENDBRANCH  13  14
ENDBRANCH  12  13
ENDBRANCH  11  12
ENDBRANCH  10  11
ENDBRANCH   9  10
ENDBRANCH   8   9
ENDBRANCH   7   8
ENDBRANCH   6   7
ENDBRANCH   5   6
ENDBRANCH   4   5
ENDBRANCH   3   4
ENDBRANCH   2   3
ENDBRANCH   1   2
BRANCH   1  17
ATOM     17  C   UNL     1      -0.623 -38.208 -21.776  1.00  0.00     0.000 C 
BRANCH  17  18
ATOM     18  C   UNL     1       0.794 -37.622 -21.902  1.00  0.00     0.000 C 
BRANCH  18  19
ATOM     19  C   UNL     1       1.189 -37.352 -23.363  1.00  0.00     0.000 C 
BRANCH  19  20
ATOM     20  C   UNL     1       2.715 -37.362 -23.569  1.00  0.00     0.000 C 
BRANCH  20  21
ATOM     21  C   UNL     1       3.410 -36.181 -22.875  1.00  0.00     0.000 C 
BRANCH  21  22
ATOM     22  C   UNL     1       4.901 -36.450 -22.604  1.00  0.00    -0.000 C 
BRANCH  22  23
ATOM     23  C   UNL     1       5.701 -35.162 -22.333  1.00  0.00    -0.000 C 
BRANCH  23  24
ATOM     24  C   UNL     1       6.310 -35.055 -20.922  1.00  0.00    -0.000 C 
BRANCH  24  25
ATOM     25  C   UNL     1       7.571 -34.175 -20.882  1.00  0.00    -0.000 C 
BRANCH  25  26
ATOM     26  C   UNL     1       7.613 -33.256 -19.651  1.00  0.00    -0.000 C 
BRANCH  26  27
ATOM     27  C   UNL     1       6.310 -32.465 -19.451  1.00  0.00    -0.000 C 
BRANCH  27  28
ATOM     28  C   UNL     1       6.261 -31.829 -18.053  1.00  0.00    -0.000 C 
BRANCH  28  29
ATOM     29  C   UNL     1       7.044 -30.509 -17.975  1.00  0.00    -0.003 C 
ATOM     30  C   UNL     1       6.208 -29.352 -17.428  1.00  0.00     0.004 C 
ENDBRANCH  28  29
ENDBRANCH  27  28
ENDBRANCH  26  27
ENDBRANCH  25  26
ENDBRANCH  24  25
ENDBRANCH  23  24
ENDBRANCH  22  23
ENDBRANCH  21  22
ENDBRANCH  20  21
ENDBRANCH  19  20
ENDBRANCH  18  19
ENDBRANCH  17  18
ENDBRANCH   1  17
TORSDOF 26
ENDMDL
MODEL 3
REMARK VINA RESULT:    -4.928      5.711     12.070
REMARK INTER + INTRA:         -15.210
REMARK INTER:                 -13.320
REMARK INTRA:                  -1.890
REMARK UNBOUND:                -2.790
REMARK SMILES CCCCCCCCCCCCCCCCCCCCCCCCCCCC(=O)[O-]
REMARK SMILES IDX 15 1 16 2 17 3 18 4 19 5 20 6 21 7 22 8 23 9 24 10 25 11
REMARK SMILES IDX 26 12 27 13 28 14 29 15 30 16 14 17 13 18 12 19 11 20 10 21
REMARK SMILES IDX 9 22 8 23 7 24 6 25 5 26 4 27 3 28 2 29 1 30
REMARK H PARENT
REMARK Flexibility Score: inf
ROOT
ATOM      1  C   UNL     1       6.653 -38.843 -19.481  1.00  0.00     0.000 C 
ENDROOT
BRANCH   1   2
ATOM      2  C   UNL     1       6.842 -37.674 -20.470  1.00  0.00     0.000 C 
BRANCH   2   3
ATOM      3  C   UNL     1       5.546 -36.953 -20.893  1.00  0.00     0.000 C 
BRANCH   3   4
ATOM      4  C   UNL     1       5.654 -35.419 -20.972  1.00  0.00     0.000 C 
BRANCH   4   5
ATOM      5  C   UNL     1       7.098 -34.939 -21.190  1.00  0.00     0.000 C 
BRANCH   5   6
ATOM      6  C   UNL     1       7.527 -33.852 -20.187  1.00  0.00     0.000 C 
BRANCH   6   7
ATOM      7  C   UNL     1       6.462 -32.777 -19.894  1.00  0.00     0.000 C 
BRANCH   7   8
ATOM      8  C   UNL     1       6.863 -31.711 -18.856  1.00  0.00     0.000 C 
BRANCH   8   9
ATOM      9  C   UNL     1       5.885 -31.581 -17.669  1.00  0.00     0.000 C 
BRANCH   9  10
ATOM     10  C   UNL     1       4.587 -30.854 -18.052  1.00  0.00     0.000 C 
BRANCH  10  11
ATOM     11  C   UNL     1       4.841 -29.367 -18.339  1.00  0.00     0.000 C 
BRANCH  11  12
ATOM     12  C   UNL     1       4.947 -28.528 -17.056  1.00  0.00     0.006 C 
BRANCH  12  13
ATOM     13  C   UNL     1       6.139 -27.558 -17.072  1.00  0.00     0.053 C 
BRANCH  13  14
ATOM     14  C   UNL     1       7.430 -28.268 -16.795  1.00  0.00     0.041 C 
ATOM     15  O   UNL     1       7.698 -28.674 -15.632  1.00  0.00    -0.550 OA
ATOM     16  O   UNL     1       8.312 -28.537 -17.836  1.00  0.00    -0.550 OA
ENDBRANCH  13  14
ENDBRANCH  12  13
ENDBRANCH  11  12
ENDBRANCH  10  11
ENDBRANCH   9  10
ENDBRANCH   8   9
ENDBRANCH   7   8
ENDBRANCH   6   7
ENDBRANCH   5   6
ENDBRANCH   4   5
ENDBRANCH   3   4
ENDBRANCH   2   3
ENDBRANCH   1   2
BRANCH   1  17
ATOM     17  C   UNL     1       7.949 -39.351 -18.823  1.00  0.00     0.000 C 
BRANCH  17  18
ATOM     18  C   UNL     1       7.792 -39.593 -17.312  1.00  0.00     0.000 C 
BRANCH  18  19
ATOM     19  C   UNL     1       6.426 -39.128 -16.783  1.00  0.00     0.000 C 
BRANCH  19  20
ATOM     20  C   UNL     1       6.115 -39.695 -15.385  1.00  0.00     0.000 C 
BRANCH  20  21
ATOM     21  C   UNL     1       4.614 -39.928 -15.164  1.00  0.00     0.000 C 
BRANCH  21  22
ATOM     22  C   UNL     1       4.253 -41.423 -15.091  1.00  0.00    -0.000 C 
BRANCH  22  23
ATOM     23  C   UNL     1       3.220 -41.840 -16.154  1.00  0.00    -0.000 C 
BRANCH  23  24
ATOM     24  C   UNL     1       3.240 -43.333 -16.534  1.00  0.00    -0.000 C 
BRANCH  24  25
ATOM     25  C   UNL     1       2.018 -44.101 -16.000  1.00  0.00    -0.000 C 
BRANCH  25  26
ATOM     26  C   UNL     1       1.709 -45.366 -16.816  1.00  0.00    -0.000 C 
BRANCH  26  27
ATOM     27  C   UNL     1       0.707 -45.111 -17.955  1.00  0.00    -0.000 C 
BRANCH  27  28
ATOM     28  C   UNL     1      -0.579 -44.464 -17.421  1.00  0.00    -0.000 C 
BRANCH  28  29
ATOM     29  C   UNL     1      -0.896 -43.124 -18.105  1.00  0.00    -0.003 C 
ATOM     30  C   UNL     1      -0.787 -41.931 -17.155  1.00  0.00     0.004 C 
ENDBRANCH  28  29
ENDBRANCH  27  28
ENDBRANCH  26  27
ENDBRANCH  25  26
ENDBRANCH  24  25
ENDBRANCH  23  24
ENDBRANCH  22  23
ENDBRANCH  21  22
ENDBRANCH  20  21
ENDBRANCH  19  20
ENDBRANCH  18  19
ENDBRANCH  17  18
ENDBRANCH   1  17
TORSDOF 26
ENDMDL
MODEL 4
REMARK VINA RESULT:    -4.902     13.298     16.763
REMARK INTER + INTRA:         -15.143
REMARK INTER:                  -9.456
REMARK INTRA:                  -5.686
REMARK UNBOUND:                -2.790
REMARK SMILES CCCCCCCCCCCCCCCCCCCCCCCCCCCC(=O)[O-]
REMARK SMILES IDX 15 1 16 2 17 3 18 4 19 5 20 6 21 7 22 8 23 9 24 10 25 11
REMARK SMILES IDX 26 12 27 13 28 14 29 15 30 16 14 17 13 18 12 19 11 20 10 21
REMARK SMILES IDX 9 22 8 23 7 24 6 25 5 26 4 27 3 28 2 29 1 30
REMARK H PARENT
REMARK Flexibility Score: inf
ROOT
ATOM      1  C   UNL     1      -3.761 -33.831 -27.935  1.00  0.00     0.000 C 
ENDROOT
BRANCH   1   2
ATOM      2  C   UNL     1      -4.533 -33.958 -29.264  1.00  0.00     0.000 C 
BRANCH   2   3
ATOM      3  C   UNL     1      -5.530 -32.819 -29.559  1.00  0.00     0.000 C 
BRANCH   3   4
ATOM      4  C   UNL     1      -5.179 -31.951 -30.781  1.00  0.00     0.000 C 
BRANCH   4   5
ATOM      5  C   UNL     1      -6.191 -32.110 -31.928  1.00  0.00     0.000 C 
BRANCH   5   6
ATOM      6  C   UNL     1      -5.590 -32.801 -33.167  1.00  0.00     0.000 C 
BRANCH   6   7
ATOM      7  C   UNL     1      -4.375 -33.707 -32.884  1.00  0.00     0.000 C 
BRANCH   7   8
ATOM      8  C   UNL     1      -3.284 -33.711 -33.971  1.00  0.00     0.000 C 
BRANCH   8   9
ATOM      9  C   UNL     1      -1.841 -33.727 -33.423  1.00  0.00     0.000 C 
BRANCH   9  10
ATOM     10  C   UNL     1      -1.793 -33.659 -31.889  1.00  0.00     0.000 C 
BRANCH  10  11
ATOM     11  C   UNL     1      -1.375 -32.263 -31.404  1.00  0.00     0.000 C 
BRANCH  11  12
ATOM     12  C   UNL     1      -0.028 -32.274 -30.665  1.00  0.00     0.006 C 
BRANCH  12  13
ATOM     13  C   UNL     1       1.175 -32.400 -31.613  1.00  0.00     0.053 C 
BRANCH  13  14
ATOM     14  C   UNL     1       2.468 -32.457 -30.858  1.00  0.00     0.041 C 
ATOM     15  O   UNL     1       2.632 -33.302 -29.936  1.00  0.00    -0.550 OA
ATOM     16  O   UNL     1       3.518 -31.617 -31.213  1.00  0.00    -0.550 OA
ENDBRANCH  13  14
ENDBRANCH  12  13
ENDBRANCH  11  12
ENDBRANCH  10  11
ENDBRANCH   9  10
ENDBRANCH   8   9
ENDBRANCH   7   8
ENDBRANCH   6   7
ENDBRANCH   5   6
ENDBRANCH   4   5
ENDBRANCH   3   4
ENDBRANCH   2   3
ENDBRANCH   1   2
BRANCH   1  17
ATOM     17  C   UNL     1      -2.541 -32.892 -27.981  1.00  0.00     0.000 C 
BRANCH  17  18
ATOM     18  C   UNL     1      -2.574 -31.822 -26.876  1.00  0.00     0.000 C 
BRANCH  18  19
ATOM     19  C   UNL     1      -3.576 -30.696 -27.180  1.00  0.00     0.000 C 
BRANCH  19  20
ATOM     20  C   UNL     1      -2.895 -29.450 -27.773  1.00  0.00     0.000 C 
BRANCH  20  21
ATOM     21  C   UNL     1      -3.547 -28.991 -29.086  1.00  0.00     0.000 C 
BRANCH  21  22
ATOM     22  C   UNL     1      -2.561 -28.999 -30.268  1.00  0.00    -0.000 C 
BRANCH  22  23
ATOM     23  C   UNL     1      -2.316 -27.594 -30.851  1.00  0.00    -0.000 C 
BRANCH  23  24
ATOM     24  C   UNL     1      -1.089 -27.475 -31.775  1.00  0.00    -0.000 C 
BRANCH  24  25
ATOM     25  C   UNL     1      -0.444 -28.836 -32.088  1.00  0.00    -0.000 C 
BRANCH  25  26
ATOM     26  C   UNL     1      -0.316 -29.099 -33.597  1.00  0.00    -0.000 C 
BRANCH  26  27
ATOM     27  C   UNL     1      -1.649 -28.934 -34.346  1.00  0.00    -0.000 C 
BRANCH  27  28
ATOM     28  C   UNL     1      -2.610 -30.088 -34.020  1.00  0.00    -0.000 C 
BRANCH  28  29
ATOM     29  C   UNL     1      -4.006 -29.597 -33.604  1.00  0.00    -0.003 C 
ATOM     30  C   UNL     1      -4.247 -28.127 -33.951  1.00  0.00     0.004 C 
ENDBRANCH  28  29
ENDBRANCH  27  28
ENDBRANCH  26  27
ENDBRANCH  25  26
ENDBRANCH  24  25
ENDBRANCH  23  24
ENDBRANCH  22  23
ENDBRANCH  21  22
ENDBRANCH  20  21
ENDBRANCH  19  20
ENDBRANCH  18  19
ENDBRANCH  17  18
ENDBRANCH   1  17
TORSDOF 26
ENDMDL
MODEL 5
REMARK VINA RESULT:    -4.892     13.382     16.206
REMARK INTER + INTRA:         -15.118
REMARK INTER:                  -9.364
REMARK INTRA:                  -5.755
REMARK UNBOUND:                -2.790
REMARK SMILES CCCCCCCCCCCCCCCCCCCCCCCCCCCC(=O)[O-]
REMARK SMILES IDX 15 1 16 2 17 3 18 4 19 5 20 6 21 7 22 8 23 9 24 10 25 11
REMARK SMILES IDX 26 12 27 13 28 14 29 15 30 16 14 17 13 18 12 19 11 20 10 21
REMARK SMILES IDX 9 22 8 23 7 24 6 25 5 26 4 27 3 28 2 29 1 30
REMARK H PARENT
REMARK Flexibility Score: inf
ROOT
ATOM      1  C   UNL     1      -3.907 -32.919 -27.455  1.00  0.00     0.000 C 
ENDROOT
BRANCH   1   2
ATOM      2  C   UNL     1      -3.687 -33.985 -28.548  1.00  0.00     0.000 C 
BRANCH   2   3
ATOM      3  C   UNL     1      -4.062 -33.547 -29.979  1.00  0.00     0.000 C 
BRANCH   3   4
ATOM      4  C   UNL     1      -5.515 -33.069 -30.150  1.00  0.00     0.000 C 
BRANCH   4   5
ATOM      5  C   UNL     1      -5.605 -31.665 -30.771  1.00  0.00     0.000 C 
BRANCH   5   6
ATOM      6  C   UNL     1      -4.225 -31.053 -31.075  1.00  0.00     0.000 C 
BRANCH   6   7
ATOM      7  C   UNL     1      -3.917 -30.845 -32.571  1.00  0.00     0.000 C 
BRANCH   7   8
ATOM      8  C   UNL     1      -3.992 -32.112 -33.445  1.00  0.00     0.000 C 
BRANCH   8   9
ATOM      9  C   UNL     1      -2.670 -32.473 -34.155  1.00  0.00     0.000 C 
BRANCH   9  10
ATOM     10  C   UNL     1      -2.277 -33.945 -33.956  1.00  0.00     0.000 C 
BRANCH  10  11
ATOM     11  C   UNL     1      -3.516 -34.844 -33.840  1.00  0.00     0.000 C 
BRANCH  11  12
ATOM     12  C   UNL     1      -3.381 -35.893 -32.725  1.00  0.00     0.006 C 
BRANCH  12  13
ATOM     13  C   UNL     1      -2.092 -35.733 -31.905  1.00  0.00     0.053 C 
BRANCH  13  14
ATOM     14  C   UNL     1      -2.011 -36.746 -30.803  1.00  0.00     0.041 C 
ATOM     15  O   UNL     1      -3.034 -37.399 -30.461  1.00  0.00    -0.550 OA
ATOM     16  O   UNL     1      -0.791 -37.016 -30.194  1.00  0.00    -0.550 OA
ENDBRANCH  13  14
ENDBRANCH  12  13
ENDBRANCH  11  12
ENDBRANCH  10  11
ENDBRANCH   9  10
ENDBRANCH   8   9
ENDBRANCH   7   8
ENDBRANCH   6   7
ENDBRANCH   5   6
ENDBRANCH   4   5
ENDBRANCH   3   4
ENDBRANCH   2   3
ENDBRANCH   1   2
BRANCH   1  17
ATOM     17  C   UNL     1      -2.655 -32.105 -27.081  1.00  0.00     0.000 C 
BRANCH  17  18
ATOM     18  C   UNL     1      -2.861 -30.589 -27.246  1.00  0.00     0.000 C 
BRANCH  18  19
ATOM     19  C   UNL     1      -4.343 -30.213 -27.401  1.00  0.00     0.000 C 
BRANCH  19  20
ATOM     20  C   UNL     1      -4.534 -28.877 -28.141  1.00  0.00     0.000 C 
BRANCH  20  21
ATOM     21  C   UNL     1      -3.227 -28.081 -28.268  1.00  0.00     0.000 C 
BRANCH  21  22
ATOM     22  C   UNL     1      -3.193 -27.197 -29.528  1.00  0.00    -0.000 C 
BRANCH  22  23
ATOM     23  C   UNL     1      -2.406 -27.838 -30.686  1.00  0.00    -0.000 C 
BRANCH  23  24
ATOM     24  C   UNL     1      -2.778 -27.325 -32.091  1.00  0.00    -0.000 C 
BRANCH  24  25
ATOM     25  C   UNL     1      -1.912 -27.946 -33.201  1.00  0.00    -0.000 C 
BRANCH  25  26
ATOM     26  C   UNL     1      -0.599 -28.539 -32.666  1.00  0.00    -0.000 C 
BRANCH  26  27
ATOM     27  C   UNL     1      -0.078 -29.705 -33.523  1.00  0.00    -0.000 C 
BRANCH  27  28
ATOM     28  C   UNL     1       0.257 -30.923 -32.650  1.00  0.00    -0.000 C 
BRANCH  28  29
ATOM     29  C   UNL     1      -0.507 -30.924 -31.316  1.00  0.00    -0.003 C 
ATOM     30  C   UNL     1      -0.605 -32.314 -30.688  1.00  0.00     0.004 C 
ENDBRANCH  28  29
ENDBRANCH  27  28
ENDBRANCH  26  27
ENDBRANCH  25  26
ENDBRANCH  24  25
ENDBRANCH  23  24
ENDBRANCH  22  23
ENDBRANCH  21  22
ENDBRANCH  20  21
ENDBRANCH  19  20
ENDBRANCH  18  19
ENDBRANCH  17  18
ENDBRANCH   1  17
TORSDOF 26
ENDMDL
MODEL 6
REMARK VINA RESULT:    -4.864     12.709     16.736
REMARK INTER + INTRA:         -15.048
REMARK INTER:                  -9.389
REMARK INTRA:                  -5.659
REMARK UNBOUND:                -2.790
REMARK SMILES CCCCCCCCCCCCCCCCCCCCCCCCCCCC(=O)[O-]
REMARK SMILES IDX 15 1 16 2 17 3 18 4 19 5 20 6 21 7 22 8 23 9 24 10 25 11
REMARK SMILES IDX 26 12 27 13 28 14 29 15 30 16 14 17 13 18 12 19 11 20 10 21
REMARK SMILES IDX 9 22 8 23 7 24 6 25 5 26 4 27 3 28 2 29 1 30
REMARK H PARENT
REMARK Flexibility Score: inf
ROOT
ATOM      1  C   UNL     1      -4.807 -33.660 -29.315  1.00  0.00     0.000 C 
ENDROOT
BRANCH   1   2
ATOM      2  C   UNL     1      -4.083 -33.774 -27.958  1.00  0.00     0.000 C 
BRANCH   2   3
ATOM      3  C   UNL     1      -2.850 -32.862 -27.790  1.00  0.00     0.000 C 
BRANCH   3   4
ATOM      4  C   UNL     1      -3.029 -31.711 -26.783  1.00  0.00     0.000 C 
BRANCH   4   5
ATOM      5  C   UNL     1      -2.935 -30.327 -27.445  1.00  0.00     0.000 C 
BRANCH   5   6
ATOM      6  C   UNL     1      -4.128 -30.022 -28.371  1.00  0.00     0.000 C 
BRANCH   6   7
ATOM      7  C   UNL     1      -3.767 -29.817 -29.855  1.00  0.00     0.000 C 
BRANCH   7   8
ATOM      8  C   UNL     1      -2.296 -30.090 -30.224  1.00  0.00     0.000 C 
BRANCH   8   9
ATOM      9  C   UNL     1      -2.061 -31.437 -30.939  1.00  0.00     0.000 C 
BRANCH   9  10
ATOM     10  C   UNL     1      -0.642 -31.983 -30.716  1.00  0.00     0.000 C 
BRANCH  10  11
ATOM     11  C   UNL     1       0.364 -31.338 -31.679  1.00  0.00     0.000 C 
BRANCH  11  12
ATOM     12  C   UNL     1      -0.219 -31.124 -33.085  1.00  0.00     0.006 C 
BRANCH  12  13
ATOM     13  C   UNL     1       0.169 -29.768 -33.694  1.00  0.00     0.053 C 
BRANCH  13  14
ATOM     14  C   UNL     1      -0.740 -28.673 -33.224  1.00  0.00     0.041 C 
ATOM     15  O   UNL     1      -0.414 -27.953 -32.242  1.00  0.00    -0.550 OA
ATOM     16  O   UNL     1      -1.919 -28.405 -33.909  1.00  0.00    -0.550 OA
ENDBRANCH  13  14
ENDBRANCH  12  13
ENDBRANCH  11  12
ENDBRANCH  10  11
ENDBRANCH   9  10
ENDBRANCH   8   9
ENDBRANCH   7   8
ENDBRANCH   6   7
ENDBRANCH   5   6
ENDBRANCH   4   5
ENDBRANCH   3   4
ENDBRANCH   2   3
ENDBRANCH   1   2
BRANCH   1  17
ATOM     17  C   UNL     1      -6.127 -32.867 -29.281  1.00  0.00     0.000 C 
BRANCH  17  18
ATOM     18  C   UNL     1      -6.682 -32.578 -30.687  1.00  0.00     0.000 C 
BRANCH  18  19
ATOM     19  C   UNL     1      -5.618 -32.743 -31.783  1.00  0.00     0.000 C 
BRANCH  19  20
ATOM     20  C   UNL     1      -6.202 -32.577 -33.197  1.00  0.00     0.000 C 
BRANCH  20  21
ATOM     21  C   UNL     1      -5.185 -32.909 -34.298  1.00  0.00     0.000 C 
BRANCH  21  22
ATOM     22  C   UNL     1      -3.747 -32.520 -33.911  1.00  0.00    -0.000 C 
BRANCH  22  23
ATOM     23  C   UNL     1      -2.684 -33.225 -34.774  1.00  0.00    -0.000 C 
BRANCH  23  24
ATOM     24  C   UNL     1      -1.916 -34.359 -34.069  1.00  0.00    -0.000 C 
BRANCH  24  25
ATOM     25  C   UNL     1      -2.707 -35.678 -34.028  1.00  0.00    -0.000 C 
BRANCH  25  26
ATOM     26  C   UNL     1      -3.378 -35.925 -32.667  1.00  0.00    -0.000 C 
BRANCH  26  27
ATOM     27  C   UNL     1      -2.663 -35.208 -31.510  1.00  0.00    -0.000 C 
BRANCH  27  28
ATOM     28  C   UNL     1      -1.611 -36.121 -30.862  1.00  0.00    -0.000 C 
BRANCH  28  29
ATOM     29  C   UNL     1      -0.961 -35.489 -29.622  1.00  0.00    -0.003 C 
ATOM     30  C   UNL     1      -1.364 -36.182 -28.320  1.00  0.00     0.004 C 
ENDBRANCH  28  29
ENDBRANCH  27  28
ENDBRANCH  26  27
ENDBRANCH  25  26
ENDBRANCH  24  25
ENDBRANCH  23  24
ENDBRANCH  22  23
ENDBRANCH  21  22
ENDBRANCH  20  21
ENDBRANCH  19  20
ENDBRANCH  18  19
ENDBRANCH  17  18
ENDBRANCH   1  17
TORSDOF 26
ENDMDL
MODEL 7
REMARK VINA RESULT:    -4.862     13.516     16.892
REMARK INTER + INTRA:         -15.042
REMARK INTER:                  -8.959
REMARK INTRA:                  -6.084
REMARK UNBOUND:                -2.790
REMARK SMILES CCCCCCCCCCCCCCCCCCCCCCCCCCCC(=O)[O-]
REMARK SMILES IDX 15 1 16 2 17 3 18 4 19 5 20 6 21 7 22 8 23 9 24 10 25 11
REMARK SMILES IDX 26 12 27 13 28 14 29 15 30 16 14 17 13 18 12 19 11 20 10 21
REMARK SMILES IDX 9 22 8 23 7 24 6 25 5 26 4 27 3 28 2 29 1 30
REMARK H PARENT
REMARK Flexibility Score: inf
ROOT
ATOM      1  C   UNL     1      -2.992 -30.535 -27.251  1.00  0.00     0.000 C 
ENDROOT
BRANCH   1   2
ATOM      2  C   UNL     1      -4.392 -29.983 -27.593  1.00  0.00     0.000 C 
BRANCH   2   3
ATOM      3  C   UNL     1      -5.493 -31.047 -27.779  1.00  0.00     0.000 C 
BRANCH   3   4
ATOM      4  C   UNL     1      -6.130 -31.082 -29.180  1.00  0.00     0.000 C 
BRANCH   4   5
ATOM      5  C   UNL     1      -6.594 -32.491 -29.583  1.00  0.00     0.000 C 
BRANCH   5   6
ATOM      6  C   UNL     1      -6.603 -32.707 -31.108  1.00  0.00     0.000 C 
BRANCH   6   7
ATOM      7  C   UNL     1      -6.508 -31.419 -31.950  1.00  0.00     0.000 C 
BRANCH   7   8
ATOM      8  C   UNL     1      -6.137 -31.621 -33.432  1.00  0.00     0.000 C 
BRANCH   8   9
ATOM      9  C   UNL     1      -4.660 -31.997 -33.671  1.00  0.00     0.000 C 
BRANCH   9  10
ATOM     10  C   UNL     1      -4.489 -33.453 -34.130  1.00  0.00     0.000 C 
BRANCH  10  11
ATOM     11  C   UNL     1      -3.027 -33.908 -34.016  1.00  0.00     0.000 C 
BRANCH  11  12
ATOM     12  C   UNL     1      -2.892 -35.433 -33.875  1.00  0.00     0.006 C 
BRANCH  12  13
ATOM     13  C   UNL     1      -3.341 -35.949 -32.499  1.00  0.00     0.053 C 
BRANCH  13  14
ATOM     14  C   UNL     1      -2.168 -36.300 -31.633  1.00  0.00     0.041 C 
ATOM     15  O   UNL     1      -2.346 -36.707 -30.454  1.00  0.00    -0.550 OA
ATOM     16  O   UNL     1      -0.879 -36.236 -32.150  1.00  0.00    -0.550 OA
ENDBRANCH  13  14
ENDBRANCH  12  13
ENDBRANCH  11  12
ENDBRANCH  10  11
ENDBRANCH   9  10
ENDBRANCH   8   9
ENDBRANCH   7   8
ENDBRANCH   6   7
ENDBRANCH   5   6
ENDBRANCH   4   5
ENDBRANCH   3   4
ENDBRANCH   2   3
ENDBRANCH   1   2
BRANCH   1  17
ATOM     17  C   UNL     1      -2.947 -32.044 -26.946  1.00  0.00     0.000 C 
BRANCH  17  18
ATOM     18  C   UNL     1      -2.158 -32.840 -28.000  1.00  0.00     0.000 C 
BRANCH  18  19
ATOM     19  C   UNL     1      -3.075 -33.519 -29.029  1.00  0.00     0.000 C 
BRANCH  19  20
ATOM     20  C   UNL     1      -2.977 -32.870 -30.421  1.00  0.00     0.000 C 
BRANCH  20  21
ATOM     21  C   UNL     1      -1.598 -32.247 -30.685  1.00  0.00     0.000 C 
BRANCH  21  22
ATOM     22  C   UNL     1      -1.657 -30.715 -30.816  1.00  0.00    -0.000 C 
BRANCH  22  23
ATOM     23  C   UNL     1      -3.089 -30.187 -31.020  1.00  0.00    -0.000 C 
BRANCH  23  24
ATOM     24  C   UNL     1      -3.198 -28.672 -31.277  1.00  0.00    -0.000 C 
BRANCH  24  25
ATOM     25  C   UNL     1      -4.433 -28.296 -32.113  1.00  0.00    -0.000 C 
BRANCH  25  26
ATOM     26  C   UNL     1      -4.125 -28.207 -33.617  1.00  0.00    -0.000 C 
BRANCH  26  27
ATOM     27  C   UNL     1      -2.618 -28.229 -33.920  1.00  0.00    -0.000 C 
BRANCH  27  28
ATOM     28  C   UNL     1      -2.246 -29.454 -34.770  1.00  0.00    -0.000 C 
BRANCH  28  29
ATOM     29  C   UNL     1      -0.744 -29.777 -34.717  1.00  0.00    -0.003 C 
ATOM     30  C   UNL     1      -0.017 -29.042 -33.592  1.00  0.00     0.004 C 
ENDBRANCH  28  29
ENDBRANCH  27  28
ENDBRANCH  26  27
ENDBRANCH  25  26
ENDBRANCH  24  25
ENDBRANCH  23  24
ENDBRANCH  22  23
ENDBRANCH  21  22
ENDBRANCH  20  21
ENDBRANCH  19  20
ENDBRANCH  18  19
ENDBRANCH  17  18
ENDBRANCH   1  17
TORSDOF 26
ENDMDL
MODEL 8
REMARK VINA RESULT:    -4.792     13.277     16.747
REMARK INTER + INTRA:         -14.867
REMARK INTER:                  -9.121
REMARK INTRA:                  -5.746
REMARK UNBOUND:                -2.790
REMARK SMILES CCCCCCCCCCCCCCCCCCCCCCCCCCCC(=O)[O-]
REMARK SMILES IDX 15 1 16 2 17 3 18 4 19 5 20 6 21 7 22 8 23 9 24 10 25 11
REMARK SMILES IDX 26 12 27 13 28 14 29 15 30 16 14 17 13 18 12 19 11 20 10 21
REMARK SMILES IDX 9 22 8 23 7 24 6 25 5 26 4 27 3 28 2 29 1 30
REMARK H PARENT
REMARK Flexibility Score: inf
ROOT
ATOM      1  C   UNL     1      -2.747 -29.852 -29.453  1.00  0.00     0.000 C 
ENDROOT
BRANCH   1   2
ATOM      2  C   UNL     1      -2.970 -29.935 -27.929  1.00  0.00     0.000 C 
BRANCH   2   3
ATOM      3  C   UNL     1      -2.605 -31.287 -27.282  1.00  0.00     0.000 C 
BRANCH   3   4
ATOM      4  C   UNL     1      -3.789 -32.249 -27.080  1.00  0.00     0.000 C 
BRANCH   4   5
ATOM      5  C   UNL     1      -4.045 -33.137 -28.309  1.00  0.00     0.000 C 
BRANCH   5   6
ATOM      6  C   UNL     1      -3.916 -34.641 -28.000  1.00  0.00     0.000 C 
BRANCH   6   7
ATOM      7  C   UNL     1      -2.963 -35.419 -28.929  1.00  0.00     0.000 C 
BRANCH   7   8
ATOM      8  C   UNL     1      -2.643 -34.736 -30.272  1.00  0.00     0.000 C 
BRANCH   8   9
ATOM      9  C   UNL     1      -1.140 -34.478 -30.511  1.00  0.00     0.000 C 
BRANCH   9  10
ATOM     10  C   UNL     1      -0.562 -33.428 -29.551  1.00  0.00     0.000 C 
BRANCH  10  11
ATOM     11  C   UNL     1       0.353 -32.439 -30.288  1.00  0.00     0.000 C 
BRANCH  11  12
ATOM     12  C   UNL     1       1.325 -33.139 -31.250  1.00  0.00     0.006 C 
BRANCH  12  13
ATOM     13  C   UNL     1       2.794 -32.771 -30.991  1.00  0.00     0.053 C 
BRANCH  13  14
ATOM     14  C   UNL     1       3.408 -32.088 -32.176  1.00  0.00     0.041 C 
ATOM     15  O   UNL     1       4.497 -31.464 -32.057  1.00  0.00    -0.550 OA
ATOM     16  O   UNL     1       2.810 -32.193 -33.426  1.00  0.00    -0.550 OA
ENDBRANCH  13  14
ENDBRANCH  12  13
ENDBRANCH  11  12
ENDBRANCH  10  11
ENDBRANCH   9  10
ENDBRANCH   8   9
ENDBRANCH   7   8
ENDBRANCH   6   7
ENDBRANCH   5   6
ENDBRANCH   4   5
ENDBRANCH   3   4
ENDBRANCH   2   3
ENDBRANCH   1   2
BRANCH   1  17
ATOM     17  C   UNL     1      -4.033 -29.749 -30.292  1.00  0.00     0.000 C 
BRANCH  17  18
ATOM     18  C   UNL     1      -4.101 -30.806 -31.408  1.00  0.00     0.000 C 
BRANCH  18  19
ATOM     19  C   UNL     1      -2.714 -31.353 -31.783  1.00  0.00     0.000 C 
BRANCH  19  20
ATOM     20  C   UNL     1      -2.718 -32.078 -33.141  1.00  0.00     0.000 C 
BRANCH  20  21
ATOM     21  C   UNL     1      -1.820 -31.389 -34.179  1.00  0.00     0.000 C 
BRANCH  21  22
ATOM     22  C   UNL     1      -0.519 -30.842 -33.565  1.00  0.00    -0.000 C 
BRANCH  22  23
ATOM     23  C   UNL     1      -0.383 -29.315 -33.715  1.00  0.00    -0.000 C 
BRANCH  23  24
ATOM     24  C   UNL     1      -0.439 -28.522 -32.395  1.00  0.00    -0.000 C 
BRANCH  24  25
ATOM     25  C   UNL     1      -1.656 -27.584 -32.314  1.00  0.00    -0.000 C 
BRANCH  25  26
ATOM     26  C   UNL     1      -2.673 -27.834 -33.439  1.00  0.00    -0.000 C 
BRANCH  26  27
ATOM     27  C   UNL     1      -4.069 -27.277 -33.115  1.00  0.00    -0.000 C 
BRANCH  27  28
ATOM     28  C   UNL     1      -5.138 -27.913 -34.017  1.00  0.00    -0.000 C 
BRANCH  28  29
ATOM     29  C   UNL     1      -4.631 -29.171 -34.740  1.00  0.00    -0.003 C 
ATOM     30  C   UNL     1      -5.668 -30.294 -34.776  1.00  0.00     0.004 C 
ENDBRANCH  28  29
ENDBRANCH  27  28
ENDBRANCH  26  27
ENDBRANCH  25  26
ENDBRANCH  24  25
ENDBRANCH  23  24
ENDBRANCH  22  23
ENDBRANCH  21  22
ENDBRANCH  20  21
ENDBRANCH  19  20
ENDBRANCH  18  19
ENDBRANCH  17  18
ENDBRANCH   1  17
TORSDOF 26
ENDMDL
MODEL 9
REMARK VINA RESULT:    -4.742     13.405     17.380
REMARK INTER + INTRA:         -14.740
REMARK INTER:                  -8.536
REMARK INTRA:                  -6.204
REMARK UNBOUND:                -2.790
REMARK SMILES CCCCCCCCCCCCCCCCCCCCCCCCCCCC(=O)[O-]
REMARK SMILES IDX 15 1 16 2 17 3 18 4 19 5 20 6 21 7 22 8 23 9 24 10 25 11
REMARK SMILES IDX 26 12 27 13 28 14 29 15 30 16 14 17 13 18 12 19 11 20 10 21
REMARK SMILES IDX 9 22 8 23 7 24 6 25 5 26 4 27 3 28 2 29 1 30
REMARK H PARENT
REMARK Flexibility Score: inf
ROOT
ATOM      1  C   UNL     1      -2.366 -34.135 -28.382  1.00  0.00     0.000 C 
ENDROOT
BRANCH   1   2
ATOM      2  C   UNL     1      -1.527 -32.864 -28.627  1.00  0.00     0.000 C 
BRANCH   2   3
ATOM      3  C   UNL     1      -1.290 -32.508 -30.109  1.00  0.00     0.000 C 
BRANCH   3   4
ATOM      4  C   UNL     1      -2.076 -31.285 -30.615  1.00  0.00     0.000 C 
BRANCH   4   5
ATOM      5  C   UNL     1      -2.542 -30.367 -29.473  1.00  0.00     0.000 C 
BRANCH   5   6
ATOM      6  C   UNL     1      -2.959 -28.967 -29.961  1.00  0.00     0.000 C 
BRANCH   6   7
ATOM      7  C   UNL     1      -3.334 -28.880 -31.453  1.00  0.00     0.000 C 
BRANCH   7   8
ATOM      8  C   UNL     1      -2.569 -27.821 -32.270  1.00  0.00     0.000 C 
BRANCH   8   9
ATOM      9  C   UNL     1      -1.819 -28.384 -33.496  1.00  0.00     0.000 C 
BRANCH   9  10
ATOM     10  C   UNL     1      -0.454 -28.987 -33.127  1.00  0.00     0.000 C 
BRANCH  10  11
ATOM     11  C   UNL     1       0.284 -29.503 -34.370  1.00  0.00     0.000 C 
BRANCH  11  12
ATOM     12  C   UNL     1       1.281 -30.625 -34.042  1.00  0.00     0.006 C 
BRANCH  12  13
ATOM     13  C   UNL     1       1.088 -31.203 -32.631  1.00  0.00     0.053 C 
BRANCH  13  14
ATOM     14  C   UNL     1       1.899 -32.447 -32.430  1.00  0.00     0.041 C 
ATOM     15  O   UNL     1       1.335 -33.573 -32.371  1.00  0.00    -0.550 OA
ATOM     16  O   UNL     1       3.286 -32.371 -32.371  1.00  0.00    -0.550 OA
ENDBRANCH  13  14
ENDBRANCH  12  13
ENDBRANCH  11  12
ENDBRANCH  10  11
ENDBRANCH   9  10
ENDBRANCH   8   9
ENDBRANCH   7   8
ENDBRANCH   6   7
ENDBRANCH   5   6
ENDBRANCH   4   5
ENDBRANCH   3   4
ENDBRANCH   2   3
ENDBRANCH   1   2
BRANCH   1  17
ATOM     17  C   UNL     1      -3.831 -33.878 -27.983  1.00  0.00     0.000 C 
BRANCH  17  18
ATOM     18  C   UNL     1      -4.772 -33.795 -29.198  1.00  0.00     0.000 C 
BRANCH  18  19
ATOM     19  C   UNL     1      -5.542 -32.466 -29.253  1.00  0.00     0.000 C 
BRANCH  19  20
ATOM     20  C   UNL     1      -5.753 -31.970 -30.695  1.00  0.00     0.000 C 
BRANCH  20  21
ATOM     21  C   UNL     1      -5.151 -32.921 -31.739  1.00  0.00     0.000 C 
BRANCH  21  22
ATOM     22  C   UNL     1      -5.901 -32.875 -33.082  1.00  0.00    -0.000 C 
BRANCH  22  23
ATOM     23  C   UNL     1      -4.975 -32.562 -34.273  1.00  0.00    -0.000 C 
BRANCH  23  24
ATOM     24  C   UNL     1      -3.884 -31.510 -33.993  1.00  0.00    -0.000 C 
BRANCH  24  25
ATOM     25  C   UNL     1      -2.506 -31.923 -34.536  1.00  0.00    -0.000 C 
BRANCH  25  26
ATOM     26  C   UNL     1      -1.907 -33.123 -33.785  1.00  0.00    -0.000 C 
BRANCH  26  27
ATOM     27  C   UNL     1      -1.921 -34.416 -34.618  1.00  0.00    -0.000 C 
BRANCH  27  28
ATOM     28  C   UNL     1      -2.304 -35.625 -33.750  1.00  0.00    -0.000 C 
BRANCH  28  29
ATOM     29  C   UNL     1      -2.314 -35.297 -32.248  1.00  0.00    -0.003 C 
ATOM     30  C   UNL     1      -3.163 -36.271 -31.432  1.00  0.00     0.004 C 
ENDBRANCH  28  29
ENDBRANCH  27  28
ENDBRANCH  26  27
ENDBRANCH  25  26
ENDBRANCH  24  25
ENDBRANCH  23  24
ENDBRANCH  22  23
ENDBRANCH  21  22
ENDBRANCH  20  21
ENDBRANCH  19  20
ENDBRANCH  18  19
ENDBRANCH  17  18
ENDBRANCH   1  17
TORSDOF 26
ENDMDL
