MODEL 1
REMARK VINA RESULT:    -4.556      0.000      0.000
REMARK INTER + INTRA:         -14.287
REMARK INTER:                 -10.416
REMARK INTRA:                  -3.870
REMARK UNBOUND:                -3.870
REMARK SMILES CCCCCCCCCCCCCCCCCCCCCCCC(=O)[O-]
REMARK SMILES IDX 13 1 14 2 15 3 16 4 17 5 18 6 19 7 20 8 21 9 22 10 23 11
REMARK SMILES IDX 24 12 25 13 26 14 12 15 11 16 10 17 9 18 8 19 7 20 6 21 5 22
REMARK SMILES IDX 4 23 3 24 2 25 1 26
REMARK H PARENT
REMARK Flexibility Score: inf
ROOT
ATOM      1  C   UNL     1     137.066 133.730 139.888  1.00  0.00     0.000 C 
ENDROOT
BRANCH   1   2
ATOM      2  C   UNL     1     137.231 133.776 141.415  1.00  0.00     0.000 C 
BRANCH   2   3
ATOM      3  C   UNL     1     136.211 134.701 142.095  1.00  0.00     0.000 C 
BRANCH   3   4
ATOM      4  C   UNL     1     135.304 135.376 141.058  1.00  0.00     0.000 C 
BRANCH   4   5
ATOM      5  C   UNL     1     134.336 136.396 141.679  1.00  0.00     0.000 C 
BRANCH   5   6
ATOM      6  C   UNL     1     133.146 136.762 140.765  1.00  0.00     0.000 C 
BRANCH   6   7
ATOM      7  C   UNL     1     133.458 136.526 139.276  1.00  0.00     0.000 C 
BRANCH   7   8
ATOM      8  C   UNL     1     132.176 136.405 138.424  1.00  0.00     0.000 C 
BRANCH   8   9
ATOM      9  C   UNL     1     131.803 134.953 138.078  1.00  0.00     0.000 C 
BRANCH   9  10
ATOM     10  C   UNL     1     132.716 133.925 138.764  1.00  0.00     0.006 C 
BRANCH  10  11
ATOM     11  C   UNL     1     132.077 132.532 138.827  1.00  0.00     0.053 C 
BRANCH  11  12
ATOM     12  C   UNL     1     131.379 132.296 140.132  1.00  0.00     0.041 C 
ATOM     13  O   UNL     1     130.124 132.202 140.173  1.00  0.00    -0.550 OA
ATOM     14  O   UNL     1     132.116 132.189 141.306  1.00  0.00    -0.550 OA
ENDBRANCH  11  12
ENDBRANCH  10  11
ENDBRANCH   9  10
ENDBRANCH   8   9
ENDBRANCH   7   8
ENDBRANCH   6   7
ENDBRANCH   5   6
ENDBRANCH   4   5
ENDBRANCH   3   4
ENDBRANCH   2   3
ENDBRANCH   1   2
BRANCH   1  15
ATOM     15  C   UNL     1     138.171 132.917 139.198  1.00  0.00     0.000 C 
BRANCH  15  16
ATOM     16  C   UNL     1     138.717 133.657 137.970  1.00  0.00     0.000 C 
BRANCH  16  17
ATOM     17  C   UNL     1     140.244 133.788 138.045  1.00  0.00     0.000 C 
BRANCH  17  18
ATOM     18  C   UNL     1     140.792 133.564 139.463  1.00  0.00    -0.000 C 
BRANCH  18  19
ATOM     19  C   UNL     1     141.285 134.867 140.120  1.00  0.00    -0.000 C 
BRANCH  19  20
ATOM     20  C   UNL     1     140.721 135.068 141.535  1.00  0.00    -0.000 C 
BRANCH  20  21
ATOM     21  C   UNL     1     139.795 136.293 141.636  1.00  0.00    -0.000 C 
BRANCH  21  22
ATOM     22  C   UNL     1     139.237 136.719 140.269  1.00  0.00    -0.000 C 
BRANCH  22  23
ATOM     23  C   UNL     1     138.006 137.633 140.394  1.00  0.00    -0.000 C 
BRANCH  23  24
ATOM     24  C   UNL     1     137.132 137.636 139.125  1.00  0.00    -0.000 C 
BRANCH  24  25
ATOM     25  C   UNL     1     136.145 138.813 139.022  1.00  0.00    -0.003 C 
ATOM     26  C   UNL     1     135.940 139.539 140.351  1.00  0.00     0.004 C 
ENDBRANCH  24  25
ENDBRANCH  23  24
ENDBRANCH  22  23
ENDBRANCH  21  22
ENDBRANCH  20  21
ENDBRANCH  19  20
ENDBRANCH  18  19
ENDBRANCH  17  18
ENDBRANCH  16  17
ENDBRANCH  15  16
ENDBRANCH   1  15
TORSDOF 22
ENDMDL
MODEL 2
REMARK VINA RESULT:    -4.458      5.981      9.553
REMARK INTER + INTRA:         -14.063
REMARK INTER:                 -10.511
REMARK INTRA:                  -3.551
REMARK UNBOUND:                -3.870
REMARK SMILES CCCCCCCCCCCCCCCCCCCCCCCC(=O)[O-]
REMARK SMILES IDX 13 1 14 2 15 3 16 4 17 5 18 6 19 7 20 8 21 9 22 10 23 11
REMARK SMILES IDX 24 12 25 13 26 14 12 15 11 16 10 17 9 18 8 19 7 20 6 21 5 22
REMARK SMILES IDX 4 23 3 24 2 25 1 26
REMARK H PARENT
REMARK Flexibility Score: inf
ROOT
ATOM      1  C   UNL     1     130.849 140.803 138.601  1.00  0.00     0.000 C 
ENDROOT
BRANCH   1   2
ATOM      2  C   UNL     1     132.041 140.863 139.569  1.00  0.00     0.000 C 
BRANCH   2   3
ATOM      3  C   UNL     1     131.647 141.371 140.964  1.00  0.00     0.000 C 
BRANCH   3   4
ATOM      4  C   UNL     1     130.649 140.417 141.634  1.00  0.00     0.000 C 
BRANCH   4   5
ATOM      5  C   UNL     1     129.375 141.127 142.124  1.00  0.00     0.000 C 
BRANCH   5   6
ATOM      6  C   UNL     1     129.106 142.475 141.421  1.00  0.00     0.000 C 
BRANCH   6   7
ATOM      7  C   UNL     1     127.727 142.515 140.739  1.00  0.00     0.000 C 
BRANCH   7   8
ATOM      8  C   UNL     1     127.827 142.873 139.241  1.00  0.00     0.000 C 
BRANCH   8   9
ATOM      9  C   UNL     1     126.549 143.516 138.676  1.00  0.00     0.000 C 
BRANCH   9  10
ATOM     10  C   UNL     1     126.200 143.008 137.268  1.00  0.00     0.006 C 
BRANCH  10  11
ATOM     11  C   UNL     1     126.182 141.475 137.191  1.00  0.00     0.053 C 
BRANCH  11  12
ATOM     12  C   UNL     1     125.110 140.974 136.272  1.00  0.00     0.041 C 
ATOM     13  O   UNL     1     124.703 141.692 135.321  1.00  0.00    -0.550 OA
ATOM     14  O   UNL     1     124.555 139.716 136.473  1.00  0.00    -0.550 OA
ENDBRANCH  11  12
ENDBRANCH  10  11
ENDBRANCH   9  10
ENDBRANCH   8   9
ENDBRANCH   7   8
ENDBRANCH   6   7
ENDBRANCH   5   6
ENDBRANCH   4   5
ENDBRANCH   3   4
ENDBRANCH   2   3
ENDBRANCH   1   2
BRANCH   1  15
ATOM     15  C   UNL     1     130.885 139.562 137.696  1.00  0.00     0.000 C 
BRANCH  15  16
ATOM     16  C   UNL     1     129.490 138.937 137.559  1.00  0.00     0.000 C 
BRANCH  16  17
ATOM     17  C   UNL     1     128.580 139.373 138.715  1.00  0.00     0.000 C 
BRANCH  17  18
ATOM     18  C   UNL     1     128.297 138.238 139.711  1.00  0.00    -0.000 C 
BRANCH  18  19
ATOM     19  C   UNL     1     129.049 136.941 139.360  1.00  0.00    -0.000 C 
BRANCH  19  20
ATOM     20  C   UNL     1     130.003 136.487 140.476  1.00  0.00    -0.000 C 
BRANCH  20  21
ATOM     21  C   UNL     1     131.407 137.105 140.344  1.00  0.00    -0.000 C 
BRANCH  21  22
ATOM     22  C   UNL     1     132.517 136.131 140.768  1.00  0.00    -0.000 C 
BRANCH  22  23
ATOM     23  C   UNL     1     133.523 135.855 139.638  1.00  0.00    -0.000 C 
BRANCH  23  24
ATOM     24  C   UNL     1     133.570 134.371 139.228  1.00  0.00    -0.000 C 
BRANCH  24  25
ATOM     25  C   UNL     1     132.273 133.832 138.597  1.00  0.00    -0.003 C 
ATOM     26  C   UNL     1     131.703 132.625 139.341  1.00  0.00     0.004 C 
ENDBRANCH  24  25
ENDBRANCH  23  24
ENDBRANCH  22  23
ENDBRANCH  21  22
ENDBRANCH  20  21
ENDBRANCH  19  20
ENDBRANCH  18  19
ENDBRANCH  17  18
ENDBRANCH  16  17
ENDBRANCH  15  16
ENDBRANCH   1  15
TORSDOF 22
ENDMDL
MODEL 3
REMARK VINA RESULT:    -4.396      7.870     10.996
REMARK INTER + INTRA:         -13.921
REMARK INTER:                 -10.152
REMARK INTRA:                  -3.769
REMARK UNBOUND:                -3.870
REMARK SMILES CCCCCCCCCCCCCCCCCCCCCCCC(=O)[O-]
REMARK SMILES IDX 13 1 14 2 15 3 16 4 17 5 18 6 19 7 20 8 21 9 22 10 23 11
REMARK SMILES IDX 24 12 25 13 26 14 12 15 11 16 10 17 9 18 8 19 7 20 6 21 5 22
REMARK SMILES IDX 4 23 3 24 2 25 1 26
REMARK H PARENT
REMARK Flexibility Score: inf
ROOT
ATOM      1  C   UNL     1     126.129 144.036 137.799  1.00  0.00     0.000 C 
ENDROOT
BRANCH   1   2
ATOM      2  C   UNL     1     126.185 142.683 137.074  1.00  0.00     0.000 C 
BRANCH   2   3
ATOM      3  C   UNL     1     125.436 142.696 135.734  1.00  0.00     0.000 C 
BRANCH   3   4
ATOM      4  C   UNL     1     124.739 141.352 135.480  1.00  0.00     0.000 C 
BRANCH   4   5
ATOM      5  C   UNL     1     125.099 140.282 136.524  1.00  0.00     0.000 C 
BRANCH   5   6
ATOM      6  C   UNL     1     125.081 138.841 135.969  1.00  0.00     0.000 C 
BRANCH   6   7
ATOM      7  C   UNL     1     126.475 138.191 135.982  1.00  0.00     0.000 C 
BRANCH   7   8
ATOM      8  C   UNL     1     126.437 136.739 136.507  1.00  0.00     0.000 C 
BRANCH   8   9
ATOM      9  C   UNL     1     125.069 136.328 137.079  1.00  0.00     0.000 C 
BRANCH   9  10
ATOM     10  C   UNL     1     125.041 136.332 138.615  1.00  0.00     0.006 C 
BRANCH  10  11
ATOM     11  C   UNL     1     126.358 135.830 139.221  1.00  0.00     0.053 C 
BRANCH  11  12
ATOM     12  C   UNL     1     126.349 135.904 140.718  1.00  0.00     0.041 C 
ATOM     13  O   UNL     1     125.882 136.918 141.300  1.00  0.00    -0.550 OA
ATOM     14  O   UNL     1     126.868 134.855 141.469  1.00  0.00    -0.550 OA
ENDBRANCH  11  12
ENDBRANCH  10  11
ENDBRANCH   9  10
ENDBRANCH   8   9
ENDBRANCH   7   8
ENDBRANCH   6   7
ENDBRANCH   5   6
ENDBRANCH   4   5
ENDBRANCH   3   4
ENDBRANCH   2   3
ENDBRANCH   1   2
BRANCH   1  15
ATOM     15  C   UNL     1     126.491 143.925 139.288  1.00  0.00     0.000 C 
BRANCH  15  16
ATOM     16  C   UNL     1     127.480 142.778 139.533  1.00  0.00     0.000 C 
BRANCH  16  17
ATOM     17  C   UNL     1     128.108 142.887 140.930  1.00  0.00     0.000 C 
BRANCH  17  18
ATOM     18  C   UNL     1     128.094 141.555 141.694  1.00  0.00    -0.000 C 
BRANCH  18  19
ATOM     19  C   UNL     1     129.509 141.046 142.024  1.00  0.00    -0.000 C 
BRANCH  19  20
ATOM     20  C   UNL     1     130.612 141.888 141.363  1.00  0.00    -0.000 C 
BRANCH  20  21
ATOM     21  C   UNL     1     131.397 141.105 140.296  1.00  0.00    -0.000 C 
BRANCH  21  22
ATOM     22  C   UNL     1     130.852 141.340 138.878  1.00  0.00    -0.000 C 
BRANCH  22  23
ATOM     23  C   UNL     1     130.460 140.031 138.172  1.00  0.00    -0.000 C 
BRANCH  23  24
ATOM     24  C   UNL     1     128.935 139.835 138.078  1.00  0.00    -0.000 C 
BRANCH  24  25
ATOM     25  C   UNL     1     128.326 138.957 139.186  1.00  0.00    -0.003 C 
ATOM     26  C   UNL     1     129.338 138.000 139.815  1.00  0.00     0.004 C 
ENDBRANCH  24  25
ENDBRANCH  23  24
ENDBRANCH  22  23
ENDBRANCH  21  22
ENDBRANCH  20  21
ENDBRANCH  19  20
ENDBRANCH  18  19
ENDBRANCH  17  18
ENDBRANCH  16  17
ENDBRANCH  15  16
ENDBRANCH   1  15
TORSDOF 22
ENDMDL
MODEL 4
REMARK VINA RESULT:    -4.386      5.435      9.235
REMARK INTER + INTRA:         -13.898
REMARK INTER:                  -9.656
REMARK INTRA:                  -4.242
REMARK UNBOUND:                -3.870
REMARK SMILES CCCCCCCCCCCCCCCCCCCCCCCC(=O)[O-]
REMARK SMILES IDX 13 1 14 2 15 3 16 4 17 5 18 6 19 7 20 8 21 9 22 10 23 11
REMARK SMILES IDX 24 12 25 13 26 14 12 15 11 16 10 17 9 18 8 19 7 20 6 21 5 22
REMARK SMILES IDX 4 23 3 24 2 25 1 26
REMARK H PARENT
REMARK Flexibility Score: inf
ROOT
ATOM      1  C   UNL     1     128.937 139.000 136.920  1.00  0.00     0.000 C 
ENDROOT
BRANCH   1   2
ATOM      2  C   UNL     1     130.440 139.301 137.011  1.00  0.00     0.000 C 
BRANCH   2   3
ATOM      3  C   UNL     1     130.930 139.445 138.459  1.00  0.00     0.000 C 
BRANCH   3   4
ATOM      4  C   UNL     1     131.360 140.889 138.753  1.00  0.00     0.000 C 
BRANCH   4   5
ATOM      5  C   UNL     1     131.413 141.207 140.256  1.00  0.00     0.000 C 
BRANCH   5   6
ATOM      6  C   UNL     1     131.005 140.022 141.158  1.00  0.00     0.000 C 
BRANCH   6   7
ATOM      7  C   UNL     1     129.723 140.311 141.960  1.00  0.00     0.000 C 
BRANCH   7   8
ATOM      8  C   UNL     1     128.589 140.862 141.068  1.00  0.00     0.000 C 
BRANCH   8   9
ATOM      9  C   UNL     1     128.137 142.280 141.455  1.00  0.00     0.000 C 
BRANCH   9  10
ATOM     10  C   UNL     1     127.666 143.105 140.247  1.00  0.00     0.006 C 
BRANCH  10  11
ATOM     11  C   UNL     1     127.837 142.346 138.924  1.00  0.00     0.053 C 
BRANCH  11  12
ATOM     12  C   UNL     1     126.690 142.586 137.990  1.00  0.00     0.041 C 
ATOM     13  O   UNL     1     126.169 143.729 137.906  1.00  0.00    -0.550 OA
ATOM     14  O   UNL     1     126.191 141.542 137.219  1.00  0.00    -0.550 OA
ENDBRANCH  11  12
ENDBRANCH  10  11
ENDBRANCH   9  10
ENDBRANCH   8   9
ENDBRANCH   7   8
ENDBRANCH   6   7
ENDBRANCH   5   6
ENDBRANCH   4   5
ENDBRANCH   3   4
ENDBRANCH   2   3
ENDBRANCH   1   2
BRANCH   1  15
ATOM     15  C   UNL     1     128.294 138.771 138.296  1.00  0.00     0.000 C 
BRANCH  15  16
ATOM     16  C   UNL     1     127.752 137.342 138.423  1.00  0.00     0.000 C 
BRANCH  16  17
ATOM     17  C   UNL     1     128.844 136.384 138.920  1.00  0.00     0.000 C 
BRANCH  17  18
ATOM     18  C   UNL     1     129.236 136.637 140.384  1.00  0.00    -0.000 C 
BRANCH  18  19
ATOM     19  C   UNL     1     129.890 135.408 141.043  1.00  0.00    -0.000 C 
BRANCH  19  20
ATOM     20  C   UNL     1     129.661 134.115 140.245  1.00  0.00    -0.000 C 
BRANCH  20  21
ATOM     21  C   UNL     1     130.919 133.231 140.176  1.00  0.00    -0.000 C 
BRANCH  21  22
ATOM     22  C   UNL     1     132.181 134.035 139.827  1.00  0.00    -0.000 C 
BRANCH  22  23
ATOM     23  C   UNL     1     132.227 134.447 138.346  1.00  0.00    -0.000 C 
BRANCH  23  24
ATOM     24  C   UNL     1     132.357 135.970 138.154  1.00  0.00    -0.000 C 
BRANCH  24  25
ATOM     25  C   UNL     1     132.888 136.734 139.380  1.00  0.00    -0.003 C 
ATOM     26  C   UNL     1     134.153 137.538 139.082  1.00  0.00     0.004 C 
ENDBRANCH  24  25
ENDBRANCH  23  24
ENDBRANCH  22  23
ENDBRANCH  21  22
ENDBRANCH  20  21
ENDBRANCH  19  20
ENDBRANCH  18  19
ENDBRANCH  17  18
ENDBRANCH  16  17
ENDBRANCH  15  16
ENDBRANCH   1  15
TORSDOF 22
ENDMDL
MODEL 5
REMARK VINA RESULT:    -4.377      6.585     10.497
REMARK INTER + INTRA:         -13.877
REMARK INTER:                 -10.864
REMARK INTRA:                  -3.013
REMARK UNBOUND:                -3.870
REMARK SMILES CCCCCCCCCCCCCCCCCCCCCCCC(=O)[O-]
REMARK SMILES IDX 13 1 14 2 15 3 16 4 17 5 18 6 19 7 20 8 21 9 22 10 23 11
REMARK SMILES IDX 24 12 25 13 26 14 12 15 11 16 10 17 9 18 8 19 7 20 6 21 5 22
REMARK SMILES IDX 4 23 3 24 2 25 1 26
REMARK H PARENT
REMARK Flexibility Score: inf
ROOT
ATOM      1  C   UNL     1     127.438 142.600 138.396  1.00  0.00     0.000 C 
ENDROOT
BRANCH   1   2
ATOM      2  C   UNL     1     126.086 142.348 137.712  1.00  0.00     0.000 C 
BRANCH   2   3
ATOM      3  C   UNL     1     125.929 143.132 136.401  1.00  0.00     0.000 C 
BRANCH   3   4
ATOM      4  C   UNL     1     125.095 142.341 135.385  1.00  0.00     0.000 C 
BRANCH   4   5
ATOM      5  C   UNL     1     124.583 141.002 135.939  1.00  0.00     0.000 C 
BRANCH   5   6
ATOM      6  C   UNL     1     124.130 140.008 134.847  1.00  0.00     0.000 C 
BRANCH   6   7
ATOM      7  C   UNL     1     124.834 138.645 134.969  1.00  0.00     0.000 C 
BRANCH   7   8
ATOM      8  C   UNL     1     125.412 138.411 136.381  1.00  0.00     0.000 C 
BRANCH   8   9
ATOM      9  C   UNL     1     126.934 138.187 136.392  1.00  0.00     0.000 C 
BRANCH   9  10
ATOM     10  C   UNL     1     127.663 139.104 137.387  1.00  0.00     0.006 C 
BRANCH  10  11
ATOM     11  C   UNL     1     129.173 138.838 137.423  1.00  0.00     0.053 C 
BRANCH  11  12
ATOM     12  C   UNL     1     129.557 137.948 138.567  1.00  0.00     0.041 C 
ATOM     13  O   UNL     1     130.312 136.958 138.375  1.00  0.00    -0.550 OA
ATOM     14  O   UNL     1     129.071 138.208 139.843  1.00  0.00    -0.550 OA
ENDBRANCH  11  12
ENDBRANCH  10  11
ENDBRANCH   9  10
ENDBRANCH   8   9
ENDBRANCH   7   8
ENDBRANCH   6   7
ENDBRANCH   5   6
ENDBRANCH   4   5
ENDBRANCH   3   4
ENDBRANCH   2   3
ENDBRANCH   1   2
BRANCH   1  15
ATOM     15  C   UNL     1     127.321 143.524 139.618  1.00  0.00     0.000 C 
BRANCH  15  16
ATOM     16  C   UNL     1     126.909 142.739 140.869  1.00  0.00     0.000 C 
BRANCH  16  17
ATOM     17  C   UNL     1     127.991 141.721 141.256  1.00  0.00     0.000 C 
BRANCH  17  18
ATOM     18  C   UNL     1     129.368 142.368 141.467  1.00  0.00    -0.000 C 
BRANCH  18  19
ATOM     19  C   UNL     1     130.525 141.461 141.008  1.00  0.00    -0.000 C 
BRANCH  19  20
ATOM     20  C   UNL     1     130.809 141.577 139.502  1.00  0.00    -0.000 C 
BRANCH  20  21
ATOM     21  C   UNL     1     131.893 140.595 139.025  1.00  0.00    -0.000 C 
BRANCH  21  22
ATOM     22  C   UNL     1     132.491 139.777 140.181  1.00  0.00    -0.000 C 
BRANCH  22  23
ATOM     23  C   UNL     1     133.959 139.391 139.931  1.00  0.00    -0.000 C 
BRANCH  23  24
ATOM     24  C   UNL     1     134.914 139.945 141.006  1.00  0.00    -0.000 C 
BRANCH  24  25
ATOM     25  C   UNL     1     134.289 140.987 141.951  1.00  0.00    -0.003 C 
ATOM     26  C   UNL     1     134.739 142.416 141.646  1.00  0.00     0.004 C 
ENDBRANCH  24  25
ENDBRANCH  23  24
ENDBRANCH  22  23
ENDBRANCH  21  22
ENDBRANCH  20  21
ENDBRANCH  19  20
ENDBRANCH  18  19
ENDBRANCH  17  18
ENDBRANCH  16  17
ENDBRANCH  15  16
ENDBRANCH   1  15
TORSDOF 22
ENDMDL
MODEL 6
REMARK VINA RESULT:    -4.361      5.410      7.603
REMARK INTER + INTRA:         -13.841
REMARK INTER:                 -11.679
REMARK INTRA:                  -2.161
REMARK UNBOUND:                -3.870
REMARK SMILES CCCCCCCCCCCCCCCCCCCCCCCC(=O)[O-]
REMARK SMILES IDX 13 1 14 2 15 3 16 4 17 5 18 6 19 7 20 8 21 9 22 10 23 11
REMARK SMILES IDX 24 12 25 13 26 14 12 15 11 16 10 17 9 18 8 19 7 20 6 21 5 22
REMARK SMILES IDX 4 23 3 24 2 25 1 26
REMARK H PARENT
REMARK Flexibility Score: inf
ROOT
ATOM      1  C   UNL     1     136.546 141.147 141.136  1.00  0.00     0.000 C 
ENDROOT
BRANCH   1   2
ATOM      2  C   UNL     1     135.457 141.970 141.839  1.00  0.00     0.000 C 
BRANCH   2   3
ATOM      3  C   UNL     1     134.118 141.225 141.935  1.00  0.00     0.000 C 
BRANCH   3   4
ATOM      4  C   UNL     1     133.060 141.879 141.037  1.00  0.00     0.000 C 
BRANCH   4   5
ATOM      5  C   UNL     1     131.882 140.943 140.717  1.00  0.00     0.000 C 
BRANCH   5   6
ATOM      6  C   UNL     1     131.881 140.417 139.266  1.00  0.00     0.000 C 
BRANCH   6   7
ATOM      7  C   UNL     1     130.603 140.805 138.502  1.00  0.00     0.000 C 
BRANCH   7   8
ATOM      8  C   UNL     1     129.400 141.014 139.447  1.00  0.00     0.000 C 
BRANCH   8   9
ATOM      9  C   UNL     1     128.732 142.391 139.296  1.00  0.00     0.000 C 
BRANCH   9  10
ATOM     10  C   UNL     1     128.004 142.843 140.572  1.00  0.00     0.006 C 
BRANCH  10  11
ATOM     11  C   UNL     1     126.519 143.137 140.321  1.00  0.00     0.053 C 
BRANCH  11  12
ATOM     12  C   UNL     1     126.323 144.074 139.167  1.00  0.00     0.041 C 
ATOM     13  O   UNL     1     126.300 145.318 139.356  1.00  0.00    -0.550 OA
ATOM     14  O   UNL     1     126.155 143.569 137.882  1.00  0.00    -0.550 OA
ENDBRANCH  11  12
ENDBRANCH  10  11
ENDBRANCH   9  10
ENDBRANCH   8   9
ENDBRANCH   7   8
ENDBRANCH   6   7
ENDBRANCH   5   6
ENDBRANCH   4   5
ENDBRANCH   3   4
ENDBRANCH   2   3
ENDBRANCH   1   2
BRANCH   1  15
ATOM     15  C   UNL     1     136.328 139.633 141.279  1.00  0.00     0.000 C 
BRANCH  15  16
ATOM     16  C   UNL     1     136.237 138.954 139.906  1.00  0.00     0.000 C 
BRANCH  16  17
ATOM     17  C   UNL     1     135.121 137.900 139.890  1.00  0.00     0.000 C 
BRANCH  17  18
ATOM     18  C   UNL     1     135.378 136.746 140.870  1.00  0.00    -0.000 C 
BRANCH  18  19
ATOM     19  C   UNL     1     136.620 135.916 140.496  1.00  0.00    -0.000 C 
BRANCH  19  20
ATOM     20  C   UNL     1     137.597 135.746 141.670  1.00  0.00    -0.000 C 
BRANCH  20  21
ATOM     21  C   UNL     1     138.861 136.611 141.521  1.00  0.00    -0.000 C 
BRANCH  21  22
ATOM     22  C   UNL     1     139.507 136.468 140.133  1.00  0.00    -0.000 C 
BRANCH  22  23
ATOM     23  C   UNL     1     140.800 135.636 140.168  1.00  0.00    -0.000 C 
BRANCH  23  24
ATOM     24  C   UNL     1     140.597 134.194 139.664  1.00  0.00    -0.000 C 
BRANCH  24  25
ATOM     25  C   UNL     1     139.854 134.077 138.321  1.00  0.00    -0.003 C 
ATOM     26  C   UNL     1     138.481 133.418 138.454  1.00  0.00     0.004 C 
ENDBRANCH  24  25
ENDBRANCH  23  24
ENDBRANCH  22  23
ENDBRANCH  21  22
ENDBRANCH  20  21
ENDBRANCH  19  20
ENDBRANCH  18  19
ENDBRANCH  17  18
ENDBRANCH  16  17
ENDBRANCH  15  16
ENDBRANCH   1  15
TORSDOF 22
ENDMDL
MODEL 7
REMARK VINA RESULT:    -4.341      6.295     11.005
REMARK INTER + INTRA:         -13.795
REMARK INTER:                  -9.824
REMARK INTRA:                  -3.972
REMARK UNBOUND:                -3.870
REMARK SMILES CCCCCCCCCCCCCCCCCCCCCCCC(=O)[O-]
REMARK SMILES IDX 13 1 14 2 15 3 16 4 17 5 18 6 19 7 20 8 21 9 22 10 23 11
REMARK SMILES IDX 24 12 25 13 26 14 12 15 11 16 10 17 9 18 8 19 7 20 6 21 5 22
REMARK SMILES IDX 4 23 3 24 2 25 1 26
REMARK H PARENT
REMARK Flexibility Score: inf
ROOT
ATOM      1  C   UNL     1     125.724 140.958 136.715  1.00  0.00     0.000 C 
ENDROOT
BRANCH   1   2
ATOM      2  C   UNL     1     125.753 142.440 136.311  1.00  0.00     0.000 C 
BRANCH   2   3
ATOM      3  C   UNL     1     126.196 143.359 137.459  1.00  0.00     0.000 C 
BRANCH   3   4
ATOM      4  C   UNL     1     127.074 142.601 138.463  1.00  0.00     0.000 C 
BRANCH   4   5
ATOM      5  C   UNL     1     127.212 143.328 139.811  1.00  0.00     0.000 C 
BRANCH   5   6
ATOM      6  C   UNL     1     127.690 142.418 140.963  1.00  0.00     0.000 C 
BRANCH   6   7
ATOM      7  C   UNL     1     129.146 142.706 141.370  1.00  0.00     0.000 C 
BRANCH   7   8
ATOM      8  C   UNL     1     130.014 141.428 141.375  1.00  0.00     0.000 C 
BRANCH   8   9
ATOM      9  C   UNL     1     131.106 141.424 140.292  1.00  0.00     0.000 C 
BRANCH   9  10
ATOM     10  C   UNL     1     132.260 140.462 140.615  1.00  0.00     0.006 C 
BRANCH  10  11
ATOM     11  C   UNL     1     131.799 138.999 140.665  1.00  0.00     0.053 C 
BRANCH  11  12
ATOM     12  C   UNL     1     132.750 138.089 139.947  1.00  0.00     0.041 C 
ATOM     13  O   UNL     1     132.713 136.846 140.149  1.00  0.00    -0.550 OA
ATOM     14  O   UNL     1     133.684 138.617 139.063  1.00  0.00    -0.550 OA
ENDBRANCH  11  12
ENDBRANCH  10  11
ENDBRANCH   9  10
ENDBRANCH   8   9
ENDBRANCH   7   8
ENDBRANCH   6   7
ENDBRANCH   5   6
ENDBRANCH   4   5
ENDBRANCH   3   4
ENDBRANCH   2   3
ENDBRANCH   1   2
BRANCH   1  15
ATOM     15  C   UNL     1     124.863 140.104 135.771  1.00  0.00     0.000 C 
BRANCH  15  16
ATOM     16  C   UNL     1     124.929 138.620 136.153  1.00  0.00     0.000 C 
BRANCH  16  17
ATOM     17  C   UNL     1     126.358 138.080 136.004  1.00  0.00     0.000 C 
BRANCH  17  18
ATOM     18  C   UNL     1     126.523 136.666 136.583  1.00  0.00    -0.000 C 
BRANCH  18  19
ATOM     19  C   UNL     1     125.587 136.402 137.777  1.00  0.00    -0.000 C 
BRANCH  19  20
ATOM     20  C   UNL     1     126.243 136.726 139.128  1.00  0.00    -0.000 C 
BRANCH  20  21
ATOM     21  C   UNL     1     127.656 136.132 139.260  1.00  0.00    -0.000 C 
BRANCH  21  22
ATOM     22  C   UNL     1     128.703 137.189 139.646  1.00  0.00    -0.000 C 
BRANCH  22  23
ATOM     23  C   UNL     1     128.145 138.621 139.582  1.00  0.00    -0.000 C 
BRANCH  23  24
ATOM     24  C   UNL     1     128.756 139.449 138.435  1.00  0.00    -0.000 C 
BRANCH  24  25
ATOM     25  C   UNL     1     129.683 138.662 137.491  1.00  0.00    -0.003 C 
ATOM     26  C   UNL     1     130.881 139.480 137.011  1.00  0.00     0.004 C 
ENDBRANCH  24  25
ENDBRANCH  23  24
ENDBRANCH  22  23
ENDBRANCH  21  22
ENDBRANCH  20  21
ENDBRANCH  19  20
ENDBRANCH  18  19
ENDBRANCH  17  18
ENDBRANCH  16  17
ENDBRANCH  15  16
ENDBRANCH   1  15
TORSDOF 22
ENDMDL
MODEL 8
REMARK VINA RESULT:    -4.324      5.797      9.381
REMARK INTER + INTRA:         -13.754
REMARK INTER:                  -9.148
REMARK INTRA:                  -4.606
REMARK UNBOUND:                -3.870
REMARK SMILES CCCCCCCCCCCCCCCCCCCCCCCC(=O)[O-]
REMARK SMILES IDX 13 1 14 2 15 3 16 4 17 5 18 6 19 7 20 8 21 9 22 10 23 11
REMARK SMILES IDX 24 12 25 13 26 14 12 15 11 16 10 17 9 18 8 19 7 20 6 21 5 22
REMARK SMILES IDX 4 23 3 24 2 25 1 26
REMARK H PARENT
REMARK Flexibility Score: inf
ROOT
ATOM      1  C   UNL     1     127.496 136.834 137.876  1.00  0.00     0.000 C 
ENDROOT
BRANCH   1   2
ATOM      2  C   UNL     1     126.169 136.061 137.906  1.00  0.00     0.000 C 
BRANCH   2   3
ATOM      3  C   UNL     1     125.882 135.426 139.275  1.00  0.00     0.000 C 
BRANCH   3   4
ATOM      4  C   UNL     1     125.362 136.473 140.268  1.00  0.00     0.000 C 
BRANCH   4   5
ATOM      5  C   UNL     1     126.197 136.547 141.557  1.00  0.00     0.000 C 
BRANCH   5   6
ATOM      6  C   UNL     1     127.188 137.731 141.589  1.00  0.00     0.000 C 
BRANCH   6   7
ATOM      7  C   UNL     1     128.648 137.276 141.415  1.00  0.00     0.000 C 
BRANCH   7   8
ATOM      8  C   UNL     1     128.777 135.739 141.349  1.00  0.00     0.000 C 
BRANCH   8   9
ATOM      9  C   UNL     1     129.989 135.258 140.533  1.00  0.00     0.000 C 
BRANCH   9  10
ATOM     10  C   UNL     1     130.691 136.401 139.781  1.00  0.00     0.006 C 
BRANCH  10  11
ATOM     11  C   UNL     1     131.202 135.961 138.403  1.00  0.00     0.053 C 
BRANCH  11  12
ATOM     12  C   UNL     1     132.495 136.630 138.047  1.00  0.00     0.041 C 
ATOM     13  O   UNL     1     132.557 137.402 137.054  1.00  0.00    -0.550 OA
ATOM     14  O   UNL     1     133.634 136.391 138.807  1.00  0.00    -0.550 OA
ENDBRANCH  11  12
ENDBRANCH  10  11
ENDBRANCH   9  10
ENDBRANCH   8   9
ENDBRANCH   7   8
ENDBRANCH   6   7
ENDBRANCH   5   6
ENDBRANCH   4   5
ENDBRANCH   3   4
ENDBRANCH   2   3
ENDBRANCH   1   2
BRANCH   1  15
ATOM     15  C   UNL     1     127.316 138.302 137.462  1.00  0.00     0.000 C 
BRANCH  15  16
ATOM     16  C   UNL     1     128.225 139.224 138.285  1.00  0.00     0.000 C 
BRANCH  16  17
ATOM     17  C   UNL     1     129.638 139.274 137.689  1.00  0.00     0.000 C 
BRANCH  17  18
ATOM     18  C   UNL     1     130.500 140.393 138.292  1.00  0.00    -0.000 C 
BRANCH  18  19
ATOM     19  C   UNL     1     131.092 140.013 139.661  1.00  0.00    -0.000 C 
BRANCH  19  20
ATOM     20  C   UNL     1     130.961 141.139 140.699  1.00  0.00    -0.000 C 
BRANCH  20  21
ATOM     21  C   UNL     1     129.896 140.839 141.768  1.00  0.00    -0.000 C 
BRANCH  21  22
ATOM     22  C   UNL     1     128.485 141.250 141.321  1.00  0.00    -0.000 C 
BRANCH  22  23
ATOM     23  C   UNL     1     128.329 142.775 141.189  1.00  0.00    -0.000 C 
BRANCH  23  24
ATOM     24  C   UNL     1     127.317 143.181 140.100  1.00  0.00    -0.000 C 
BRANCH  24  25
ATOM     25  C   UNL     1     127.679 142.719 138.677  1.00  0.00    -0.003 C 
ATOM     26  C   UNL     1     126.457 142.549 137.775  1.00  0.00     0.004 C 
ENDBRANCH  24  25
ENDBRANCH  23  24
ENDBRANCH  22  23
ENDBRANCH  21  22
ENDBRANCH  20  21
ENDBRANCH  19  20
ENDBRANCH  18  19
ENDBRANCH  17  18
ENDBRANCH  16  17
ENDBRANCH  15  16
ENDBRANCH   1  15
TORSDOF 22
ENDMDL
MODEL 9
REMARK VINA RESULT:    -4.291      3.015      5.709
REMARK INTER + INTRA:         -13.679
REMARK INTER:                 -10.207
REMARK INTRA:                  -3.472
REMARK UNBOUND:                -3.870
REMARK SMILES CCCCCCCCCCCCCCCCCCCCCCCC(=O)[O-]
REMARK SMILES IDX 13 1 14 2 15 3 16 4 17 5 18 6 19 7 20 8 21 9 22 10 23 11
REMARK SMILES IDX 24 12 25 13 26 14 12 15 11 16 10 17 9 18 8 19 7 20 6 21 5 22
REMARK SMILES IDX 4 23 3 24 2 25 1 26
REMARK H PARENT
REMARK Flexibility Score: inf
ROOT
ATOM      1  C   UNL     1     132.998 136.586 139.115  1.00  0.00     0.000 C 
ENDROOT
BRANCH   1   2
ATOM      2  C   UNL     1     133.728 137.874 139.524  1.00  0.00     0.000 C 
BRANCH   2   3
ATOM      3  C   UNL     1     134.782 138.312 138.496  1.00  0.00     0.000 C 
BRANCH   3   4
ATOM      4  C   UNL     1     135.885 139.146 139.161  1.00  0.00     0.000 C 
BRANCH   4   5
ATOM      5  C   UNL     1     135.737 139.230 140.690  1.00  0.00     0.000 C 
BRANCH   5   6
ATOM      6  C   UNL     1     136.335 140.514 141.304  1.00  0.00     0.000 C 
BRANCH   6   7
ATOM      7  C   UNL     1     135.267 141.388 141.986  1.00  0.00     0.000 C 
BRANCH   7   8
ATOM      8  C   UNL     1     133.852 140.784 141.860  1.00  0.00     0.000 C 
BRANCH   8   9
ATOM      9  C   UNL     1     132.898 141.630 140.999  1.00  0.00     0.000 C 
BRANCH   9  10
ATOM     10  C   UNL     1     131.712 140.819 140.453  1.00  0.00     0.006 C 
BRANCH  10  11
ATOM     11  C   UNL     1     131.295 141.273 139.048  1.00  0.00     0.053 C 
BRANCH  11  12
ATOM     12  C   UNL     1     130.469 140.236 138.348  1.00  0.00     0.041 C 
ATOM     13  O   UNL     1     129.220 140.205 138.509  1.00  0.00    -0.550 OA
ATOM     14  O   UNL     1     131.082 139.298 137.525  1.00  0.00    -0.550 OA
ENDBRANCH  11  12
ENDBRANCH  10  11
ENDBRANCH   9  10
ENDBRANCH   8   9
ENDBRANCH   7   8
ENDBRANCH   6   7
ENDBRANCH   5   6
ENDBRANCH   4   5
ENDBRANCH   3   4
ENDBRANCH   2   3
ENDBRANCH   1   2
BRANCH   1  15
ATOM     15  C   UNL     1     133.778 135.318 139.494  1.00  0.00     0.000 C 
BRANCH  15  16
ATOM     16  C   UNL     1     134.368 135.433 140.905  1.00  0.00     0.000 C 
BRANCH  16  17
ATOM     17  C   UNL     1     135.770 134.810 140.964  1.00  0.00     0.000 C 
BRANCH  17  18
ATOM     18  C   UNL     1     136.872 135.782 140.515  1.00  0.00    -0.000 C 
BRANCH  18  19
ATOM     19  C   UNL     1     137.716 136.304 141.693  1.00  0.00    -0.000 C 
BRANCH  19  20
ATOM     20  C   UNL     1     139.074 136.869 141.246  1.00  0.00    -0.000 C 
BRANCH  20  21
ATOM     21  C   UNL     1     140.256 135.978 141.668  1.00  0.00    -0.000 C 
BRANCH  21  22
ATOM     22  C   UNL     1     141.091 135.505 140.468  1.00  0.00    -0.000 C 
BRANCH  22  23
ATOM     23  C   UNL     1     140.454 134.310 139.740  1.00  0.00    -0.000 C 
BRANCH  23  24
ATOM     24  C   UNL     1     139.840 134.695 138.380  1.00  0.00    -0.000 C 
BRANCH  24  25
ATOM     25  C   UNL     1     138.901 133.638 137.771  1.00  0.00    -0.003 C 
ATOM     26  C   UNL     1     138.075 132.896 138.821  1.00  0.00     0.004 C 
ENDBRANCH  24  25
ENDBRANCH  23  24
ENDBRANCH  22  23
ENDBRANCH  21  22
ENDBRANCH  20  21
ENDBRANCH  19  20
ENDBRANCH  18  19
ENDBRANCH  17  18
ENDBRANCH  16  17
ENDBRANCH  15  16
ENDBRANCH   1  15
TORSDOF 22
ENDMDL
