MODEL 1
REMARK VINA RESULT:    19.524      0.000      0.000
REMARK INTER + INTRA:          43.888
REMARK INTER:                  44.634
REMARK INTRA:                  -0.746
REMARK UNBOUND:                -0.746
REMARK SMILES CCCCCCCCCCCCCCCCCCCCCCCC(=O)[O-]
REMARK SMILES IDX 13 1 14 2 15 3 16 4 17 5 18 6 19 7 20 8 21 9 22 10 23 11
REMARK SMILES IDX 24 12 25 13 26 14 12 15 11 16 10 17 9 18 8 19 7 20 6 21 5 22
REMARK SMILES IDX 4 23 3 24 2 25 1 26
REMARK H PARENT
REMARK Flexibility Score: inf
ROOT
ATOM      1  C   UNL     1       4.790  20.013  51.415  1.00  0.00     0.000 C 
ENDROOT
BRANCH   1   2
ATOM      2  C   UNL     1       3.908  20.986  52.217  1.00  0.00     0.000 C 
BRANCH   2   3
ATOM      3  C   UNL     1       4.022  20.770  53.733  1.00  0.00     0.000 C 
BRANCH   3   4
ATOM      4  C   UNL     1       4.973  21.779  54.404  1.00  0.00     0.000 C 
BRANCH   4   5
ATOM      5  C   UNL     1       5.615  21.232  55.693  1.00  0.00     0.000 C 
BRANCH   5   6
ATOM      6  C   UNL     1       6.913  21.940  56.124  1.00  0.00     0.000 C 
BRANCH   6   7
ATOM      7  C   UNL     1       8.070  21.722  55.135  1.00  0.00     0.000 C 
BRANCH   7   8
ATOM      8  C   UNL     1       9.279  21.014  55.776  1.00  0.00     0.000 C 
BRANCH   8   9
ATOM      9  C   UNL     1      10.171  20.220  54.798  1.00  0.00     0.000 C 
BRANCH   9  10
ATOM     10  C   UNL     1      11.585  19.902  55.318  1.00  0.00     0.006 C 
BRANCH  10  11
ATOM     11  C   UNL     1      12.684  20.643  54.544  1.00  0.00     0.053 C 
BRANCH  11  12
ATOM     12  C   UNL     1      13.999  20.500  55.242  1.00  0.00     0.041 C 
ATOM     13  O   UNL     1      14.343  21.331  56.124  1.00  0.00    -0.550 OA
ATOM     14  O   UNL     1      14.874  19.486  54.872  1.00  0.00    -0.550 OA
ENDBRANCH  11  12
ENDBRANCH  10  11
ENDBRANCH   9  10
ENDBRANCH   8   9
ENDBRANCH   7   8
ENDBRANCH   6   7
ENDBRANCH   5   6
ENDBRANCH   4   5
ENDBRANCH   3   4
ENDBRANCH   2   3
ENDBRANCH   1   2
BRANCH   1  15
ATOM     15  C   UNL     1       4.849  20.374  49.915  1.00  0.00     0.000 C 
BRANCH  15  16
ATOM     16  C   UNL     1       4.566  19.186  48.979  1.00  0.00     0.000 C 
BRANCH  16  17
ATOM     17  C   UNL     1       5.718  18.912  47.996  1.00  0.00     0.000 C 
BRANCH  17  18
ATOM     18  C   UNL     1       6.375  17.532  48.207  1.00  0.00    -0.000 C 
BRANCH  18  19
ATOM     19  C   UNL     1       6.516  16.700  46.917  1.00  0.00    -0.000 C 
BRANCH  19  20
ATOM     20  C   UNL     1       5.925  17.347  45.652  1.00  0.00    -0.000 C 
BRANCH  20  21
ATOM     21  C   UNL     1       5.501  16.357  44.551  1.00  0.00    -0.000 C 
BRANCH  21  22
ATOM     22  C   UNL     1       6.521  16.264  43.403  1.00  0.00    -0.000 C 
BRANCH  22  23
ATOM     23  C   UNL     1       7.927  15.865  43.902  1.00  0.00    -0.000 C 
BRANCH  23  24
ATOM     24  C   UNL     1       8.502  14.629  43.188  1.00  0.00    -0.000 C 
BRANCH  24  25
ATOM     25  C   UNL     1       9.353  13.750  44.112  1.00  0.00    -0.003 C 
ATOM     26  C   UNL     1      10.741  13.516  43.523  1.00  0.00     0.004 C 
ENDBRANCH  24  25
ENDBRANCH  23  24
ENDBRANCH  22  23
ENDBRANCH  21  22
ENDBRANCH  20  21
ENDBRANCH  19  20
ENDBRANCH  18  19
ENDBRANCH  17  18
ENDBRANCH  16  17
ENDBRANCH  15  16
ENDBRANCH   1  15
TORSDOF 22
ENDMDL
MODEL 2
REMARK VINA RESULT:    21.735      4.162     10.847
REMARK INTER + INTRA:          48.943
REMARK INTER:                  49.802
REMARK INTRA:                  -0.859
REMARK UNBOUND:                -0.746
REMARK SMILES CCCCCCCCCCCCCCCCCCCCCCCC(=O)[O-]
REMARK SMILES IDX 13 1 14 2 15 3 16 4 17 5 18 6 19 7 20 8 21 9 22 10 23 11
REMARK SMILES IDX 24 12 25 13 26 14 12 15 11 16 10 17 9 18 8 19 7 20 6 21 5 22
REMARK SMILES IDX 4 23 3 24 2 25 1 26
REMARK H PARENT
REMARK Flexibility Score: inf
ROOT
ATOM      1  C   UNL     1       4.954  19.879  51.663  1.00  0.00     0.000 C 
ENDROOT
BRANCH   1   2
ATOM      2  C   UNL     1       5.830  19.720  50.409  1.00  0.00     0.000 C 
BRANCH   2   3
ATOM      3  C   UNL     1       5.049  19.966  49.110  1.00  0.00     0.000 C 
BRANCH   3   4
ATOM      4  C   UNL     1       5.041  18.737  48.183  1.00  0.00     0.000 C 
BRANCH   4   5
ATOM      5  C   UNL     1       5.917  17.585  48.707  1.00  0.00     0.000 C 
BRANCH   5   6
ATOM      6  C   UNL     1       7.301  17.465  48.043  1.00  0.00     0.000 C 
BRANCH   6   7
ATOM      7  C   UNL     1       8.258  16.542  48.816  1.00  0.00     0.000 C 
BRANCH   7   8
ATOM      8  C   UNL     1       8.827  15.407  47.944  1.00  0.00     0.000 C 
BRANCH   8   9
ATOM      9  C   UNL     1       9.511  15.859  46.637  1.00  0.00     0.000 C 
BRANCH   9  10
ATOM     10  C   UNL     1       8.669  15.673  45.362  1.00  0.00     0.006 C 
BRANCH  10  11
ATOM     11  C   UNL     1       9.229  14.587  44.433  1.00  0.00     0.053 C 
BRANCH  11  12
ATOM     12  C   UNL     1       8.799  13.232  44.897  1.00  0.00     0.041 C 
ATOM     13  O   UNL     1       9.655  12.386  45.270  1.00  0.00    -0.550 OA
ATOM     14  O   UNL     1       7.455  12.879  44.856  1.00  0.00    -0.550 OA
ENDBRANCH  11  12
ENDBRANCH  10  11
ENDBRANCH   9  10
ENDBRANCH   8   9
ENDBRANCH   7   8
ENDBRANCH   6   7
ENDBRANCH   5   6
ENDBRANCH   4   5
ENDBRANCH   3   4
ENDBRANCH   2   3
ENDBRANCH   1   2
BRANCH   1  15
ATOM     15  C   UNL     1       5.791  19.979  52.956  1.00  0.00     0.000 C 
BRANCH  15  16
ATOM     16  C   UNL     1       5.203  20.937  54.006  1.00  0.00     0.000 C 
BRANCH  16  17
ATOM     17  C   UNL     1       5.693  20.635  55.433  1.00  0.00     0.000 C 
BRANCH  17  18
ATOM     18  C   UNL     1       6.862  21.540  55.874  1.00  0.00    -0.000 C 
BRANCH  18  19
ATOM     19  C   UNL     1       8.249  20.879  55.751  1.00  0.00    -0.000 C 
BRANCH  19  20
ATOM     20  C   UNL     1       9.445  21.843  55.842  1.00  0.00    -0.000 C 
BRANCH  20  21
ATOM     21  C   UNL     1      10.820  21.163  55.984  1.00  0.00    -0.000 C 
BRANCH  21  22
ATOM     22  C   UNL     1      11.993  22.124  55.725  1.00  0.00    -0.000 C 
BRANCH  22  23
ATOM     23  C   UNL     1      13.352  21.509  56.125  1.00  0.00    -0.000 C 
BRANCH  23  24
ATOM     24  C   UNL     1      14.419  21.614  55.021  1.00  0.00    -0.000 C 
BRANCH  24  25
ATOM     25  C   UNL     1      15.843  21.740  55.579  1.00  0.00    -0.003 C 
ATOM     26  C   UNL     1      16.866  21.849  54.452  1.00  0.00     0.004 C 
ENDBRANCH  24  25
ENDBRANCH  23  24
ENDBRANCH  22  23
ENDBRANCH  21  22
ENDBRANCH  20  21
ENDBRANCH  19  20
ENDBRANCH  18  19
ENDBRANCH  17  18
ENDBRANCH  16  17
ENDBRANCH  15  16
ENDBRANCH   1  15
TORSDOF 22
ENDMDL
MODEL 3
REMARK VINA RESULT:    21.932      1.754      2.513
REMARK INTER + INTRA:          49.392
REMARK INTER:                  50.288
REMARK INTRA:                  -0.896
REMARK UNBOUND:                -0.746
REMARK SMILES CCCCCCCCCCCCCCCCCCCCCCCC(=O)[O-]
REMARK SMILES IDX 13 1 14 2 15 3 16 4 17 5 18 6 19 7 20 8 21 9 22 10 23 11
REMARK SMILES IDX 24 12 25 13 26 14 12 15 11 16 10 17 9 18 8 19 7 20 6 21 5 22
REMARK SMILES IDX 4 23 3 24 2 25 1 26
REMARK H PARENT
REMARK Flexibility Score: inf
ROOT
ATOM      1  C   UNL     1       4.791  20.001  51.422  1.00  0.00     0.000 C 
ENDROOT
BRANCH   1   2
ATOM      2  C   UNL     1       3.832  20.975  52.128  1.00  0.00     0.000 C 
BRANCH   2   3
ATOM      3  C   UNL     1       3.896  20.858  53.658  1.00  0.00     0.000 C 
BRANCH   3   4
ATOM      4  C   UNL     1       4.958  21.783  54.279  1.00  0.00     0.000 C 
BRANCH   4   5
ATOM      5  C   UNL     1       5.483  21.271  55.633  1.00  0.00     0.000 C 
BRANCH   5   6
ATOM      6  C   UNL     1       6.782  21.938  56.122  1.00  0.00     0.000 C 
BRANCH   6   7
ATOM      7  C   UNL     1       8.005  21.564  55.268  1.00  0.00     0.000 C 
BRANCH   7   8
ATOM      8  C   UNL     1       9.268  21.309  56.111  1.00  0.00     0.000 C 
BRANCH   8   9
ATOM      9  C   UNL     1      10.150  20.134  55.639  1.00  0.00     0.000 C 
BRANCH   9  10
ATOM     10  C   UNL     1      11.555  20.528  55.149  1.00  0.00     0.006 C 
BRANCH  10  11
ATOM     11  C   UNL     1      12.664  20.110  56.125  1.00  0.00     0.053 C 
BRANCH  11  12
ATOM     12  C   UNL     1      13.986  20.074  55.426  1.00  0.00     0.041 C 
ATOM     13  O   UNL     1      14.148  20.693  54.341  1.00  0.00    -0.550 OA
ATOM     14  O   UNL     1      15.021  19.302  55.939  1.00  0.00    -0.550 OA
ENDBRANCH  11  12
ENDBRANCH  10  11
ENDBRANCH   9  10
ENDBRANCH   8   9
ENDBRANCH   7   8
ENDBRANCH   6   7
ENDBRANCH   5   6
ENDBRANCH   4   5
ENDBRANCH   3   4
ENDBRANCH   2   3
ENDBRANCH   1   2
BRANCH   1  15
ATOM     15  C   UNL     1       4.924  20.298  49.913  1.00  0.00     0.000 C 
BRANCH  15  16
ATOM     16  C   UNL     1       4.624  19.088  49.012  1.00  0.00     0.000 C 
BRANCH  16  17
ATOM     17  C   UNL     1       5.808  18.710  48.104  1.00  0.00     0.000 C 
BRANCH  17  18
ATOM     18  C   UNL     1       5.908  17.192  47.846  1.00  0.00    -0.000 C 
BRANCH  18  19
ATOM     19  C   UNL     1       6.025  16.815  46.356  1.00  0.00    -0.000 C 
BRANCH  19  20
ATOM     20  C   UNL     1       4.693  16.758  45.588  1.00  0.00    -0.000 C 
BRANCH  20  21
ATOM     21  C   UNL     1       4.827  16.741  44.053  1.00  0.00    -0.000 C 
BRANCH  21  22
ATOM     22  C   UNL     1       5.829  17.785  43.528  1.00  0.00    -0.000 C 
BRANCH  22  23
ATOM     23  C   UNL     1       6.770  17.200  42.452  1.00  0.00    -0.000 C 
BRANCH  23  24
ATOM     24  C   UNL     1       7.039  18.166  41.285  1.00  0.00    -0.000 C 
BRANCH  24  25
ATOM     25  C   UNL     1       6.862  19.639  41.677  1.00  0.00    -0.003 C 
ATOM     26  C   UNL     1       5.901  20.348  40.727  1.00  0.00     0.004 C 
ENDBRANCH  24  25
ENDBRANCH  23  24
ENDBRANCH  22  23
ENDBRANCH  21  22
ENDBRANCH  20  21
ENDBRANCH  19  20
ENDBRANCH  18  19
ENDBRANCH  17  18
ENDBRANCH  16  17
ENDBRANCH  15  16
ENDBRANCH   1  15
TORSDOF 22
ENDMDL
MODEL 4
REMARK VINA RESULT:    21.961      3.593     11.511
REMARK INTER + INTRA:          49.460
REMARK INTER:                  50.399
REMARK INTRA:                  -0.939
REMARK UNBOUND:                -0.746
REMARK SMILES CCCCCCCCCCCCCCCCCCCCCCCC(=O)[O-]
REMARK SMILES IDX 13 1 14 2 15 3 16 4 17 5 18 6 19 7 20 8 21 9 22 10 23 11
REMARK SMILES IDX 24 12 25 13 26 14 12 15 11 16 10 17 9 18 8 19 7 20 6 21 5 22
REMARK SMILES IDX 4 23 3 24 2 25 1 26
REMARK H PARENT
REMARK Flexibility Score: inf
ROOT
ATOM      1  C   UNL     1       7.982  16.747  47.011  1.00  0.00     0.000 C 
ENDROOT
BRANCH   1   2
ATOM      2  C   UNL     1       8.026  15.952  45.695  1.00  0.00     0.000 C 
BRANCH   2   3
ATOM      3  C   UNL     1       9.164  14.921  45.668  1.00  0.00     0.000 C 
BRANCH   3   4
ATOM      4  C   UNL     1       9.089  13.989  44.445  1.00  0.00     0.000 C 
BRANCH   4   5
ATOM      5  C   UNL     1      10.363  14.029  43.581  1.00  0.00     0.000 C 
BRANCH   5   6
ATOM      6  C   UNL     1      10.858  12.656  43.088  1.00  0.00     0.000 C 
BRANCH   6   7
ATOM      7  C   UNL     1      12.392  12.561  43.024  1.00  0.00     0.000 C 
BRANCH   7   8
ATOM      8  C   UNL     1      12.934  11.239  43.599  1.00  0.00     0.000 C 
BRANCH   8   9
ATOM      9  C   UNL     1      14.439  11.237  43.942  1.00  0.00     0.000 C 
BRANCH   9  10
ATOM     10  C   UNL     1      14.836  12.119  45.139  1.00  0.00     0.006 C 
BRANCH  10  11
ATOM     11  C   UNL     1      14.979  11.322  46.443  1.00  0.00     0.053 C 
BRANCH  11  12
ATOM     12  C   UNL     1      15.344  12.233  47.572  1.00  0.00     0.041 C 
ATOM     13  O   UNL     1      16.489  12.170  48.094  1.00  0.00    -0.550 OA
ATOM     14  O   UNL     1      14.398  13.109  48.091  1.00  0.00    -0.550 OA
ENDBRANCH  11  12
ENDBRANCH  10  11
ENDBRANCH   9  10
ENDBRANCH   8   9
ENDBRANCH   7   8
ENDBRANCH   6   7
ENDBRANCH   5   6
ENDBRANCH   4   5
ENDBRANCH   3   4
ENDBRANCH   2   3
ENDBRANCH   1   2
BRANCH   1  15
ATOM     15  C   UNL     1       6.540  16.980  47.509  1.00  0.00     0.000 C 
BRANCH  15  16
ATOM     16  C   UNL     1       6.071  18.441  47.398  1.00  0.00     0.000 C 
BRANCH  16  17
ATOM     17  C   UNL     1       5.032  18.818  48.468  1.00  0.00     0.000 C 
BRANCH  17  18
ATOM     18  C   UNL     1       5.671  19.279  49.794  1.00  0.00    -0.000 C 
BRANCH  18  19
ATOM     19  C   UNL     1       4.659  19.810  50.828  1.00  0.00    -0.000 C 
BRANCH  19  20
ATOM     20  C   UNL     1       5.273  20.586  52.007  1.00  0.00    -0.000 C 
BRANCH  20  21
ATOM     21  C   UNL     1       4.384  21.705  52.583  1.00  0.00    -0.000 C 
BRANCH  21  22
ATOM     22  C   UNL     1       4.147  21.562  54.097  1.00  0.00    -0.000 C 
BRANCH  22  23
ATOM     23  C   UNL     1       4.614  20.192  54.634  1.00  0.00    -0.000 C 
BRANCH  23  24
ATOM     24  C   UNL     1       5.637  20.299  55.778  1.00  0.00    -0.000 C 
BRANCH  24  25
ATOM     25  C   UNL     1       6.739  21.328  55.497  1.00  0.00    -0.003 C 
ATOM     26  C   UNL     1       8.123  20.726  55.723  1.00  0.00     0.004 C 
ENDBRANCH  24  25
ENDBRANCH  23  24
ENDBRANCH  22  23
ENDBRANCH  21  22
ENDBRANCH  20  21
ENDBRANCH  19  20
ENDBRANCH  18  19
ENDBRANCH  17  18
ENDBRANCH  16  17
ENDBRANCH  15  16
ENDBRANCH   1  15
TORSDOF 22
ENDMDL
MODEL 5
REMARK VINA RESULT:    22.296      3.860     11.704
REMARK INTER + INTRA:          50.224
REMARK INTER:                  51.310
REMARK INTRA:                  -1.086
REMARK UNBOUND:                -0.746
REMARK SMILES CCCCCCCCCCCCCCCCCCCCCCCC(=O)[O-]
REMARK SMILES IDX 13 1 14 2 15 3 16 4 17 5 18 6 19 7 20 8 21 9 22 10 23 11
REMARK SMILES IDX 24 12 25 13 26 14 12 15 11 16 10 17 9 18 8 19 7 20 6 21 5 22
REMARK SMILES IDX 4 23 3 24 2 25 1 26
REMARK H PARENT
REMARK Flexibility Score: inf
ROOT
ATOM      1  C   UNL     1       8.989  15.377  45.058  1.00  0.00     0.000 C 
ENDROOT
BRANCH   1   2
ATOM      2  C   UNL     1       8.578  13.969  44.593  1.00  0.00     0.000 C 
BRANCH   2   3
ATOM      3  C   UNL     1       9.417  13.473  43.406  1.00  0.00     0.000 C 
BRANCH   3   4
ATOM      4  C   UNL     1      10.930  13.629  43.645  1.00  0.00     0.000 C 
BRANCH   4   5
ATOM      5  C   UNL     1      11.772  12.628  42.833  1.00  0.00     0.000 C 
BRANCH   5   6
ATOM      6  C   UNL     1      13.210  12.422  43.343  1.00  0.00     0.000 C 
BRANCH   6   7
ATOM      7  C   UNL     1      13.666  10.955  43.273  1.00  0.00     0.000 C 
BRANCH   7   8
ATOM      8  C   UNL     1      14.282  10.455  44.593  1.00  0.00     0.000 C 
BRANCH   8   9
ATOM      9  C   UNL     1      15.788  10.744  44.768  1.00  0.00     0.000 C 
BRANCH   9  10
ATOM     10  C   UNL     1      16.120  11.973  45.634  1.00  0.00     0.006 C 
BRANCH  10  11
ATOM     11  C   UNL     1      14.937  12.429  46.498  1.00  0.00     0.053 C 
BRANCH  11  12
ATOM     12  C   UNL     1      15.381  12.664  47.906  1.00  0.00     0.041 C 
ATOM     13  O   UNL     1      14.760  13.478  48.641  1.00  0.00    -0.550 OA
ATOM     14  O   UNL     1      16.521  12.033  48.389  1.00  0.00    -0.550 OA
ENDBRANCH  11  12
ENDBRANCH  10  11
ENDBRANCH   9  10
ENDBRANCH   8   9
ENDBRANCH   7   8
ENDBRANCH   6   7
ENDBRANCH   5   6
ENDBRANCH   4   5
ENDBRANCH   3   4
ENDBRANCH   2   3
ENDBRANCH   1   2
BRANCH   1  15
ATOM     15  C   UNL     1       9.185  15.457  46.587  1.00  0.00     0.000 C 
BRANCH  15  16
ATOM     16  C   UNL     1       8.382  16.584  47.259  1.00  0.00     0.000 C 
BRANCH  16  17
ATOM     17  C   UNL     1       6.899  16.587  46.851  1.00  0.00     0.000 C 
BRANCH  17  18
ATOM     18  C   UNL     1       6.127  17.809  47.392  1.00  0.00    -0.000 C 
BRANCH  18  19
ATOM     19  C   UNL     1       6.288  18.033  48.908  1.00  0.00    -0.000 C 
BRANCH  19  20
ATOM     20  C   UNL     1       5.442  19.176  49.496  1.00  0.00    -0.000 C 
BRANCH  20  21
ATOM     21  C   UNL     1       5.918  19.701  50.863  1.00  0.00    -0.000 C 
BRANCH  21  22
ATOM     22  C   UNL     1       4.936  20.705  51.493  1.00  0.00    -0.000 C 
BRANCH  22  23
ATOM     23  C   UNL     1       4.513  20.292  52.920  1.00  0.00    -0.000 C 
BRANCH  23  24
ATOM     24  C   UNL     1       4.463  21.469  53.909  1.00  0.00    -0.000 C 
BRANCH  24  25
ATOM     25  C   UNL     1       4.938  21.086  55.316  1.00  0.00    -0.003 C 
ATOM     26  C   UNL     1       6.459  20.964  55.367  1.00  0.00     0.004 C 
ENDBRANCH  24  25
ENDBRANCH  23  24
ENDBRANCH  22  23
ENDBRANCH  21  22
ENDBRANCH  20  21
ENDBRANCH  19  20
ENDBRANCH  18  19
ENDBRANCH  17  18
ENDBRANCH  16  17
ENDBRANCH  15  16
ENDBRANCH   1  15
TORSDOF 22
ENDMDL
MODEL 6
REMARK VINA RESULT:    22.408      4.409      8.773
REMARK INTER + INTRA:          50.481
REMARK INTER:                  51.490
REMARK INTRA:                  -1.010
REMARK UNBOUND:                -0.746
REMARK SMILES CCCCCCCCCCCCCCCCCCCCCCCC(=O)[O-]
REMARK SMILES IDX 13 1 14 2 15 3 16 4 17 5 18 6 19 7 20 8 21 9 22 10 23 11
REMARK SMILES IDX 24 12 25 13 26 14 12 15 11 16 10 17 9 18 8 19 7 20 6 21 5 22
REMARK SMILES IDX 4 23 3 24 2 25 1 26
REMARK H PARENT
REMARK Flexibility Score: inf
ROOT
ATOM      1  C   UNL     1      10.162  15.437  45.518  1.00  0.00     0.000 C 
ENDROOT
BRANCH   1   2
ATOM      2  C   UNL     1       9.722  15.773  46.953  1.00  0.00     0.000 C 
BRANCH   2   3
ATOM      3  C   UNL     1       8.225  16.099  47.049  1.00  0.00     0.000 C 
BRANCH   3   4
ATOM      4  C   UNL     1       7.885  16.962  48.277  1.00  0.00     0.000 C 
BRANCH   4   5
ATOM      5  C   UNL     1       6.375  17.228  48.424  1.00  0.00     0.000 C 
BRANCH   5   6
ATOM      6  C   UNL     1       5.898  18.589  47.882  1.00  0.00     0.000 C 
BRANCH   6   7
ATOM      7  C   UNL     1       4.909  19.295  48.824  1.00  0.00     0.000 C 
BRANCH   7   8
ATOM      8  C   UNL     1       5.569  19.783  50.128  1.00  0.00     0.000 C 
BRANCH   8   9
ATOM      9  C   UNL     1       4.599  20.049  51.298  1.00  0.00     0.000 C 
BRANCH   9  10
ATOM     10  C   UNL     1       5.227  20.738  52.523  1.00  0.00     0.006 C 
BRANCH  10  11
ATOM     11  C   UNL     1       4.227  21.614  53.290  1.00  0.00     0.053 C 
BRANCH  11  12
ATOM     12  C   UNL     1       4.246  21.273  54.746  1.00  0.00     0.041 C 
ATOM     13  O   UNL     1       5.072  21.828  55.518  1.00  0.00    -0.550 OA
ATOM     14  O   UNL     1       3.393  20.293  55.240  1.00  0.00    -0.550 OA
ENDBRANCH  11  12
ENDBRANCH  10  11
ENDBRANCH   9  10
ENDBRANCH   8   9
ENDBRANCH   7   8
ENDBRANCH   6   7
ENDBRANCH   5   6
ENDBRANCH   4   5
ENDBRANCH   3   4
ENDBRANCH   2   3
ENDBRANCH   1   2
BRANCH   1  15
ATOM     15  C   UNL     1       8.967  15.097  44.601  1.00  0.00     0.000 C 
BRANCH  15  16
ATOM     16  C   UNL     1       9.313  14.119  43.465  1.00  0.00     0.000 C 
BRANCH  16  17
ATOM     17  C   UNL     1      10.811  13.772  43.410  1.00  0.00     0.000 C 
BRANCH  17  18
ATOM     18  C   UNL     1      11.073  12.281  43.108  1.00  0.00    -0.000 C 
BRANCH  18  19
ATOM     19  C   UNL     1      12.496  11.986  42.594  1.00  0.00    -0.000 C 
BRANCH  19  20
ATOM     20  C   UNL     1      13.597  11.997  43.669  1.00  0.00    -0.000 C 
BRANCH  20  21
ATOM     21  C   UNL     1      14.460  10.722  43.731  1.00  0.00    -0.000 C 
BRANCH  21  22
ATOM     22  C   UNL     1      15.130  10.518  45.101  1.00  0.00    -0.000 C 
BRANCH  22  23
ATOM     23  C   UNL     1      15.420  11.857  45.814  1.00  0.00    -0.000 C 
BRANCH  23  24
ATOM     24  C   UNL     1      15.238  11.789  47.340  1.00  0.00    -0.000 C 
BRANCH  24  25
ATOM     25  C   UNL     1      15.731  13.053  48.056  1.00  0.00    -0.003 C 
ATOM     26  C   UNL     1      14.683  13.574  49.036  1.00  0.00     0.004 C 
ENDBRANCH  24  25
ENDBRANCH  23  24
ENDBRANCH  22  23
ENDBRANCH  21  22
ENDBRANCH  20  21
ENDBRANCH  19  20
ENDBRANCH  18  19
ENDBRANCH  17  18
ENDBRANCH  16  17
ENDBRANCH  15  16
ENDBRANCH   1  15
TORSDOF 22
ENDMDL
