MODEL 1
REMARK VINA RESULT:    22.935      0.000      0.000
REMARK INTER + INTRA:          26.677
REMARK INTER:                  26.958
REMARK INTRA:                  -0.281
REMARK UNBOUND:                -0.281
REMARK SMILES O=c1c(O)c(-c2ccc(O)cc2)oc2cc(O)cc(O)c12
REMARK SMILES IDX 5 1 3 2 2 3 1 4 21 5 19 6 18 7 16 8 15 9 14 10 13 11 6 12
REMARK SMILES IDX 7 13 8 14 9 15 12 16 11 17 10 18 4 20 20 22 17 24
REMARK H PARENT 10 19 4 21 20 23 17 25
REMARK Flexibility Score: inf
ROOT
ATOM      1  C   UNL     1      -6.353   5.147  15.341  1.00  0.00     0.180 A 
ATOM      2  C   UNL     1      -6.457   4.569  16.618  1.00  0.00     0.208 A 
ATOM      3  C   UNL     1      -5.727   3.404  16.900  1.00  0.00     0.238 A 
ATOM      4  O   UNL     1      -5.782   2.922  18.062  1.00  0.00    -0.285 OA
ATOM      5  C   UNL     1      -4.914   2.822  15.897  1.00  0.00     0.111 A 
ATOM      6  C   UNL     1      -4.163   1.620  16.060  1.00  0.00     0.134 A 
ATOM      7  C   UNL     1      -3.292   1.207  15.044  1.00  0.00     0.093 A 
ATOM      8  C   UNL     1      -3.194   1.915  13.848  1.00  0.00     0.123 A 
ATOM      9  C   UNL     1      -3.968   3.060  13.654  1.00  0.00     0.094 A 
ATOM     10  C   UNL     1      -4.819   3.517  14.663  1.00  0.00     0.146 A 
ATOM     11  O   UNL     1      -5.532   4.615  14.443  1.00  0.00    -0.452 OA
ENDROOT
BRANCH   1  12
ATOM     12  C   UNL     1      -7.111   6.361  14.961  1.00  0.00     0.021 A 
ATOM     13  C   UNL     1      -8.335   6.275  14.271  1.00  0.00     0.016 A 
ATOM     14  C   UNL     1      -9.020   7.437  13.901  1.00  0.00     0.047 A 
ATOM     15  C   UNL     1      -8.487   8.696  14.202  1.00  0.00     0.115 A 
ATOM     16  C   UNL     1      -6.573   7.629  15.241  1.00  0.00     0.016 A 
ATOM     17  C   UNL     1      -7.261   8.788  14.870  1.00  0.00     0.047 A 
BRANCH  15  18
ATOM     18  O   UNL     1      -9.161   9.859  13.840  1.00  0.00    -0.508 OA
ATOM     19  H   UNL     1      -8.713  10.767  13.883  1.00  0.00     0.293 HD
ENDBRANCH  15  18
ENDBRANCH   1  12
BRANCH   2  20
ATOM     20  O   UNL     1      -7.248   5.172  17.601  1.00  0.00    -0.502 OA
ATOM     21  H   UNL     1      -6.971   5.212  18.574  1.00  0.00     0.293 HD
ENDBRANCH   2  20
BRANCH   6  22
ATOM     22  O   UNL     1      -4.256   0.787  17.179  1.00  0.00    -0.507 OA
ATOM     23  H   UNL     1      -5.020   0.154  17.363  1.00  0.00     0.293 HD
ENDBRANCH   6  22
BRANCH   8  24
ATOM     24  O   UNL     1      -2.328   1.468  12.852  1.00  0.00    -0.508 OA
ATOM     25  H   UNL     1      -1.671   2.092  12.400  1.00  0.00     0.293 HD
ENDBRANCH   8  24
TORSDOF 5
ENDMDL
MODEL 2
REMARK VINA RESULT:    22.962      2.204      6.479
REMARK INTER + INTRA:          26.708
REMARK INTER:                  26.737
REMARK INTRA:                  -0.029
REMARK UNBOUND:                -0.281
REMARK SMILES O=c1c(O)c(-c2ccc(O)cc2)oc2cc(O)cc(O)c12
REMARK SMILES IDX 5 1 3 2 2 3 1 4 21 5 19 6 18 7 16 8 15 9 14 10 13 11 6 12
REMARK SMILES IDX 7 13 8 14 9 15 12 16 11 17 10 18 4 20 20 22 17 24
REMARK H PARENT 10 19 4 21 20 23 17 25
REMARK Flexibility Score: inf
ROOT
ATOM      1  C   UNL     1      -3.877   2.661  13.966  1.00  0.00     0.180 A 
ATOM      2  C   UNL     1      -3.867   2.228  15.303  1.00  0.00     0.208 A 
ATOM      3  C   UNL     1      -4.923   2.602  16.148  1.00  0.00     0.238 A 
ATOM      4  O   UNL     1      -4.936   2.167  17.330  1.00  0.00    -0.285 OA
ATOM      5  C   UNL     1      -5.969   3.417  15.651  1.00  0.00     0.111 A 
ATOM      6  C   UNL     1      -7.068   3.889  16.429  1.00  0.00     0.134 A 
ATOM      7  C   UNL     1      -8.112   4.580  15.801  1.00  0.00     0.093 A 
ATOM      8  C   UNL     1      -8.065   4.873  14.439  1.00  0.00     0.123 A 
ATOM      9  C   UNL     1      -6.966   4.467  13.680  1.00  0.00     0.094 A 
ATOM     10  C   UNL     1      -5.927   3.745  14.271  1.00  0.00     0.146 A 
ATOM     11  O   UNL     1      -4.904   3.370  13.512  1.00  0.00    -0.452 OA
ENDROOT
BRANCH   1  12
ATOM     12  C   UNL     1      -2.787   2.328  13.021  1.00  0.00     0.021 A 
ATOM     13  C   UNL     1      -2.416   0.994  12.772  1.00  0.00     0.016 A 
ATOM     14  C   UNL     1      -1.366   0.705  11.893  1.00  0.00     0.047 A 
ATOM     15  C   UNL     1      -0.666   1.743  11.266  1.00  0.00     0.115 A 
ATOM     16  C   UNL     1      -2.065   3.364  12.404  1.00  0.00     0.016 A 
ATOM     17  C   UNL     1      -1.016   3.071  11.526  1.00  0.00     0.047 A 
BRANCH  15  18
ATOM     18  O   UNL     1       0.380   1.467  10.389  1.00  0.00    -0.508 OA
ATOM     19  H   UNL     1       1.328   1.766  10.584  1.00  0.00     0.293 HD
ENDBRANCH  15  18
ENDBRANCH   1  12
BRANCH   2  20
ATOM     20  O   UNL     1      -2.836   1.406  15.768  1.00  0.00    -0.502 OA
ATOM     21  H   UNL     1      -1.870   1.537  15.495  1.00  0.00     0.293 HD
ENDBRANCH   2  20
BRANCH   6  22
ATOM     22  O   UNL     1      -7.169   3.731  17.814  1.00  0.00    -0.507 OA
ATOM     23  H   UNL     1      -7.828   3.122  18.277  1.00  0.00     0.293 HD
ENDBRANCH   6  22
BRANCH   8  24
ATOM     24  O   UNL     1      -9.114   5.576  13.850  1.00  0.00    -0.508 OA
ATOM     25  H   UNL     1      -9.091   6.585  13.757  1.00  0.00     0.293 HD
ENDBRANCH   8  24
TORSDOF 5
ENDMDL
MODEL 3
REMARK VINA RESULT:    23.393      1.771      6.864
REMARK INTER + INTRA:          27.214
REMARK INTER:                  27.492
REMARK INTRA:                  -0.277
REMARK UNBOUND:                -0.281
REMARK SMILES O=c1c(O)c(-c2ccc(O)cc2)oc2cc(O)cc(O)c12
REMARK SMILES IDX 5 1 3 2 2 3 1 4 21 5 19 6 18 7 16 8 15 9 14 10 13 11 6 12
REMARK SMILES IDX 7 13 8 14 9 15 12 16 11 17 10 18 4 20 20 22 17 24
REMARK H PARENT 10 19 4 21 20 23 17 25
REMARK Flexibility Score: inf
ROOT
ATOM      1  C   UNL     1      -5.692   3.921  15.036  1.00  0.00     0.180 A 
ATOM      2  C   UNL     1      -6.801   3.736  14.194  1.00  0.00     0.208 A 
ATOM      3  C   UNL     1      -7.675   4.812  13.971  1.00  0.00     0.238 A 
ATOM      4  O   UNL     1      -8.636   4.655  13.173  1.00  0.00    -0.285 OA
ATOM      5  C   UNL     1      -7.438   6.054  14.606  1.00  0.00     0.111 A 
ATOM      6  C   UNL     1      -8.280   7.200  14.484  1.00  0.00     0.134 A 
ATOM      7  C   UNL     1      -7.878   8.416  15.052  1.00  0.00     0.093 A 
ATOM      8  C   UNL     1      -6.701   8.511  15.791  1.00  0.00     0.123 A 
ATOM      9  C   UNL     1      -5.899   7.382  15.967  1.00  0.00     0.094 A 
ATOM     10  C   UNL     1      -6.255   6.165  15.382  1.00  0.00     0.146 A 
ATOM     11  O   UNL     1      -5.460   5.117  15.565  1.00  0.00    -0.452 OA
ENDROOT
BRANCH   1  12
ATOM     12  C   UNL     1      -4.740   2.828  15.339  1.00  0.00     0.021 A 
ATOM     13  C   UNL     1      -4.849   2.067  16.518  1.00  0.00     0.016 A 
ATOM     14  C   UNL     1      -3.923   1.055  16.794  1.00  0.00     0.047 A 
ATOM     15  C   UNL     1      -2.871   0.801  15.905  1.00  0.00     0.115 A 
ATOM     16  C   UNL     1      -3.670   2.579  14.463  1.00  0.00     0.016 A 
ATOM     17  C   UNL     1      -2.747   1.567  14.742  1.00  0.00     0.047 A 
BRANCH  15  18
ATOM     18  O   UNL     1      -1.945  -0.205  16.169  1.00  0.00    -0.508 OA
ATOM     19  H   UNL     1      -1.381  -0.612  15.432  1.00  0.00     0.293 HD
ENDBRANCH  15  18
ENDBRANCH   1  12
BRANCH   2  20
ATOM     20  O   UNL     1      -7.005   2.507  13.559  1.00  0.00    -0.502 OA
ATOM     21  H   UNL     1      -7.784   2.339  12.935  1.00  0.00     0.293 HD
ENDBRANCH   2  20
BRANCH   6  22
ATOM     22  O   UNL     1      -9.523   7.191  13.844  1.00  0.00    -0.507 OA
ATOM     23  H   UNL     1      -9.655   7.227  12.844  1.00  0.00     0.293 HD
ENDBRANCH   6  22
BRANCH   8  24
ATOM     24  O   UNL     1      -6.339   9.733  16.355  1.00  0.00    -0.508 OA
ATOM     25  H   UNL     1      -5.376   9.947  16.585  1.00  0.00     0.293 HD
ENDBRANCH   8  24
TORSDOF 5
ENDMDL
