MODEL 1
REMARK VINA RESULT:    -4.389      0.000      0.000
REMARK INTER + INTRA:          -5.177
REMARK INTER:                  -5.031
REMARK INTRA:                  -0.146
REMARK UNBOUND:                -0.146
REMARK SMILES O=C([O-])C=Cc1ccc(O)cc1
REMARK SMILES IDX 6 1 7 2 12 3 8 4 11 5 9 6 5 7 4 8 2 9 1 10 3 11 10 12
REMARK H PARENT 10 13
REMARK Flexibility Score: inf
ROOT
ATOM      1  C   UNL     1       0.112 -23.936 -45.339  1.00  0.00    -0.025 A 
ATOM      2  C   UNL     1      -1.188 -24.067 -45.858  1.00  0.00     0.012 A 
ATOM      3  C   UNL     1       1.134 -24.761 -45.851  1.00  0.00     0.012 A 
ATOM      4  C   UNL     1      -1.468 -25.016 -46.847  1.00  0.00     0.047 A 
ATOM      5  C   UNL     1       0.851 -25.708 -46.840  1.00  0.00     0.047 A 
ATOM      6  C   UNL     1      -0.452 -25.839 -47.339  1.00  0.00     0.115 A 
ENDROOT
BRANCH   1   7
ATOM      7  C   UNL     1       0.360 -22.908 -44.299  1.00  0.00     0.010 C 
ATOM      8  C   UNL     1      -0.031 -21.630 -44.406  1.00  0.00     0.025 C 
BRANCH   8   9
ATOM      9  C   UNL     1       0.246 -20.641 -43.354  1.00  0.00     0.064 C 
ATOM     10  O   UNL     1       1.089 -20.907 -42.458  1.00  0.00    -0.545 OA
ATOM     11  O   UNL     1      -0.409 -19.415 -43.332  1.00  0.00    -0.545 OA
ENDBRANCH   8   9
ENDBRANCH   1   7
BRANCH   6  12
ATOM     12  O   UNL     1      -0.745 -26.779 -48.323  1.00  0.00    -0.508 OA
ATOM     13  H   UNL     1      -0.796 -26.523 -49.303  1.00  0.00     0.293 HD
ENDBRANCH   6  12
TORSDOF 3
ENDMDL
MODEL 2
REMARK VINA RESULT:    -4.291     12.800     14.076
REMARK INTER + INTRA:          -5.064
REMARK INTER:                  -4.912
REMARK INTRA:                  -0.152
REMARK UNBOUND:                -0.146
REMARK SMILES O=C([O-])C=Cc1ccc(O)cc1
REMARK SMILES IDX 6 1 7 2 12 3 8 4 11 5 9 6 5 7 4 8 2 9 1 10 3 11 10 12
REMARK H PARENT 10 13
REMARK Flexibility Score: inf
ROOT
ATOM      1  C   UNL     1       0.727 -10.662 -41.707  1.00  0.00    -0.025 A 
ATOM      2  C   UNL     1       0.829  -9.408 -42.336  1.00  0.00     0.012 A 
ATOM      3  C   UNL     1       1.320 -11.782 -42.324  1.00  0.00     0.012 A 
ATOM      4  C   UNL     1       1.485  -9.280 -43.565  1.00  0.00     0.047 A 
ATOM      5  C   UNL     1       1.975 -11.650 -43.552  1.00  0.00     0.047 A 
ATOM      6  C   UNL     1       2.057 -10.398 -44.177  1.00  0.00     0.115 A 
ENDROOT
BRANCH   1   7
ATOM      7  C   UNL     1       0.031 -10.744 -40.399  1.00  0.00     0.010 C 
ATOM      8  C   UNL     1      -0.332  -9.672 -39.681  1.00  0.00     0.025 C 
BRANCH   8   9
ATOM      9  C   UNL     1      -1.012  -9.801 -38.382  1.00  0.00     0.064 C 
ATOM     10  O   UNL     1      -2.099 -10.431 -38.310  1.00  0.00    -0.545 OA
ATOM     11  O   UNL     1      -0.472  -9.236 -37.232  1.00  0.00    -0.545 OA
ENDBRANCH   8   9
ENDBRANCH   1   7
BRANCH   6  12
ATOM     12  O   UNL     1       2.706 -10.256 -45.400  1.00  0.00    -0.508 OA
ATOM     13  H   UNL     1       2.819 -11.039 -46.035  1.00  0.00     0.293 HD
ENDBRANCH   6  12
TORSDOF 3
ENDMDL
MODEL 3
REMARK VINA RESULT:    -4.217      3.257      5.172
REMARK INTER + INTRA:          -4.980
REMARK INTER:                  -4.846
REMARK INTRA:                  -0.134
REMARK UNBOUND:                -0.146
REMARK SMILES O=C([O-])C=Cc1ccc(O)cc1
REMARK SMILES IDX 6 1 7 2 12 3 8 4 11 5 9 6 5 7 4 8 2 9 1 10 3 11 10 12
REMARK H PARENT 10 13
REMARK Flexibility Score: inf
ROOT
ATOM      1  C   UNL     1      -0.422 -25.112 -46.466  1.00  0.00    -0.025 A 
ATOM      2  C   UNL     1       0.530 -25.991 -47.013  1.00  0.00     0.012 A 
ATOM      3  C   UNL     1       0.027 -23.976 -45.763  1.00  0.00     0.012 A 
ATOM      4  C   UNL     1       1.898 -25.755 -46.841  1.00  0.00     0.047 A 
ATOM      5  C   UNL     1       1.396 -23.744 -45.593  1.00  0.00     0.047 A 
ATOM      6  C   UNL     1       2.335 -24.634 -46.130  1.00  0.00     0.115 A 
ENDROOT
BRANCH   1   7
ATOM      7  C   UNL     1      -1.861 -25.400 -46.685  1.00  0.00     0.010 C 
ATOM      8  C   UNL     1      -2.713 -25.726 -45.704  1.00  0.00     0.025 C 
BRANCH   8   9
ATOM      9  C   UNL     1      -4.131 -26.014 -45.968  1.00  0.00     0.064 C 
ATOM     10  O   UNL     1      -5.016 -25.510 -45.228  1.00  0.00    -0.545 OA
ATOM     11  O   UNL     1      -4.511 -26.835 -47.024  1.00  0.00    -0.545 OA
ENDBRANCH   8   9
ENDBRANCH   1   7
BRANCH   6  12
ATOM     12  O   UNL     1       3.699 -24.413 -45.966  1.00  0.00    -0.508 OA
ATOM     13  H   UNL     1       4.356 -25.183 -45.889  1.00  0.00     0.293 HD
ENDBRANCH   6  12
TORSDOF 3
ENDMDL
MODEL 4
REMARK VINA RESULT:    -4.116      2.880      3.838
REMARK INTER + INTRA:          -4.864
REMARK INTER:                  -4.728
REMARK INTRA:                  -0.136
REMARK UNBOUND:                -0.146
REMARK SMILES O=C([O-])C=Cc1ccc(O)cc1
REMARK SMILES IDX 6 1 7 2 12 3 8 4 11 5 9 6 5 7 4 8 2 9 1 10 3 11 10 12
REMARK H PARENT 10 13
REMARK Flexibility Score: inf
ROOT
ATOM      1  C   UNL     1       1.299 -24.905 -46.114  1.00  0.00    -0.025 A 
ATOM      2  C   UNL     1       1.266 -26.066 -46.907  1.00  0.00     0.012 A 
ATOM      3  C   UNL     1       0.096 -24.208 -45.880  1.00  0.00     0.012 A 
ATOM      4  C   UNL     1       0.066 -26.506 -47.475  1.00  0.00     0.047 A 
ATOM      5  C   UNL     1      -1.102 -24.652 -46.448  1.00  0.00     0.047 A 
ATOM      6  C   UNL     1      -1.119 -25.801 -47.249  1.00  0.00     0.115 A 
ENDROOT
BRANCH   1   7
ATOM      7  C   UNL     1       2.594 -24.485 -45.526  1.00  0.00     0.010 C 
ATOM      8  C   UNL     1       3.157 -25.077 -44.463  1.00  0.00     0.025 C 
BRANCH   8   9
ATOM      9  C   UNL     1       4.439 -24.619 -43.906  1.00  0.00     0.064 C 
ATOM     10  O   UNL     1       5.516 -25.066 -44.380  1.00  0.00    -0.545 OA
ATOM     11  O   UNL     1       4.481 -23.701 -42.863  1.00  0.00    -0.545 OA
ENDBRANCH   8   9
ENDBRANCH   1   7
BRANCH   6  12
ATOM     12  O   UNL     1      -2.306 -26.251 -47.821  1.00  0.00    -0.508 OA
ATOM     13  H   UNL     1      -3.104 -26.510 -47.251  1.00  0.00     0.293 HD
ENDBRANCH   6  12
TORSDOF 3
ENDMDL
MODEL 5
REMARK VINA RESULT:    -4.074     13.624     15.347
REMARK INTER + INTRA:          -4.815
REMARK INTER:                  -4.669
REMARK INTRA:                  -0.146
REMARK UNBOUND:                -0.146
REMARK SMILES O=C([O-])C=Cc1ccc(O)cc1
REMARK SMILES IDX 6 1 7 2 12 3 8 4 11 5 9 6 5 7 4 8 2 9 1 10 3 11 10 12
REMARK H PARENT 10 13
REMARK Flexibility Score: inf
ROOT
ATOM      1  C   UNL     1      -0.816  -9.476 -41.854  1.00  0.00    -0.025 A 
ATOM      2  C   UNL     1      -0.924  -9.092 -40.506  1.00  0.00     0.012 A 
ATOM      3  C   UNL     1      -1.836  -9.099 -42.751  1.00  0.00     0.012 A 
ATOM      4  C   UNL     1      -2.036  -8.372 -40.057  1.00  0.00     0.047 A 
ATOM      5  C   UNL     1      -2.947  -8.378 -42.299  1.00  0.00     0.047 A 
ATOM      6  C   UNL     1      -3.050  -8.015 -40.950  1.00  0.00     0.115 A 
ENDROOT
BRANCH   1   7
ATOM      7  C   UNL     1       0.387 -10.230 -42.283  1.00  0.00     0.010 C 
ATOM      8  C   UNL     1       1.635  -9.920 -41.902  1.00  0.00     0.025 C 
BRANCH   8   9
ATOM      9  C   UNL     1       2.801 -10.689 -42.361  1.00  0.00     0.064 C 
ATOM     10  O   UNL     1       2.842 -11.108 -43.547  1.00  0.00    -0.545 OA
ATOM     11  O   UNL     1       3.862 -10.962 -41.504  1.00  0.00    -0.545 OA
ENDBRANCH   8   9
ENDBRANCH   1   7
BRANCH   6  12
ATOM     12  O   UNL     1      -4.151  -7.298 -40.489  1.00  0.00    -0.508 OA
ATOM     13  H   UNL     1      -4.128  -6.803 -39.604  1.00  0.00     0.293 HD
ENDBRANCH   6  12
TORSDOF 3
ENDMDL
MODEL 6
REMARK VINA RESULT:    -3.975     15.679     16.962
REMARK INTER + INTRA:          -4.702
REMARK INTER:                  -4.562
REMARK INTRA:                  -0.140
REMARK UNBOUND:                -0.146
REMARK SMILES O=C([O-])C=Cc1ccc(O)cc1
REMARK SMILES IDX 6 1 7 2 12 3 8 4 11 5 9 6 5 7 4 8 2 9 1 10 3 11 10 12
REMARK H PARENT 10 13
REMARK Flexibility Score: inf
ROOT
ATOM      1  C   UNL     1      -0.979  -9.828 -35.757  1.00  0.00    -0.025 A 
ATOM      2  C   UNL     1      -0.487  -8.532 -35.993  1.00  0.00     0.012 A 
ATOM      3  C   UNL     1      -1.302 -10.644 -36.860  1.00  0.00     0.012 A 
ATOM      4  C   UNL     1      -0.346  -8.052 -37.299  1.00  0.00     0.047 A 
ATOM      5  C   UNL     1      -1.159 -10.160 -38.164  1.00  0.00     0.047 A 
ATOM      6  C   UNL     1      -0.683  -8.862 -38.387  1.00  0.00     0.115 A 
ENDROOT
BRANCH   1   7
ATOM      7  C   UNL     1      -1.100 -10.295 -34.354  1.00  0.00     0.010 C 
ATOM      8  C   UNL     1      -0.653 -11.483 -33.923  1.00  0.00     0.025 C 
BRANCH   8   9
ATOM      9  C   UNL     1      -0.804 -11.910 -32.524  1.00  0.00     0.064 C 
ATOM     10  O   UNL     1      -1.864 -11.636 -31.902  1.00  0.00    -0.545 OA
ATOM     11  O   UNL     1       0.206 -12.613 -31.875  1.00  0.00    -0.545 OA
ENDBRANCH   8   9
ENDBRANCH   1   7
BRANCH   6  12
ATOM     12  O   UNL     1      -0.538  -8.370 -39.682  1.00  0.00    -0.508 OA
ATOM     13  H   UNL     1      -1.159  -7.658 -40.050  1.00  0.00     0.293 HD
ENDBRANCH   6  12
TORSDOF 3
ENDMDL
MODEL 7
REMARK VINA RESULT:    -3.952     12.670     15.127
REMARK INTER + INTRA:          -4.676
REMARK INTER:                  -4.543
REMARK INTRA:                  -0.133
REMARK UNBOUND:                -0.146
REMARK SMILES O=C([O-])C=Cc1ccc(O)cc1
REMARK SMILES IDX 6 1 7 2 12 3 8 4 11 5 9 6 5 7 4 8 2 9 1 10 3 11 10 12
REMARK H PARENT 10 13
REMARK Flexibility Score: inf
ROOT
ATOM      1  C   UNL     1      -0.864  -9.916 -39.549  1.00  0.00    -0.025 A 
ATOM      2  C   UNL     1      -0.838 -11.316 -39.688  1.00  0.00     0.012 A 
ATOM      3  C   UNL     1      -0.497  -9.118 -40.650  1.00  0.00     0.012 A 
ATOM      4  C   UNL     1      -0.430 -11.904 -40.890  1.00  0.00     0.047 A 
ATOM      5  C   UNL     1      -0.090  -9.709 -41.851  1.00  0.00     0.047 A 
ATOM      6  C   UNL     1      -0.053 -11.105 -41.972  1.00  0.00     0.115 A 
ENDROOT
BRANCH   1   7
ATOM      7  C   UNL     1      -1.315  -9.341 -38.258  1.00  0.00     0.010 C 
ATOM      8  C   UNL     1      -0.483  -9.001 -37.264  1.00  0.00     0.025 C 
BRANCH   8   9
ATOM      9  C   UNL     1      -0.975  -8.443 -35.995  1.00  0.00     0.064 C 
ATOM     10  O   UNL     1      -0.920  -7.200 -35.800  1.00  0.00    -0.545 OA
ATOM     11  O   UNL     1      -1.500  -9.266 -35.005  1.00  0.00    -0.545 OA
ENDBRANCH   8   9
ENDBRANCH   1   7
BRANCH   6  12
ATOM     12  O   UNL     1       0.351 -11.704 -43.162  1.00  0.00    -0.508 OA
ATOM     13  H   UNL     1      -0.320 -11.987 -43.868  1.00  0.00     0.293 HD
ENDBRANCH   6  12
TORSDOF 3
ENDMDL
MODEL 8
REMARK VINA RESULT:    -3.930     13.796     16.815
REMARK INTER + INTRA:          -4.651
REMARK INTER:                  -4.516
REMARK INTRA:                  -0.135
REMARK UNBOUND:                -0.146
REMARK SMILES O=C([O-])C=Cc1ccc(O)cc1
REMARK SMILES IDX 6 1 7 2 12 3 8 4 11 5 9 6 5 7 4 8 2 9 1 10 3 11 10 12
REMARK H PARENT 10 13
REMARK Flexibility Score: inf
ROOT
ATOM      1  C   UNL     1      -0.816  -8.648 -38.924  1.00  0.00    -0.025 A 
ATOM      2  C   UNL     1      -1.058  -7.296 -38.625  1.00  0.00     0.012 A 
ATOM      3  C   UNL     1      -0.751  -9.576 -37.866  1.00  0.00     0.012 A 
ATOM      4  C   UNL     1      -1.205  -6.875 -37.300  1.00  0.00     0.047 A 
ATOM      5  C   UNL     1      -0.899  -9.152 -36.541  1.00  0.00     0.047 A 
ATOM      6  C   UNL     1      -1.124  -7.799 -36.255  1.00  0.00     0.115 A 
ENDROOT
BRANCH   1   7
ATOM      7  C   UNL     1      -0.678  -9.046 -40.347  1.00  0.00     0.010 C 
ATOM      8  C   UNL     1       0.371  -9.724 -40.832  1.00  0.00     0.025 C 
BRANCH   8   9
ATOM      9  C   UNL     1       0.472 -10.088 -42.254  1.00  0.00     0.064 C 
ATOM     10  O   UNL     1       1.126  -9.353 -43.039  1.00  0.00    -0.545 OA
ATOM     11  O   UNL     1      -0.145 -11.233 -42.746  1.00  0.00    -0.545 OA
ENDBRANCH   8   9
ENDBRANCH   1   7
BRANCH   6  12
ATOM     12  O   UNL     1      -1.272  -7.366 -34.940  1.00  0.00    -0.508 OA
ATOM     13  H   UNL     1      -1.509  -6.404 -34.723  1.00  0.00     0.293 HD
ENDBRANCH   6  12
TORSDOF 3
ENDMDL
MODEL 9
REMARK VINA RESULT:    -3.926     14.712     16.328
REMARK INTER + INTRA:          -4.646
REMARK INTER:                  -4.504
REMARK INTRA:                  -0.142
REMARK UNBOUND:                -0.146
REMARK SMILES O=C([O-])C=Cc1ccc(O)cc1
REMARK SMILES IDX 6 1 7 2 12 3 8 4 11 5 9 6 5 7 4 8 2 9 1 10 3 11 10 12
REMARK H PARENT 10 13
REMARK Flexibility Score: inf
ROOT
ATOM      1  C   UNL     1      -0.775  -9.218 -38.300  1.00  0.00    -0.025 A 
ATOM      2  C   UNL     1      -1.293 -10.462 -37.900  1.00  0.00     0.012 A 
ATOM      3  C   UNL     1      -0.391  -8.292 -37.310  1.00  0.00     0.012 A 
ATOM      4  C   UNL     1      -1.449 -10.765 -36.543  1.00  0.00     0.047 A 
ATOM      5  C   UNL     1      -0.548  -8.598 -35.954  1.00  0.00     0.047 A 
ATOM      6  C   UNL     1      -1.080  -9.836 -35.568  1.00  0.00     0.115 A 
ENDROOT
BRANCH   1   7
ATOM      7  C   UNL     1      -0.618  -8.949 -39.751  1.00  0.00     0.010 C 
ATOM      8  C   UNL     1       0.054  -9.750 -40.589  1.00  0.00     0.025 C 
BRANCH   8   9
ATOM      9  C   UNL     1       0.193  -9.438 -42.019  1.00  0.00     0.064 C 
ATOM     10  O   UNL     1      -0.836  -9.350 -42.739  1.00  0.00    -0.545 OA
ATOM     11  O   UNL     1       1.445  -9.238 -42.591  1.00  0.00    -0.545 OA
ENDBRANCH   8   9
ENDBRANCH   1   7
BRANCH   6  12
ATOM     12  O   UNL     1      -1.242 -10.151 -34.222  1.00  0.00    -0.508 OA
ATOM     13  H   UNL     1      -0.599 -10.770 -33.741  1.00  0.00     0.293 HD
ENDBRANCH   6  12
TORSDOF 3
ENDMDL
