MODEL 1
REMARK VINA RESULT:     9.885      0.000      0.000
REMARK INTER + INTRA:          23.201
REMARK INTER:                  22.598
REMARK INTRA:                   0.604
REMARK UNBOUND:                 0.604
REMARK SMILES CCCCCCCCCCCCCCCCCCCCCCCC(=O)[O-]
REMARK SMILES IDX 13 1 14 2 15 3 16 4 17 5 18 6 19 7 20 8 21 9 22 10 23 11
REMARK SMILES IDX 24 12 25 13 26 14 12 15 11 16 10 17 9 18 8 19 7 20 6 21 5 22
REMARK SMILES IDX 4 23 3 24 2 25 1 26
REMARK H PARENT
REMARK Flexibility Score: inf
ROOT
ATOM      1  C   UNL     1     -30.437   7.439   3.102  1.00  0.00     0.000 C 
ENDROOT
BRANCH   1   2
ATOM      2  C   UNL     1     -29.124   7.788   3.811  1.00  0.00     0.000 C 
BRANCH   2   3
ATOM      3  C   UNL     1     -29.194   7.443   5.308  1.00  0.00     0.000 C 
BRANCH   3   4
ATOM      4  C   UNL     1     -27.814   7.131   5.906  1.00  0.00     0.000 C 
BRANCH   4   5
ATOM      5  C   UNL     1     -27.851   5.954   6.897  1.00  0.00     0.000 C 
BRANCH   5   6
ATOM      6  C   UNL     1     -26.447   5.449   7.265  1.00  0.00     0.000 C 
BRANCH   6   7
ATOM      7  C   UNL     1     -26.371   4.925   8.710  1.00  0.00     0.000 C 
BRANCH   7   8
ATOM      8  C   UNL     1     -25.128   5.430   9.459  1.00  0.00     0.000 C 
BRANCH   8   9
ATOM      9  C   UNL     1     -25.359   5.555  10.972  1.00  0.00     0.000 C 
BRANCH   9  10
ATOM     10  C   UNL     1     -26.355   4.496  11.463  1.00  0.00     0.006 C 
BRANCH  10  11
ATOM     11  C   UNL     1     -27.797   4.909  11.150  1.00  0.00     0.053 C 
BRANCH  11  12
ATOM     12  C   UNL     1     -28.747   3.821  11.542  1.00  0.00     0.041 C 
ATOM     13  O   UNL     1     -28.636   2.672  11.037  1.00  0.00    -0.550 OA
ATOM     14  O   UNL     1     -29.788   4.090  12.420  1.00  0.00    -0.550 OA
ENDBRANCH  11  12
ENDBRANCH  10  11
ENDBRANCH   9  10
ENDBRANCH   8   9
ENDBRANCH   7   8
ENDBRANCH   6   7
ENDBRANCH   5   6
ENDBRANCH   4   5
ENDBRANCH   3   4
ENDBRANCH   2   3
ENDBRANCH   1   2
BRANCH   1  15
ATOM     15  C   UNL     1     -30.194   7.139   1.616  1.00  0.00     0.000 C 
BRANCH  15  16
ATOM     16  C   UNL     1     -31.489   7.085   0.785  1.00  0.00     0.000 C 
BRANCH  16  17
ATOM     17  C   UNL     1     -31.331   7.354  -0.728  1.00  0.00     0.000 C 
BRANCH  17  18
ATOM     18  C   UNL     1     -30.085   6.731  -1.395  1.00  0.00    -0.000 C 
BRANCH  18  19
ATOM     19  C   UNL     1     -28.747   7.138  -0.754  1.00  0.00    -0.000 C 
BRANCH  19  20
ATOM     20  C   UNL     1     -28.102   8.363  -1.417  1.00  0.00    -0.000 C 
BRANCH  20  21
ATOM     21  C   UNL     1     -27.490   8.003  -2.777  1.00  0.00    -0.000 C 
BRANCH  21  22
ATOM     22  C   UNL     1     -28.509   8.211  -3.908  1.00  0.00    -0.000 C 
BRANCH  22  23
ATOM     23  C   UNL     1     -27.846   8.607  -5.236  1.00  0.00    -0.000 C 
BRANCH  23  24
ATOM     24  C   UNL     1     -26.628   7.732  -5.572  1.00  0.00    -0.000 C 
BRANCH  24  25
ATOM     25  C   UNL     1     -25.923   8.234  -6.837  1.00  0.00    -0.003 C 
ATOM     26  C   UNL     1     -26.277   9.691  -7.125  1.00  0.00     0.004 C 
ENDBRANCH  24  25
ENDBRANCH  23  24
ENDBRANCH  22  23
ENDBRANCH  21  22
ENDBRANCH  20  21
ENDBRANCH  19  20
ENDBRANCH  18  19
ENDBRANCH  17  18
ENDBRANCH  16  17
ENDBRANCH  15  16
ENDBRANCH   1  15
TORSDOF 22
ENDMDL
MODEL 2
REMARK VINA RESULT:    10.508      5.113     13.253
REMARK INTER + INTRA:          24.625
REMARK INTER:                  25.221
REMARK INTRA:                  -0.596
REMARK UNBOUND:                 0.604
REMARK SMILES CCCCCCCCCCCCCCCCCCCCCCCC(=O)[O-]
REMARK SMILES IDX 13 1 14 2 15 3 16 4 17 5 18 6 19 7 20 8 21 9 22 10 23 11
REMARK SMILES IDX 24 12 25 13 26 14 12 15 11 16 10 17 9 18 8 19 7 20 6 21 5 22
REMARK SMILES IDX 4 23 3 24 2 25 1 26
REMARK H PARENT
REMARK Flexibility Score: inf
ROOT
ATOM      1  C   UNL     1     -29.765   7.331   4.342  1.00  0.00     0.000 C 
ENDROOT
BRANCH   1   2
ATOM      2  C   UNL     1     -29.477   7.786   2.907  1.00  0.00     0.000 C 
BRANCH   2   3
ATOM      3  C   UNL     1     -30.275   6.952   1.891  1.00  0.00     0.000 C 
BRANCH   3   4
ATOM      4  C   UNL     1     -31.481   7.715   1.320  1.00  0.00     0.000 C 
BRANCH   4   5
ATOM      5  C   UNL     1     -31.711   7.425  -0.173  1.00  0.00     0.000 C 
BRANCH   5   6
ATOM      6  C   UNL     1     -30.736   6.375  -0.728  1.00  0.00     0.000 C 
BRANCH   6   7
ATOM      7  C   UNL     1     -29.938   6.895  -1.937  1.00  0.00     0.000 C 
BRANCH   7   8
ATOM      8  C   UNL     1     -28.698   7.704  -1.525  1.00  0.00     0.000 C 
BRANCH   8   9
ATOM      9  C   UNL     1     -27.748   7.970  -2.700  1.00  0.00     0.000 C 
BRANCH   9  10
ATOM     10  C   UNL     1     -28.512   7.980  -4.030  1.00  0.00     0.006 C 
BRANCH  10  11
ATOM     11  C   UNL     1     -27.932   9.024  -4.991  1.00  0.00     0.053 C 
BRANCH  11  12
ATOM     12  C   UNL     1     -26.770   8.454  -5.740  1.00  0.00     0.041 C 
ATOM     13  O   UNL     1     -26.452   7.244  -5.591  1.00  0.00    -0.550 OA
ATOM     14  O   UNL     1     -26.002   9.271  -6.559  1.00  0.00    -0.550 OA
ENDBRANCH  11  12
ENDBRANCH  10  11
ENDBRANCH   9  10
ENDBRANCH   8   9
ENDBRANCH   7   8
ENDBRANCH   6   7
ENDBRANCH   5   6
ENDBRANCH   4   5
ENDBRANCH   3   4
ENDBRANCH   2   3
ENDBRANCH   1   2
BRANCH   1  15
ATOM     15  C   UNL     1     -28.590   7.670   5.269  1.00  0.00     0.000 C 
BRANCH  15  16
ATOM     16  C   UNL     1     -28.476   6.725   6.480  1.00  0.00     0.000 C 
BRANCH  16  17
ATOM     17  C   UNL     1     -27.129   5.985   6.634  1.00  0.00     0.000 C 
BRANCH  17  18
ATOM     18  C   UNL     1     -26.967   5.143   7.919  1.00  0.00    -0.000 C 
BRANCH  18  19
ATOM     19  C   UNL     1     -25.591   5.266   8.595  1.00  0.00    -0.000 C 
BRANCH  19  20
ATOM     20  C   UNL     1     -25.675   5.587  10.094  1.00  0.00    -0.000 C 
BRANCH  20  21
ATOM     21  C   UNL     1     -25.714   4.305  10.936  1.00  0.00    -0.000 C 
BRANCH  21  22
ATOM     22  C   UNL     1     -26.935   4.299  11.868  1.00  0.00    -0.000 C 
BRANCH  22  23
ATOM     23  C   UNL     1     -28.196   4.866  11.196  1.00  0.00    -0.000 C 
BRANCH  23  24
ATOM     24  C   UNL     1     -29.478   4.540  11.978  1.00  0.00    -0.000 C 
BRANCH  24  25
ATOM     25  C   UNL     1     -29.821   3.049  11.874  1.00  0.00    -0.003 C 
ATOM     26  C   UNL     1     -28.906   2.341  10.879  1.00  0.00     0.004 C 
ENDBRANCH  24  25
ENDBRANCH  23  24
ENDBRANCH  22  23
ENDBRANCH  21  22
ENDBRANCH  20  21
ENDBRANCH  19  20
ENDBRANCH  18  19
ENDBRANCH  17  18
ENDBRANCH  16  17
ENDBRANCH  15  16
ENDBRANCH   1  15
TORSDOF 22
ENDMDL
MODEL 3
REMARK VINA RESULT:    11.646      0.900      1.464
REMARK INTER + INTRA:          27.228
REMARK INTER:                  27.340
REMARK INTRA:                  -0.112
REMARK UNBOUND:                 0.604
REMARK SMILES CCCCCCCCCCCCCCCCCCCCCCCC(=O)[O-]
REMARK SMILES IDX 13 1 14 2 15 3 16 4 17 5 18 6 19 7 20 8 21 9 22 10 23 11
REMARK SMILES IDX 24 12 25 13 26 14 12 15 11 16 10 17 9 18 8 19 7 20 6 21 5 22
REMARK SMILES IDX 4 23 3 24 2 25 1 26
REMARK H PARENT
REMARK Flexibility Score: inf
ROOT
ATOM      1  C   UNL     1     -30.326   7.607   1.928  1.00  0.00     0.000 C 
ENDROOT
BRANCH   1   2
ATOM      2  C   UNL     1     -30.167   6.927   3.293  1.00  0.00     0.000 C 
BRANCH   2   3
ATOM      3  C   UNL     1     -29.161   7.684   4.174  1.00  0.00     0.000 C 
BRANCH   3   4
ATOM      4  C   UNL     1     -29.172   7.197   5.632  1.00  0.00     0.000 C 
BRANCH   4   5
ATOM      5  C   UNL     1     -27.766   6.848   6.150  1.00  0.00     0.000 C 
BRANCH   5   6
ATOM      6  C   UNL     1     -27.707   5.459   6.807  1.00  0.00     0.000 C 
BRANCH   6   7
ATOM      7  C   UNL     1     -26.738   5.415   8.001  1.00  0.00     0.000 C 
BRANCH   7   8
ATOM      8  C   UNL     1     -27.399   4.883   9.282  1.00  0.00     0.000 C 
BRANCH   8   9
ATOM      9  C   UNL     1     -26.611   5.244  10.549  1.00  0.00     0.000 C 
BRANCH   9  10
ATOM     10  C   UNL     1     -26.885   4.234  11.671  1.00  0.00     0.006 C 
BRANCH  10  11
ATOM     11  C   UNL     1     -28.070   3.327  11.318  1.00  0.00     0.053 C 
BRANCH  11  12
ATOM     12  C   UNL     1     -29.348   3.922  11.819  1.00  0.00     0.041 C 
ATOM     13  O   UNL     1     -30.251   3.179  12.288  1.00  0.00    -0.550 OA
ATOM     14  O   UNL     1     -29.566   5.290  11.716  1.00  0.00    -0.550 OA
ENDBRANCH  11  12
ENDBRANCH  10  11
ENDBRANCH   9  10
ENDBRANCH   8   9
ENDBRANCH   7   8
ENDBRANCH   6   7
ENDBRANCH   5   6
ENDBRANCH   4   5
ENDBRANCH   3   4
ENDBRANCH   2   3
ENDBRANCH   1   2
BRANCH   1  15
ATOM     15  C   UNL     1     -31.280   6.810   1.027  1.00  0.00     0.000 C 
BRANCH  15  16
ATOM     16  C   UNL     1     -31.149   7.166  -0.465  1.00  0.00     0.000 C 
BRANCH  16  17
ATOM     17  C   UNL     1     -29.812   6.776  -1.136  1.00  0.00     0.000 C 
BRANCH  17  18
ATOM     18  C   UNL     1     -28.537   7.326  -0.462  1.00  0.00    -0.000 C 
BRANCH  18  19
ATOM     19  C   UNL     1     -27.706   8.274  -1.343  1.00  0.00    -0.000 C 
BRANCH  19  20
ATOM     20  C   UNL     1     -27.651   7.846  -2.816  1.00  0.00    -0.000 C 
BRANCH  20  21
ATOM     21  C   UNL     1     -28.544   8.738  -3.688  1.00  0.00    -0.000 C 
BRANCH  21  22
ATOM     22  C   UNL     1     -28.883   8.044  -5.016  1.00  0.00    -0.000 C 
BRANCH  22  23
ATOM     23  C   UNL     1     -27.680   7.967  -5.969  1.00  0.00    -0.000 C 
BRANCH  23  24
ATOM     24  C   UNL     1     -26.796   9.223  -5.905  1.00  0.00    -0.000 C 
BRANCH  24  25
ATOM     25  C   UNL     1     -25.856   9.293  -7.114  1.00  0.00    -0.003 C 
ATOM     26  C   UNL     1     -24.875   8.124  -7.121  1.00  0.00     0.004 C 
ENDBRANCH  24  25
ENDBRANCH  23  24
ENDBRANCH  22  23
ENDBRANCH  21  22
ENDBRANCH  20  21
ENDBRANCH  19  20
ENDBRANCH  18  19
ENDBRANCH  17  18
ENDBRANCH  16  17
ENDBRANCH  15  16
ENDBRANCH   1  15
TORSDOF 22
ENDMDL
MODEL 4
REMARK VINA RESULT:    11.911      5.515     13.416
REMARK INTER + INTRA:          27.835
REMARK INTER:                  29.123
REMARK INTRA:                  -1.288
REMARK UNBOUND:                 0.604
REMARK SMILES CCCCCCCCCCCCCCCCCCCCCCCC(=O)[O-]
REMARK SMILES IDX 13 1 14 2 15 3 16 4 17 5 18 6 19 7 20 8 21 9 22 10 23 11
REMARK SMILES IDX 24 12 25 13 26 14 12 15 11 16 10 17 9 18 8 19 7 20 6 21 5 22
REMARK SMILES IDX 4 23 3 24 2 25 1 26
REMARK H PARENT
REMARK Flexibility Score: inf
ROOT
ATOM      1  C   UNL     1     -30.150   7.451   3.433  1.00  0.00     0.000 C 
ENDROOT
BRANCH   1   2
ATOM      2  C   UNL     1     -29.859   7.427   1.928  1.00  0.00     0.000 C 
BRANCH   2   3
ATOM      3  C   UNL     1     -31.072   6.912   1.138  1.00  0.00     0.000 C 
BRANCH   3   4
ATOM      4  C   UNL     1     -31.080   7.406  -0.317  1.00  0.00     0.000 C 
BRANCH   4   5
ATOM      5  C   UNL     1     -30.578   6.340  -1.307  1.00  0.00     0.000 C 
BRANCH   5   6
ATOM      6  C   UNL     1     -29.644   6.924  -2.379  1.00  0.00     0.000 C 
BRANCH   6   7
ATOM      7  C   UNL     1     -28.414   7.619  -1.770  1.00  0.00     0.000 C 
BRANCH   7   8
ATOM      8  C   UNL     1     -27.541   8.312  -2.828  1.00  0.00     0.000 C 
BRANCH   8   9
ATOM      9  C   UNL     1     -28.369   8.981  -3.934  1.00  0.00     0.000 C 
BRANCH   9  10
ATOM     10  C   UNL     1     -28.184   8.255  -5.272  1.00  0.00     0.006 C 
BRANCH  10  11
ATOM     11  C   UNL     1     -26.742   7.761  -5.436  1.00  0.00     0.053 C 
BRANCH  11  12
ATOM     12  C   UNL     1     -26.022   8.588  -6.454  1.00  0.00     0.041 C 
ATOM     13  O   UNL     1     -24.875   8.247  -6.849  1.00  0.00    -0.550 OA
ATOM     14  O   UNL     1     -26.590   9.765  -6.923  1.00  0.00    -0.550 OA
ENDBRANCH  11  12
ENDBRANCH  10  11
ENDBRANCH   9  10
ENDBRANCH   8   9
ENDBRANCH   7   8
ENDBRANCH   6   7
ENDBRANCH   5   6
ENDBRANCH   4   5
ENDBRANCH   3   4
ENDBRANCH   2   3
ENDBRANCH   1   2
BRANCH   1  15
ATOM     15  C   UNL     1     -28.898   7.851   4.226  1.00  0.00     0.000 C 
BRANCH  15  16
ATOM     16  C   UNL     1     -28.901   7.328   5.675  1.00  0.00     0.000 C 
BRANCH  16  17
ATOM     17  C   UNL     1     -27.549   6.800   6.205  1.00  0.00     0.000 C 
BRANCH  17  18
ATOM     18  C   UNL     1     -27.634   5.695   7.279  1.00  0.00    -0.000 C 
BRANCH  18  19
ATOM     19  C   UNL     1     -26.333   4.900   7.484  1.00  0.00    -0.000 C 
BRANCH  19  20
ATOM     20  C   UNL     1     -25.411   5.505   8.552  1.00  0.00    -0.000 C 
BRANCH  20  21
ATOM     21  C   UNL     1     -26.132   5.633   9.901  1.00  0.00    -0.000 C 
BRANCH  21  22
ATOM     22  C   UNL     1     -25.743   4.483  10.841  1.00  0.00    -0.000 C 
BRANCH  22  23
ATOM     23  C   UNL     1     -26.892   4.062  11.770  1.00  0.00    -0.000 C 
BRANCH  23  24
ATOM     24  C   UNL     1     -28.204   4.797  11.455  1.00  0.00    -0.000 C 
BRANCH  24  25
ATOM     25  C   UNL     1     -29.417   3.959  11.876  1.00  0.00    -0.003 C 
ATOM     26  C   UNL     1     -29.351   2.554  11.281  1.00  0.00     0.004 C 
ENDBRANCH  24  25
ENDBRANCH  23  24
ENDBRANCH  22  23
ENDBRANCH  21  22
ENDBRANCH  20  21
ENDBRANCH  19  20
ENDBRANCH  18  19
ENDBRANCH  17  18
ENDBRANCH  16  17
ENDBRANCH  15  16
ENDBRANCH   1  15
TORSDOF 22
ENDMDL
