MODEL 1
REMARK VINA RESULT:    -5.499      0.000      0.000
REMARK INTER + INTRA:          -6.947
REMARK INTER:                  -6.624
REMARK INTRA:                  -0.324
REMARK UNBOUND:                -0.324
REMARK SMILES O=c1c(O)c(-c2ccc(O)c(O)c2)oc2cc(O)cc(O)c12
REMARK SMILES IDX 5 1 3 2 2 3 1 4 22 5 20 6 19 7 17 8 16 9 15 10 14 11 6 12
REMARK SMILES IDX 7 13 8 14 9 15 13 16 11 17 10 18 12 20 4 22 21 24 18 26
REMARK H PARENT 10 19 12 21 4 23 21 25 18 27
REMARK Flexibility Score: inf
ROOT
ATOM      1  C   UNL     1     -12.814  27.423   9.705  1.00  0.00     0.180 A 
ATOM      2  C   UNL     1     -11.481  27.217  10.099  1.00  0.00     0.208 A 
ATOM      3  C   UNL     1     -11.050  25.911  10.388  1.00  0.00     0.238 A 
ATOM      4  O   UNL     1      -9.871  25.740  10.793  1.00  0.00    -0.285 OA
ATOM      5  C   UNL     1     -11.953  24.828  10.262  1.00  0.00     0.111 A 
ATOM      6  C   UNL     1     -11.613  23.460  10.489  1.00  0.00     0.134 A 
ATOM      7  C   UNL     1     -12.620  22.486  10.462  1.00  0.00     0.093 A 
ATOM      8  C   UNL     1     -13.939  22.821  10.152  1.00  0.00     0.123 A 
ATOM      9  C   UNL     1     -14.268  24.144   9.871  1.00  0.00     0.094 A 
ATOM     10  C   UNL     1     -13.295  25.145   9.924  1.00  0.00     0.146 A 
ATOM     11  O   UNL     1     -13.654  26.395   9.659  1.00  0.00    -0.452 OA
ENDROOT
BRANCH   1  12
ATOM     12  C   UNL     1     -13.335  28.766   9.361  1.00  0.00     0.025 A 
ATOM     13  C   UNL     1     -13.897  29.606  10.338  1.00  0.00     0.016 A 
ATOM     14  C   UNL     1     -14.360  30.878   9.994  1.00  0.00     0.051 A 
ATOM     15  C   UNL     1     -14.255  31.337   8.674  1.00  0.00     0.157 A 
ATOM     16  C   UNL     1     -13.213  29.238   8.043  1.00  0.00     0.062 A 
ATOM     17  C   UNL     1     -13.676  30.512   7.696  1.00  0.00     0.158 A 
BRANCH  15  18
ATOM     18  O   UNL     1     -14.720  32.606   8.335  1.00  0.00    -0.504 OA
ATOM     19  H   UNL     1     -14.395  33.086   7.504  1.00  0.00     0.293 HD
ENDBRANCH  15  18
BRANCH  17  20
ATOM     20  O   UNL     1     -13.551  30.941   6.374  1.00  0.00    -0.504 OA
ATOM     21  H   UNL     1     -13.351  31.905   6.138  1.00  0.00     0.293 HD
ENDBRANCH  17  20
ENDBRANCH   1  12
BRANCH   2  22
ATOM     22  O   UNL     1     -10.612  28.302  10.239  1.00  0.00    -0.502 OA
ATOM     23  H   UNL     1     -10.893  29.172  10.673  1.00  0.00     0.293 HD
ENDBRANCH   2  22
BRANCH   6  24
ATOM     24  O   UNL     1     -10.311  23.006  10.716  1.00  0.00    -0.507 OA
ATOM     25  H   UNL     1      -9.937  22.136  10.368  1.00  0.00     0.293 HD
ENDBRANCH   6  24
BRANCH   8  26
ATOM     26  O   UNL     1     -14.930  21.843  10.112  1.00  0.00    -0.508 OA
ATOM     27  H   UNL     1     -15.851  22.037   9.737  1.00  0.00     0.293 HD
ENDBRANCH   8  26
TORSDOF 6
ENDMDL
MODEL 2
REMARK VINA RESULT:    -5.279      4.759     10.131
REMARK INTER + INTRA:          -6.683
REMARK INTER:                  -6.381
REMARK INTRA:                  -0.302
REMARK UNBOUND:                -0.324
REMARK SMILES O=c1c(O)c(-c2ccc(O)c(O)c2)oc2cc(O)cc(O)c12
REMARK SMILES IDX 5 1 3 2 2 3 1 4 22 5 20 6 19 7 17 8 16 9 15 10 14 11 6 12
REMARK SMILES IDX 7 13 8 14 9 15 13 16 11 17 10 18 12 20 4 22 21 24 18 26
REMARK H PARENT 10 19 12 21 4 23 21 25 18 27
REMARK Flexibility Score: inf
ROOT
ATOM      1  C   UNL     1     -14.549  19.214   9.722  1.00  0.00     0.180 A 
ATOM      2  C   UNL     1     -15.913  19.453   9.963  1.00  0.00     0.208 A 
ATOM      3  C   UNL     1     -16.322  20.739  10.349  1.00  0.00     0.238 A 
ATOM      4  O   UNL     1     -17.536  20.933  10.616  1.00  0.00    -0.285 OA
ATOM      5  C   UNL     1     -15.364  21.775  10.475  1.00  0.00     0.111 A 
ATOM      6  C   UNL     1     -15.671  23.125  10.821  1.00  0.00     0.134 A 
ATOM      7  C   UNL     1     -14.629  24.034  11.044  1.00  0.00     0.093 A 
ATOM      8  C   UNL     1     -13.296  23.659  10.869  1.00  0.00     0.123 A 
ATOM      9  C   UNL     1     -12.989  22.360  10.474  1.00  0.00     0.094 A 
ATOM     10  C   UNL     1     -14.004  21.420  10.278  1.00  0.00     0.146 A 
ATOM     11  O   UNL     1     -13.667  20.189   9.912  1.00  0.00    -0.452 OA
ENDROOT
BRANCH   1  12
ATOM     12  C   UNL     1     -14.046  17.891   9.288  1.00  0.00     0.025 A 
ATOM     13  C   UNL     1     -13.816  16.856  10.210  1.00  0.00     0.016 A 
ATOM     14  C   UNL     1     -13.363  15.608   9.774  1.00  0.00     0.051 A 
ATOM     15  C   UNL     1     -13.148  15.371   8.410  1.00  0.00     0.157 A 
ATOM     16  C   UNL     1     -13.847  17.642   7.919  1.00  0.00     0.062 A 
ATOM     17  C   UNL     1     -13.394  16.394   7.479  1.00  0.00     0.158 A 
BRANCH  15  18
ATOM     18  O   UNL     1     -12.694  14.125   7.979  1.00  0.00    -0.504 OA
ATOM     19  H   UNL     1     -12.576  13.915   6.995  1.00  0.00     0.293 HD
ENDBRANCH  15  18
BRANCH  17  20
ATOM     20  O   UNL     1     -13.195  16.188   6.114  1.00  0.00    -0.504 OA
ATOM     21  H   UNL     1     -12.271  16.179   5.699  1.00  0.00     0.293 HD
ENDBRANCH  17  20
ENDBRANCH   1  12
BRANCH   2  22
ATOM     22  O   UNL     1     -16.839  18.412   9.855  1.00  0.00    -0.502 OA
ATOM     23  H   UNL     1     -16.604  17.513   9.452  1.00  0.00     0.293 HD
ENDBRANCH   2  22
BRANCH   6  24
ATOM     24  O   UNL     1     -16.971  23.626  10.930  1.00  0.00    -0.507 OA
ATOM     25  H   UNL     1     -17.425  23.860  11.800  1.00  0.00     0.293 HD
ENDBRANCH   6  24
BRANCH   8  26
ATOM     26  O   UNL     1     -12.266  24.574  11.078  1.00  0.00    -0.508 OA
ATOM     27  H   UNL     1     -11.300  24.337  10.890  1.00  0.00     0.293 HD
ENDBRANCH   8  26
TORSDOF 6
ENDMDL
MODEL 3
REMARK VINA RESULT:    -5.269      1.319      1.654
REMARK INTER + INTRA:          -6.671
REMARK INTER:                  -6.352
REMARK INTRA:                  -0.320
REMARK UNBOUND:                -0.324
REMARK SMILES O=c1c(O)c(-c2ccc(O)c(O)c2)oc2cc(O)cc(O)c12
REMARK SMILES IDX 5 1 3 2 2 3 1 4 22 5 20 6 19 7 17 8 16 9 15 10 14 11 6 12
REMARK SMILES IDX 7 13 8 14 9 15 13 16 11 17 10 18 12 20 4 22 21 24 18 26
REMARK H PARENT 10 19 12 21 4 23 21 25 18 27
REMARK Flexibility Score: inf
ROOT
ATOM      1  C   UNL     1     -13.532  26.599   9.901  1.00  0.00     0.180 A 
ATOM      2  C   UNL     1     -12.303  25.934  10.057  1.00  0.00     0.208 A 
ATOM      3  C   UNL     1     -12.302  24.546  10.273  1.00  0.00     0.238 A 
ATOM      4  O   UNL     1     -11.203  23.966  10.467  1.00  0.00    -0.285 OA
ATOM      5  C   UNL     1     -13.528  23.838  10.314  1.00  0.00     0.111 A 
ATOM      6  C   UNL     1     -13.643  22.426  10.486  1.00  0.00     0.134 A 
ATOM      7  C   UNL     1     -14.911  21.851  10.641  1.00  0.00     0.093 A 
ATOM      8  C   UNL     1     -16.068  22.628  10.565  1.00  0.00     0.123 A 
ATOM      9  C   UNL     1     -15.968  23.997  10.338  1.00  0.00     0.094 A 
ATOM     10  C   UNL     1     -14.717  24.607  10.215  1.00  0.00     0.146 A 
ATOM     11  O   UNL     1     -14.667  25.917  10.010  1.00  0.00    -0.452 OA
ENDROOT
BRANCH   1  12
ATOM     12  C   UNL     1     -13.613  28.055   9.646  1.00  0.00     0.025 A 
ATOM     13  C   UNL     1     -13.740  28.977  10.700  1.00  0.00     0.016 A 
ATOM     14  C   UNL     1     -13.790  30.348  10.436  1.00  0.00     0.051 A 
ATOM     15  C   UNL     1     -13.699  30.819   9.119  1.00  0.00     0.157 A 
ATOM     16  C   UNL     1     -13.502  28.534   8.330  1.00  0.00     0.062 A 
ATOM     17  C   UNL     1     -13.552  29.906   8.063  1.00  0.00     0.158 A 
BRANCH  15  18
ATOM     18  O   UNL     1     -13.752  32.188   8.861  1.00  0.00    -0.504 OA
ATOM     19  H   UNL     1     -14.634  32.684   8.806  1.00  0.00     0.293 HD
ENDBRANCH  15  18
BRANCH  17  20
ATOM     20  O   UNL     1     -13.452  30.344   6.742  1.00  0.00    -0.504 OA
ATOM     21  H   UNL     1     -14.230  30.771   6.256  1.00  0.00     0.293 HD
ENDBRANCH  17  20
ENDBRANCH   1  12
BRANCH   2  22
ATOM     22  O   UNL     1     -11.106  26.654  10.036  1.00  0.00    -0.502 OA
ATOM     23  H   UNL     1     -10.692  27.047  10.872  1.00  0.00     0.293 HD
ENDBRANCH   2  22
BRANCH   6  24
ATOM     24  O   UNL     1     -12.555  21.549  10.483  1.00  0.00    -0.507 OA
ATOM     25  H   UNL     1     -11.588  21.832  10.434  1.00  0.00     0.293 HD
ENDBRANCH   6  24
BRANCH   8  26
ATOM     26  O   UNL     1     -17.326  22.044  10.705  1.00  0.00    -0.508 OA
ATOM     27  H   UNL     1     -18.136  22.408  10.218  1.00  0.00     0.293 HD
ENDBRANCH   8  26
TORSDOF 6
ENDMDL
MODEL 4
REMARK VINA RESULT:    -5.049      3.298      8.662
REMARK INTER + INTRA:          -6.406
REMARK INTER:                  -6.812
REMARK INTRA:                   0.407
REMARK UNBOUND:                -0.324
REMARK SMILES O=c1c(O)c(-c2ccc(O)c(O)c2)oc2cc(O)cc(O)c12
REMARK SMILES IDX 5 1 3 2 2 3 1 4 22 5 20 6 19 7 17 8 16 9 15 10 14 11 6 12
REMARK SMILES IDX 7 13 8 14 9 15 13 16 11 17 10 18 12 20 4 22 21 24 18 26
REMARK H PARENT 10 19 12 21 4 23 21 25 18 27
REMARK Flexibility Score: inf
ROOT
ATOM      1  C   UNL     1     -14.800  21.665  10.367  1.00  0.00     0.180 A 
ATOM      2  C   UNL     1     -15.792  22.649  10.517  1.00  0.00     0.208 A 
ATOM      3  C   UNL     1     -15.410  24.000  10.563  1.00  0.00     0.238 A 
ATOM      4  O   UNL     1     -16.297  24.872  10.752  1.00  0.00    -0.285 OA
ATOM      5  C   UNL     1     -14.043  24.350  10.442  1.00  0.00     0.111 A 
ATOM      6  C   UNL     1     -13.548  25.689  10.434  1.00  0.00     0.134 A 
ATOM      7  C   UNL     1     -12.165  25.912  10.440  1.00  0.00     0.093 A 
ATOM      8  C   UNL     1     -11.263  24.848  10.388  1.00  0.00     0.123 A 
ATOM      9  C   UNL     1     -11.738  23.541  10.335  1.00  0.00     0.094 A 
ATOM     10  C   UNL     1     -13.111  23.283  10.363  1.00  0.00     0.146 A 
ATOM     11  O   UNL     1     -13.521  22.021  10.321  1.00  0.00    -0.452 OA
ENDROOT
BRANCH   1  12
ATOM     12  C   UNL     1     -15.126  20.223  10.285  1.00  0.00     0.025 A 
ATOM     13  C   UNL     1     -16.442  19.782  10.057  1.00  0.00     0.016 A 
ATOM     14  C   UNL     1     -16.722  18.417   9.959  1.00  0.00     0.051 A 
ATOM     15  C   UNL     1     -15.692  17.473  10.074  1.00  0.00     0.157 A 
ATOM     16  C   UNL     1     -14.095  19.274  10.378  1.00  0.00     0.062 A 
ATOM     17  C   UNL     1     -14.372  17.906  10.281  1.00  0.00     0.158 A 
BRANCH  15  18
ATOM     18  O   UNL     1     -15.977  16.112   9.978  1.00  0.00    -0.504 OA
ATOM     19  H   UNL     1     -16.921  15.759  10.075  1.00  0.00     0.293 HD
ENDBRANCH  15  18
BRANCH  17  20
ATOM     20  O   UNL     1     -13.324  16.992  10.392  1.00  0.00    -0.504 OA
ATOM     21  H   UNL     1     -13.145  16.479  11.246  1.00  0.00     0.293 HD
ENDBRANCH  17  20
ENDBRANCH   1  12
BRANCH   2  22
ATOM     22  O   UNL     1     -17.133  22.281  10.657  1.00  0.00    -0.502 OA
ATOM     23  H   UNL     1     -17.884  22.958  10.672  1.00  0.00     0.293 HD
ENDBRANCH   2  22
BRANCH   6  24
ATOM     24  O   UNL     1     -14.363  26.823  10.393  1.00  0.00    -0.507 OA
ATOM     25  H   UNL     1     -14.027  27.770  10.315  1.00  0.00     0.293 HD
ENDBRANCH   6  24
BRANCH   8  26
ATOM     26  O   UNL     1      -9.889  25.081  10.378  1.00  0.00    -0.508 OA
ATOM     27  H   UNL     1      -9.510  26.014  10.273  1.00  0.00     0.293 HD
ENDBRANCH   8  26
TORSDOF 6
ENDMDL
MODEL 5
REMARK VINA RESULT:    -4.959      3.320      8.638
REMARK INTER + INTRA:          -6.297
REMARK INTER:                  -6.792
REMARK INTRA:                   0.495
REMARK UNBOUND:                -0.324
REMARK SMILES O=c1c(O)c(-c2ccc(O)c(O)c2)oc2cc(O)cc(O)c12
REMARK SMILES IDX 5 1 3 2 2 3 1 4 22 5 20 6 19 7 17 8 16 9 15 10 14 11 6 12
REMARK SMILES IDX 7 13 8 14 9 15 13 16 11 17 10 18 12 20 4 22 21 24 18 26
REMARK H PARENT 10 19 12 21 4 23 21 25 18 27
REMARK Flexibility Score: inf
ROOT
ATOM      1  C   UNL     1     -15.039  21.686  10.433  1.00  0.00     0.180 A 
ATOM      2  C   UNL     1     -15.962  22.738  10.562  1.00  0.00     0.208 A 
ATOM      3  C   UNL     1     -15.491  24.062  10.563  1.00  0.00     0.238 A 
ATOM      4  O   UNL     1     -16.317  24.996  10.734  1.00  0.00    -0.285 OA
ATOM      5  C   UNL     1     -14.106  24.317  10.417  1.00  0.00     0.111 A 
ATOM      6  C   UNL     1     -13.524  25.619  10.364  1.00  0.00     0.134 A 
ATOM      7  C   UNL     1     -12.129  25.751  10.350  1.00  0.00     0.093 A 
ATOM      8  C   UNL     1     -11.300  24.628  10.321  1.00  0.00     0.123 A 
ATOM      9  C   UNL     1     -11.861  23.354  10.313  1.00  0.00     0.094 A 
ATOM     10  C   UNL     1     -13.247  23.189  10.363  1.00  0.00     0.146 A 
ATOM     11  O   UNL     1     -13.739  21.956  10.364  1.00  0.00    -0.452 OA
ENDROOT
BRANCH   1  12
ATOM     12  C   UNL     1     -15.460  20.268  10.398  1.00  0.00     0.025 A 
ATOM     13  C   UNL     1     -14.537  19.225  10.590  1.00  0.00     0.016 A 
ATOM     14  C   UNL     1     -14.962  17.894  10.578  1.00  0.00     0.051 A 
ATOM     15  C   UNL     1     -16.316  17.586  10.388  1.00  0.00     0.157 A 
ATOM     16  C   UNL     1     -16.819  19.954  10.229  1.00  0.00     0.062 A 
ATOM     17  C   UNL     1     -17.248  18.622  10.216  1.00  0.00     0.158 A 
BRANCH  15  18
ATOM     18  O   UNL     1     -16.736  16.256  10.374  1.00  0.00    -0.504 OA
ATOM     19  H   UNL     1     -17.506  15.937  10.950  1.00  0.00     0.293 HD
ENDBRANCH  15  18
BRANCH  17  20
ATOM     20  O   UNL     1     -18.604  18.349  10.032  1.00  0.00    -0.504 OA
ATOM     21  H   UNL     1     -19.305  18.620  10.710  1.00  0.00     0.293 HD
ENDBRANCH  17  20
ENDBRANCH   1  12
BRANCH   2  22
ATOM     22  O   UNL     1     -17.322  22.464  10.726  1.00  0.00    -0.502 OA
ATOM     23  H   UNL     1     -17.726  22.230  11.624  1.00  0.00     0.293 HD
ENDBRANCH   2  22
BRANCH   6  24
ATOM     24  O   UNL     1     -14.263  26.803  10.296  1.00  0.00    -0.507 OA
ATOM     25  H   UNL     1     -15.095  26.993  10.835  1.00  0.00     0.293 HD
ENDBRANCH   6  24
BRANCH   8  26
ATOM     26  O   UNL     1      -9.914  24.769  10.291  1.00  0.00    -0.508 OA
ATOM     27  H   UNL     1      -9.299  23.965  10.309  1.00  0.00     0.293 HD
ENDBRANCH   8  26
TORSDOF 6
ENDMDL
MODEL 6
REMARK VINA RESULT:    -4.944      2.548      6.398
REMARK INTER + INTRA:          -6.280
REMARK INTER:                  -6.344
REMARK INTRA:                   0.065
REMARK UNBOUND:                -0.324
REMARK SMILES O=c1c(O)c(-c2ccc(O)c(O)c2)oc2cc(O)cc(O)c12
REMARK SMILES IDX 5 1 3 2 2 3 1 4 22 5 20 6 19 7 17 8 16 9 15 10 14 11 6 12
REMARK SMILES IDX 7 13 8 14 9 15 13 16 11 17 10 18 12 20 4 22 21 24 18 26
REMARK H PARENT 10 19 12 21 4 23 21 25 18 27
REMARK Flexibility Score: inf
ROOT
ATOM      1  C   UNL     1     -13.043  27.518  10.463  1.00  0.00     0.180 A 
ATOM      2  C   UNL     1     -13.621  28.781  10.680  1.00  0.00     0.208 A 
ATOM      3  C   UNL     1     -12.782  29.898  10.826  1.00  0.00     0.238 A 
ATOM      4  O   UNL     1     -13.303  31.016  11.075  1.00  0.00    -0.285 OA
ATOM      5  C   UNL     1     -11.378  29.741  10.738  1.00  0.00     0.111 A 
ATOM      6  C   UNL     1     -10.436  30.809  10.831  1.00  0.00     0.134 A 
ATOM      7  C   UNL     1      -9.066  30.520  10.860  1.00  0.00     0.093 A 
ATOM      8  C   UNL     1      -8.603  29.208  10.734  1.00  0.00     0.123 A 
ATOM      9  C   UNL     1      -9.513  28.166  10.583  1.00  0.00     0.094 A 
ATOM     10  C   UNL     1     -10.887  28.418  10.586  1.00  0.00     0.146 A 
ATOM     11  O   UNL     1     -11.721  27.393  10.450  1.00  0.00    -0.452 OA
ENDROOT
BRANCH   1  12
ATOM     12  C   UNL     1     -13.862  26.299  10.275  1.00  0.00     0.025 A 
ATOM     13  C   UNL     1     -14.942  26.003  11.125  1.00  0.00     0.016 A 
ATOM     14  C   UNL     1     -15.716  24.860  10.913  1.00  0.00     0.051 A 
ATOM     15  C   UNL     1     -15.432  24.002   9.841  1.00  0.00     0.157 A 
ATOM     16  C   UNL     1     -13.595  25.447   9.190  1.00  0.00     0.062 A 
ATOM     17  C   UNL     1     -14.368  24.301   8.975  1.00  0.00     0.158 A 
BRANCH  15  18
ATOM     18  O   UNL     1     -16.205  22.861   9.635  1.00  0.00    -0.504 OA
ATOM     19  H   UNL     1     -15.887  22.106   9.039  1.00  0.00     0.293 HD
ENDBRANCH  15  18
BRANCH  17  20
ATOM     20  O   UNL     1     -14.063  23.471   7.895  1.00  0.00    -0.504 OA
ATOM     21  H   UNL     1     -13.115  23.343   7.565  1.00  0.00     0.293 HD
ENDBRANCH  17  20
ENDBRANCH   1  12
BRANCH   2  22
ATOM     22  O   UNL     1     -15.009  28.911  10.786  1.00  0.00    -0.502 OA
ATOM     23  H   UNL     1     -15.514  28.674  11.630  1.00  0.00     0.293 HD
ENDBRANCH   2  22
BRANCH   6  24
ATOM     24  O   UNL     1     -10.790  32.161  10.869  1.00  0.00    -0.507 OA
ATOM     25  H   UNL     1     -10.490  32.813  11.577  1.00  0.00     0.293 HD
ENDBRANCH   6  24
BRANCH   8  26
ATOM     26  O   UNL     1      -7.238  28.932  10.748  1.00  0.00    -0.508 OA
ATOM     27  H   UNL     1      -6.872  28.087  11.171  1.00  0.00     0.293 HD
ENDBRANCH   8  26
TORSDOF 6
ENDMDL
MODEL 7
REMARK VINA RESULT:    -4.831      2.718      7.792
REMARK INTER + INTRA:          -6.143
REMARK INTER:                  -6.355
REMARK INTRA:                   0.212
REMARK UNBOUND:                -0.324
REMARK SMILES O=c1c(O)c(-c2ccc(O)c(O)c2)oc2cc(O)cc(O)c12
REMARK SMILES IDX 5 1 3 2 2 3 1 4 22 5 20 6 19 7 17 8 16 9 15 10 14 11 6 12
REMARK SMILES IDX 7 13 8 14 9 15 13 16 11 17 10 18 12 20 4 22 21 24 18 26
REMARK H PARENT 10 19 12 21 4 23 21 25 18 27
REMARK Flexibility Score: inf
ROOT
ATOM      1  C   UNL     1     -14.146  21.989  10.602  1.00  0.00     0.180 A 
ATOM      2  C   UNL     1     -12.828  21.593  10.890  1.00  0.00     0.208 A 
ATOM      3  C   UNL     1     -11.812  22.563  10.899  1.00  0.00     0.238 A 
ATOM      4  O   UNL     1     -10.626  22.194  11.103  1.00  0.00    -0.285 OA
ATOM      5  C   UNL     1     -12.128  23.918  10.636  1.00  0.00     0.111 A 
ATOM      6  C   UNL     1     -11.185  24.989  10.659  1.00  0.00     0.134 A 
ATOM      7  C   UNL     1     -11.586  26.269  10.255  1.00  0.00     0.093 A 
ATOM      8  C   UNL     1     -12.909  26.529   9.892  1.00  0.00     0.123 A 
ATOM      9  C   UNL     1     -13.849  25.503   9.924  1.00  0.00     0.094 A 
ATOM     10  C   UNL     1     -13.474  24.208  10.288  1.00  0.00     0.146 A 
ATOM     11  O   UNL     1     -14.399  23.257  10.295  1.00  0.00    -0.452 OA
ENDROOT
BRANCH   1  12
ATOM     12  C   UNL     1     -15.273  21.030  10.598  1.00  0.00     0.025 A 
ATOM     13  C   UNL     1     -16.548  21.397  11.062  1.00  0.00     0.016 A 
ATOM     14  C   UNL     1     -17.604  20.483  11.026  1.00  0.00     0.051 A 
ATOM     15  C   UNL     1     -17.406  19.193  10.514  1.00  0.00     0.157 A 
ATOM     16  C   UNL     1     -15.085  19.743  10.066  1.00  0.00     0.062 A 
ATOM     17  C   UNL     1     -16.140  18.824  10.029  1.00  0.00     0.158 A 
BRANCH  15  18
ATOM     18  O   UNL     1     -18.461  18.283  10.482  1.00  0.00    -0.504 OA
ATOM     19  H   UNL     1     -19.317  18.480   9.980  1.00  0.00     0.293 HD
ENDBRANCH  15  18
BRANCH  17  20
ATOM     20  O   UNL     1     -15.912  17.551   9.507  1.00  0.00    -0.504 OA
ATOM     21  H   UNL     1     -14.978  17.182   9.378  1.00  0.00     0.293 HD
ENDBRANCH  17  20
ENDBRANCH   1  12
BRANCH   2  22
ATOM     22  O   UNL     1     -12.533  20.248  11.125  1.00  0.00    -0.502 OA
ATOM     23  H   UNL     1     -11.880  19.726  10.555  1.00  0.00     0.293 HD
ENDBRANCH   2  22
BRANCH   6  24
ATOM     24  O   UNL     1      -9.864  24.856  11.092  1.00  0.00    -0.507 OA
ATOM     25  H   UNL     1      -9.587  24.648  12.040  1.00  0.00     0.293 HD
ENDBRANCH   6  24
BRANCH   8  26
ATOM     26  O   UNL     1     -13.302  27.809   9.507  1.00  0.00    -0.508 OA
ATOM     27  H   UNL     1     -12.841  28.300   8.751  1.00  0.00     0.293 HD
ENDBRANCH   8  26
TORSDOF 6
ENDMDL
MODEL 8
REMARK VINA RESULT:    -4.773      2.658      4.653
REMARK INTER + INTRA:          -6.074
REMARK INTER:                  -6.397
REMARK INTRA:                   0.323
REMARK UNBOUND:                -0.324
REMARK SMILES O=c1c(O)c(-c2ccc(O)c(O)c2)oc2cc(O)cc(O)c12
REMARK SMILES IDX 5 1 3 2 2 3 1 4 22 5 20 6 19 7 17 8 16 9 15 10 14 11 6 12
REMARK SMILES IDX 7 13 8 14 9 15 13 16 11 17 10 18 12 20 4 22 21 24 18 26
REMARK H PARENT 10 19 12 21 4 23 21 25 18 27
REMARK Flexibility Score: inf
ROOT
ATOM      1  C   UNL     1     -13.223  24.753  10.557  1.00  0.00     0.180 A 
ATOM      2  C   UNL     1     -14.575  25.117  10.681  1.00  0.00     0.208 A 
ATOM      3  C   UNL     1     -15.553  24.110  10.695  1.00  0.00     0.238 A 
ATOM      4  O   UNL     1     -16.765  24.445  10.751  1.00  0.00    -0.285 OA
ATOM      5  C   UNL     1     -15.167  22.751  10.601  1.00  0.00     0.111 A 
ATOM      6  C   UNL     1     -16.070  21.647  10.646  1.00  0.00     0.134 A 
ATOM      7  C   UNL     1     -15.589  20.352  10.412  1.00  0.00     0.093 A 
ATOM      8  C   UNL     1     -14.229  20.116  10.201  1.00  0.00     0.123 A 
ATOM      9  C   UNL     1     -13.332  21.180  10.215  1.00  0.00     0.094 A 
ATOM     10  C   UNL     1     -13.785  22.487  10.409  1.00  0.00     0.146 A 
ATOM     11  O   UNL     1     -12.897  23.474  10.405  1.00  0.00    -0.452 OA
ENDROOT
BRANCH   1  12
ATOM     12  C   UNL     1     -12.134  25.755  10.559  1.00  0.00     0.025 A 
ATOM     13  C   UNL     1     -10.844  25.435  11.018  1.00  0.00     0.016 A 
ATOM     14  C   UNL     1      -9.825  26.390  10.989  1.00  0.00     0.051 A 
ATOM     15  C   UNL     1     -10.075  27.675  10.487  1.00  0.00     0.157 A 
ATOM     16  C   UNL     1     -12.373  27.038  10.039  1.00  0.00     0.062 A 
ATOM     17  C   UNL     1     -11.355  27.998  10.008  1.00  0.00     0.158 A 
BRANCH  15  18
ATOM     18  O   UNL     1      -9.056  28.626  10.462  1.00  0.00    -0.504 OA
ATOM     19  H   UNL     1      -8.109  28.383  10.197  1.00  0.00     0.293 HD
ENDBRANCH  15  18
BRANCH  17  20
ATOM     20  O   UNL     1     -11.633  29.265   9.497  1.00  0.00    -0.504 OA
ATOM     21  H   UNL     1     -11.507  29.491   8.518  1.00  0.00     0.293 HD
ENDBRANCH  17  20
ENDBRANCH   1  12
BRANCH   2  22
ATOM     22  O   UNL     1     -14.937  26.465  10.750  1.00  0.00    -0.502 OA
ATOM     23  H   UNL     1     -15.444  26.853  11.535  1.00  0.00     0.293 HD
ENDBRANCH   2  22
BRANCH   6  24
ATOM     24  O   UNL     1     -17.431  21.763  10.940  1.00  0.00    -0.507 OA
ATOM     25  H   UNL     1     -17.842  22.515  11.472  1.00  0.00     0.293 HD
ENDBRANCH   6  24
BRANCH   8  26
ATOM     26  O   UNL     1     -13.758  18.822   9.986  1.00  0.00    -0.508 OA
ATOM     27  H   UNL     1     -13.961  18.069  10.632  1.00  0.00     0.293 HD
ENDBRANCH   8  26
TORSDOF 6
ENDMDL
MODEL 9
REMARK VINA RESULT:    -4.723      1.468      6.708
REMARK INTER + INTRA:          -6.013
REMARK INTER:                  -6.475
REMARK INTRA:                   0.462
REMARK UNBOUND:                -0.324
REMARK SMILES O=c1c(O)c(-c2ccc(O)c(O)c2)oc2cc(O)cc(O)c12
REMARK SMILES IDX 5 1 3 2 2 3 1 4 22 5 20 6 19 7 17 8 16 9 15 10 14 11 6 12
REMARK SMILES IDX 7 13 8 14 9 15 13 16 11 17 10 18 12 20 4 22 21 24 18 26
REMARK H PARENT 10 19 12 21 4 23 21 25 18 27
REMARK Flexibility Score: inf
ROOT
ATOM      1  C   UNL     1     -12.991  24.680  10.157  1.00  0.00     0.180 A 
ATOM      2  C   UNL     1     -11.589  24.754  10.240  1.00  0.00     0.208 A 
ATOM      3  C   UNL     1     -10.971  26.015  10.218  1.00  0.00     0.238 A 
ATOM      4  O   UNL     1      -9.714  26.072  10.237  1.00  0.00    -0.285 OA
ATOM      5  C   UNL     1     -11.762  27.186  10.131  1.00  0.00     0.111 A 
ATOM      6  C   UNL     1     -11.244  28.516  10.142  1.00  0.00     0.134 A 
ATOM      7  C   UNL     1     -12.109  29.595   9.918  1.00  0.00     0.093 A 
ATOM      8  C   UNL     1     -13.481  29.396   9.749  1.00  0.00     0.123 A 
ATOM      9  C   UNL     1     -14.003  28.107   9.796  1.00  0.00     0.094 A 
ATOM     10  C   UNL     1     -13.162  27.007   9.982  1.00  0.00     0.146 A 
ATOM     11  O   UNL     1     -13.700  25.794  10.010  1.00  0.00    -0.452 OA
ENDROOT
BRANCH   1  12
ATOM     12  C   UNL     1     -13.715  23.390  10.199  1.00  0.00     0.025 A 
ATOM     13  C   UNL     1     -13.029  22.164  10.162  1.00  0.00     0.016 A 
ATOM     14  C   UNL     1     -13.733  20.958  10.227  1.00  0.00     0.051 A 
ATOM     15  C   UNL     1     -15.129  20.960  10.344  1.00  0.00     0.157 A 
ATOM     16  C   UNL     1     -15.113  23.386  10.337  1.00  0.00     0.062 A 
ATOM     17  C   UNL     1     -15.821  22.181  10.402  1.00  0.00     0.158 A 
BRANCH  15  18
ATOM     18  O   UNL     1     -15.828  19.755  10.406  1.00  0.00    -0.504 OA
ATOM     19  H   UNL     1     -15.542  18.948   9.866  1.00  0.00     0.293 HD
ENDBRANCH  15  18
BRANCH  17  20
ATOM     20  O   UNL     1     -17.210  22.217  10.525  1.00  0.00    -0.504 OA
ATOM     21  H   UNL     1     -17.788  21.407  10.338  1.00  0.00     0.293 HD
ENDBRANCH  17  20
ENDBRANCH   1  12
BRANCH   2  22
ATOM     22  O   UNL     1     -10.826  23.586  10.303  1.00  0.00    -0.502 OA
ATOM     23  H   UNL     1     -11.240  22.672  10.435  1.00  0.00     0.293 HD
ENDBRANCH   2  22
BRANCH   6  24
ATOM     24  O   UNL     1      -9.906  28.831  10.393  1.00  0.00    -0.507 OA
ATOM     25  H   UNL     1      -9.500  29.747  10.279  1.00  0.00     0.293 HD
ENDBRANCH   6  24
BRANCH   8  26
ATOM     26  O   UNL     1     -14.336  30.477   9.544  1.00  0.00    -0.508 OA
ATOM     27  H   UNL     1     -14.686  30.708   8.622  1.00  0.00     0.293 HD
ENDBRANCH   8  26
TORSDOF 6
ENDMDL
