MODEL 1
REMARK VINA RESULT:    -6.951      0.000      0.000
REMARK INTER + INTRA:          -8.447
REMARK INTER:                  -8.170
REMARK INTRA:                  -0.277
REMARK UNBOUND:                -0.277
REMARK SMILES O=c1c(O)c(-c2ccc(O)cc2)oc2cc(O)cc(O)c12
REMARK SMILES IDX 5 1 3 2 2 3 1 4 21 5 19 6 18 7 16 8 15 9 14 10 13 11 6 12
REMARK SMILES IDX 7 13 8 14 9 15 12 16 11 17 10 18 4 20 20 22 17 24
REMARK H PARENT 10 19 4 21 20 23 17 25
REMARK Flexibility Score: inf
ROOT
ATOM      1  C   UNL     1       9.564  11.339 -16.046  1.00  0.00     0.180 A 
ATOM      2  C   UNL     1      10.157  10.136 -16.464  1.00  0.00     0.208 A 
ATOM      3  C   UNL     1       9.804   8.941 -15.817  1.00  0.00     0.238 A 
ATOM      4  O   UNL     1      10.282   7.859 -16.243  1.00  0.00    -0.285 OA
ATOM      5  C   UNL     1       8.903   8.971 -14.723  1.00  0.00     0.111 A 
ATOM      6  C   UNL     1       8.509   7.827 -13.965  1.00  0.00     0.134 A 
ATOM      7  C   UNL     1       7.529   7.961 -12.973  1.00  0.00     0.093 A 
ATOM      8  C   UNL     1       6.978   9.205 -12.667  1.00  0.00     0.123 A 
ATOM      9  C   UNL     1       7.397  10.338 -13.365  1.00  0.00     0.094 A 
ATOM     10  C   UNL     1       8.343  10.231 -14.387  1.00  0.00     0.146 A 
ATOM     11  O   UNL     1       8.698  11.331 -15.040  1.00  0.00    -0.452 OA
ENDROOT
BRANCH   1  12
ATOM     12  C   UNL     1       9.874  12.636 -16.688  1.00  0.00     0.021 A 
ATOM     13  C   UNL     1      10.869  13.489 -16.174  1.00  0.00     0.016 A 
ATOM     14  C   UNL     1      11.161  14.699 -16.813  1.00  0.00     0.047 A 
ATOM     15  C   UNL     1      10.474  15.065 -17.977  1.00  0.00     0.115 A 
ATOM     16  C   UNL     1       9.206  13.001 -17.868  1.00  0.00     0.016 A 
ATOM     17  C   UNL     1       9.500  14.212 -18.504  1.00  0.00     0.047 A 
BRANCH  15  18
ATOM     18  O   UNL     1      10.755  16.267 -18.620  1.00  0.00    -0.508 OA
ATOM     19  H   UNL     1      11.313  16.987 -18.176  1.00  0.00     0.293 HD
ENDBRANCH  15  18
ENDBRANCH   1  12
BRANCH   2  20
ATOM     20  O   UNL     1      11.101  10.137 -17.494  1.00  0.00    -0.502 OA
ATOM     21  H   UNL     1      11.980  10.638 -17.427  1.00  0.00     0.293 HD
ENDBRANCH   2  20
BRANCH   6  22
ATOM     22  O   UNL     1       9.059   6.552 -14.125  1.00  0.00    -0.507 OA
ATOM     23  H   UNL     1       9.018   6.008 -14.973  1.00  0.00     0.293 HD
ENDBRANCH   6  22
BRANCH   8  24
ATOM     24  O   UNL     1       6.019   9.304 -11.662  1.00  0.00    -0.508 OA
ATOM     25  H   UNL     1       5.367  10.079 -11.626  1.00  0.00     0.293 HD
ENDBRANCH   8  24
TORSDOF 5
ENDMDL
MODEL 2
REMARK VINA RESULT:    -6.401      2.865      7.732
REMARK INTER + INTRA:          -7.800
REMARK INTER:                  -7.563
REMARK INTRA:                  -0.237
REMARK UNBOUND:                -0.277
REMARK SMILES O=c1c(O)c(-c2ccc(O)cc2)oc2cc(O)cc(O)c12
REMARK SMILES IDX 5 1 3 2 2 3 1 4 21 5 19 6 18 7 16 8 15 9 14 10 13 11 6 12
REMARK SMILES IDX 7 13 8 14 9 15 12 16 11 17 10 18 4 20 20 22 17 24
REMARK H PARENT 10 19 4 21 20 23 17 25
REMARK Flexibility Score: inf
ROOT
ATOM      1  C   UNL     1       9.196  12.190 -18.356  1.00  0.00     0.180 A 
ATOM      2  C   UNL     1       9.738  13.133 -17.468  1.00  0.00     0.208 A 
ATOM      3  C   UNL     1       9.854  14.470 -17.881  1.00  0.00     0.238 A 
ATOM      4  O   UNL     1      10.271  15.323 -17.056  1.00  0.00    -0.285 OA
ATOM      5  C   UNL     1       9.480  14.836 -19.198  1.00  0.00     0.111 A 
ATOM      6  C   UNL     1       9.597  16.152 -19.739  1.00  0.00     0.134 A 
ATOM      7  C   UNL     1       9.095  16.419 -21.019  1.00  0.00     0.093 A 
ATOM      8  C   UNL     1       8.541  15.407 -21.802  1.00  0.00     0.123 A 
ATOM      9  C   UNL     1       8.471  14.106 -21.303  1.00  0.00     0.094 A 
ATOM     10  C   UNL     1       8.928  13.816 -20.015  1.00  0.00     0.146 A 
ATOM     11  O   UNL     1       8.823  12.569 -19.572  1.00  0.00    -0.452 OA
ENDROOT
BRANCH   1  12
ATOM     12  C   UNL     1       9.028  10.765 -17.988  1.00  0.00     0.021 A 
ATOM     13  C   UNL     1      10.124   9.883 -17.950  1.00  0.00     0.016 A 
ATOM     14  C   UNL     1       9.943   8.548 -17.576  1.00  0.00     0.047 A 
ATOM     15  C   UNL     1       8.671   8.081 -17.223  1.00  0.00     0.115 A 
ATOM     16  C   UNL     1       7.759  10.294 -17.611  1.00  0.00     0.016 A 
ATOM     17  C   UNL     1       7.582   8.958 -17.237  1.00  0.00     0.047 A 
BRANCH  15  18
ATOM     18  O   UNL     1       8.479   6.753 -16.850  1.00  0.00    -0.508 OA
ATOM     19  H   UNL     1       7.684   6.470 -16.289  1.00  0.00     0.293 HD
ENDBRANCH  15  18
ENDBRANCH   1  12
BRANCH   2  20
ATOM     20  O   UNL     1      10.173  12.738 -16.200  1.00  0.00    -0.502 OA
ATOM     21  H   UNL     1       9.647  12.095 -15.620  1.00  0.00     0.293 HD
ENDBRANCH   2  20
BRANCH   6  22
ATOM     22  O   UNL     1      10.214  17.219 -19.079  1.00  0.00    -0.507 OA
ATOM     23  H   UNL     1       9.829  17.708 -18.286  1.00  0.00     0.293 HD
ENDBRANCH   6  22
BRANCH   8  24
ATOM     24  O   UNL     1       8.068  15.706 -23.077  1.00  0.00    -0.508 OA
ATOM     25  H   UNL     1       8.176  15.057 -23.848  1.00  0.00     0.293 HD
ENDBRANCH   8  24
TORSDOF 5
ENDMDL
MODEL 3
REMARK VINA RESULT:    -6.274      1.910      7.265
REMARK INTER + INTRA:          -7.652
REMARK INTER:                  -7.363
REMARK INTRA:                  -0.288
REMARK UNBOUND:                -0.277
REMARK SMILES O=c1c(O)c(-c2ccc(O)cc2)oc2cc(O)cc(O)c12
REMARK SMILES IDX 5 1 3 2 2 3 1 4 21 5 19 6 18 7 16 8 15 9 14 10 13 11 6 12
REMARK SMILES IDX 7 13 8 14 9 15 12 16 11 17 10 18 4 20 20 22 17 24
REMARK H PARENT 10 19 4 21 20 23 17 25
REMARK Flexibility Score: inf
ROOT
ATOM      1  C   UNL     1       9.773  12.149 -17.080  1.00  0.00     0.180 A 
ATOM      2  C   UNL     1      10.482  13.246 -16.564  1.00  0.00     0.208 A 
ATOM      3  C   UNL     1      10.498  14.450 -17.287  1.00  0.00     0.238 A 
ATOM      4  O   UNL     1      11.073  15.449 -16.784  1.00  0.00    -0.285 OA
ATOM      5  C   UNL     1       9.852  14.524 -18.546  1.00  0.00     0.111 A 
ATOM      6  C   UNL     1       9.843  15.678 -19.386  1.00  0.00     0.134 A 
ATOM      7  C   UNL     1       9.080  15.670 -20.562  1.00  0.00     0.093 A 
ATOM      8  C   UNL     1       8.381  14.531 -20.960  1.00  0.00     0.123 A 
ATOM      9  C   UNL     1       8.429  13.379 -20.173  1.00  0.00     0.094 A 
ATOM     10  C   UNL     1       9.148  13.369 -18.976  1.00  0.00     0.146 A 
ATOM     11  O   UNL     1       9.149  12.259 -18.247  1.00  0.00    -0.452 OA
ENDROOT
BRANCH   1  12
ATOM     12  C   UNL     1       9.697  10.853 -16.369  1.00  0.00     0.021 A 
ATOM     13  C   UNL     1      10.650   9.840 -16.588  1.00  0.00     0.016 A 
ATOM     14  C   UNL     1      10.570   8.632 -15.885  1.00  0.00     0.047 A 
ATOM     15  C   UNL     1       9.549   8.428 -14.949  1.00  0.00     0.115 A 
ATOM     16  C   UNL     1       8.690  10.648 -15.412  1.00  0.00     0.016 A 
ATOM     17  C   UNL     1       8.613   9.439 -14.711  1.00  0.00     0.047 A 
BRANCH  15  18
ATOM     18  O   UNL     1       9.460   7.230 -14.245  1.00  0.00    -0.508 OA
ATOM     19  H   UNL     1       9.907   6.385 -14.579  1.00  0.00     0.293 HD
ENDBRANCH  15  18
ENDBRANCH   1  12
BRANCH   2  20
ATOM     20  O   UNL     1      11.177  13.130 -15.357  1.00  0.00    -0.502 OA
ATOM     21  H   UNL     1      11.807  12.360 -15.163  1.00  0.00     0.293 HD
ENDBRANCH   2  20
BRANCH   6  22
ATOM     22  O   UNL     1      10.577  16.840 -19.132  1.00  0.00    -0.507 OA
ATOM     23  H   UNL     1      11.074  17.033 -18.276  1.00  0.00     0.293 HD
ENDBRANCH   6  22
BRANCH   8  24
ATOM     24  O   UNL     1       7.648  14.553 -22.143  1.00  0.00    -0.508 OA
ATOM     25  H   UNL     1       7.961  15.080 -22.950  1.00  0.00     0.293 HD
ENDBRANCH   8  24
TORSDOF 5
ENDMDL
MODEL 4
REMARK VINA RESULT:    -6.266      2.752      7.190
REMARK INTER + INTRA:          -7.642
REMARK INTER:                  -7.467
REMARK INTRA:                  -0.175
REMARK UNBOUND:                -0.277
REMARK SMILES O=c1c(O)c(-c2ccc(O)cc2)oc2cc(O)cc(O)c12
REMARK SMILES IDX 5 1 3 2 2 3 1 4 21 5 19 6 18 7 16 8 15 9 14 10 13 11 6 12
REMARK SMILES IDX 7 13 8 14 9 15 12 16 11 17 10 18 4 20 20 22 17 24
REMARK H PARENT 10 19 4 21 20 23 17 25
REMARK Flexibility Score: inf
ROOT
ATOM      1  C   UNL     1       7.379   7.869 -14.734  1.00  0.00     0.180 A 
ATOM      2  C   UNL     1       7.003   8.262 -13.439  1.00  0.00     0.208 A 
ATOM      3  C   UNL     1       7.262   9.578 -13.024  1.00  0.00     0.238 A 
ATOM      4  O   UNL     1       6.857   9.945 -11.891  1.00  0.00    -0.285 OA
ATOM      5  C   UNL     1       7.944  10.469 -13.889  1.00  0.00     0.111 A 
ATOM      6  C   UNL     1       8.299  11.811 -13.556  1.00  0.00     0.134 A 
ATOM      7  C   UNL     1       8.878  12.634 -14.530  1.00  0.00     0.093 A 
ATOM      8  C   UNL     1       9.174  12.146 -15.803  1.00  0.00     0.123 A 
ATOM      9  C   UNL     1       8.881  10.820 -16.121  1.00  0.00     0.094 A 
ATOM     10  C   UNL     1       8.268   9.986 -15.183  1.00  0.00     0.146 A 
ATOM     11  O   UNL     1       7.987   8.736 -15.535  1.00  0.00    -0.452 OA
ENDROOT
BRANCH   1  12
ATOM     12  C   UNL     1       7.127   6.504 -15.249  1.00  0.00     0.021 A 
ATOM     13  C   UNL     1       7.810   5.387 -14.731  1.00  0.00     0.016 A 
ATOM     14  C   UNL     1       7.537   4.104 -15.218  1.00  0.00     0.047 A 
ATOM     15  C   UNL     1       6.571   3.920 -16.216  1.00  0.00     0.115 A 
ATOM     16  C   UNL     1       6.146   6.307 -16.234  1.00  0.00     0.016 A 
ATOM     17  C   UNL     1       5.875   5.023 -16.719  1.00  0.00     0.047 A 
BRANCH  15  18
ATOM     18  O   UNL     1       6.292   2.648 -16.708  1.00  0.00    -0.508 OA
ATOM     19  H   UNL     1       5.764   1.974 -16.166  1.00  0.00     0.293 HD
ENDBRANCH  15  18
ENDBRANCH   1  12
BRANCH   2  20
ATOM     20  O   UNL     1       6.400   7.346 -12.573  1.00  0.00    -0.502 OA
ATOM     21  H   UNL     1       6.733   6.394 -12.468  1.00  0.00     0.293 HD
ENDBRANCH   2  20
BRANCH   6  22
ATOM     22  O   UNL     1       8.130  12.376 -12.288  1.00  0.00    -0.507 OA
ATOM     23  H   UNL     1       8.852  12.852 -11.768  1.00  0.00     0.293 HD
ENDBRANCH   6  22
BRANCH   8  24
ATOM     24  O   UNL     1       9.766  12.988 -16.741  1.00  0.00    -0.508 OA
ATOM     25  H   UNL     1      10.740  13.258 -16.671  1.00  0.00     0.293 HD
ENDBRANCH   8  24
TORSDOF 5
ENDMDL
MODEL 5
REMARK VINA RESULT:    -6.240      2.317      3.425
REMARK INTER + INTRA:          -7.612
REMARK INTER:                  -7.619
REMARK INTRA:                   0.007
REMARK UNBOUND:                -0.277
REMARK SMILES O=c1c(O)c(-c2ccc(O)cc2)oc2cc(O)cc(O)c12
REMARK SMILES IDX 5 1 3 2 2 3 1 4 21 5 19 6 18 7 16 8 15 9 14 10 13 11 6 12
REMARK SMILES IDX 7 13 8 14 9 15 12 16 11 17 10 18 4 20 20 22 17 24
REMARK H PARENT 10 19 4 21 20 23 17 25
REMARK Flexibility Score: inf
ROOT
ATOM      1  C   UNL     1       8.957  12.949 -18.521  1.00  0.00     0.180 A 
ATOM      2  C   UNL     1       9.377  11.637 -18.792  1.00  0.00     0.208 A 
ATOM      3  C   UNL     1       9.377  10.693 -17.752  1.00  0.00     0.238 A 
ATOM      4  O   UNL     1       9.683   9.502 -18.017  1.00  0.00    -0.285 OA
ATOM      5  C   UNL     1       9.010  11.088 -16.441  1.00  0.00     0.111 A 
ATOM      6  C   UNL     1       9.017  10.226 -15.302  1.00  0.00     0.134 A 
ATOM      7  C   UNL     1       8.532  10.700 -14.077  1.00  0.00     0.093 A 
ATOM      8  C   UNL     1       8.102  12.019 -13.931  1.00  0.00     0.123 A 
ATOM      9  C   UNL     1       8.143  12.884 -15.026  1.00  0.00     0.094 A 
ATOM     10  C   UNL     1       8.585  12.431 -16.271  1.00  0.00     0.146 A 
ATOM     11  O   UNL     1       8.587  13.282 -17.290  1.00  0.00    -0.452 OA
ENDROOT
BRANCH   1  12
ATOM     12  C   UNL     1       8.916  13.996 -19.567  1.00  0.00     0.021 A 
ATOM     13  C   UNL     1       8.277  13.773 -20.802  1.00  0.00     0.016 A 
ATOM     14  C   UNL     1       8.230  14.786 -21.766  1.00  0.00     0.047 A 
ATOM     15  C   UNL     1       8.807  16.036 -21.503  1.00  0.00     0.115 A 
ATOM     16  C   UNL     1       9.472  15.258 -19.305  1.00  0.00     0.016 A 
ATOM     17  C   UNL     1       9.424  16.269 -20.270  1.00  0.00     0.047 A 
BRANCH  15  18
ATOM     18  O   UNL     1       8.768  17.051 -22.455  1.00  0.00    -0.508 OA
ATOM     19  H   UNL     1       8.370  16.899 -23.375  1.00  0.00     0.293 HD
ENDBRANCH  15  18
ENDBRANCH   1  12
BRANCH   2  20
ATOM     20  O   UNL     1       9.808  11.286 -20.074  1.00  0.00    -0.502 OA
ATOM     21  H   UNL     1      10.787  11.164 -20.305  1.00  0.00     0.293 HD
ENDBRANCH   2  20
BRANCH   6  22
ATOM     22  O   UNL     1       9.507   8.917 -15.311  1.00  0.00    -0.507 OA
ATOM     23  H   UNL     1       9.564   8.328 -16.128  1.00  0.00     0.293 HD
ENDBRANCH   6  22
BRANCH   8  24
ATOM     24  O   UNL     1       7.643  12.460 -12.694  1.00  0.00    -0.508 OA
ATOM     25  H   UNL     1       8.274  12.601 -11.913  1.00  0.00     0.293 HD
ENDBRANCH   8  24
TORSDOF 5
ENDMDL
MODEL 6
REMARK VINA RESULT:    -6.186      1.754      2.354
REMARK INTER + INTRA:          -7.548
REMARK INTER:                  -7.264
REMARK INTRA:                  -0.285
REMARK UNBOUND:                -0.277
REMARK SMILES O=c1c(O)c(-c2ccc(O)cc2)oc2cc(O)cc(O)c12
REMARK SMILES IDX 5 1 3 2 2 3 1 4 21 5 19 6 18 7 16 8 15 9 14 10 13 11 6 12
REMARK SMILES IDX 7 13 8 14 9 15 12 16 11 17 10 18 4 20 20 22 17 24
REMARK H PARENT 10 19 4 21 20 23 17 25
REMARK Flexibility Score: inf
ROOT
ATOM      1  C   UNL     1       8.532  10.918 -17.528  1.00  0.00     0.180 A 
ATOM      2  C   UNL     1       9.469   9.875 -17.602  1.00  0.00     0.208 A 
ATOM      3  C   UNL     1       9.534   8.941 -16.555  1.00  0.00     0.238 A 
ATOM      4  O   UNL     1      10.323   7.968 -16.662  1.00  0.00    -0.285 OA
ATOM      5  C   UNL     1       8.702   9.097 -15.419  1.00  0.00     0.111 A 
ATOM      6  C   UNL     1       8.716   8.238 -14.279  1.00  0.00     0.134 A 
ATOM      7  C   UNL     1       7.772   8.426 -13.261  1.00  0.00     0.093 A 
ATOM      8  C   UNL     1       6.859   9.480 -13.309  1.00  0.00     0.123 A 
ATOM      9  C   UNL     1       6.873  10.358 -14.394  1.00  0.00     0.094 A 
ATOM     10  C   UNL     1       7.777  10.173 -15.443  1.00  0.00     0.146 A 
ATOM     11  O   UNL     1       7.742  11.019 -16.466  1.00  0.00    -0.452 OA
ENDROOT
BRANCH   1  12
ATOM     12  C   UNL     1       8.392  11.931 -18.598  1.00  0.00     0.021 A 
ATOM     13  C   UNL     1       7.419  11.802 -19.608  1.00  0.00     0.016 A 
ATOM     14  C   UNL     1       7.291  12.785 -20.595  1.00  0.00     0.047 A 
ATOM     15  C   UNL     1       8.122  13.912 -20.579  1.00  0.00     0.115 A 
ATOM     16  C   UNL     1       9.206  13.076 -18.578  1.00  0.00     0.016 A 
ATOM     17  C   UNL     1       9.075  14.056 -19.567  1.00  0.00     0.047 A 
BRANCH  15  18
ATOM     18  O   UNL     1       8.004  14.896 -21.557  1.00  0.00    -0.508 OA
ATOM     19  H   UNL     1       8.182  14.695 -22.534  1.00  0.00     0.293 HD
ENDBRANCH  15  18
ENDBRANCH   1  12
BRANCH   2  20
ATOM     20  O   UNL     1      10.334   9.782 -18.695  1.00  0.00    -0.502 OA
ATOM     21  H   UNL     1      11.314  10.035 -18.637  1.00  0.00     0.293 HD
ENDBRANCH   2  20
BRANCH   6  22
ATOM     22  O   UNL     1       9.641   7.208 -14.083  1.00  0.00    -0.507 OA
ATOM     23  H   UNL     1      10.436   7.027 -14.676  1.00  0.00     0.293 HD
ENDBRANCH   6  22
BRANCH   8  24
ATOM     24  O   UNL     1       5.947   9.647 -12.271  1.00  0.00    -0.508 OA
ATOM     25  H   UNL     1       5.937  10.488 -11.705  1.00  0.00     0.293 HD
ENDBRANCH   8  24
TORSDOF 5
ENDMDL
MODEL 7
REMARK VINA RESULT:    -6.186      2.330      7.128
REMARK INTER + INTRA:          -7.548
REMARK INTER:                  -7.260
REMARK INTRA:                  -0.288
REMARK UNBOUND:                -0.277
REMARK SMILES O=c1c(O)c(-c2ccc(O)cc2)oc2cc(O)cc(O)c12
REMARK SMILES IDX 5 1 3 2 2 3 1 4 21 5 19 6 18 7 16 8 15 9 14 10 13 11 6 12
REMARK SMILES IDX 7 13 8 14 9 15 12 16 11 17 10 18 4 20 20 22 17 24
REMARK H PARENT 10 19 4 21 20 23 17 25
REMARK Flexibility Score: inf
ROOT
ATOM      1  C   UNL     1       8.782  11.511 -17.627  1.00  0.00     0.180 A 
ATOM      2  C   UNL     1       8.003  11.218 -18.758  1.00  0.00     0.208 A 
ATOM      3  C   UNL     1       7.862  12.192 -19.760  1.00  0.00     0.238 A 
ATOM      4  O   UNL     1       7.225  11.897 -20.804  1.00  0.00    -0.285 OA
ATOM      5  C   UNL     1       8.456  13.467 -19.591  1.00  0.00     0.111 A 
ATOM      6  C   UNL     1       8.341  14.545 -20.521  1.00  0.00     0.134 A 
ATOM      7  C   UNL     1       9.060  15.727 -20.299  1.00  0.00     0.093 A 
ATOM      8  C   UNL     1       9.836  15.895 -19.153  1.00  0.00     0.123 A 
ATOM      9  C   UNL     1       9.912  14.867 -18.212  1.00  0.00     0.094 A 
ATOM     10  C   UNL     1       9.238  13.662 -18.423  1.00  0.00     0.146 A 
ATOM     11  O   UNL     1       9.354  12.703 -17.512  1.00  0.00    -0.452 OA
ENDROOT
BRANCH   1  12
ATOM     12  C   UNL     1       8.990  10.531 -16.537  1.00  0.00     0.021 A 
ATOM     13  C   UNL     1       8.119  10.468 -15.432  1.00  0.00     0.016 A 
ATOM     14  C   UNL     1       8.322   9.517 -14.426  1.00  0.00     0.047 A 
ATOM     15  C   UNL     1       9.387   8.611 -14.518  1.00  0.00     0.115 A 
ATOM     16  C   UNL     1      10.042   9.605 -16.631  1.00  0.00     0.016 A 
ATOM     17  C   UNL     1      10.242   8.656 -15.623  1.00  0.00     0.047 A 
BRANCH  15  18
ATOM     18  O   UNL     1       9.599   7.662 -13.522  1.00  0.00    -0.508 OA
ATOM     19  H   UNL     1       9.515   6.670 -13.709  1.00  0.00     0.293 HD
ENDBRANCH  15  18
ENDBRANCH   1  12
BRANCH   2  20
ATOM     20  O   UNL     1       7.362   9.981 -18.871  1.00  0.00    -0.502 OA
ATOM     21  H   UNL     1       6.908   9.678 -19.725  1.00  0.00     0.293 HD
ENDBRANCH   2  20
BRANCH   6  22
ATOM     22  O   UNL     1       7.522  14.521 -21.654  1.00  0.00    -0.507 OA
ATOM     23  H   UNL     1       6.514  14.545 -21.638  1.00  0.00     0.293 HD
ENDBRANCH   6  22
BRANCH   8  24
ATOM     24  O   UNL     1      10.524  17.090 -18.958  1.00  0.00    -0.508 OA
ATOM     25  H   UNL     1      11.515  17.169 -19.154  1.00  0.00     0.293 HD
ENDBRANCH   8  24
TORSDOF 5
ENDMDL
MODEL 8
REMARK VINA RESULT:    -6.145      1.926      6.995
REMARK INTER + INTRA:          -7.500
REMARK INTER:                  -7.630
REMARK INTRA:                   0.130
REMARK UNBOUND:                -0.277
REMARK SMILES O=c1c(O)c(-c2ccc(O)cc2)oc2cc(O)cc(O)c12
REMARK SMILES IDX 5 1 3 2 2 3 1 4 21 5 19 6 18 7 16 8 15 9 14 10 13 11 6 12
REMARK SMILES IDX 7 13 8 14 9 15 12 16 11 17 10 18 4 20 20 22 17 24
REMARK H PARENT 10 19 4 21 20 23 17 25
REMARK Flexibility Score: inf
ROOT
ATOM      1  C   UNL     1       8.209  10.989 -14.795  1.00  0.00     0.180 A 
ATOM      2  C   UNL     1       8.600  12.262 -14.347  1.00  0.00     0.208 A 
ATOM      3  C   UNL     1       9.043  13.208 -15.286  1.00  0.00     0.238 A 
ATOM      4  O   UNL     1       9.321  14.369 -14.888  1.00  0.00    -0.285 OA
ATOM      5  C   UNL     1       9.144  12.851 -16.653  1.00  0.00     0.111 A 
ATOM      6  C   UNL     1       9.623  13.714 -17.685  1.00  0.00     0.134 A 
ATOM      7  C   UNL     1       9.577  13.288 -19.018  1.00  0.00     0.093 A 
ATOM      8  C   UNL     1       9.131  12.010 -19.352  1.00  0.00     0.123 A 
ATOM      9  C   UNL     1       8.712  11.138 -18.346  1.00  0.00     0.094 A 
ATOM     10  C   UNL     1       8.709  11.548 -17.010  1.00  0.00     0.146 A 
ATOM     11  O   UNL     1       8.282  10.694 -16.087  1.00  0.00    -0.452 OA
ENDROOT
BRANCH   1  12
ATOM     12  C   UNL     1       7.717   9.944 -13.869  1.00  0.00     0.021 A 
ATOM     13  C   UNL     1       6.836  10.254 -12.815  1.00  0.00     0.016 A 
ATOM     14  C   UNL     1       6.366   9.245 -11.968  1.00  0.00     0.047 A 
ATOM     15  C   UNL     1       6.758   7.915 -12.170  1.00  0.00     0.115 A 
ATOM     16  C   UNL     1       8.087   8.606 -14.078  1.00  0.00     0.016 A 
ATOM     17  C   UNL     1       7.615   7.599 -13.229  1.00  0.00     0.047 A 
BRANCH  15  18
ATOM     18  O   UNL     1       6.297   6.903 -11.333  1.00  0.00    -0.508 OA
ATOM     19  H   UNL     1       5.327   6.610 -11.341  1.00  0.00     0.293 HD
ENDBRANCH  15  18
ENDBRANCH   1  12
BRANCH   2  20
ATOM     20  O   UNL     1       8.566  12.570 -12.985  1.00  0.00    -0.502 OA
ATOM     21  H   UNL     1       8.181  13.439 -12.632  1.00  0.00     0.293 HD
ENDBRANCH   2  20
BRANCH   6  22
ATOM     22  O   UNL     1      10.173  14.979 -17.456  1.00  0.00    -0.507 OA
ATOM     23  H   UNL     1       9.975  15.558 -16.654  1.00  0.00     0.293 HD
ENDBRANCH   6  22
BRANCH   8  24
ATOM     24  O   UNL     1       9.116  11.614 -20.687  1.00  0.00    -0.508 OA
ATOM     25  H   UNL     1       9.146  12.291 -21.440  1.00  0.00     0.293 HD
ENDBRANCH   8  24
TORSDOF 5
ENDMDL
MODEL 9
REMARK VINA RESULT:    -5.976      2.277      4.133
REMARK INTER + INTRA:          -7.301
REMARK INTER:                  -7.045
REMARK INTRA:                  -0.256
REMARK UNBOUND:                -0.277
REMARK SMILES O=c1c(O)c(-c2ccc(O)cc2)oc2cc(O)cc(O)c12
REMARK SMILES IDX 5 1 3 2 2 3 1 4 21 5 19 6 18 7 16 8 15 9 14 10 13 11 6 12
REMARK SMILES IDX 7 13 8 14 9 15 12 16 11 17 10 18 4 20 20 22 17 24
REMARK H PARENT 10 19 4 21 20 23 17 25
REMARK Flexibility Score: inf
ROOT
ATOM      1  C   UNL     1       8.837  13.053 -18.043  1.00  0.00     0.180 A 
ATOM      2  C   UNL     1       8.030  13.215 -16.905  1.00  0.00     0.208 A 
ATOM      3  C   UNL     1       8.078  12.244 -15.892  1.00  0.00     0.238 A 
ATOM      4  O   UNL     1       7.409  12.431 -14.843  1.00  0.00    -0.285 OA
ATOM      5  C   UNL     1       8.890  11.094 -16.056  1.00  0.00     0.111 A 
ATOM      6  C   UNL     1       8.982  10.024 -15.114  1.00  0.00     0.134 A 
ATOM      7  C   UNL     1       9.899   8.989 -15.333  1.00  0.00     0.093 A 
ATOM      8  C   UNL     1      10.681   8.950 -16.487  1.00  0.00     0.123 A 
ATOM      9  C   UNL     1      10.560   9.963 -17.439  1.00  0.00     0.094 A 
ATOM     10  C   UNL     1       9.682  11.029 -17.231  1.00  0.00     0.146 A 
ATOM     11  O   UNL     1       9.614  11.982 -18.153  1.00  0.00    -0.452 OA
ENDROOT
BRANCH   1  12
ATOM     12  C   UNL     1       8.853  14.041 -19.146  1.00  0.00     0.021 A 
ATOM     13  C   UNL     1       9.545  15.262 -19.027  1.00  0.00     0.016 A 
ATOM     14  C   UNL     1       9.565  16.168 -20.092  1.00  0.00     0.047 A 
ATOM     15  C   UNL     1       8.908  15.862 -21.291  1.00  0.00     0.115 A 
ATOM     16  C   UNL     1       8.216  13.733 -20.359  1.00  0.00     0.016 A 
ATOM     17  C   UNL     1       8.238  14.643 -21.422  1.00  0.00     0.047 A 
BRANCH  15  18
ATOM     18  O   UNL     1       8.921  16.758 -22.356  1.00  0.00    -0.508 OA
ATOM     19  H   UNL     1       8.389  17.620 -22.330  1.00  0.00     0.293 HD
ENDBRANCH  15  18
ENDBRANCH   1  12
BRANCH   2  20
ATOM     20  O   UNL     1       7.178  14.317 -16.797  1.00  0.00    -0.502 OA
ATOM     21  H   UNL     1       6.331  14.406 -17.345  1.00  0.00     0.293 HD
ENDBRANCH   2  20
BRANCH   6  22
ATOM     22  O   UNL     1       8.184   9.915 -13.971  1.00  0.00    -0.507 OA
ATOM     23  H   UNL     1       7.180   9.822 -13.975  1.00  0.00     0.293 HD
ENDBRANCH   6  22
BRANCH   8  24
ATOM     24  O   UNL     1      11.571   7.896 -16.679  1.00  0.00    -0.508 OA
ATOM     25  H   UNL     1      11.245   6.955 -16.867  1.00  0.00     0.293 HD
ENDBRANCH   8  24
TORSDOF 5
ENDMDL
