MODEL 1
REMARK VINA RESULT:    -3.529      0.000      0.000
REMARK INTER + INTRA:         -12.138
REMARK INTER:                  -8.068
REMARK INTRA:                  -4.071
REMARK UNBOUND:                -4.071
REMARK SMILES CCCCCCCCCCCCCCCCCCCCCCCC(=O)[O-]
REMARK SMILES IDX 13 1 14 2 15 3 16 4 17 5 18 6 19 7 20 8 21 9 22 10 23 11
REMARK SMILES IDX 24 12 25 13 26 14 12 15 11 16 10 17 9 18 8 19 7 20 6 21 5 22
REMARK SMILES IDX 4 23 3 24 2 25 1 26
REMARK H PARENT
REMARK Flexibility Score: inf
ROOT
ATOM      1  C   UNL     1     -91.996 146.050 238.890  1.00  0.00     0.000 C 
ENDROOT
BRANCH   1   2
ATOM      2  C   UNL     1     -91.681 145.670 237.434  1.00  0.00     0.000 C 
BRANCH   2   3
ATOM      3  C   UNL     1     -92.925 145.697 236.533  1.00  0.00     0.000 C 
BRANCH   3   4
ATOM      4  C   UNL     1     -92.579 145.956 235.059  1.00  0.00     0.000 C 
BRANCH   4   5
ATOM      5  C   UNL     1     -93.178 147.288 234.581  1.00  0.00     0.000 C 
BRANCH   5   6
ATOM      6  C   UNL     1     -94.662 147.172 234.189  1.00  0.00     0.000 C 
BRANCH   6   7
ATOM      7  C   UNL     1     -95.222 148.366 233.393  1.00  0.00     0.000 C 
BRANCH   7   8
ATOM      8  C   UNL     1     -95.981 149.370 234.273  1.00  0.00     0.000 C 
BRANCH   8   9
ATOM      9  C   UNL     1     -95.045 150.481 234.772  1.00  0.00     0.000 C 
BRANCH   9  10
ATOM     10  C   UNL     1     -95.798 151.716 235.296  1.00  0.00     0.006 C 
BRANCH  10  11
ATOM     11  C   UNL     1     -97.172 151.936 234.636  1.00  0.00     0.053 C 
BRANCH  11  12
ATOM     12  C   UNL     1     -98.271 152.111 235.639  1.00  0.00     0.041 C 
ATOM     13  O   UNL     1     -98.708 153.261 235.911  1.00  0.00    -0.550 OA
ATOM     14  O   UNL     1     -98.838 151.000 236.250  1.00  0.00    -0.550 OA
ENDBRANCH  11  12
ENDBRANCH  10  11
ENDBRANCH   9  10
ENDBRANCH   8   9
ENDBRANCH   7   8
ENDBRANCH   6   7
ENDBRANCH   5   6
ENDBRANCH   4   5
ENDBRANCH   3   4
ENDBRANCH   2   3
ENDBRANCH   1   2
BRANCH   1  15
ATOM     15  C   UNL     1     -93.487 146.353 239.119  1.00  0.00     0.000 C 
BRANCH  15  16
ATOM     16  C   UNL     1     -93.753 147.777 239.651  1.00  0.00     0.000 C 
BRANCH  16  17
ATOM     17  C   UNL     1     -94.236 148.731 238.548  1.00  0.00     0.000 C 
BRANCH  17  18
ATOM     18  C   UNL     1     -95.317 148.072 237.683  1.00  0.00    -0.000 C 
BRANCH  18  19
ATOM     19  C   UNL     1     -96.682 148.739 237.905  1.00  0.00    -0.000 C 
BRANCH  19  20
ATOM     20  C   UNL     1     -97.774 147.732 238.299  1.00  0.00    -0.000 C 
BRANCH  20  21
ATOM     21  C   UNL     1     -97.195 146.400 238.805  1.00  0.00    -0.000 C 
BRANCH  21  22
ATOM     22  C   UNL     1     -97.321 146.238 240.331  1.00  0.00    -0.000 C 
BRANCH  22  23
ATOM     23  C   UNL     1     -97.722 147.518 241.091  1.00  0.00    -0.000 C 
BRANCH  23  24
ATOM     24  C   UNL     1     -96.565 148.243 241.805  1.00  0.00    -0.000 C 
BRANCH  24  25
ATOM     25  C   UNL     1     -96.537 149.750 241.516  1.00  0.00    -0.003 C 
ATOM     26  C   UNL     1     -97.931 150.270 241.179  1.00  0.00     0.004 C 
ENDBRANCH  24  25
ENDBRANCH  23  24
ENDBRANCH  22  23
ENDBRANCH  21  22
ENDBRANCH  20  21
ENDBRANCH  19  20
ENDBRANCH  18  19
ENDBRANCH  17  18
ENDBRANCH  16  17
ENDBRANCH  15  16
ENDBRANCH   1  15
TORSDOF 22
ENDMDL
MODEL 2
REMARK VINA RESULT:    -3.492      1.479      5.840
REMARK INTER + INTRA:         -12.054
REMARK INTER:                  -8.501
REMARK INTRA:                  -3.552
REMARK UNBOUND:                -4.071
REMARK SMILES CCCCCCCCCCCCCCCCCCCCCCCC(=O)[O-]
REMARK SMILES IDX 13 1 14 2 15 3 16 4 17 5 18 6 19 7 20 8 21 9 22 10 23 11
REMARK SMILES IDX 24 12 25 13 26 14 12 15 11 16 10 17 9 18 8 19 7 20 6 21 5 22
REMARK SMILES IDX 4 23 3 24 2 25 1 26
REMARK H PARENT
REMARK Flexibility Score: inf
ROOT
ATOM      1  C   UNL     1     -94.625 147.118 241.234  1.00  0.00     0.000 C 
ENDROOT
BRANCH   1   2
ATOM      2  C   UNL     1     -94.525 148.574 240.752  1.00  0.00     0.000 C 
BRANCH   2   3
ATOM      3  C   UNL     1     -95.752 149.412 241.142  1.00  0.00     0.000 C 
BRANCH   3   4
ATOM      4  C   UNL     1     -97.067 148.631 241.003  1.00  0.00     0.000 C 
BRANCH   4   5
ATOM      5  C   UNL     1     -97.659 148.798 239.595  1.00  0.00     0.000 C 
BRANCH   5   6
ATOM      6  C   UNL     1     -97.579 147.511 238.754  1.00  0.00     0.000 C 
BRANCH   6   7
ATOM      7  C   UNL     1     -96.482 147.505 237.674  1.00  0.00     0.000 C 
BRANCH   7   8
ATOM      8  C   UNL     1     -95.883 148.896 237.419  1.00  0.00     0.000 C 
BRANCH   8   9
ATOM      9  C   UNL     1     -95.319 149.000 235.994  1.00  0.00     0.000 C 
BRANCH   9  10
ATOM     10  C   UNL     1     -96.156 149.910 235.078  1.00  0.00     0.006 C 
BRANCH  10  11
ATOM     11  C   UNL     1     -95.419 151.182 234.619  1.00  0.00     0.053 C 
BRANCH  11  12
ATOM     12  C   UNL     1     -96.328 152.369 234.518  1.00  0.00     0.041 C 
ATOM     13  O   UNL     1     -96.443 153.166 235.486  1.00  0.00    -0.550 OA
ATOM     14  O   UNL     1     -97.021 152.616 233.340  1.00  0.00    -0.550 OA
ENDBRANCH  11  12
ENDBRANCH  10  11
ENDBRANCH   9  10
ENDBRANCH   8   9
ENDBRANCH   7   8
ENDBRANCH   6   7
ENDBRANCH   5   6
ENDBRANCH   4   5
ENDBRANCH   3   4
ENDBRANCH   2   3
ENDBRANCH   1   2
BRANCH   1  15
ATOM     15  C   UNL     1     -93.934 146.125 240.283  1.00  0.00     0.000 C 
BRANCH  15  16
ATOM     16  C   UNL     1     -93.186 146.804 239.118  1.00  0.00     0.000 C 
BRANCH  16  17
ATOM     17  C   UNL     1     -91.938 146.017 238.688  1.00  0.00     0.000 C 
BRANCH  17  18
ATOM     18  C   UNL     1     -91.973 145.704 237.187  1.00  0.00    -0.000 C 
BRANCH  18  19
ATOM     19  C   UNL     1     -93.390 145.876 236.622  1.00  0.00    -0.000 C 
BRANCH  19  20
ATOM     20  C   UNL     1     -93.407 145.965 235.088  1.00  0.00    -0.000 C 
BRANCH  20  21
ATOM     21  C   UNL     1     -92.027 146.301 234.500  1.00  0.00    -0.000 C 
BRANCH  21  22
ATOM     22  C   UNL     1     -92.060 147.523 233.564  1.00  0.00    -0.000 C 
BRANCH  22  23
ATOM     23  C   UNL     1     -93.468 147.968 233.123  1.00  0.00    -0.000 C 
BRANCH  23  24
ATOM     24  C   UNL     1     -93.887 147.508 231.714  1.00  0.00    -0.000 C 
BRANCH  24  25
ATOM     25  C   UNL     1     -95.267 148.037 231.299  1.00  0.00    -0.003 C 
ATOM     26  C   UNL     1     -96.355 147.532 232.241  1.00  0.00     0.004 C 
ENDBRANCH  24  25
ENDBRANCH  23  24
ENDBRANCH  22  23
ENDBRANCH  21  22
ENDBRANCH  20  21
ENDBRANCH  19  20
ENDBRANCH  18  19
ENDBRANCH  17  18
ENDBRANCH  16  17
ENDBRANCH  15  16
ENDBRANCH   1  15
TORSDOF 22
ENDMDL
MODEL 3
REMARK VINA RESULT:    -3.478      1.163      2.662
REMARK INTER + INTRA:         -12.021
REMARK INTER:                  -8.461
REMARK INTRA:                  -3.561
REMARK UNBOUND:                -4.071
REMARK SMILES CCCCCCCCCCCCCCCCCCCCCCCC(=O)[O-]
REMARK SMILES IDX 13 1 14 2 15 3 16 4 17 5 18 6 19 7 20 8 21 9 22 10 23 11
REMARK SMILES IDX 24 12 25 13 26 14 12 15 11 16 10 17 9 18 8 19 7 20 6 21 5 22
REMARK SMILES IDX 4 23 3 24 2 25 1 26
REMARK H PARENT
REMARK Flexibility Score: inf
ROOT
ATOM      1  C   UNL     1     -92.091 146.023 238.819  1.00  0.00     0.000 C 
ENDROOT
BRANCH   1   2
ATOM      2  C   UNL     1     -91.912 145.715 237.323  1.00  0.00     0.000 C 
BRANCH   2   3
ATOM      3  C   UNL     1     -93.203 145.926 236.517  1.00  0.00     0.000 C 
BRANCH   3   4
ATOM      4  C   UNL     1     -92.941 146.541 235.135  1.00  0.00     0.000 C 
BRANCH   4   5
ATOM      5  C   UNL     1     -93.986 147.618 234.806  1.00  0.00     0.000 C 
BRANCH   5   6
ATOM      6  C   UNL     1     -94.968 147.875 235.963  1.00  0.00     0.000 C 
BRANCH   6   7
ATOM      7  C   UNL     1     -95.392 149.344 236.145  1.00  0.00     0.000 C 
BRANCH   7   8
ATOM      8  C   UNL     1     -96.617 149.724 235.301  1.00  0.00     0.000 C 
BRANCH   8   9
ATOM      9  C   UNL     1     -96.290 150.883 234.347  1.00  0.00     0.000 C 
BRANCH   9  10
ATOM     10  C   UNL     1     -96.087 152.224 235.073  1.00  0.00     0.006 C 
BRANCH  10  11
ATOM     11  C   UNL     1     -97.101 153.311 234.673  1.00  0.00     0.053 C 
BRANCH  11  12
ATOM     12  C   UNL     1     -98.161 153.521 235.713  1.00  0.00     0.041 C 
ATOM     13  O   UNL     1     -98.694 152.535 236.286  1.00  0.00    -0.550 OA
ATOM     14  O   UNL     1     -98.534 154.809 236.074  1.00  0.00    -0.550 OA
ENDBRANCH  11  12
ENDBRANCH  10  11
ENDBRANCH   9  10
ENDBRANCH   8   9
ENDBRANCH   7   8
ENDBRANCH   6   7
ENDBRANCH   5   6
ENDBRANCH   4   5
ENDBRANCH   3   4
ENDBRANCH   2   3
ENDBRANCH   1   2
BRANCH   1  15
ATOM     15  C   UNL     1     -93.480 146.597 239.149  1.00  0.00     0.000 C 
BRANCH  15  16
ATOM     16  C   UNL     1     -93.508 148.137 239.239  1.00  0.00     0.000 C 
BRANCH  16  17
ATOM     17  C   UNL     1     -94.782 148.659 239.920  1.00  0.00     0.000 C 
BRANCH  17  18
ATOM     18  C   UNL     1     -95.219 147.730 241.059  1.00  0.00    -0.000 C 
BRANCH  18  19
ATOM     19  C   UNL     1     -96.596 148.136 241.603  1.00  0.00    -0.000 C 
BRANCH  19  20
ATOM     20  C   UNL     1     -96.764 149.660 241.707  1.00  0.00    -0.000 C 
BRANCH  20  21
ATOM     21  C   UNL     1     -98.119 150.144 241.165  1.00  0.00    -0.000 C 
BRANCH  21  22
ATOM     22  C   UNL     1     -98.342 149.758 239.691  1.00  0.00    -0.000 C 
BRANCH  22  23
ATOM     23  C   UNL     1     -99.543 148.825 239.437  1.00  0.00    -0.000 C 
BRANCH  23  24
ATOM     24  C   UNL     1     -99.178 147.405 238.965  1.00  0.00    -0.000 C 
BRANCH  24  25
ATOM     25  C   UNL     1     -97.881 147.365 238.144  1.00  0.00    -0.003 C 
ATOM     26  C   UNL     1     -97.129 146.056 238.369  1.00  0.00     0.004 C 
ENDBRANCH  24  25
ENDBRANCH  23  24
ENDBRANCH  22  23
ENDBRANCH  21  22
ENDBRANCH  20  21
ENDBRANCH  19  20
ENDBRANCH  18  19
ENDBRANCH  17  18
ENDBRANCH  16  17
ENDBRANCH  15  16
ENDBRANCH   1  15
TORSDOF 22
ENDMDL
MODEL 4
REMARK VINA RESULT:    -3.472      1.892      2.986
REMARK INTER + INTRA:         -12.009
REMARK INTER:                  -7.739
REMARK INTRA:                  -4.270
REMARK UNBOUND:                -4.071
REMARK SMILES CCCCCCCCCCCCCCCCCCCCCCCC(=O)[O-]
REMARK SMILES IDX 13 1 14 2 15 3 16 4 17 5 18 6 19 7 20 8 21 9 22 10 23 11
REMARK SMILES IDX 24 12 25 13 26 14 12 15 11 16 10 17 9 18 8 19 7 20 6 21 5 22
REMARK SMILES IDX 4 23 3 24 2 25 1 26
REMARK H PARENT
REMARK Flexibility Score: inf
ROOT
ATOM      1  C   UNL     1     -94.633 148.478 240.609  1.00  0.00     0.000 C 
ENDROOT
BRANCH   1   2
ATOM      2  C   UNL     1     -93.864 148.235 239.300  1.00  0.00     0.000 C 
BRANCH   2   3
ATOM      3  C   UNL     1     -94.629 148.731 238.064  1.00  0.00     0.000 C 
BRANCH   3   4
ATOM      4  C   UNL     1     -94.715 147.669 236.958  1.00  0.00     0.000 C 
BRANCH   4   5
ATOM      5  C   UNL     1     -95.888 147.959 236.009  1.00  0.00     0.000 C 
BRANCH   5   6
ATOM      6  C   UNL     1     -96.396 149.409 236.107  1.00  0.00     0.000 C 
BRANCH   6   7
ATOM      7  C   UNL     1     -96.214 150.252 234.831  1.00  0.00     0.000 C 
BRANCH   7   8
ATOM      8  C   UNL     1     -95.704 151.672 235.118  1.00  0.00     0.000 C 
BRANCH   8   9
ATOM      9  C   UNL     1     -96.694 152.727 234.602  1.00  0.00     0.000 C 
BRANCH   9  10
ATOM     10  C   UNL     1     -97.220 153.654 235.711  1.00  0.00     0.006 C 
BRANCH  10  11
ATOM     11  C   UNL     1     -98.750 153.616 235.884  1.00  0.00     0.053 C 
BRANCH  11  12
ATOM     12  C   UNL     1     -99.200 152.506 236.785  1.00  0.00     0.041 C 
ATOM     13  O   UNL     1     -99.493 152.741 237.987  1.00  0.00    -0.550 OA
ATOM     14  O   UNL     1     -99.329 151.215 236.287  1.00  0.00    -0.550 OA
ENDBRANCH  11  12
ENDBRANCH  10  11
ENDBRANCH   9  10
ENDBRANCH   8   9
ENDBRANCH   7   8
ENDBRANCH   6   7
ENDBRANCH   5   6
ENDBRANCH   4   5
ENDBRANCH   3   4
ENDBRANCH   2   3
ENDBRANCH   1   2
BRANCH   1  15
ATOM     15  C   UNL     1     -94.898 147.182 241.396  1.00  0.00     0.000 C 
BRANCH  15  16
ATOM     16  C   UNL     1     -94.729 145.901 240.552  1.00  0.00     0.000 C 
BRANCH  16  17
ATOM     17  C   UNL     1     -96.077 145.310 240.113  1.00  0.00     0.000 C 
BRANCH  17  18
ATOM     18  C   UNL     1     -97.201 145.731 241.067  1.00  0.00    -0.000 C 
BRANCH  18  19
ATOM     19  C   UNL     1     -98.412 146.265 240.288  1.00  0.00    -0.000 C 
BRANCH  19  20
ATOM     20  C   UNL     1     -98.019 146.899 238.946  1.00  0.00    -0.000 C 
BRANCH  20  21
ATOM     21  C   UNL     1     -98.648 148.287 238.741  1.00  0.00    -0.000 C 
BRANCH  21  22
ATOM     22  C   UNL     1     -97.940 149.388 239.552  1.00  0.00    -0.000 C 
BRANCH  22  23
ATOM     23  C   UNL     1     -98.874 150.282 240.391  1.00  0.00    -0.000 C 
BRANCH  23  24
ATOM     24  C   UNL     1     -98.985 149.896 241.878  1.00  0.00    -0.000 C 
BRANCH  24  25
ATOM     25  C   UNL     1     -97.632 149.517 242.498  1.00  0.00    -0.003 C 
ATOM     26  C   UNL     1     -97.796 148.414 243.539  1.00  0.00     0.004 C 
ENDBRANCH  24  25
ENDBRANCH  23  24
ENDBRANCH  22  23
ENDBRANCH  21  22
ENDBRANCH  20  21
ENDBRANCH  19  20
ENDBRANCH  18  19
ENDBRANCH  17  18
ENDBRANCH  16  17
ENDBRANCH  15  16
ENDBRANCH   1  15
TORSDOF 22
ENDMDL
MODEL 5
REMARK VINA RESULT:    -3.470      1.732      3.380
REMARK INTER + INTRA:         -12.004
REMARK INTER:                  -8.451
REMARK INTRA:                  -3.552
REMARK UNBOUND:                -4.071
REMARK SMILES CCCCCCCCCCCCCCCCCCCCCCCC(=O)[O-]
REMARK SMILES IDX 13 1 14 2 15 3 16 4 17 5 18 6 19 7 20 8 21 9 22 10 23 11
REMARK SMILES IDX 24 12 25 13 26 14 12 15 11 16 10 17 9 18 8 19 7 20 6 21 5 22
REMARK SMILES IDX 4 23 3 24 2 25 1 26
REMARK H PARENT
REMARK Flexibility Score: inf
ROOT
ATOM      1  C   UNL     1     -93.468 146.822 238.394  1.00  0.00     0.000 C 
ENDROOT
BRANCH   1   2
ATOM      2  C   UNL     1     -93.880 148.241 238.817  1.00  0.00     0.000 C 
BRANCH   2   3
ATOM      3  C   UNL     1     -94.948 148.847 237.893  1.00  0.00     0.000 C 
BRANCH   3   4
ATOM      4  C   UNL     1     -96.057 147.846 237.538  1.00  0.00     0.000 C 
BRANCH   4   5
ATOM      5  C   UNL     1     -96.183 147.684 236.015  1.00  0.00     0.000 C 
BRANCH   5   6
ATOM      6  C   UNL     1     -95.085 148.433 235.239  1.00  0.00     0.000 C 
BRANCH   6   7
ATOM      7  C   UNL     1     -95.592 149.542 234.298  1.00  0.00     0.000 C 
BRANCH   7   8
ATOM      8  C   UNL     1     -95.350 150.954 234.851  1.00  0.00     0.000 C 
BRANCH   8   9
ATOM      9  C   UNL     1     -96.677 151.643 235.199  1.00  0.00     0.000 C 
BRANCH   9  10
ATOM     10  C   UNL     1     -96.548 153.171 235.332  1.00  0.00     0.006 C 
BRANCH  10  11
ATOM     11  C   UNL     1     -97.691 153.955 234.662  1.00  0.00     0.053 C 
BRANCH  11  12
ATOM     12  C   UNL     1     -98.084 155.176 235.440  1.00  0.00     0.041 C 
ATOM     13  O   UNL     1     -99.157 155.193 236.099  1.00  0.00    -0.550 OA
ATOM     14  O   UNL     1     -97.247 156.284 235.464  1.00  0.00    -0.550 OA
ENDBRANCH  11  12
ENDBRANCH  10  11
ENDBRANCH   9  10
ENDBRANCH   8   9
ENDBRANCH   7   8
ENDBRANCH   6   7
ENDBRANCH   5   6
ENDBRANCH   4   5
ENDBRANCH   3   4
ENDBRANCH   2   3
ENDBRANCH   1   2
BRANCH   1  15
ATOM     15  C   UNL     1     -92.860 146.007 239.549  1.00  0.00     0.000 C 
BRANCH  15  16
ATOM     16  C   UNL     1     -93.887 145.597 240.624  1.00  0.00     0.000 C 
BRANCH  16  17
ATOM     17  C   UNL     1     -95.227 145.157 240.014  1.00  0.00     0.000 C 
BRANCH  17  18
ATOM     18  C   UNL     1     -96.398 145.915 240.650  1.00  0.00    -0.000 C 
BRANCH  18  19
ATOM     19  C   UNL     1     -95.925 146.763 241.839  1.00  0.00    -0.000 C 
BRANCH  19  20
ATOM     20  C   UNL     1     -96.846 147.961 242.114  1.00  0.00    -0.000 C 
BRANCH  20  21
ATOM     21  C   UNL     1     -96.616 149.122 241.131  1.00  0.00    -0.000 C 
BRANCH  21  22
ATOM     22  C   UNL     1     -97.568 150.306 241.376  1.00  0.00    -0.000 C 
BRANCH  22  23
ATOM     23  C   UNL     1     -98.830 150.321 240.490  1.00  0.00    -0.000 C 
BRANCH  23  24
ATOM     24  C   UNL     1     -98.704 149.554 239.161  1.00  0.00    -0.000 C 
BRANCH  24  25
ATOM     25  C   UNL     1     -98.978 150.437 237.935  1.00  0.00    -0.003 C 
ATOM     26  C   UNL     1     -99.305 149.589 236.710  1.00  0.00     0.004 C 
ENDBRANCH  24  25
ENDBRANCH  23  24
ENDBRANCH  22  23
ENDBRANCH  21  22
ENDBRANCH  20  21
ENDBRANCH  19  20
ENDBRANCH  18  19
ENDBRANCH  17  18
ENDBRANCH  16  17
ENDBRANCH  15  16
ENDBRANCH   1  15
TORSDOF 22
ENDMDL
MODEL 6
REMARK VINA RESULT:    -3.438      3.297      6.859
REMARK INTER + INTRA:         -11.930
REMARK INTER:                  -8.713
REMARK INTRA:                  -3.217
REMARK UNBOUND:                -4.071
REMARK SMILES CCCCCCCCCCCCCCCCCCCCCCCC(=O)[O-]
REMARK SMILES IDX 13 1 14 2 15 3 16 4 17 5 18 6 19 7 20 8 21 9 22 10 23 11
REMARK SMILES IDX 24 12 25 13 26 14 12 15 11 16 10 17 9 18 8 19 7 20 6 21 5 22
REMARK SMILES IDX 4 23 3 24 2 25 1 26
REMARK H PARENT
REMARK Flexibility Score: inf
ROOT
ATOM      1  C   UNL     1     -93.027 146.685 239.275  1.00  0.00     0.000 C 
ENDROOT
BRANCH   1   2
ATOM      2  C   UNL     1     -93.627 145.679 240.272  1.00  0.00     0.000 C 
BRANCH   2   3
ATOM      3  C   UNL     1     -94.922 146.190 240.922  1.00  0.00     0.000 C 
BRANCH   3   4
ATOM      4  C   UNL     1     -94.917 147.712 241.127  1.00  0.00     0.000 C 
BRANCH   4   5
ATOM      5  C   UNL     1     -96.331 148.228 241.435  1.00  0.00     0.000 C 
BRANCH   5   6
ATOM      6  C   UNL     1     -96.431 149.764 241.399  1.00  0.00     0.000 C 
BRANCH   6   7
ATOM      7  C   UNL     1     -97.847 150.320 241.160  1.00  0.00     0.000 C 
BRANCH   7   8
ATOM      8  C   UNL     1     -98.953 149.322 241.531  1.00  0.00     0.000 C 
BRANCH   8   9
ATOM      9  C   UNL     1     -99.815 149.858 242.684  1.00  0.00     0.000 C 
BRANCH   9  10
ATOM     10  C   UNL     1     -99.427 149.269 244.051  1.00  0.00     0.006 C 
BRANCH  10  11
ATOM     11  C   UNL     1     -98.295 150.033 244.763  1.00  0.00     0.053 C 
BRANCH  11  12
ATOM     12  C   UNL     1     -98.808 150.992 245.795  1.00  0.00     0.041 C 
ATOM     13  O   UNL     1    -100.046 151.156 245.951  1.00  0.00    -0.550 OA
ATOM     14  O   UNL     1     -97.916 151.680 246.608  1.00  0.00    -0.550 OA
ENDBRANCH  11  12
ENDBRANCH  10  11
ENDBRANCH   9  10
ENDBRANCH   8   9
ENDBRANCH   7   8
ENDBRANCH   6   7
ENDBRANCH   5   6
ENDBRANCH   4   5
ENDBRANCH   3   4
ENDBRANCH   2   3
ENDBRANCH   1   2
BRANCH   1  15
ATOM     15  C   UNL     1     -92.337 146.003 238.081  1.00  0.00     0.000 C 
BRANCH  15  16
ATOM     16  C   UNL     1     -93.154 146.070 236.774  1.00  0.00     0.000 C 
BRANCH  16  17
ATOM     17  C   UNL     1     -92.368 145.536 235.567  1.00  0.00     0.000 C 
BRANCH  17  18
ATOM     18  C   UNL     1     -93.040 145.940 234.249  1.00  0.00    -0.000 C 
BRANCH  18  19
ATOM     19  C   UNL     1     -92.620 147.356 233.829  1.00  0.00    -0.000 C 
BRANCH  19  20
ATOM     20  C   UNL     1     -93.805 148.333 233.782  1.00  0.00    -0.000 C 
BRANCH  20  21
ATOM     21  C   UNL     1     -95.133 147.673 234.190  1.00  0.00    -0.000 C 
BRANCH  21  22
ATOM     22  C   UNL     1     -96.026 148.603 235.030  1.00  0.00    -0.000 C 
BRANCH  22  23
ATOM     23  C   UNL     1     -95.289 149.402 236.124  1.00  0.00    -0.000 C 
BRANCH  23  24
ATOM     24  C   UNL     1     -95.415 148.828 237.548  1.00  0.00    -0.000 C 
BRANCH  24  25
ATOM     25  C   UNL     1     -96.417 147.668 237.636  1.00  0.00    -0.003 C 
ATOM     26  C   UNL     1     -97.782 148.156 238.112  1.00  0.00     0.004 C 
ENDBRANCH  24  25
ENDBRANCH  23  24
ENDBRANCH  22  23
ENDBRANCH  21  22
ENDBRANCH  20  21
ENDBRANCH  19  20
ENDBRANCH  18  19
ENDBRANCH  17  18
ENDBRANCH  16  17
ENDBRANCH  15  16
ENDBRANCH   1  15
TORSDOF 22
ENDMDL
MODEL 7
REMARK VINA RESULT:    -3.420      2.595      6.553
REMARK INTER + INTRA:         -11.888
REMARK INTER:                  -8.104
REMARK INTRA:                  -3.784
REMARK UNBOUND:                -4.071
REMARK SMILES CCCCCCCCCCCCCCCCCCCCCCCC(=O)[O-]
REMARK SMILES IDX 13 1 14 2 15 3 16 4 17 5 18 6 19 7 20 8 21 9 22 10 23 11
REMARK SMILES IDX 24 12 25 13 26 14 12 15 11 16 10 17 9 18 8 19 7 20 6 21 5 22
REMARK SMILES IDX 4 23 3 24 2 25 1 26
REMARK H PARENT
REMARK Flexibility Score: inf
ROOT
ATOM      1  C   UNL     1     -98.846 148.944 240.539  1.00  0.00     0.000 C 
ENDROOT
BRANCH   1   2
ATOM      2  C   UNL     1     -97.994 150.158 240.942  1.00  0.00     0.000 C 
BRANCH   2   3
ATOM      3  C   UNL     1     -96.624 149.757 241.509  1.00  0.00     0.000 C 
BRANCH   3   4
ATOM      4  C   UNL     1     -96.521 148.251 241.792  1.00  0.00     0.000 C 
BRANCH   4   5
ATOM      5  C   UNL     1     -95.347 147.627 241.023  1.00  0.00     0.000 C 
BRANCH   5   6
ATOM      6  C   UNL     1     -94.658 148.619 240.069  1.00  0.00     0.000 C 
BRANCH   6   7
ATOM      7  C   UNL     1     -93.506 148.030 239.234  1.00  0.00     0.000 C 
BRANCH   7   8
ATOM      8  C   UNL     1     -93.846 146.661 238.626  1.00  0.00     0.000 C 
BRANCH   8   9
ATOM      9  C   UNL     1     -92.778 146.232 237.608  1.00  0.00     0.000 C 
BRANCH   9  10
ATOM     10  C   UNL     1     -93.372 145.790 236.260  1.00  0.00     0.006 C 
BRANCH  10  11
ATOM     11  C   UNL     1     -93.547 146.937 235.248  1.00  0.00     0.053 C 
BRANCH  11  12
ATOM     12  C   UNL     1     -92.515 146.908 234.161  1.00  0.00     0.041 C 
ATOM     13  O   UNL     1     -92.295 147.934 233.464  1.00  0.00    -0.550 OA
ATOM     14  O   UNL     1     -91.770 145.756 233.939  1.00  0.00    -0.550 OA
ENDBRANCH  11  12
ENDBRANCH  10  11
ENDBRANCH   9  10
ENDBRANCH   8   9
ENDBRANCH   7   8
ENDBRANCH   6   7
ENDBRANCH   5   6
ENDBRANCH   4   5
ENDBRANCH   3   4
ENDBRANCH   2   3
ENDBRANCH   1   2
BRANCH   1  15
ATOM     15  C   UNL     1     -98.909 148.737 239.015  1.00  0.00     0.000 C 
BRANCH  15  16
ATOM     16  C   UNL     1     -98.200 147.452 238.537  1.00  0.00     0.000 C 
BRANCH  16  17
ATOM     17  C   UNL     1     -97.163 147.734 237.439  1.00  0.00     0.000 C 
BRANCH  17  18
ATOM     18  C   UNL     1     -96.944 149.241 237.259  1.00  0.00    -0.000 C 
BRANCH  18  19
ATOM     19  C   UNL     1     -95.761 149.517 236.321  1.00  0.00    -0.000 C 
BRANCH  19  20
ATOM     20  C   UNL     1     -96.175 149.550 234.842  1.00  0.00    -0.000 C 
BRANCH  20  21
ATOM     21  C   UNL     1     -95.855 150.894 234.168  1.00  0.00    -0.000 C 
BRANCH  21  22
ATOM     22  C   UNL     1     -95.866 152.074 235.157  1.00  0.00    -0.000 C 
BRANCH  22  23
ATOM     23  C   UNL     1     -97.131 152.953 235.109  1.00  0.00    -0.000 C 
BRANCH  23  24
ATOM     24  C   UNL     1     -98.422 152.266 235.592  1.00  0.00    -0.000 C 
BRANCH  24  25
ATOM     25  C   UNL     1     -99.162 153.076 236.666  1.00  0.00    -0.003 C 
ATOM     26  C   UNL     1     -99.455 152.219 237.894  1.00  0.00     0.004 C 
ENDBRANCH  24  25
ENDBRANCH  23  24
ENDBRANCH  22  23
ENDBRANCH  21  22
ENDBRANCH  20  21
ENDBRANCH  19  20
ENDBRANCH  18  19
ENDBRANCH  17  18
ENDBRANCH  16  17
ENDBRANCH  15  16
ENDBRANCH   1  15
TORSDOF 22
ENDMDL
MODEL 8
REMARK VINA RESULT:    -3.403      1.505      3.039
REMARK INTER + INTRA:         -11.850
REMARK INTER:                  -8.245
REMARK INTRA:                  -3.605
REMARK UNBOUND:                -4.071
REMARK SMILES CCCCCCCCCCCCCCCCCCCCCCCC(=O)[O-]
REMARK SMILES IDX 13 1 14 2 15 3 16 4 17 5 18 6 19 7 20 8 21 9 22 10 23 11
REMARK SMILES IDX 24 12 25 13 26 14 12 15 11 16 10 17 9 18 8 19 7 20 6 21 5 22
REMARK SMILES IDX 4 23 3 24 2 25 1 26
REMARK H PARENT
REMARK Flexibility Score: inf
ROOT
ATOM      1  C   UNL     1     -94.391 147.159 237.346  1.00  0.00     0.000 C 
ENDROOT
BRANCH   1   2
ATOM      2  C   UNL     1     -93.152 146.336 237.734  1.00  0.00     0.000 C 
BRANCH   2   3
ATOM      3  C   UNL     1     -92.263 146.000 236.527  1.00  0.00     0.000 C 
BRANCH   3   4
ATOM      4  C   UNL     1     -92.925 144.998 235.569  1.00  0.00     0.000 C 
BRANCH   4   5
ATOM      5  C   UNL     1     -92.807 145.473 234.112  1.00  0.00     0.000 C 
BRANCH   5   6
ATOM      6  C   UNL     1     -92.446 146.965 233.994  1.00  0.00     0.000 C 
BRANCH   6   7
ATOM      7  C   UNL     1     -93.501 147.838 233.289  1.00  0.00     0.000 C 
BRANCH   7   8
ATOM      8  C   UNL     1     -94.942 147.449 233.655  1.00  0.00     0.000 C 
BRANCH   8   9
ATOM      9  C   UNL     1     -95.698 148.644 234.255  1.00  0.00     0.000 C 
BRANCH   9  10
ATOM     10  C   UNL     1     -94.777 149.822 234.615  1.00  0.00     0.006 C 
BRANCH  10  11
ATOM     11  C   UNL     1     -95.478 150.947 235.398  1.00  0.00     0.053 C 
BRANCH  11  12
ATOM     12  C   UNL     1     -96.040 152.009 234.502  1.00  0.00     0.041 C 
ATOM     13  O   UNL     1     -96.744 152.938 234.979  1.00  0.00    -0.550 OA
ATOM     14  O   UNL     1     -95.757 151.992 233.142  1.00  0.00    -0.550 OA
ENDBRANCH  11  12
ENDBRANCH  10  11
ENDBRANCH   9  10
ENDBRANCH   8   9
ENDBRANCH   7   8
ENDBRANCH   6   7
ENDBRANCH   5   6
ENDBRANCH   4   5
ENDBRANCH   3   4
ENDBRANCH   2   3
ENDBRANCH   1   2
BRANCH   1  15
ATOM     15  C   UNL     1     -94.565 148.421 238.209  1.00  0.00     0.000 C 
BRANCH  15  16
ATOM     16  C   UNL     1     -93.958 148.292 239.621  1.00  0.00     0.000 C 
BRANCH  16  17
ATOM     17  C   UNL     1     -94.989 148.568 240.726  1.00  0.00     0.000 C 
BRANCH  17  18
ATOM     18  C   UNL     1     -95.442 147.266 241.397  1.00  0.00    -0.000 C 
BRANCH  18  19
ATOM     19  C   UNL     1     -96.913 147.352 241.829  1.00  0.00    -0.000 C 
BRANCH  19  20
ATOM     20  C   UNL     1     -97.232 148.651 242.584  1.00  0.00    -0.000 C 
BRANCH  20  21
ATOM     21  C   UNL     1     -98.502 149.343 242.061  1.00  0.00    -0.000 C 
BRANCH  21  22
ATOM     22  C   UNL     1     -98.213 150.330 240.916  1.00  0.00    -0.000 C 
BRANCH  22  23
ATOM     23  C   UNL     1     -98.887 149.986 239.573  1.00  0.00    -0.000 C 
BRANCH  23  24
ATOM     24  C   UNL     1     -98.158 148.923 238.729  1.00  0.00    -0.000 C 
BRANCH  24  25
ATOM     25  C   UNL     1     -98.193 149.229 237.225  1.00  0.00    -0.003 C 
ATOM     26  C   UNL     1     -98.815 150.597 236.958  1.00  0.00     0.004 C 
ENDBRANCH  24  25
ENDBRANCH  23  24
ENDBRANCH  22  23
ENDBRANCH  21  22
ENDBRANCH  20  21
ENDBRANCH  19  20
ENDBRANCH  18  19
ENDBRANCH  17  18
ENDBRANCH  16  17
ENDBRANCH  15  16
ENDBRANCH   1  15
TORSDOF 22
ENDMDL
MODEL 9
REMARK VINA RESULT:    -3.394      1.715      3.920
REMARK INTER + INTRA:         -11.830
REMARK INTER:                  -7.587
REMARK INTRA:                  -4.243
REMARK UNBOUND:                -4.071
REMARK SMILES CCCCCCCCCCCCCCCCCCCCCCCC(=O)[O-]
REMARK SMILES IDX 13 1 14 2 15 3 16 4 17 5 18 6 19 7 20 8 21 9 22 10 23 11
REMARK SMILES IDX 24 12 25 13 26 14 12 15 11 16 10 17 9 18 8 19 7 20 6 21 5 22
REMARK SMILES IDX 4 23 3 24 2 25 1 26
REMARK H PARENT
REMARK Flexibility Score: inf
ROOT
ATOM      1  C   UNL     1     -98.538 149.402 236.442  1.00  0.00     0.000 C 
ENDROOT
BRANCH   1   2
ATOM      2  C   UNL     1     -98.347 148.331 235.355  1.00  0.00     0.000 C 
BRANCH   2   3
ATOM      3  C   UNL     1     -97.691 148.890 234.083  1.00  0.00     0.000 C 
BRANCH   3   4
ATOM      4  C   UNL     1     -96.168 148.696 234.072  1.00  0.00     0.000 C 
BRANCH   4   5
ATOM      5  C   UNL     1     -95.446 150.032 233.842  1.00  0.00     0.000 C 
BRANCH   5   6
ATOM      6  C   UNL     1     -95.347 150.889 235.117  1.00  0.00     0.000 C 
BRANCH   6   7
ATOM      7  C   UNL     1     -96.138 152.209 235.079  1.00  0.00     0.000 C 
BRANCH   7   8
ATOM      8  C   UNL     1     -96.712 152.525 233.690  1.00  0.00     0.000 C 
BRANCH   8   9
ATOM      9  C   UNL     1     -98.069 153.236 233.804  1.00  0.00     0.000 C 
BRANCH   9  10
ATOM     10  C   UNL     1     -99.222 152.282 234.160  1.00  0.00     0.006 C 
BRANCH  10  11
ATOM     11  C   UNL     1    -100.262 152.889 235.120  1.00  0.00     0.053 C 
BRANCH  11  12
ATOM     12  C   UNL     1     -99.633 153.538 236.316  1.00  0.00     0.041 C 
ATOM     13  O   UNL     1     -99.040 152.840 237.180  1.00  0.00    -0.550 OA
ATOM     14  O   UNL     1     -99.671 154.919 236.457  1.00  0.00    -0.550 OA
ENDBRANCH  11  12
ENDBRANCH  10  11
ENDBRANCH   9  10
ENDBRANCH   8   9
ENDBRANCH   7   8
ENDBRANCH   6   7
ENDBRANCH   5   6
ENDBRANCH   4   5
ENDBRANCH   3   4
ENDBRANCH   2   3
ENDBRANCH   1   2
BRANCH   1  15
ATOM     15  C   UNL     1     -97.484 149.315 237.559  1.00  0.00     0.000 C 
BRANCH  15  16
ATOM     16  C   UNL     1     -97.037 147.873 237.876  1.00  0.00     0.000 C 
BRANCH  16  17
ATOM     17  C   UNL     1     -95.580 147.611 237.466  1.00  0.00     0.000 C 
BRANCH  17  18
ATOM     18  C   UNL     1     -94.660 148.739 237.948  1.00  0.00    -0.000 C 
BRANCH  18  19
ATOM     19  C   UNL     1     -93.822 148.289 239.154  1.00  0.00    -0.000 C 
BRANCH  19  20
ATOM     20  C   UNL     1     -93.488 146.790 239.115  1.00  0.00    -0.000 C 
BRANCH  20  21
ATOM     21  C   UNL     1     -93.917 146.055 240.396  1.00  0.00    -0.000 C 
BRANCH  21  22
ATOM     22  C   UNL     1     -94.634 146.977 241.399  1.00  0.00    -0.000 C 
BRANCH  22  23
ATOM     23  C   UNL     1     -96.173 146.894 241.374  1.00  0.00    -0.000 C 
BRANCH  23  24
ATOM     24  C   UNL     1     -96.901 148.063 242.064  1.00  0.00    -0.000 C 
BRANCH  24  25
ATOM     25  C   UNL     1     -96.528 149.430 241.472  1.00  0.00    -0.003 C 
ATOM     26  C   UNL     1     -97.775 150.254 241.165  1.00  0.00     0.004 C 
ENDBRANCH  24  25
ENDBRANCH  23  24
ENDBRANCH  22  23
ENDBRANCH  21  22
ENDBRANCH  20  21
ENDBRANCH  19  20
ENDBRANCH  18  19
ENDBRANCH  17  18
ENDBRANCH  16  17
ENDBRANCH  15  16
ENDBRANCH   1  15
TORSDOF 22
ENDMDL
