MODEL 1
REMARK VINA RESULT:    -4.941      0.000      0.000
REMARK INTER + INTRA:          -6.183
REMARK INTER:                  -5.952
REMARK INTRA:                  -0.230
REMARK UNBOUND:                -0.230
REMARK SMILES O=c1c(O)c(-c2ccc(O)c(O)c2)oc2cc(O)cc(O)c12
REMARK SMILES IDX 5 1 3 2 2 3 1 4 22 5 20 6 19 7 17 8 16 9 15 10 14 11 6 12
REMARK SMILES IDX 7 13 8 14 9 15 13 16 11 17 10 18 12 20 4 22 21 24 18 26
REMARK H PARENT 10 19 12 21 4 23 21 25 18 27
REMARK Flexibility Score: inf
ROOT
ATOM      1  C   UNL     1       1.072   5.368  -7.592  1.00  0.00     0.180 A 
ATOM      2  C   UNL     1       2.069   4.572  -8.182  1.00  0.00     0.208 A 
ATOM      3  C   UNL     1       3.282   4.386  -7.503  1.00  0.00     0.238 A 
ATOM      4  O   UNL     1       4.192   3.717  -8.061  1.00  0.00    -0.285 OA
ATOM      5  C   UNL     1       3.479   4.984  -6.235  1.00  0.00     0.111 A 
ATOM      6  C   UNL     1       4.655   4.829  -5.439  1.00  0.00     0.134 A 
ATOM      7  C   UNL     1       4.794   5.572  -4.261  1.00  0.00     0.093 A 
ATOM      8  C   UNL     1       3.774   6.412  -3.815  1.00  0.00     0.123 A 
ATOM      9  C   UNL     1       2.596   6.525  -4.554  1.00  0.00     0.094 A 
ATOM     10  C   UNL     1       2.443   5.825  -5.753  1.00  0.00     0.146 A 
ATOM     11  O   UNL     1       1.311   5.969  -6.432  1.00  0.00    -0.452 OA
ENDROOT
BRANCH   1  12
ATOM     12  C   UNL     1      -0.243   5.590  -8.235  1.00  0.00     0.025 A 
ATOM     13  C   UNL     1      -0.572   6.825  -8.821  1.00  0.00     0.016 A 
ATOM     14  C   UNL     1      -1.810   7.005  -9.444  1.00  0.00     0.051 A 
ATOM     15  C   UNL     1      -2.731   5.951  -9.502  1.00  0.00     0.157 A 
ATOM     16  C   UNL     1      -1.162   4.531  -8.316  1.00  0.00     0.062 A 
ATOM     17  C   UNL     1      -2.405   4.711  -8.940  1.00  0.00     0.158 A 
BRANCH  15  18
ATOM     18  O   UNL     1      -3.967   6.127 -10.121  1.00  0.00    -0.504 OA
ATOM     19  H   UNL     1      -4.369   7.048 -10.250  1.00  0.00     0.293 HD
ENDBRANCH  15  18
BRANCH  17  20
ATOM     20  O   UNL     1      -3.320   3.661  -9.006  1.00  0.00    -0.504 OA
ATOM     21  H   UNL     1      -3.073   2.767  -9.415  1.00  0.00     0.293 HD
ENDBRANCH  17  20
ENDBRANCH   1  12
BRANCH   2  22
ATOM     22  O   UNL     1       1.862   4.009  -9.445  1.00  0.00    -0.502 OA
ATOM     23  H   UNL     1       2.559   4.048 -10.178  1.00  0.00     0.293 HD
ENDBRANCH   2  22
BRANCH   6  24
ATOM     24  O   UNL     1       5.694   3.946  -5.746  1.00  0.00    -0.507 OA
ATOM     25  H   UNL     1       6.234   3.967  -6.598  1.00  0.00     0.293 HD
ENDBRANCH   6  24
BRANCH   8  26
ATOM     26  O   UNL     1       3.939   7.125  -2.629  1.00  0.00    -0.508 OA
ATOM     27  H   UNL     1       4.297   8.073  -2.626  1.00  0.00     0.293 HD
ENDBRANCH   8  26
TORSDOF 6
ENDMDL
MODEL 2
REMARK VINA RESULT:    -4.741     20.976     22.811
REMARK INTER + INTRA:          -5.941
REMARK INTER:                  -5.657
REMARK INTRA:                  -0.285
REMARK UNBOUND:                -0.230
REMARK SMILES O=c1c(O)c(-c2ccc(O)c(O)c2)oc2cc(O)cc(O)c12
REMARK SMILES IDX 5 1 3 2 2 3 1 4 22 5 20 6 19 7 17 8 16 9 15 10 14 11 6 12
REMARK SMILES IDX 7 13 8 14 9 15 13 16 11 17 10 18 12 20 4 22 21 24 18 26
REMARK H PARENT 10 19 12 21 4 23 21 25 18 27
REMARK Flexibility Score: inf
ROOT
ATOM      1  C   UNL     1      -0.831 -12.111   6.073  1.00  0.00     0.180 A 
ATOM      2  C   UNL     1      -2.185 -12.207   6.439  1.00  0.00     0.208 A 
ATOM      3  C   UNL     1      -3.153 -12.346   5.433  1.00  0.00     0.238 A 
ATOM      4  O   UNL     1      -4.368 -12.375   5.763  1.00  0.00    -0.285 OA
ATOM      5  C   UNL     1      -2.757 -12.404   4.075  1.00  0.00     0.111 A 
ATOM      6  C   UNL     1      -3.650 -12.584   2.976  1.00  0.00     0.134 A 
ATOM      7  C   UNL     1      -3.162 -12.495   1.667  1.00  0.00     0.093 A 
ATOM      8  C   UNL     1      -1.804 -12.300   1.417  1.00  0.00     0.123 A 
ATOM      9  C   UNL     1      -0.912 -12.183   2.484  1.00  0.00     0.094 A 
ATOM     10  C   UNL     1      -1.375 -12.230   3.801  1.00  0.00     0.146 A 
ATOM     11  O   UNL     1      -0.496 -12.103   4.788  1.00  0.00    -0.452 OA
ENDROOT
BRANCH   1  12
ATOM     12  C   UNL     1       0.250 -11.988   7.077  1.00  0.00     0.025 A 
ATOM     13  C   UNL     1       0.676 -13.094   7.833  1.00  0.00     0.016 A 
ATOM     14  C   UNL     1       1.715 -12.960   8.758  1.00  0.00     0.051 A 
ATOM     15  C   UNL     1       2.352 -11.725   8.931  1.00  0.00     0.157 A 
ATOM     16  C   UNL     1       0.907 -10.757   7.240  1.00  0.00     0.062 A 
ATOM     17  C   UNL     1       1.949 -10.622   8.169  1.00  0.00     0.158 A 
BRANCH  15  18
ATOM     18  O   UNL     1       3.387 -11.587   9.854  1.00  0.00    -0.504 OA
ATOM     19  H   UNL     1       4.206 -11.025   9.652  1.00  0.00     0.293 HD
ENDBRANCH  15  18
BRANCH  17  20
ATOM     20  O   UNL     1       2.588  -9.395   8.338  1.00  0.00    -0.504 OA
ATOM     21  H   UNL     1       2.106  -8.518   8.176  1.00  0.00     0.293 HD
ENDBRANCH  17  20
ENDBRANCH   1  12
BRANCH   2  22
ATOM     22  O   UNL     1      -2.556 -12.124   7.783  1.00  0.00    -0.502 OA
ATOM     23  H   UNL     1      -3.337 -12.644   8.165  1.00  0.00     0.293 HD
ENDBRANCH   2  22
BRANCH   6  24
ATOM     24  O   UNL     1      -5.010 -12.877   3.116  1.00  0.00    -0.507 OA
ATOM     25  H   UNL     1      -5.572 -12.631   3.917  1.00  0.00     0.293 HD
ENDBRANCH   6  24
BRANCH   8  26
ATOM     26  O   UNL     1      -1.350 -12.233   0.101  1.00  0.00    -0.508 OA
ATOM     27  H   UNL     1      -0.537 -12.755  -0.206  1.00  0.00     0.293 HD
ENDBRANCH   8  26
TORSDOF 6
ENDMDL
MODEL 3
REMARK VINA RESULT:    -4.613      1.413      3.189
REMARK INTER + INTRA:          -5.787
REMARK INTER:                  -5.493
REMARK INTRA:                  -0.294
REMARK UNBOUND:                -0.230
REMARK SMILES O=c1c(O)c(-c2ccc(O)c(O)c2)oc2cc(O)cc(O)c12
REMARK SMILES IDX 5 1 3 2 2 3 1 4 22 5 20 6 19 7 17 8 16 9 15 10 14 11 6 12
REMARK SMILES IDX 7 13 8 14 9 15 13 16 11 17 10 18 12 20 4 22 21 24 18 26
REMARK H PARENT 10 19 12 21 4 23 21 25 18 27
REMARK Flexibility Score: inf
ROOT
ATOM      1  C   UNL     1       1.444   5.229  -7.779  1.00  0.00     0.180 A 
ATOM      2  C   UNL     1       1.837   5.709  -6.518  1.00  0.00     0.208 A 
ATOM      3  C   UNL     1       3.122   5.401  -6.043  1.00  0.00     0.238 A 
ATOM      4  O   UNL     1       3.449   5.787  -4.890  1.00  0.00    -0.285 OA
ATOM      5  C   UNL     1       4.002   4.631  -6.840  1.00  0.00     0.111 A 
ATOM      6  C   UNL     1       5.341   4.294  -6.476  1.00  0.00     0.134 A 
ATOM      7  C   UNL     1       6.077   3.418  -7.283  1.00  0.00     0.093 A 
ATOM      8  C   UNL     1       5.548   2.921  -8.473  1.00  0.00     0.123 A 
ATOM      9  C   UNL     1       4.263   3.292  -8.870  1.00  0.00     0.094 A 
ATOM     10  C   UNL     1       3.491   4.134  -8.067  1.00  0.00     0.146 A 
ATOM     11  O   UNL     1       2.268   4.455  -8.475  1.00  0.00    -0.452 OA
ENDROOT
BRANCH   1  12
ATOM     12  C   UNL     1       0.115   5.533  -8.358  1.00  0.00     0.025 A 
ATOM     13  C   UNL     1      -0.163   6.785  -8.934  1.00  0.00     0.016 A 
ATOM     14  C   UNL     1      -1.417   7.041  -9.497  1.00  0.00     0.051 A 
ATOM     15  C   UNL     1      -2.403   6.047  -9.505  1.00  0.00     0.157 A 
ATOM     16  C   UNL     1      -0.871   4.533  -8.389  1.00  0.00     0.062 A 
ATOM     17  C   UNL     1      -2.130   4.790  -8.953  1.00  0.00     0.158 A 
BRANCH  15  18
ATOM     18  O   UNL     1      -3.655   6.300 -10.064  1.00  0.00    -0.504 OA
ATOM     19  H   UNL     1      -3.760   6.539 -11.043  1.00  0.00     0.293 HD
ENDBRANCH  15  18
BRANCH  17  20
ATOM     20  O   UNL     1      -3.111   3.801  -8.968  1.00  0.00    -0.504 OA
ATOM     21  H   UNL     1      -3.233   3.187  -9.766  1.00  0.00     0.293 HD
ENDBRANCH  17  20
ENDBRANCH   1  12
BRANCH   2  22
ATOM     22  O   UNL     1       0.944   6.448  -5.738  1.00  0.00    -0.502 OA
ATOM     23  H   UNL     1       0.296   6.013  -5.093  1.00  0.00     0.293 HD
ENDBRANCH   2  22
BRANCH   6  24
ATOM     24  O   UNL     1       5.998   4.809  -5.354  1.00  0.00    -0.507 OA
ATOM     25  H   UNL     1       5.769   5.683  -4.905  1.00  0.00     0.293 HD
ENDBRANCH   6  24
BRANCH   8  26
ATOM     26  O   UNL     1       6.314   2.063  -9.261  1.00  0.00    -0.508 OA
ATOM     27  H   UNL     1       6.361   1.069  -9.072  1.00  0.00     0.293 HD
ENDBRANCH   8  26
TORSDOF 6
ENDMDL
MODEL 4
REMARK VINA RESULT:    -4.527     17.171     19.288
REMARK INTER + INTRA:          -5.684
REMARK INTER:                  -5.845
REMARK INTRA:                   0.161
REMARK UNBOUND:                -0.230
REMARK SMILES O=c1c(O)c(-c2ccc(O)c(O)c2)oc2cc(O)cc(O)c12
REMARK SMILES IDX 5 1 3 2 2 3 1 4 22 5 20 6 19 7 17 8 16 9 15 10 14 11 6 12
REMARK SMILES IDX 7 13 8 14 9 15 13 16 11 17 10 18 12 20 4 22 21 24 18 26
REMARK H PARENT 10 19 12 21 4 23 21 25 18 27
REMARK Flexibility Score: inf
ROOT
ATOM      1  C   UNL     1      -2.838  -0.087   9.429  1.00  0.00     0.180 A 
ATOM      2  C   UNL     1      -4.124   0.344   9.065  1.00  0.00     0.208 A 
ATOM      3  C   UNL     1      -5.167  -0.593   9.012  1.00  0.00     0.238 A 
ATOM      4  O   UNL     1      -6.305  -0.210   8.632  1.00  0.00    -0.285 OA
ATOM      5  C   UNL     1      -4.916  -1.947   9.339  1.00  0.00     0.111 A 
ATOM      6  C   UNL     1      -5.908  -2.974   9.358  1.00  0.00     0.134 A 
ATOM      7  C   UNL     1      -5.521  -4.303   9.569  1.00  0.00     0.093 A 
ATOM      8  C   UNL     1      -4.191  -4.634   9.827  1.00  0.00     0.123 A 
ATOM      9  C   UNL     1      -3.223  -3.630   9.871  1.00  0.00     0.094 A 
ATOM     10  C   UNL     1      -3.572  -2.300   9.627  1.00  0.00     0.146 A 
ATOM     11  O   UNL     1      -2.619  -1.376   9.667  1.00  0.00    -0.452 OA
ENDROOT
BRANCH   1  12
ATOM     12  C   UNL     1      -1.692   0.845   9.532  1.00  0.00     0.025 A 
ATOM     13  C   UNL     1      -1.857   2.156  10.013  1.00  0.00     0.016 A 
ATOM     14  C   UNL     1      -0.757   3.012  10.125  1.00  0.00     0.051 A 
ATOM     15  C   UNL     1       0.522   2.567   9.770  1.00  0.00     0.157 A 
ATOM     16  C   UNL     1      -0.403   0.398   9.198  1.00  0.00     0.062 A 
ATOM     17  C   UNL     1       0.701   1.256   9.309  1.00  0.00     0.158 A 
BRANCH  15  18
ATOM     18  O   UNL     1       1.621   3.417   9.878  1.00  0.00    -0.504 OA
ATOM     19  H   UNL     1       1.877   4.050   9.129  1.00  0.00     0.293 HD
ENDBRANCH  15  18
BRANCH  17  20
ATOM     20  O   UNL     1       1.976   0.814   8.963  1.00  0.00    -0.504 OA
ATOM     21  H   UNL     1       2.377   1.009   8.053  1.00  0.00     0.293 HD
ENDBRANCH  17  20
ENDBRANCH   1  12
BRANCH   2  22
ATOM     22  O   UNL     1      -4.346   1.682   8.724  1.00  0.00    -0.502 OA
ATOM     23  H   UNL     1      -4.412   1.994   7.764  1.00  0.00     0.293 HD
ENDBRANCH   2  22
BRANCH   6  24
ATOM     24  O   UNL     1      -7.277  -2.740   9.203  1.00  0.00    -0.507 OA
ATOM     25  H   UNL     1      -7.743  -2.616   8.317  1.00  0.00     0.293 HD
ENDBRANCH   6  24
BRANCH   8  26
ATOM     26  O   UNL     1      -3.844  -5.965  10.048  1.00  0.00    -0.508 OA
ATOM     27  H   UNL     1      -3.515  -6.559   9.296  1.00  0.00     0.293 HD
ENDBRANCH   8  26
TORSDOF 6
ENDMDL
MODEL 5
REMARK VINA RESULT:    -4.317     18.927     21.175
REMARK INTER + INTRA:          -5.431
REMARK INTER:                  -5.207
REMARK INTRA:                  -0.224
REMARK UNBOUND:                -0.230
REMARK SMILES O=c1c(O)c(-c2ccc(O)c(O)c2)oc2cc(O)cc(O)c12
REMARK SMILES IDX 5 1 3 2 2 3 1 4 22 5 20 6 19 7 17 8 16 9 15 10 14 11 6 12
REMARK SMILES IDX 7 13 8 14 9 15 13 16 11 17 10 18 12 20 4 22 21 24 18 26
REMARK H PARENT 10 19 12 21 4 23 21 25 18 27
REMARK Flexibility Score: inf
ROOT
ATOM      1  C   UNL     1       5.007  -8.998   7.218  1.00  0.00     0.180 A 
ATOM      2  C   UNL     1       5.386  -9.104   8.567  1.00  0.00     0.208 A 
ATOM      3  C   UNL     1       6.464  -9.936   8.908  1.00  0.00     0.238 A 
ATOM      4  O   UNL     1       6.764 -10.069  10.124  1.00  0.00    -0.285 OA
ATOM      5  C   UNL     1       7.159 -10.640   7.895  1.00  0.00     0.111 A 
ATOM      6  C   UNL     1       8.291 -11.479   8.123  1.00  0.00     0.134 A 
ATOM      7  C   UNL     1       8.819 -12.228   7.064  1.00  0.00     0.093 A 
ATOM      8  C   UNL     1       8.299 -12.119   5.776  1.00  0.00     0.123 A 
ATOM      9  C   UNL     1       7.231 -11.255   5.529  1.00  0.00     0.094 A 
ATOM     10  C   UNL     1       6.659 -10.523   6.573  1.00  0.00     0.146 A 
ATOM     11  O   UNL     1       5.637  -9.721   6.299  1.00  0.00    -0.452 OA
ENDROOT
BRANCH   1  12
ATOM     12  C   UNL     1       3.898  -8.122   6.777  1.00  0.00     0.025 A 
ATOM     13  C   UNL     1       2.666  -8.655   6.357  1.00  0.00     0.016 A 
ATOM     14  C   UNL     1       1.625  -7.808   5.968  1.00  0.00     0.051 A 
ATOM     15  C   UNL     1       1.793  -6.418   6.006  1.00  0.00     0.157 A 
ATOM     16  C   UNL     1       4.053  -6.727   6.833  1.00  0.00     0.062 A 
ATOM     17  C   UNL     1       3.009  -5.876   6.442  1.00  0.00     0.158 A 
BRANCH  15  18
ATOM     18  O   UNL     1       0.758  -5.570   5.617  1.00  0.00    -0.504 OA
ATOM     19  H   UNL     1       0.881  -4.565   5.583  1.00  0.00     0.293 HD
ENDBRANCH  15  18
BRANCH  17  20
ATOM     20  O   UNL     1       3.171  -4.493   6.486  1.00  0.00    -0.504 OA
ATOM     21  H   UNL     1       2.616  -3.875   5.906  1.00  0.00     0.293 HD
ENDBRANCH  17  20
ENDBRANCH   1  12
BRANCH   2  22
ATOM     22  O   UNL     1       4.672  -8.418   9.553  1.00  0.00    -0.502 OA
ATOM     23  H   UNL     1       5.084  -8.154  10.439  1.00  0.00     0.293 HD
ENDBRANCH   2  22
BRANCH   6  24
ATOM     24  O   UNL     1       8.946 -11.590   9.353  1.00  0.00    -0.507 OA
ATOM     25  H   UNL     1       9.927 -11.794   9.466  1.00  0.00     0.293 HD
ENDBRANCH   6  24
BRANCH   8  26
ATOM     26  O   UNL     1       8.859 -12.867   4.742  1.00  0.00    -0.508 OA
ATOM     27  H   UNL     1       9.579 -12.485   4.140  1.00  0.00     0.293 HD
ENDBRANCH   8  26
TORSDOF 6
ENDMDL
MODEL 6
REMARK VINA RESULT:    -4.143     17.483     18.955
REMARK INTER + INTRA:          -5.221
REMARK INTER:                  -4.899
REMARK INTRA:                  -0.322
REMARK UNBOUND:                -0.230
REMARK SMILES O=c1c(O)c(-c2ccc(O)c(O)c2)oc2cc(O)cc(O)c12
REMARK SMILES IDX 5 1 3 2 2 3 1 4 22 5 20 6 19 7 17 8 16 9 15 10 14 11 6 12
REMARK SMILES IDX 7 13 8 14 9 15 13 16 11 17 10 18 12 20 4 22 21 24 18 26
REMARK H PARENT 10 19 12 21 4 23 21 25 18 27
REMARK Flexibility Score: inf
ROOT
ATOM      1  C   UNL     1      -6.268   0.931   8.912  1.00  0.00     0.180 A 
ATOM      2  C   UNL     1      -4.885   0.720   8.784  1.00  0.00     0.208 A 
ATOM      3  C   UNL     1      -4.384  -0.587   8.882  1.00  0.00     0.238 A 
ATOM      4  O   UNL     1      -3.138  -0.763   8.821  1.00  0.00    -0.285 OA
ATOM      5  C   UNL     1      -5.273  -1.669   9.091  1.00  0.00     0.111 A 
ATOM      6  C   UNL     1      -4.878  -3.039   9.165  1.00  0.00     0.134 A 
ATOM      7  C   UNL     1      -5.826  -4.013   9.505  1.00  0.00     0.093 A 
ATOM      8  C   UNL     1      -7.163  -3.675   9.708  1.00  0.00     0.123 A 
ATOM      9  C   UNL     1      -7.572  -2.347   9.578  1.00  0.00     0.094 A 
ATOM     10  C   UNL     1      -6.642  -1.349   9.277  1.00  0.00     0.146 A 
ATOM     11  O   UNL     1      -7.069  -0.096   9.173  1.00  0.00    -0.452 OA
ENDROOT
BRANCH   1  12
ATOM     12  C   UNL     1      -6.874   2.277   8.796  1.00  0.00     0.025 A 
ATOM     13  C   UNL     1      -7.008   3.119   9.914  1.00  0.00     0.016 A 
ATOM     14  C   UNL     1      -7.561   4.395   9.776  1.00  0.00     0.051 A 
ATOM     15  C   UNL     1      -7.976   4.853   8.519  1.00  0.00     0.157 A 
ATOM     16  C   UNL     1      -7.272   2.750   7.534  1.00  0.00     0.062 A 
ATOM     17  C   UNL     1      -7.828   4.030   7.395  1.00  0.00     0.158 A 
BRANCH  15  18
ATOM     18  O   UNL     1      -8.530   6.124   8.378  1.00  0.00    -0.504 OA
ATOM     19  H   UNL     1      -9.528   6.258   8.268  1.00  0.00     0.293 HD
ENDBRANCH  15  18
BRANCH  17  20
ATOM     20  O   UNL     1      -8.235   4.491   6.144  1.00  0.00    -0.504 OA
ATOM     21  H   UNL     1      -8.115   3.930   5.308  1.00  0.00     0.293 HD
ENDBRANCH  17  20
ENDBRANCH   1  12
BRANCH   2  22
ATOM     22  O   UNL     1      -4.023   1.805   8.601  1.00  0.00    -0.502 OA
ATOM     23  H   UNL     1      -4.227   2.559   7.957  1.00  0.00     0.293 HD
ENDBRANCH   2  22
BRANCH   6  24
ATOM     24  O   UNL     1      -3.586  -3.495   8.891  1.00  0.00    -0.507 OA
ATOM     25  H   UNL     1      -3.334  -4.068   8.099  1.00  0.00     0.293 HD
ENDBRANCH   6  24
BRANCH   8  26
ATOM     26  O   UNL     1      -8.083  -4.672  10.029  1.00  0.00    -0.508 OA
ATOM     27  H   UNL     1      -9.076  -4.478  10.090  1.00  0.00     0.293 HD
ENDBRANCH   8  26
TORSDOF 6
ENDMDL
MODEL 7
REMARK VINA RESULT:    -4.122     17.254     18.933
REMARK INTER + INTRA:          -5.196
REMARK INTER:                  -5.647
REMARK INTRA:                   0.452
REMARK UNBOUND:                -0.230
REMARK SMILES O=c1c(O)c(-c2ccc(O)c(O)c2)oc2cc(O)cc(O)c12
REMARK SMILES IDX 5 1 3 2 2 3 1 4 22 5 20 6 19 7 17 8 16 9 15 10 14 11 6 12
REMARK SMILES IDX 7 13 8 14 9 15 13 16 11 17 10 18 12 20 4 22 21 24 18 26
REMARK H PARENT 10 19 12 21 4 23 21 25 18 27
REMARK Flexibility Score: inf
ROOT
ATOM      1  C   UNL     1      -3.581  -1.040   9.563  1.00  0.00     0.180 A 
ATOM      2  C   UNL     1      -4.412   0.090   9.476  1.00  0.00     0.208 A 
ATOM      3  C   UNL     1      -3.826   1.365   9.436  1.00  0.00     0.238 A 
ATOM      4  O   UNL     1      -4.577   2.375   9.414  1.00  0.00    -0.285 OA
ATOM      5  C   UNL     1      -2.417   1.494   9.467  1.00  0.00     0.111 A 
ATOM      6  C   UNL     1      -1.714   2.735   9.391  1.00  0.00     0.134 A 
ATOM      7  C   UNL     1      -0.325   2.753   9.563  1.00  0.00     0.093 A 
ATOM      8  C   UNL     1       0.394   1.572   9.740  1.00  0.00     0.123 A 
ATOM      9  C   UNL     1      -0.275   0.348   9.756  1.00  0.00     0.094 A 
ATOM     10  C   UNL     1      -1.665   0.301   9.625  1.00  0.00     0.146 A 
ATOM     11  O   UNL     1      -2.265  -0.883   9.656  1.00  0.00    -0.452 OA
ENDROOT
BRANCH   1  12
ATOM     12  C   UNL     1      -4.124  -2.418   9.584  1.00  0.00     0.025 A 
ATOM     13  C   UNL     1      -5.493  -2.668   9.388  1.00  0.00     0.016 A 
ATOM     14  C   UNL     1      -5.979  -3.979   9.388  1.00  0.00     0.051 A 
ATOM     15  C   UNL     1      -5.103  -5.056   9.570  1.00  0.00     0.157 A 
ATOM     16  C   UNL     1      -3.247  -3.504   9.744  1.00  0.00     0.062 A 
ATOM     17  C   UNL     1      -3.735  -4.819   9.745  1.00  0.00     0.158 A 
BRANCH  15  18
ATOM     18  O   UNL     1      -5.585  -6.364   9.572  1.00  0.00    -0.504 OA
ATOM     19  H   UNL     1      -6.222  -6.696   8.857  1.00  0.00     0.293 HD
ENDBRANCH  15  18
BRANCH  17  20
ATOM     20  O   UNL     1      -2.864  -5.893   9.919  1.00  0.00    -0.504 OA
ATOM     21  H   UNL     1      -2.793  -6.634   9.230  1.00  0.00     0.293 HD
ENDBRANCH  17  20
ENDBRANCH   1  12
BRANCH   2  22
ATOM     22  O   UNL     1      -5.802  -0.059   9.469  1.00  0.00    -0.502 OA
ATOM     23  H   UNL     1      -6.292  -0.557   8.737  1.00  0.00     0.293 HD
ENDBRANCH   2  22
BRANCH   6  24
ATOM     24  O   UNL     1      -2.327   3.963   9.125  1.00  0.00    -0.507 OA
ATOM     25  H   UNL     1      -3.271   4.203   9.385  1.00  0.00     0.293 HD
ENDBRANCH   6  24
BRANCH   8  26
ATOM     26  O   UNL     1       1.779   1.626   9.892  1.00  0.00    -0.508 OA
ATOM     27  H   UNL     1       2.323   2.395   9.518  1.00  0.00     0.293 HD
ENDBRANCH   8  26
TORSDOF 6
ENDMDL
MODEL 8
REMARK VINA RESULT:    -4.090     15.532     16.744
REMARK INTER + INTRA:          -5.157
REMARK INTER:                  -5.119
REMARK INTRA:                  -0.038
REMARK UNBOUND:                -0.230
REMARK SMILES O=c1c(O)c(-c2ccc(O)c(O)c2)oc2cc(O)cc(O)c12
REMARK SMILES IDX 5 1 3 2 2 3 1 4 22 5 20 6 19 7 17 8 16 9 15 10 14 11 6 12
REMARK SMILES IDX 7 13 8 14 9 15 13 16 11 17 10 18 12 20 4 22 21 24 18 26
REMARK H PARENT 10 19 12 21 4 23 21 25 18 27
REMARK Flexibility Score: inf
ROOT
ATOM      1  C   UNL     1      -8.511   3.865   5.278  1.00  0.00     0.180 A 
ATOM      2  C   UNL     1      -7.470   4.164   6.172  1.00  0.00     0.208 A 
ATOM      3  C   UNL     1      -7.316   3.379   7.325  1.00  0.00     0.238 A 
ATOM      4  O   UNL     1      -6.415   3.686   8.150  1.00  0.00    -0.285 OA
ATOM      5  C   UNL     1      -8.194   2.294   7.562  1.00  0.00     0.111 A 
ATOM      6  C   UNL     1      -8.104   1.407   8.677  1.00  0.00     0.134 A 
ATOM      7  C   UNL     1      -9.105   0.449   8.879  1.00  0.00     0.093 A 
ATOM      8  C   UNL     1     -10.154   0.302   7.973  1.00  0.00     0.123 A 
ATOM      9  C   UNL     1     -10.219   1.124   6.846  1.00  0.00     0.094 A 
ATOM     10  C   UNL     1      -9.255   2.113   6.638  1.00  0.00     0.146 A 
ATOM     11  O   UNL     1      -9.359   2.882   5.560  1.00  0.00    -0.452 OA
ENDROOT
BRANCH   1  12
ATOM     12  C   UNL     1      -8.723   4.631   4.028  1.00  0.00     0.025 A 
ATOM     13  C   UNL     1      -8.866   6.030   4.043  1.00  0.00     0.016 A 
ATOM     14  C   UNL     1      -9.040   6.736   2.850  1.00  0.00     0.051 A 
ATOM     15  C   UNL     1      -9.060   6.057   1.625  1.00  0.00     0.157 A 
ATOM     16  C   UNL     1      -8.722   3.959   2.795  1.00  0.00     0.062 A 
ATOM     17  C   UNL     1      -8.898   4.666   1.597  1.00  0.00     0.158 A 
BRANCH  15  18
ATOM     18  O   UNL     1      -9.236   6.756   0.432  1.00  0.00    -0.504 OA
ATOM     19  H   UNL     1      -8.592   6.651  -0.343  1.00  0.00     0.293 HD
ENDBRANCH  15  18
BRANCH  17  20
ATOM     20  O   UNL     1      -8.911   3.994   0.376  1.00  0.00    -0.504 OA
ATOM     21  H   UNL     1      -8.474   3.085   0.267  1.00  0.00     0.293 HD
ENDBRANCH  17  20
ENDBRANCH   1  12
BRANCH   2  22
ATOM     22  O   UNL     1      -6.628   5.254   5.931  1.00  0.00    -0.502 OA
ATOM     23  H   UNL     1      -6.710   6.127   6.436  1.00  0.00     0.293 HD
ENDBRANCH   2  22
BRANCH   6  24
ATOM     24  O   UNL     1      -7.047   1.408   9.592  1.00  0.00    -0.507 OA
ATOM     25  H   UNL     1      -6.078   1.270   9.351  1.00  0.00     0.293 HD
ENDBRANCH   6  24
BRANCH   8  26
ATOM     26  O   UNL     1     -11.125  -0.673   8.196  1.00  0.00    -0.508 OA
ATOM     27  H   UNL     1     -11.141  -1.220   9.050  1.00  0.00     0.293 HD
ENDBRANCH   8  26
TORSDOF 6
ENDMDL
MODEL 9
REMARK VINA RESULT:    -4.038      1.951      3.782
REMARK INTER + INTRA:          -5.095
REMARK INTER:                  -5.347
REMARK INTRA:                   0.252
REMARK UNBOUND:                -0.230
REMARK SMILES O=c1c(O)c(-c2ccc(O)c(O)c2)oc2cc(O)cc(O)c12
REMARK SMILES IDX 5 1 3 2 2 3 1 4 22 5 20 6 19 7 17 8 16 9 15 10 14 11 6 12
REMARK SMILES IDX 7 13 8 14 9 15 13 16 11 17 10 18 12 20 4 22 21 24 18 26
REMARK H PARENT 10 19 12 21 4 23 21 25 18 27
REMARK Flexibility Score: inf
ROOT
ATOM      1  C   UNL     1       2.962   5.512  -6.570  1.00  0.00     0.180 A 
ATOM      2  C   UNL     1       2.862   6.056  -5.279  1.00  0.00     0.208 A 
ATOM      3  C   UNL     1       4.037   6.354  -4.572  1.00  0.00     0.238 A 
ATOM      4  O   UNL     1       3.941   6.791  -3.395  1.00  0.00    -0.285 OA
ATOM      5  C   UNL     1       5.298   6.118  -5.171  1.00  0.00     0.111 A 
ATOM      6  C   UNL     1       6.554   6.420  -4.562  1.00  0.00     0.134 A 
ATOM      7  C   UNL     1       7.740   6.024  -5.192  1.00  0.00     0.093 A 
ATOM      8  C   UNL     1       7.719   5.398  -6.437  1.00  0.00     0.123 A 
ATOM      9  C   UNL     1       6.499   5.152  -7.070  1.00  0.00     0.094 A 
ATOM     10  C   UNL     1       5.298   5.502  -6.449  1.00  0.00     0.146 A 
ATOM     11  O   UNL     1       4.159   5.241  -7.079  1.00  0.00    -0.452 OA
ENDROOT
BRANCH   1  12
ATOM     12  C   UNL     1       1.768   5.195  -7.387  1.00  0.00     0.025 A 
ATOM     13  C   UNL     1       1.735   4.069  -8.229  1.00  0.00     0.016 A 
ATOM     14  C   UNL     1       0.589   3.776  -8.973  1.00  0.00     0.051 A 
ATOM     15  C   UNL     1      -0.543   4.595  -8.877  1.00  0.00     0.157 A 
ATOM     16  C   UNL     1       0.622   6.000  -7.279  1.00  0.00     0.062 A 
ATOM     17  C   UNL     1      -0.529   5.707  -8.026  1.00  0.00     0.158 A 
BRANCH  15  18
ATOM     18  O   UNL     1      -1.688   4.307  -9.619  1.00  0.00    -0.504 OA
ATOM     19  H   UNL     1      -1.700   4.392 -10.628  1.00  0.00     0.293 HD
ENDBRANCH  15  18
BRANCH  17  20
ATOM     20  O   UNL     1      -1.659   6.515  -7.926  1.00  0.00    -0.504 OA
ATOM     21  H   UNL     1      -2.557   6.139  -7.641  1.00  0.00     0.293 HD
ENDBRANCH  17  20
ENDBRANCH   1  12
BRANCH   2  22
ATOM     22  O   UNL     1       1.607   6.260  -4.698  1.00  0.00    -0.502 OA
ATOM     23  H   UNL     1       1.460   6.907  -3.933  1.00  0.00     0.293 HD
ENDBRANCH   2  22
BRANCH   6  24
ATOM     24  O   UNL     1       6.690   7.125  -3.362  1.00  0.00    -0.507 OA
ATOM     25  H   UNL     1       6.795   8.126  -3.292  1.00  0.00     0.293 HD
ENDBRANCH   6  24
BRANCH   8  26
ATOM     26  O   UNL     1       8.919   5.032  -7.043  1.00  0.00    -0.508 OA
ATOM     27  H   UNL     1       9.659   4.576  -6.522  1.00  0.00     0.293 HD
ENDBRANCH   8  26
TORSDOF 6
ENDMDL
