MODEL 1
REMARK VINA RESULT:    -5.145      0.000      0.000
REMARK INTER + INTRA:          -6.310
REMARK INTER:                  -6.047
REMARK INTRA:                  -0.263
REMARK UNBOUND:                -0.263
REMARK SMILES O=c1cc(-c2ccc(O)c(O)c2)oc2cc(O)cc(O)c12
REMARK SMILES IDX 4 1 3 2 2 3 1 4 21 5 19 6 18 7 16 8 15 9 14 10 13 11 5 12
REMARK SMILES IDX 6 13 7 14 8 15 12 16 10 17 9 18 11 20 20 22 17 24
REMARK H PARENT 9 19 11 21 20 23 17 25
REMARK Flexibility Score: inf
ROOT
ATOM      1  C   UNL     1       8.722  12.015  61.344  1.00  0.00     0.138 A 
ATOM      2  C   UNL     1       9.553  13.066  61.754  1.00  0.00     0.100 A 
ATOM      3  C   UNL     1       9.001  14.167  62.412  1.00  0.00     0.197 A 
ATOM      4  O   UNL     1       9.780  15.065  62.823  1.00  0.00    -0.289 OA
ATOM      5  C   UNL     1       7.604  14.228  62.629  1.00  0.00     0.107 A 
ATOM      6  C   UNL     1       6.926  15.319  63.251  1.00  0.00     0.134 A 
ATOM      7  C   UNL     1       5.556  15.217  63.518  1.00  0.00     0.093 A 
ATOM      8  C   UNL     1       4.827  14.089  63.130  1.00  0.00     0.123 A 
ATOM      9  C   UNL     1       5.470  13.042  62.474  1.00  0.00     0.094 A 
ATOM     10  C   UNL     1       6.843  13.099  62.225  1.00  0.00     0.146 A 
ATOM     11  O   UNL     1       7.421  12.073  61.609  1.00  0.00    -0.456 OA
ENDROOT
BRANCH   1  12
ATOM     12  C   UNL     1       9.256  10.821  60.641  1.00  0.00     0.021 A 
ATOM     13  C   UNL     1       9.285  10.743  59.235  1.00  0.00     0.016 A 
ATOM     14  C   UNL     1       9.784   9.602  58.600  1.00  0.00     0.051 A 
ATOM     15  C   UNL     1      10.253   8.519  59.354  1.00  0.00     0.157 A 
ATOM     16  C   UNL     1       9.716   9.724  61.391  1.00  0.00     0.062 A 
ATOM     17  C   UNL     1      10.216   8.581  60.756  1.00  0.00     0.158 A 
BRANCH  15  18
ATOM     18  O   UNL     1      10.750   7.384  58.716  1.00  0.00    -0.504 OA
ATOM     19  H   UNL     1      11.156   6.616  59.239  1.00  0.00     0.293 HD
ENDBRANCH  15  18
BRANCH  17  20
ATOM     20  O   UNL     1      10.672   7.518  61.537  1.00  0.00    -0.504 OA
ATOM     21  H   UNL     1      10.214   7.249  62.399  1.00  0.00     0.293 HD
ENDBRANCH  17  20
ENDBRANCH   1  12
BRANCH   6  22
ATOM     22  O   UNL     1       7.542  16.524  63.601  1.00  0.00    -0.507 OA
ATOM     23  H   UNL     1       7.302  17.426  63.219  1.00  0.00     0.293 HD
ENDBRANCH   6  22
BRANCH   8  24
ATOM     24  O   UNL     1       3.461  14.003  63.386  1.00  0.00    -0.508 OA
ATOM     25  H   UNL     1       3.003  14.626  64.042  1.00  0.00     0.293 HD
ENDBRANCH   8  24
TORSDOF 5
ENDMDL
MODEL 2
REMARK VINA RESULT:    -5.022     13.563     15.155
REMARK INTER + INTRA:          -6.166
REMARK INTER:                  -5.893
REMARK INTRA:                  -0.272
REMARK UNBOUND:                -0.263
REMARK SMILES O=c1cc(-c2ccc(O)c(O)c2)oc2cc(O)cc(O)c12
REMARK SMILES IDX 4 1 3 2 2 3 1 4 21 5 19 6 18 7 16 8 15 9 14 10 13 11 5 12
REMARK SMILES IDX 6 13 7 14 8 15 12 16 10 17 9 18 11 20 20 22 17 24
REMARK H PARENT 9 19 11 21 20 23 17 25
REMARK Flexibility Score: inf
ROOT
ATOM      1  C   UNL     1       3.568  14.013  75.465  1.00  0.00     0.138 A 
ATOM      2  C   UNL     1       3.923  15.368  75.504  1.00  0.00     0.100 A 
ATOM      3  C   UNL     1       2.932  16.337  75.670  1.00  0.00     0.197 A 
ATOM      4  O   UNL     1       3.287  17.540  75.764  1.00  0.00    -0.289 OA
ATOM      5  C   UNL     1       1.575  15.945  75.765  1.00  0.00     0.107 A 
ATOM      6  C   UNL     1       0.477  16.847  75.895  1.00  0.00     0.134 A 
ATOM      7  C   UNL     1      -0.812  16.340  76.098  1.00  0.00     0.093 A 
ATOM      8  C   UNL     1      -1.051  14.962  76.115  1.00  0.00     0.123 A 
ATOM      9  C   UNL     1       0.007  14.075  75.935  1.00  0.00     0.094 A 
ATOM     10  C   UNL     1       1.310  14.550  75.765  1.00  0.00     0.146 A 
ATOM     11  O   UNL     1       2.293  13.669  75.611  1.00  0.00    -0.456 OA
ENDROOT
BRANCH   1  12
ATOM     12  C   UNL     1       4.581  12.942  75.290  1.00  0.00     0.021 A 
ATOM     13  C   UNL     1       4.405  11.903  74.355  1.00  0.00     0.016 A 
ATOM     14  C   UNL     1       5.370  10.901  74.220  1.00  0.00     0.051 A 
ATOM     15  C   UNL     1       6.521  10.914  75.017  1.00  0.00     0.157 A 
ATOM     16  C   UNL     1       5.734  12.939  76.096  1.00  0.00     0.062 A 
ATOM     17  C   UNL     1       6.701  11.937  75.961  1.00  0.00     0.158 A 
BRANCH  15  18
ATOM     18  O   UNL     1       7.482   9.913  74.877  1.00  0.00    -0.504 OA
ATOM     19  H   UNL     1       8.191   9.756  75.583  1.00  0.00     0.293 HD
ENDBRANCH  15  18
BRANCH  17  20
ATOM     20  O   UNL     1       7.835  11.977  76.773  1.00  0.00    -0.504 OA
ATOM     21  H   UNL     1       7.776  11.911  77.782  1.00  0.00     0.293 HD
ENDBRANCH  17  20
ENDBRANCH   1  12
BRANCH   6  22
ATOM     22  O   UNL     1       0.593  18.238  75.808  1.00  0.00    -0.507 OA
ATOM     23  H   UNL     1       1.041  18.823  76.496  1.00  0.00     0.293 HD
ENDBRANCH   6  22
BRANCH   8  24
ATOM     24  O   UNL     1      -2.339  14.467  76.302  1.00  0.00    -0.508 OA
ATOM     25  H   UNL     1      -2.903  14.148  75.522  1.00  0.00     0.293 HD
ENDBRANCH   8  24
TORSDOF 5
ENDMDL
MODEL 3
REMARK VINA RESULT:    -4.971      1.861      7.031
REMARK INTER + INTRA:          -6.105
REMARK INTER:                  -5.827
REMARK INTRA:                  -0.279
REMARK UNBOUND:                -0.263
REMARK SMILES O=c1cc(-c2ccc(O)c(O)c2)oc2cc(O)cc(O)c12
REMARK SMILES IDX 4 1 3 2 2 3 1 4 21 5 19 6 18 7 16 8 15 9 14 10 13 11 5 12
REMARK SMILES IDX 6 13 7 14 8 15 12 16 10 17 9 18 11 20 20 22 17 24
REMARK H PARENT 9 19 11 21 20 23 17 25
REMARK Flexibility Score: inf
ROOT
ATOM      1  C   UNL     1       9.273  12.107  61.249  1.00  0.00     0.138 A 
ATOM      2  C   UNL     1      10.056  12.438  60.135  1.00  0.00     0.100 A 
ATOM      3  C   UNL     1      10.980  11.516  59.642  1.00  0.00     0.197 A 
ATOM      4  O   UNL     1      11.623  11.817  58.603  1.00  0.00    -0.289 OA
ATOM      5  C   UNL     1      11.143  10.269  60.290  1.00  0.00     0.107 A 
ATOM      6  C   UNL     1      12.083   9.269  59.901  1.00  0.00     0.134 A 
ATOM      7  C   UNL     1      12.074   8.026  60.546  1.00  0.00     0.093 A 
ATOM      8  C   UNL     1      11.199   7.769  61.605  1.00  0.00     0.123 A 
ATOM      9  C   UNL     1      10.314   8.758  62.027  1.00  0.00     0.094 A 
ATOM     10  C   UNL     1      10.276   9.996  61.381  1.00  0.00     0.146 A 
ATOM     11  O   UNL     1       9.407  10.908  61.805  1.00  0.00    -0.456 OA
ENDROOT
BRANCH   1  12
ATOM     12  C   UNL     1       8.275  13.050  61.815  1.00  0.00     0.021 A 
ATOM     13  C   UNL     1       8.652  14.306  62.326  1.00  0.00     0.016 A 
ATOM     14  C   UNL     1       7.692  15.170  62.863  1.00  0.00     0.051 A 
ATOM     15  C   UNL     1       6.345  14.792  62.904  1.00  0.00     0.157 A 
ATOM     16  C   UNL     1       6.921  12.673  61.873  1.00  0.00     0.062 A 
ATOM     17  C   UNL     1       5.959  13.537  62.409  1.00  0.00     0.158 A 
BRANCH  15  18
ATOM     18  O   UNL     1       5.390  15.657  63.439  1.00  0.00    -0.504 OA
ATOM     19  H   UNL     1       4.973  16.395  62.884  1.00  0.00     0.293 HD
ENDBRANCH  15  18
BRANCH  17  20
ATOM     20  O   UNL     1       4.625  13.128  62.438  1.00  0.00    -0.504 OA
ATOM     21  H   UNL     1       3.958  13.517  63.094  1.00  0.00     0.293 HD
ENDBRANCH  17  20
ENDBRANCH   1  12
BRANCH   6  22
ATOM     22  O   UNL     1      13.056   9.452  58.914  1.00  0.00    -0.507 OA
ATOM     23  H   UNL     1      12.924   9.261  57.932  1.00  0.00     0.293 HD
ENDBRANCH   6  22
BRANCH   8  24
ATOM     24  O   UNL     1      11.208   6.535  62.250  1.00  0.00    -0.508 OA
ATOM     25  H   UNL     1      10.358   5.995  62.377  1.00  0.00     0.293 HD
ENDBRANCH   8  24
TORSDOF 5
ENDMDL
MODEL 4
REMARK VINA RESULT:    -4.971     13.544     16.487
REMARK INTER + INTRA:          -6.105
REMARK INTER:                  -5.810
REMARK INTRA:                  -0.295
REMARK UNBOUND:                -0.263
REMARK SMILES O=c1cc(-c2ccc(O)c(O)c2)oc2cc(O)cc(O)c12
REMARK SMILES IDX 4 1 3 2 2 3 1 4 21 5 19 6 18 7 16 8 15 9 14 10 13 11 5 12
REMARK SMILES IDX 6 13 7 14 8 15 12 16 10 17 9 18 11 20 20 22 17 24
REMARK H PARENT 9 19 11 21 20 23 17 25
REMARK Flexibility Score: inf
ROOT
ATOM      1  C   UNL     1       2.420  13.702  75.585  1.00  0.00     0.138 A 
ATOM      2  C   UNL     1       2.299  12.319  75.783  1.00  0.00     0.100 A 
ATOM      3  C   UNL     1       3.421  11.501  75.641  1.00  0.00     0.197 A 
ATOM      4  O   UNL     1       3.294  10.273  75.885  1.00  0.00    -0.289 OA
ATOM      5  C   UNL     1       4.662  12.068  75.267  1.00  0.00     0.107 A 
ATOM      6  C   UNL     1       5.862  11.326  75.054  1.00  0.00     0.134 A 
ATOM      7  C   UNL     1       7.059  12.008  74.801  1.00  0.00     0.093 A 
ATOM      8  C   UNL     1       7.087  13.401  74.694  1.00  0.00     0.123 A 
ATOM      9  C   UNL     1       5.910  14.130  74.848  1.00  0.00     0.094 A 
ATOM     10  C   UNL     1       4.707  13.482  75.135  1.00  0.00     0.146 A 
ATOM     11  O   UNL     1       3.610  14.215  75.289  1.00  0.00    -0.456 OA
ENDROOT
BRANCH   1  12
ATOM     12  C   UNL     1       1.260  14.619  75.723  1.00  0.00     0.021 A 
ATOM     13  C   UNL     1       1.406  16.015  75.617  1.00  0.00     0.016 A 
ATOM     14  C   UNL     1       0.299  16.856  75.762  1.00  0.00     0.051 A 
ATOM     15  C   UNL     1      -0.968  16.319  76.022  1.00  0.00     0.157 A 
ATOM     16  C   UNL     1      -0.013  14.089  75.998  1.00  0.00     0.062 A 
ATOM     17  C   UNL     1      -1.123  14.930  76.143  1.00  0.00     0.158 A 
BRANCH  15  18
ATOM     18  O   UNL     1      -2.070  17.161  76.165  1.00  0.00    -0.504 OA
ATOM     19  H   UNL     1      -2.839  17.145  75.506  1.00  0.00     0.293 HD
ENDBRANCH  15  18
BRANCH  17  20
ATOM     20  O   UNL     1      -2.371  14.363  76.406  1.00  0.00    -0.504 OA
ATOM     21  H   UNL     1      -2.641  14.065  77.336  1.00  0.00     0.293 HD
ENDBRANCH  17  20
ENDBRANCH   1  12
BRANCH   6  22
ATOM     22  O   UNL     1       5.928   9.929  75.054  1.00  0.00    -0.507 OA
ATOM     23  H   UNL     1       5.597   9.337  75.800  1.00  0.00     0.293 HD
ENDBRANCH   6  22
BRANCH   8  24
ATOM     24  O   UNL     1       8.279  14.069  74.427  1.00  0.00    -0.508 OA
ATOM     25  H   UNL     1       8.401  15.050  74.655  1.00  0.00     0.293 HD
ENDBRANCH   8  24
TORSDOF 5
ENDMDL
MODEL 5
REMARK VINA RESULT:    -4.942      1.658      7.257
REMARK INTER + INTRA:          -6.071
REMARK INTER:                  -5.799
REMARK INTRA:                  -0.272
REMARK UNBOUND:                -0.263
REMARK SMILES O=c1cc(-c2ccc(O)c(O)c2)oc2cc(O)cc(O)c12
REMARK SMILES IDX 4 1 3 2 2 3 1 4 21 5 19 6 18 7 16 8 15 9 14 10 13 11 5 12
REMARK SMILES IDX 6 13 7 14 8 15 12 16 10 17 9 18 11 20 20 22 17 24
REMARK H PARENT 9 19 11 21 20 23 17 25
REMARK Flexibility Score: inf
ROOT
ATOM      1  C   UNL     1       8.158  12.488  61.832  1.00  0.00     0.138 A 
ATOM      2  C   UNL     1       7.962  11.224  62.407  1.00  0.00     0.100 A 
ATOM      3  C   UNL     1       8.697  10.133  61.941  1.00  0.00     0.197 A 
ATOM      4  O   UNL     1       8.545   9.025  62.518  1.00  0.00    -0.289 OA
ATOM      5  C   UNL     1       9.608  10.304  60.872  1.00  0.00     0.107 A 
ATOM      6  C   UNL     1      10.381   9.255  60.289  1.00  0.00     0.134 A 
ATOM      7  C   UNL     1      11.337   9.563  59.313  1.00  0.00     0.093 A 
ATOM      8  C   UNL     1      11.505  10.873  58.857  1.00  0.00     0.123 A 
ATOM      9  C   UNL     1      10.719  11.895  59.383  1.00  0.00     0.094 A 
ATOM     10  C   UNL     1       9.781  11.625  60.382  1.00  0.00     0.146 A 
ATOM     11  O   UNL     1       9.060  12.631  60.867  1.00  0.00    -0.456 OA
ENDROOT
BRANCH   1  12
ATOM     12  C   UNL     1       7.404  13.683  62.288  1.00  0.00     0.021 A 
ATOM     13  C   UNL     1       8.058  14.878  62.643  1.00  0.00     0.016 A 
ATOM     14  C   UNL     1       7.324  15.984  63.080  1.00  0.00     0.051 A 
ATOM     15  C   UNL     1       5.929  15.915  63.177  1.00  0.00     0.157 A 
ATOM     16  C   UNL     1       6.003  13.617  62.402  1.00  0.00     0.062 A 
ATOM     17  C   UNL     1       5.267  14.724  62.838  1.00  0.00     0.158 A 
BRANCH  15  18
ATOM     18  O   UNL     1       5.200  17.021  63.612  1.00  0.00    -0.504 OA
ATOM     19  H   UNL     1       5.376  17.950  63.246  1.00  0.00     0.293 HD
ENDBRANCH  15  18
BRANCH  17  20
ATOM     20  O   UNL     1       3.879  14.621  62.927  1.00  0.00    -0.504 OA
ATOM     21  H   UNL     1       3.359  13.911  62.425  1.00  0.00     0.293 HD
ENDBRANCH  17  20
ENDBRANCH   1  12
BRANCH   6  22
ATOM     22  O   UNL     1      10.232   7.902  60.611  1.00  0.00    -0.507 OA
ATOM     23  H   UNL     1      10.989   7.279  60.843  1.00  0.00     0.293 HD
ENDBRANCH   6  22
BRANCH   8  24
ATOM     24  O   UNL     1      12.448  11.168  57.875  1.00  0.00    -0.508 OA
ATOM     25  H   UNL     1      13.321  11.632  58.100  1.00  0.00     0.293 HD
ENDBRANCH   8  24
TORSDOF 5
ENDMDL
MODEL 6
REMARK VINA RESULT:    -4.904      9.438     12.242
REMARK INTER + INTRA:          -6.027
REMARK INTER:                  -5.754
REMARK INTRA:                  -0.273
REMARK UNBOUND:                -0.263
REMARK SMILES O=c1cc(-c2ccc(O)c(O)c2)oc2cc(O)cc(O)c12
REMARK SMILES IDX 4 1 3 2 2 3 1 4 21 5 19 6 18 7 16 8 15 9 14 10 13 11 5 12
REMARK SMILES IDX 6 13 7 14 8 15 12 16 10 17 9 18 11 20 20 22 17 24
REMARK H PARENT 9 19 11 21 20 23 17 25
REMARK Flexibility Score: inf
ROOT
ATOM      1  C   UNL     1      -1.516   8.104  61.205  1.00  0.00     0.138 A 
ATOM      2  C   UNL     1      -2.363   7.023  60.923  1.00  0.00     0.100 A 
ATOM      3  C   UNL     1      -1.989   5.735  61.306  1.00  0.00     0.197 A 
ATOM      4  O   UNL     1      -2.797   4.794  61.095  1.00  0.00    -0.289 OA
ATOM      5  C   UNL     1      -0.744   5.526  61.945  1.00  0.00     0.107 A 
ATOM      6  C   UNL     1      -0.240   4.251  62.343  1.00  0.00     0.134 A 
ATOM      7  C   UNL     1       0.952   4.178  63.073  1.00  0.00     0.093 A 
ATOM      8  C   UNL     1       1.690   5.329  63.367  1.00  0.00     0.123 A 
ATOM      9  C   UNL     1       1.233   6.572  62.937  1.00  0.00     0.094 A 
ATOM     10  C   UNL     1       0.029   6.681  62.237  1.00  0.00     0.146 A 
ATOM     11  O   UNL     1      -0.378   7.887  61.856  1.00  0.00    -0.456 OA
ENDROOT
BRANCH   1  12
ATOM     12  C   UNL     1      -1.865   9.496  60.821  1.00  0.00     0.021 A 
ATOM     13  C   UNL     1      -2.990  10.150  61.359  1.00  0.00     0.016 A 
ATOM     14  C   UNL     1      -3.301  11.457  60.972  1.00  0.00     0.051 A 
ATOM     15  C   UNL     1      -2.502  12.128  60.038  1.00  0.00     0.157 A 
ATOM     16  C   UNL     1      -1.076  10.172  59.874  1.00  0.00     0.062 A 
ATOM     17  C   UNL     1      -1.386  11.481  59.486  1.00  0.00     0.158 A 
BRANCH  15  18
ATOM     18  O   UNL     1      -2.815  13.432  59.656  1.00  0.00    -0.504 OA
ATOM     19  H   UNL     1      -3.755  13.693  59.380  1.00  0.00     0.293 HD
ENDBRANCH  15  18
BRANCH  17  20
ATOM     20  O   UNL     1      -0.571  12.120  58.551  1.00  0.00    -0.504 OA
ATOM     21  H   UNL     1      -0.944  12.525  57.700  1.00  0.00     0.293 HD
ENDBRANCH  17  20
ENDBRANCH   1  12
BRANCH   6  22
ATOM     22  O   UNL     1      -0.853   3.035  62.027  1.00  0.00    -0.507 OA
ATOM     23  H   UNL     1      -0.702   2.518  61.174  1.00  0.00     0.293 HD
ENDBRANCH   6  22
BRANCH   8  24
ATOM     24  O   UNL     1       2.883   5.245  64.081  1.00  0.00    -0.508 OA
ATOM     25  H   UNL     1       3.555   4.506  63.906  1.00  0.00     0.293 HD
ENDBRANCH   8  24
TORSDOF 5
ENDMDL
MODEL 7
REMARK VINA RESULT:    -4.862     13.476     15.364
REMARK INTER + INTRA:          -5.977
REMARK INTER:                  -5.684
REMARK INTRA:                  -0.293
REMARK UNBOUND:                -0.263
REMARK SMILES O=c1cc(-c2ccc(O)c(O)c2)oc2cc(O)cc(O)c12
REMARK SMILES IDX 4 1 3 2 2 3 1 4 21 5 19 6 18 7 16 8 15 9 14 10 13 11 5 12
REMARK SMILES IDX 6 13 7 14 8 15 12 16 10 17 9 18 11 20 20 22 17 24
REMARK H PARENT 9 19 11 21 20 23 17 25
REMARK Flexibility Score: inf
ROOT
ATOM      1  C   UNL     1       2.842  12.708  75.392  1.00  0.00     0.138 A 
ATOM      2  C   UNL     1       1.673  11.937  75.444  1.00  0.00     0.100 A 
ATOM      3  C   UNL     1       0.438  12.565  75.608  1.00  0.00     0.197 A 
ATOM      4  O   UNL     1      -0.599  11.852  75.588  1.00  0.00    -0.289 OA
ATOM      5  C   UNL     1       0.379  13.971  75.754  1.00  0.00     0.107 A 
ATOM      6  C   UNL     1      -0.820  14.716  75.968  1.00  0.00     0.134 A 
ATOM      7  C   UNL     1      -0.771  16.115  75.981  1.00  0.00     0.093 A 
ATOM      8  C   UNL     1       0.444  16.795  75.849  1.00  0.00     0.123 A 
ATOM      9  C   UNL     1       1.626  16.075  75.693  1.00  0.00     0.094 A 
ATOM     10  C   UNL     1       1.604  14.680  75.641  1.00  0.00     0.146 A 
ATOM     11  O   UNL     1       2.753  14.032  75.477  1.00  0.00    -0.456 OA
ENDROOT
BRANCH   1  12
ATOM     12  C   UNL     1       4.182  12.092  75.219  1.00  0.00     0.021 A 
ATOM     13  C   UNL     1       4.403  11.055  74.293  1.00  0.00     0.016 A 
ATOM     14  C   UNL     1       5.673  10.485  74.158  1.00  0.00     0.051 A 
ATOM     15  C   UNL     1       6.738  10.935  74.948  1.00  0.00     0.157 A 
ATOM     16  C   UNL     1       5.254  12.528  76.017  1.00  0.00     0.062 A 
ATOM     17  C   UNL     1       6.526  11.959  75.883  1.00  0.00     0.158 A 
BRANCH  15  18
ATOM     18  O   UNL     1       8.003  10.365  74.808  1.00  0.00    -0.504 OA
ATOM     19  H   UNL     1       8.449   9.870  75.571  1.00  0.00     0.293 HD
ENDBRANCH  15  18
BRANCH  17  20
ATOM     20  O   UNL     1       7.565  12.428  76.688  1.00  0.00    -0.504 OA
ATOM     21  H   UNL     1       8.507  12.061  76.617  1.00  0.00     0.293 HD
ENDBRANCH  17  20
ENDBRANCH   1  12
BRANCH   6  22
ATOM     22  O   UNL     1      -2.071  14.134  76.197  1.00  0.00    -0.507 OA
ATOM     23  H   UNL     1      -2.943  14.477  75.824  1.00  0.00     0.293 HD
ENDBRANCH   6  22
BRANCH   8  24
ATOM     24  O   UNL     1       0.485  18.186  75.878  1.00  0.00    -0.508 OA
ATOM     25  H   UNL     1       0.147  18.745  75.102  1.00  0.00     0.293 HD
ENDBRANCH   8  24
TORSDOF 5
ENDMDL
MODEL 8
REMARK VINA RESULT:    -4.844     12.638     15.281
REMARK INTER + INTRA:          -5.956
REMARK INTER:                  -5.639
REMARK INTRA:                  -0.317
REMARK UNBOUND:                -0.263
REMARK SMILES O=c1cc(-c2ccc(O)c(O)c2)oc2cc(O)cc(O)c12
REMARK SMILES IDX 4 1 3 2 2 3 1 4 21 5 19 6 18 7 16 8 15 9 14 10 13 11 5 12
REMARK SMILES IDX 6 13 7 14 8 15 12 16 10 17 9 18 11 20 20 22 17 24
REMARK H PARENT 9 19 11 21 20 23 17 25
REMARK Flexibility Score: inf
ROOT
ATOM      1  C   UNL     1       4.059  14.115  74.986  1.00  0.00     0.138 A 
ATOM      2  C   UNL     1       4.786  15.273  74.677  1.00  0.00     0.100 A 
ATOM      3  C   UNL     1       6.128  15.168  74.309  1.00  0.00     0.197 A 
ATOM      4  O   UNL     1       6.736  16.219  73.978  1.00  0.00    -0.289 OA
ATOM      5  C   UNL     1       6.752  13.899  74.283  1.00  0.00     0.107 A 
ATOM      6  C   UNL     1       8.125  13.677  73.962  1.00  0.00     0.134 A 
ATOM      7  C   UNL     1       8.605  12.366  73.854  1.00  0.00     0.093 A 
ATOM      8  C   UNL     1       7.775  11.271  74.113  1.00  0.00     0.123 A 
ATOM      9  C   UNL     1       6.448  11.480  74.479  1.00  0.00     0.094 A 
ATOM     10  C   UNL     1       5.931  12.775  74.562  1.00  0.00     0.146 A 
ATOM     11  O   UNL     1       4.656  12.930  74.899  1.00  0.00    -0.456 OA
ENDROOT
BRANCH   1  12
ATOM     12  C   UNL     1       2.629  14.168  75.383  1.00  0.00     0.021 A 
ATOM     13  C   UNL     1       1.894  15.367  75.336  1.00  0.00     0.016 A 
ATOM     14  C   UNL     1       0.551  15.391  75.726  1.00  0.00     0.051 A 
ATOM     15  C   UNL     1      -0.075  14.222  76.175  1.00  0.00     0.157 A 
ATOM     16  C   UNL     1       1.995  13.002  75.849  1.00  0.00     0.062 A 
ATOM     17  C   UNL     1       0.652  13.023  76.239  1.00  0.00     0.158 A 
BRANCH  15  18
ATOM     18  O   UNL     1      -1.415  14.250  76.562  1.00  0.00    -0.504 OA
ATOM     19  H   UNL     1      -2.068  13.535  76.265  1.00  0.00     0.293 HD
ENDBRANCH  15  18
BRANCH  17  20
ATOM     20  O   UNL     1       0.058  11.843  76.686  1.00  0.00    -0.504 OA
ATOM     21  H   UNL     1       0.367  11.370  77.526  1.00  0.00     0.293 HD
ENDBRANCH  17  20
ENDBRANCH   1  12
BRANCH   6  22
ATOM     22  O   UNL     1       9.058  14.700  73.768  1.00  0.00    -0.507 OA
ATOM     23  H   UNL     1       9.377  15.333  74.486  1.00  0.00     0.293 HD
ENDBRANCH   6  22
BRANCH   8  24
ATOM     24  O   UNL     1       8.265   9.971  74.018  1.00  0.00    -0.508 OA
ATOM     25  H   UNL     1       9.145   9.702  74.444  1.00  0.00     0.293 HD
ENDBRANCH   8  24
TORSDOF 5
ENDMDL
MODEL 9
REMARK VINA RESULT:    -4.831      1.561      6.693
REMARK INTER + INTRA:          -5.941
REMARK INTER:                  -5.628
REMARK INTRA:                  -0.313
REMARK UNBOUND:                -0.263
REMARK SMILES O=c1cc(-c2ccc(O)c(O)c2)oc2cc(O)cc(O)c12
REMARK SMILES IDX 4 1 3 2 2 3 1 4 21 5 19 6 18 7 16 8 15 9 14 10 13 11 5 12
REMARK SMILES IDX 6 13 7 14 8 15 12 16 10 17 9 18 11 20 20 22 17 24
REMARK H PARENT 9 19 11 21 20 23 17 25
REMARK Flexibility Score: inf
ROOT
ATOM      1  C   UNL     1       7.754  13.236  62.233  1.00  0.00     0.138 A 
ATOM      2  C   UNL     1       8.964  13.895  62.489  1.00  0.00     0.100 A 
ATOM      3  C   UNL     1      10.171  13.265  62.184  1.00  0.00     0.197 A 
ATOM      4  O   UNL     1      11.238  13.907  62.367  1.00  0.00    -0.289 OA
ATOM      5  C   UNL     1      10.165  11.955  61.651  1.00  0.00     0.107 A 
ATOM      6  C   UNL     1      11.336  11.199  61.340  1.00  0.00     0.134 A 
ATOM      7  C   UNL     1      11.207   9.957  60.707  1.00  0.00     0.093 A 
ATOM      8  C   UNL     1       9.948   9.417  60.428  1.00  0.00     0.123 A 
ATOM      9  C   UNL     1       8.800  10.123  60.776  1.00  0.00     0.094 A 
ATOM     10  C   UNL     1       8.896  11.380  61.377  1.00  0.00     0.146 A 
ATOM     11  O   UNL     1       7.776  12.028  61.680  1.00  0.00    -0.456 OA
ENDROOT
BRANCH   1  12
ATOM     12  C   UNL     1       6.441  13.859  62.537  1.00  0.00     0.021 A 
ATOM     13  C   UNL     1       6.313  15.246  62.748  1.00  0.00     0.016 A 
ATOM     14  C   UNL     1       5.066  15.805  63.044  1.00  0.00     0.051 A 
ATOM     15  C   UNL     1       3.930  14.991  63.140  1.00  0.00     0.157 A 
ATOM     16  C   UNL     1       5.297  13.048  62.649  1.00  0.00     0.062 A 
ATOM     17  C   UNL     1       4.048  13.606  62.944  1.00  0.00     0.158 A 
BRANCH  15  18
ATOM     18  O   UNL     1       2.688  15.553  63.433  1.00  0.00    -0.504 OA
ATOM     19  H   UNL     1       2.186  15.318  64.281  1.00  0.00     0.293 HD
ENDBRANCH  15  18
BRANCH  17  20
ATOM     20  O   UNL     1       2.937  12.767  63.036  1.00  0.00    -0.504 OA
ATOM     21  H   UNL     1       2.957  11.811  62.702  1.00  0.00     0.293 HD
ENDBRANCH  17  20
ENDBRANCH   1  12
BRANCH   6  22
ATOM     22  O   UNL     1      12.636  11.608  61.653  1.00  0.00    -0.507 OA
ATOM     23  H   UNL     1      13.171  11.275  62.440  1.00  0.00     0.293 HD
ENDBRANCH   6  22
BRANCH   8  24
ATOM     24  O   UNL     1       9.830   8.173  59.813  1.00  0.00    -0.508 OA
ATOM     25  H   UNL     1      10.613   7.531  59.757  1.00  0.00     0.293 HD
ENDBRANCH   8  24
TORSDOF 5
ENDMDL
