MODEL 1
REMARK VINA RESULT:    -3.282      0.000      0.000
REMARK INTER + INTRA:          -3.282
REMARK INTER:                  -3.282
REMARK INTRA:                   0.000
REMARK UNBOUND:                 0.000
REMARK SMILES CC1(C)C(=O)[C@@]2(C)CC[C@@H]1C2
REMARK SMILES IDX 1 1 2 2 10 3 9 4 8 5 6 6 11 7 4 8 5 9 7 10 3 11
REMARK H PARENT
REMARK Flexibility Score: inf
ROOT
ATOM      1  C   UNL     1     149.247 144.312 138.359  1.00  0.00     0.020 C 
ATOM      2  C   UNL     1     148.181 143.526 139.153  1.00  0.00     0.027 C 
ATOM      3  C   UNL     1     148.144 141.987 138.836  1.00  0.00     0.003 C 
ATOM      4  C   UNL     1     148.134 141.732 137.307  1.00  0.00     0.005 C 
ATOM      5  C   UNL     1     146.744 142.252 136.875  1.00  0.00     0.015 C 
ATOM      6  C   UNL     1     146.099 142.644 138.219  1.00  0.00     0.027 C 
ATOM      7  C   UNL     1     146.697 141.614 139.155  1.00  0.00     0.019 C 
ATOM      8  C   UNL     1     146.791 143.885 138.710  1.00  0.00     0.144 C 
ATOM      9  O   UNL     1     146.327 145.016 138.684  1.00  0.00    -0.298 OA
ATOM     10  C   UNL     1     144.571 142.701 138.220  1.00  0.00     0.020 C 
ATOM     11  C   UNL     1     148.374 143.792 140.661  1.00  0.00     0.020 C 
ENDROOT
TORSDOF 0
ENDMDL
MODEL 2
REMARK VINA RESULT:    -3.255     11.538     14.054
REMARK INTER + INTRA:          -3.255
REMARK INTER:                  -3.255
REMARK INTRA:                   0.000
REMARK UNBOUND:                 0.000
REMARK SMILES CC1(C)C(=O)[C@@]2(C)CC[C@@H]1C2
REMARK SMILES IDX 1 1 2 2 10 3 9 4 8 5 6 6 11 7 4 8 5 9 7 10 3 11
REMARK H PARENT
REMARK Flexibility Score: inf
ROOT
ATOM      1  C   UNL     1     132.275 137.262 138.342  1.00  0.00     0.020 C 
ATOM      2  C   UNL     1     133.358 137.997 139.160  1.00  0.00     0.027 C 
ATOM      3  C   UNL     1     133.452 139.538 138.870  1.00  0.00     0.003 C 
ATOM      4  C   UNL     1     133.489 139.818 137.345  1.00  0.00     0.005 C 
ATOM      5  C   UNL     1     134.865 139.257 136.921  1.00  0.00     0.015 C 
ATOM      6  C   UNL     1     135.480 138.821 138.264  1.00  0.00     0.027 C 
ATOM      7  C   UNL     1     134.907 139.855 139.211  1.00  0.00     0.019 C 
ATOM      8  C   UNL     1     134.740 137.597 138.727  1.00  0.00     0.144 C 
ATOM      9  O   UNL     1     135.165 136.451 138.687  1.00  0.00    -0.298 OA
ATOM     10  C   UNL     1     137.005 138.710 138.282  1.00  0.00     0.020 C 
ATOM     11  C   UNL     1     133.139 137.713 140.661  1.00  0.00     0.020 C 
ENDROOT
TORSDOF 0
ENDMDL
MODEL 3
REMARK VINA RESULT:    -3.240      8.562      9.854
REMARK INTER + INTRA:          -3.240
REMARK INTER:                  -3.240
REMARK INTRA:                   0.000
REMARK UNBOUND:                 0.000
REMARK SMILES CC1(C)C(=O)[C@@]2(C)CC[C@@H]1C2
REMARK SMILES IDX 1 1 2 2 10 3 9 4 8 5 6 6 11 7 4 8 5 9 7 10 3 11
REMARK H PARENT
REMARK Flexibility Score: inf
ROOT
ATOM      1  C   UNL     1     144.300 132.319 138.360  1.00  0.00     0.020 C 
ATOM      2  C   UNL     1     143.561 133.397 139.181  1.00  0.00     0.027 C 
ATOM      3  C   UNL     1     142.028 133.516 138.859  1.00  0.00     0.003 C 
ATOM      4  C   UNL     1     141.782 133.583 137.330  1.00  0.00     0.005 C 
ATOM      5  C   UNL     1     142.369 134.959 136.942  1.00  0.00     0.015 C 
ATOM      6  C   UNL     1     142.783 135.545 138.305  1.00  0.00     0.027 C 
ATOM      7  C   UNL     1     141.722 134.969 139.219  1.00  0.00     0.019 C 
ATOM      8  C   UNL     1     143.988 134.781 138.781  1.00  0.00     0.144 C 
ATOM      9  O   UNL     1     145.139 135.192 138.774  1.00  0.00    -0.298 OA
ATOM     10  C   UNL     1     142.913 137.068 138.353  1.00  0.00     0.020 C 
ATOM     11  C   UNL     1     143.809 133.148 140.684  1.00  0.00     0.020 C 
ENDROOT
TORSDOF 0
ENDMDL
MODEL 4
REMARK VINA RESULT:    -3.229     14.031     15.363
REMARK INTER + INTRA:          -3.229
REMARK INTER:                  -3.229
REMARK INTRA:                   0.000
REMARK UNBOUND:                 0.000
REMARK SMILES CC1(C)C(=O)[C@@]2(C)CC[C@@H]1C2
REMARK SMILES IDX 1 1 2 2 10 3 9 4 8 5 6 6 11 7 4 8 5 9 7 10 3 11
REMARK H PARENT
REMARK Flexibility Score: inf
ROOT
ATOM      1  C   UNL     1     132.161 135.853 139.950  1.00  0.00     0.020 C 
ATOM      2  C   UNL     1     132.950 136.396 138.738  1.00  0.00     0.027 C 
ATOM      3  C   UNL     1     134.375 136.954 139.093  1.00  0.00     0.003 C 
ATOM      4  C   UNL     1     134.313 137.914 140.309  1.00  0.00     0.005 C 
ATOM      5  C   UNL     1     133.544 139.133 139.752  1.00  0.00     0.015 C 
ATOM      6  C   UNL     1     133.354 138.762 138.268  1.00  0.00     0.027 C 
ATOM      7  C   UNL     1     134.619 137.978 137.986  1.00  0.00     0.019 C 
ATOM      8  C   UNL     1     132.336 137.658 138.203  1.00  0.00     0.144 C 
ATOM      9  O   UNL     1     131.174 137.782 137.844  1.00  0.00    -0.298 OA
ATOM     10  C   UNL     1     133.105 139.939 137.324  1.00  0.00     0.020 C 
ATOM     11  C   UNL     1     133.022 135.303 137.651  1.00  0.00     0.020 C 
ENDROOT
TORSDOF 0
ENDMDL
MODEL 5
REMARK VINA RESULT:    -3.227      8.941     11.180
REMARK INTER + INTRA:          -3.227
REMARK INTER:                  -3.227
REMARK INTRA:                   0.000
REMARK UNBOUND:                 0.000
REMARK SMILES CC1(C)C(=O)[C@@]2(C)CC[C@@H]1C2
REMARK SMILES IDX 1 1 2 2 10 3 9 4 8 5 6 6 11 7 4 8 5 9 7 10 3 11
REMARK H PARENT
REMARK Flexibility Score: inf
ROOT
ATOM      1  C   UNL     1     136.299 149.795 139.854  1.00  0.00     0.020 C 
ATOM      2  C   UNL     1     136.594 148.595 138.928  1.00  0.00     0.027 C 
ATOM      3  C   UNL     1     136.794 147.231 139.682  1.00  0.00     0.003 C 
ATOM      4  C   UNL     1     137.776 147.389 140.872  1.00  0.00     0.005 C 
ATOM      5  C   UNL     1     139.130 147.650 140.174  1.00  0.00     0.015 C 
ATOM      6  C   UNL     1     138.772 147.510 138.682  1.00  0.00     0.027 C 
ATOM      7  C   UNL     1     137.692 146.448 138.726  1.00  0.00     0.019 C 
ATOM      8  C   UNL     1     137.952 148.709 138.295  1.00  0.00     0.144 C 
ATOM      9  O   UNL     1     138.348 149.659 137.637  1.00  0.00    -0.298 OA
ATOM     10  C   UNL     1     139.946 147.192 137.754  1.00  0.00     0.020 C 
ATOM     11  C   UNL     1     135.486 148.497 137.858  1.00  0.00     0.020 C 
ENDROOT
TORSDOF 0
ENDMDL
MODEL 6
REMARK VINA RESULT:    -3.215      9.264     10.589
REMARK INTER + INTRA:          -3.215
REMARK INTER:                  -3.215
REMARK INTRA:                   0.000
REMARK UNBOUND:                 0.000
REMARK SMILES CC1(C)C(=O)[C@@]2(C)CC[C@@H]1C2
REMARK SMILES IDX 1 1 2 2 10 3 9 4 8 5 6 6 11 7 4 8 5 9 7 10 3 11
REMARK H PARENT
REMARK Flexibility Score: inf
ROOT
ATOM      1  C   UNL     1     145.213 131.567 139.821  1.00  0.00     0.020 C 
ATOM      2  C   UNL     1     144.974 132.824 138.957  1.00  0.00     0.027 C 
ATOM      3  C   UNL     1     144.812 134.152 139.781  1.00  0.00     0.003 C 
ATOM      4  C   UNL     1     143.809 133.967 140.949  1.00  0.00     0.005 C 
ATOM      5  C   UNL     1     142.457 133.792 140.223  1.00  0.00     0.015 C 
ATOM      6  C   UNL     1     142.838 133.999 138.744  1.00  0.00     0.027 C 
ATOM      7  C   UNL     1     143.955 135.016 138.858  1.00  0.00     0.019 C 
ATOM      8  C   UNL     1     143.621 132.793 138.304  1.00  0.00     0.144 C 
ATOM      9  O   UNL     1     143.200 131.893 137.591  1.00  0.00    -0.298 OA
ATOM     10  C   UNL     1     141.689 134.407 137.821  1.00  0.00     0.020 C 
ATOM     11  C   UNL     1     146.099 132.939 137.907  1.00  0.00     0.020 C 
ENDROOT
TORSDOF 0
ENDMDL
MODEL 7
REMARK VINA RESULT:    -3.184      8.076      9.794
REMARK INTER + INTRA:          -3.184
REMARK INTER:                  -3.184
REMARK INTRA:                   0.000
REMARK UNBOUND:                 0.000
REMARK SMILES CC1(C)C(=O)[C@@]2(C)CC[C@@H]1C2
REMARK SMILES IDX 1 1 2 2 10 3 9 4 8 5 6 6 11 7 4 8 5 9 7 10 3 11
REMARK H PARENT
REMARK Flexibility Score: inf
ROOT
ATOM      1  C   UNL     1     137.392 144.466 138.887  1.00  0.00     0.020 C 
ATOM      2  C   UNL     1     138.568 145.415 139.204  1.00  0.00     0.027 C 
ATOM      3  C   UNL     1     138.159 146.708 139.997  1.00  0.00     0.003 C 
ATOM      4  C   UNL     1     136.929 147.395 139.350  1.00  0.00     0.005 C 
ATOM      5  C   UNL     1     137.488 147.921 138.009  1.00  0.00     0.015 C 
ATOM      6  C   UNL     1     138.983 147.560 138.102  1.00  0.00     0.027 C 
ATOM      7  C   UNL     1     139.240 147.708 139.588  1.00  0.00     0.019 C 
ATOM      8  C   UNL     1     139.100 146.067 137.960  1.00  0.00     0.144 C 
ATOM      9  O   UNL     1     139.492 145.477 136.964  1.00  0.00    -0.298 OA
ATOM     10  C   UNL     1     139.912 148.379 137.206  1.00  0.00     0.020 C 
ATOM     11  C   UNL     1     139.673 144.624 139.936  1.00  0.00     0.020 C 
ENDROOT
TORSDOF 0
ENDMDL
MODEL 8
REMARK VINA RESULT:    -3.181      1.688      2.878
REMARK INTER + INTRA:          -3.181
REMARK INTER:                  -3.181
REMARK INTRA:                   0.000
REMARK UNBOUND:                 0.000
REMARK SMILES CC1(C)C(=O)[C@@]2(C)CC[C@@H]1C2
REMARK SMILES IDX 1 1 2 2 10 3 9 4 8 5 6 6 11 7 4 8 5 9 7 10 3 11
REMARK H PARENT
REMARK Flexibility Score: inf
ROOT
ATOM      1  C   UNL     1     149.639 145.205 140.006  1.00  0.00     0.020 C 
ATOM      2  C   UNL     1     148.585 144.900 138.919  1.00  0.00     0.027 C 
ATOM      3  C   UNL     1     147.175 144.494 139.482  1.00  0.00     0.003 C 
ATOM      4  C   UNL     1     147.305 143.409 140.582  1.00  0.00     0.005 C 
ATOM      5  C   UNL     1     147.782 142.168 139.795  1.00  0.00     0.015 C 
ATOM      6  C   UNL     1     147.768 142.669 138.338  1.00  0.00     0.027 C 
ATOM      7  C   UNL     1     146.601 143.634 138.358  1.00  0.00     0.019 C 
ATOM      8  C   UNL     1     148.909 143.635 138.178  1.00  0.00     0.144 C 
ATOM      9  O   UNL     1     149.963 143.402 137.603  1.00  0.00    -0.298 OA
ATOM     10  C   UNL     1     147.679 141.577 137.270  1.00  0.00     0.020 C 
ATOM     11  C   UNL     1     148.488 146.103 137.956  1.00  0.00     0.020 C 
ENDROOT
TORSDOF 0
ENDMDL
MODEL 9
REMARK VINA RESULT:    -3.153     11.143     13.100
REMARK INTER + INTRA:          -3.153
REMARK INTER:                  -3.153
REMARK INTRA:                   0.000
REMARK UNBOUND:                 0.000
REMARK SMILES CC1(C)C(=O)[C@@]2(C)CC[C@@H]1C2
REMARK SMILES IDX 1 1 2 2 10 3 9 4 8 5 6 6 11 7 4 8 5 9 7 10 3 11
REMARK H PARENT
REMARK Flexibility Score: inf
ROOT
ATOM      1  C   UNL     1     137.065 137.366 138.774  1.00  0.00     0.020 C 
ATOM      2  C   UNL     1     136.135 138.548 139.124  1.00  0.00     0.027 C 
ATOM      3  C   UNL     1     134.850 138.142 139.931  1.00  0.00     0.003 C 
ATOM      4  C   UNL     1     134.139 136.929 139.276  1.00  0.00     0.005 C 
ATOM      5  C   UNL     1     133.598 137.515 137.952  1.00  0.00     0.015 C 
ATOM      6  C   UNL     1     133.979 139.004 138.062  1.00  0.00     0.027 C 
ATOM      7  C   UNL     1     133.856 139.239 139.554  1.00  0.00     0.019 C 
ATOM      8  C   UNL     1     135.470 139.106 137.898  1.00  0.00     0.144 C 
ATOM      9  O   UNL     1     136.049 139.506 136.899  1.00  0.00    -0.298 OA
ATOM     10  C   UNL     1     133.157 139.957 137.193  1.00  0.00     0.020 C 
ATOM     11  C   UNL     1     136.950 139.632 139.860  1.00  0.00     0.020 C 
ENDROOT
TORSDOF 0
ENDMDL
