MODEL 1
REMARK VINA RESULT:     6.466      0.000      0.000
REMARK INTER + INTRA:          12.521
REMARK INTER:                  11.757
REMARK INTRA:                   0.763
REMARK UNBOUND:                 0.763
REMARK SMILES CCCCCCCCCCCCCCCC(=O)[O-]
REMARK SMILES IDX 9 1 10 2 11 3 12 4 13 5 14 6 15 7 16 8 17 9 18 10 8 11 7 12
REMARK SMILES IDX 6 13 5 14 4 15 3 16 2 17 1 18
REMARK H PARENT
REMARK Flexibility Score: inf
ROOT
ATOM      1  C   UNL     1      16.356  38.922  46.006  1.00  0.00     0.000 C 
ENDROOT
BRANCH   1   2
ATOM      2  C   UNL     1      15.994  39.178  47.483  1.00  0.00     0.000 C 
BRANCH   2   3
ATOM      3  C   UNL     1      14.801  40.123  47.714  1.00  0.00     0.000 C 
BRANCH   3   4
ATOM      4  C   UNL     1      13.751  40.044  46.594  1.00  0.00     0.000 C 
BRANCH   4   5
ATOM      5  C   UNL     1      13.496  38.603  46.110  1.00  0.00     0.000 C 
BRANCH   5   6
ATOM      6  C   UNL     1      12.961  37.632  47.183  1.00  0.00     0.006 C 
BRANCH   6   7
ATOM      7  C   UNL     1      14.036  37.064  48.123  1.00  0.00     0.053 C 
BRANCH   7   8
ATOM      8  C   UNL     1      14.021  35.567  48.153  1.00  0.00     0.041 C 
ATOM      9  O   UNL     1      13.183  34.928  47.464  1.00  0.00    -0.550 OA
ATOM     10  O   UNL     1      14.955  34.876  48.915  1.00  0.00    -0.550 OA
ENDBRANCH   7   8
ENDBRANCH   6   7
ENDBRANCH   5   6
ENDBRANCH   4   5
ENDBRANCH   3   4
ENDBRANCH   2   3
ENDBRANCH   1   2
BRANCH   1  11
ATOM     11  C   UNL     1      17.762  38.338  45.767  1.00  0.00     0.000 C 
BRANCH  11  12
ATOM     12  C   UNL     1      18.816  38.741  46.817  1.00  0.00    -0.000 C 
BRANCH  12  13
ATOM     13  C   UNL     1      19.947  37.715  47.036  1.00  0.00    -0.000 C 
BRANCH  13  14
ATOM     14  C   UNL     1      19.636  36.284  46.559  1.00  0.00    -0.000 C 
BRANCH  14  15
ATOM     15  C   UNL     1      20.302  35.944  45.214  1.00  0.00    -0.000 C 
BRANCH  15  16
ATOM     16  C   UNL     1      20.717  34.465  45.109  1.00  0.00    -0.000 C 
BRANCH  16  17
ATOM     17  C   UNL     1      21.534  34.104  43.855  1.00  0.00    -0.003 C 
ATOM     18  C   UNL     1      21.544  35.215  42.806  1.00  0.00     0.004 C 
ENDBRANCH  16  17
ENDBRANCH  15  16
ENDBRANCH  14  15
ENDBRANCH  13  14
ENDBRANCH  12  13
ENDBRANCH  11  12
ENDBRANCH   1  11
TORSDOF 14
ENDMDL
MODEL 2
REMARK VINA RESULT:     6.652      3.126      7.052
REMARK INTER + INTRA:          12.859
REMARK INTER:                  13.650
REMARK INTRA:                  -0.791
REMARK UNBOUND:                 0.763
REMARK SMILES CCCCCCCCCCCCCCCC(=O)[O-]
REMARK SMILES IDX 9 1 10 2 11 3 12 4 13 5 14 6 15 7 16 8 17 9 18 10 8 11 7 12
REMARK SMILES IDX 6 13 5 14 4 15 3 16 2 17 1 18
REMARK H PARENT
REMARK Flexibility Score: inf
ROOT
ATOM      1  C   UNL     1      16.353  38.838  46.293  1.00  0.00     0.000 C 
ENDROOT
BRANCH   1   2
ATOM      2  C   UNL     1      17.616  37.963  46.419  1.00  0.00     0.000 C 
BRANCH   2   3
ATOM      3  C   UNL     1      18.909  38.720  46.772  1.00  0.00     0.000 C 
BRANCH   3   4
ATOM      4  C   UNL     1      20.129  37.793  46.899  1.00  0.00     0.000 C 
BRANCH   4   5
ATOM      5  C   UNL     1      19.813  36.332  46.523  1.00  0.00     0.000 C 
BRANCH   5   6
ATOM      6  C   UNL     1      20.137  35.941  45.066  1.00  0.00     0.006 C 
BRANCH   6   7
ATOM      7  C   UNL     1      20.887  34.608  44.915  1.00  0.00     0.053 C 
BRANCH   7   8
ATOM      8  C   UNL     1      21.581  34.501  43.592  1.00  0.00     0.041 C 
ATOM      9  O   UNL     1      21.426  35.397  42.721  1.00  0.00    -0.550 OA
ATOM     10  O   UNL     1      22.427  33.430  43.335  1.00  0.00    -0.550 OA
ENDBRANCH   7   8
ENDBRANCH   6   7
ENDBRANCH   5   6
ENDBRANCH   4   5
ENDBRANCH   3   4
ENDBRANCH   2   3
ENDBRANCH   1   2
BRANCH   1  11
ATOM     11  C   UNL     1      15.971  39.623  47.563  1.00  0.00     0.000 C 
BRANCH  11  12
ATOM     12  C   UNL     1      14.514  40.125  47.601  1.00  0.00    -0.000 C 
BRANCH  12  13
ATOM     13  C   UNL     1      13.665  39.761  46.366  1.00  0.00    -0.000 C 
BRANCH  13  14
ATOM     14  C   UNL     1      13.278  38.274  46.249  1.00  0.00    -0.000 C 
BRANCH  14  15
ATOM     15  C   UNL     1      13.060  37.604  47.617  1.00  0.00    -0.000 C 
BRANCH  15  16
ATOM     16  C   UNL     1      13.079  36.066  47.540  1.00  0.00    -0.000 C 
BRANCH  16  17
ATOM     17  C   UNL     1      14.225  35.388  48.314  1.00  0.00    -0.003 C 
ATOM     18  C   UNL     1      15.248  36.382  48.861  1.00  0.00     0.004 C 
ENDBRANCH  16  17
ENDBRANCH  15  16
ENDBRANCH  14  15
ENDBRANCH  13  14
ENDBRANCH  12  13
ENDBRANCH  11  12
ENDBRANCH   1  11
TORSDOF 14
ENDMDL
MODEL 3
REMARK VINA RESULT:     6.894      3.985      6.400
REMARK INTER + INTRA:          13.299
REMARK INTER:                  14.078
REMARK INTRA:                  -0.780
REMARK UNBOUND:                 0.763
REMARK SMILES CCCCCCCCCCCCCCCC(=O)[O-]
REMARK SMILES IDX 9 1 10 2 11 3 12 4 13 5 14 6 15 7 16 8 17 9 18 10 8 11 7 12
REMARK SMILES IDX 6 13 5 14 4 15 3 16 2 17 1 18
REMARK H PARENT
REMARK Flexibility Score: inf
ROOT
ATOM      1  C   UNL     1      15.059  36.048  48.502  1.00  0.00     0.000 C 
ENDROOT
BRANCH   1   2
ATOM      2  C   UNL     1      15.264  35.208  49.779  1.00  0.00     0.000 C 
BRANCH   2   3
ATOM      3  C   UNL     1      15.118  33.686  49.595  1.00  0.00     0.000 C 
BRANCH   3   4
ATOM      4  C   UNL     1      15.601  32.888  50.818  1.00  0.00     0.000 C 
BRANCH   4   5
ATOM      5  C   UNL     1      15.524  31.364  50.608  1.00  0.00     0.000 C 
BRANCH   5   6
ATOM      6  C   UNL     1      14.133  30.736  50.832  1.00  0.00     0.006 C 
BRANCH   6   7
ATOM      7  C   UNL     1      13.568  29.985  49.617  1.00  0.00     0.053 C 
BRANCH   7   8
ATOM      8  C   UNL     1      13.194  28.574  49.952  1.00  0.00     0.041 C 
ATOM      9  O   UNL     1      13.567  28.061  51.041  1.00  0.00    -0.550 OA
ATOM     10  O   UNL     1      12.405  27.836  49.079  1.00  0.00    -0.550 OA
ENDBRANCH   7   8
ENDBRANCH   6   7
ENDBRANCH   5   6
ENDBRANCH   4   5
ENDBRANCH   3   4
ENDBRANCH   2   3
ENDBRANCH   1   2
BRANCH   1  11
ATOM     11  C   UNL     1      13.602  36.462  48.218  1.00  0.00     0.000 C 
BRANCH  11  12
ATOM     12  C   UNL     1      13.446  37.676  47.281  1.00  0.00    -0.000 C 
BRANCH  12  13
ATOM     13  C   UNL     1      14.492  38.793  47.476  1.00  0.00    -0.000 C 
BRANCH  13  14
ATOM     14  C   UNL     1      15.514  38.942  46.333  1.00  0.00    -0.000 C 
BRANCH  14  15
ATOM     15  C   UNL     1      16.968  38.998  46.834  1.00  0.00    -0.000 C 
BRANCH  15  16
ATOM     16  C   UNL     1      17.785  37.755  46.439  1.00  0.00    -0.000 C 
BRANCH  16  17
ATOM     17  C   UNL     1      19.312  37.913  46.557  1.00  0.00    -0.003 C 
ATOM     18  C   UNL     1      19.733  39.288  47.071  1.00  0.00     0.004 C 
ENDBRANCH  16  17
ENDBRANCH  15  16
ENDBRANCH  14  15
ENDBRANCH  13  14
ENDBRANCH  12  13
ENDBRANCH  11  12
ENDBRANCH   1  11
TORSDOF 14
ENDMDL
MODEL 4
REMARK VINA RESULT:     7.003      4.180      7.006
REMARK INTER + INTRA:          13.497
REMARK INTER:                  14.193
REMARK INTRA:                  -0.695
REMARK UNBOUND:                 0.763
REMARK SMILES CCCCCCCCCCCCCCCC(=O)[O-]
REMARK SMILES IDX 9 1 10 2 11 3 12 4 13 5 14 6 15 7 16 8 17 9 18 10 8 11 7 12
REMARK SMILES IDX 6 13 5 14 4 15 3 16 2 17 1 18
REMARK H PARENT
REMARK Flexibility Score: inf
ROOT
ATOM      1  C   UNL     1      14.891  36.092  48.314  1.00  0.00     0.000 C 
ENDROOT
BRANCH   1   2
ATOM      2  C   UNL     1      13.476  36.689  48.165  1.00  0.00     0.000 C 
BRANCH   2   3
ATOM      3  C   UNL     1      13.320  37.744  47.055  1.00  0.00     0.000 C 
BRANCH   3   4
ATOM      4  C   UNL     1      14.185  38.993  47.292  1.00  0.00     0.000 C 
BRANCH   4   5
ATOM      5  C   UNL     1      15.397  39.072  46.344  1.00  0.00     0.000 C 
BRANCH   5   6
ATOM      6  C   UNL     1      16.773  38.890  47.016  1.00  0.00     0.006 C 
BRANCH   6   7
ATOM      7  C   UNL     1      17.709  37.904  46.298  1.00  0.00     0.053 C 
BRANCH   7   8
ATOM      8  C   UNL     1      19.137  38.079  46.717  1.00  0.00     0.041 C 
ATOM      9  O   UNL     1      19.917  37.091  46.734  1.00  0.00    -0.550 OA
ATOM     10  O   UNL     1      19.614  39.340  47.054  1.00  0.00    -0.550 OA
ENDBRANCH   7   8
ENDBRANCH   6   7
ENDBRANCH   5   6
ENDBRANCH   4   5
ENDBRANCH   3   4
ENDBRANCH   2   3
ENDBRANCH   1   2
BRANCH   1  11
ATOM     11  C   UNL     1      15.147  35.338  49.634  1.00  0.00     0.000 C 
BRANCH  11  12
ATOM     12  C   UNL     1      15.189  33.803  49.504  1.00  0.00    -0.000 C 
BRANCH  12  13
ATOM     13  C   UNL     1      15.558  33.047  50.797  1.00  0.00    -0.000 C 
BRANCH  13  14
ATOM     14  C   UNL     1      15.731  31.524  50.642  1.00  0.00    -0.000 C 
BRANCH  14  15
ATOM     15  C   UNL     1      14.494  30.732  51.101  1.00  0.00    -0.000 C 
BRANCH  15  16
ATOM     16  C   UNL     1      13.725  30.093  49.931  1.00  0.00    -0.000 C 
BRANCH  16  17
ATOM     17  C   UNL     1      13.394  28.600  50.106  1.00  0.00    -0.003 C 
ATOM     18  C   UNL     1      12.590  28.023  48.942  1.00  0.00     0.004 C 
ENDBRANCH  16  17
ENDBRANCH  15  16
ENDBRANCH  14  15
ENDBRANCH  13  14
ENDBRANCH  12  13
ENDBRANCH  11  12
ENDBRANCH   1  11
TORSDOF 14
ENDMDL
MODEL 5
REMARK VINA RESULT:     8.905     12.384     15.468
REMARK INTER + INTRA:          16.957
REMARK INTER:                  17.844
REMARK INTRA:                  -0.887
REMARK UNBOUND:                 0.763
REMARK SMILES CCCCCCCCCCCCCCCC(=O)[O-]
REMARK SMILES IDX 9 1 10 2 11 3 12 4 13 5 14 6 15 7 16 8 17 9 18 10 8 11 7 12
REMARK SMILES IDX 6 13 5 14 4 15 3 16 2 17 1 18
REMARK H PARENT
REMARK Flexibility Score: inf
ROOT
ATOM      1  C   UNL     1      15.491  24.663  51.570  1.00  0.00     0.000 C 
ENDROOT
BRANCH   1   2
ATOM      2  C   UNL     1      15.299  23.576  50.492  1.00  0.00     0.000 C 
BRANCH   2   3
ATOM      3  C   UNL     1      16.061  22.262  50.741  1.00  0.00     0.000 C 
BRANCH   3   4
ATOM      4  C   UNL     1      15.383  21.367  51.791  1.00  0.00     0.000 C 
BRANCH   4   5
ATOM      5  C   UNL     1      16.091  20.010  51.970  1.00  0.00     0.000 C 
BRANCH   5   6
ATOM      6  C   UNL     1      17.453  19.877  51.258  1.00  0.00     0.006 C 
BRANCH   6   7
ATOM      7  C   UNL     1      18.668  19.880  52.199  1.00  0.00     0.053 C 
BRANCH   7   8
ATOM      8  C   UNL     1      19.945  20.159  51.467  1.00  0.00     0.041 C 
ATOM      9  O   UNL     1      20.996  20.427  52.106  1.00  0.00    -0.550 OA
ATOM     10  O   UNL     1      19.981  20.088  50.080  1.00  0.00    -0.550 OA
ENDBRANCH   7   8
ENDBRANCH   6   7
ENDBRANCH   5   6
ENDBRANCH   4   5
ENDBRANCH   3   4
ENDBRANCH   2   3
ENDBRANCH   1   2
BRANCH   1  11
ATOM     11  C   UNL     1      14.229  25.483  51.904  1.00  0.00     0.000 C 
BRANCH  11  12
ATOM     12  C   UNL     1      14.406  27.011  51.804  1.00  0.00    -0.000 C 
BRANCH  12  13
ATOM     13  C   UNL     1      13.319  27.843  52.515  1.00  0.00    -0.000 C 
BRANCH  13  14
ATOM     14  C   UNL     1      13.283  29.336  52.139  1.00  0.00    -0.000 C 
BRANCH  14  15
ATOM     15  C   UNL     1      13.987  29.634  50.803  1.00  0.00    -0.000 C 
BRANCH  15  16
ATOM     16  C   UNL     1      13.014  29.679  49.611  1.00  0.00    -0.000 C 
BRANCH  16  17
ATOM     17  C   UNL     1      13.060  28.450  48.685  1.00  0.00    -0.003 C 
ATOM     18  C   UNL     1      11.761  27.647  48.690  1.00  0.00     0.004 C 
ENDBRANCH  16  17
ENDBRANCH  15  16
ENDBRANCH  14  15
ENDBRANCH  13  14
ENDBRANCH  12  13
ENDBRANCH  11  12
ENDBRANCH   1  11
TORSDOF 14
ENDMDL
MODEL 6
REMARK VINA RESULT:     9.361     12.494     14.653
REMARK INTER + INTRA:          17.786
REMARK INTER:                  17.492
REMARK INTRA:                   0.294
REMARK UNBOUND:                 0.763
REMARK SMILES CCCCCCCCCCCCCCCC(=O)[O-]
REMARK SMILES IDX 9 1 10 2 11 3 12 4 13 5 14 6 15 7 16 8 17 9 18 10 8 11 7 12
REMARK SMILES IDX 6 13 5 14 4 15 3 16 2 17 1 18
REMARK H PARENT
REMARK Flexibility Score: inf
ROOT
ATOM      1  C   UNL     1      15.534  22.614  50.715  1.00  0.00     0.000 C 
ENDROOT
BRANCH   1   2
ATOM      2  C   UNL     1      15.689  24.044  51.273  1.00  0.00     0.000 C 
BRANCH   2   3
ATOM      3  C   UNL     1      14.469  24.962  51.078  1.00  0.00     0.000 C 
BRANCH   3   4
ATOM      4  C   UNL     1      14.712  26.394  51.581  1.00  0.00     0.000 C 
BRANCH   4   5
ATOM      5  C   UNL     1      13.438  27.261  51.565  1.00  0.00     0.000 C 
BRANCH   5   6
ATOM      6  C   UNL     1      13.659  28.752  51.239  1.00  0.00     0.006 C 
BRANCH   6   7
ATOM      7  C   UNL     1      13.174  29.180  49.844  1.00  0.00     0.053 C 
BRANCH   7   8
ATOM      8  C   UNL     1      12.718  28.011  49.026  1.00  0.00     0.041 C 
ATOM      9  O   UNL     1      13.556  27.186  48.578  1.00  0.00    -0.550 OA
ATOM     10  O   UNL     1      11.363  27.815  48.788  1.00  0.00    -0.550 OA
ENDBRANCH   7   8
ENDBRANCH   6   7
ENDBRANCH   5   6
ENDBRANCH   4   5
ENDBRANCH   3   4
ENDBRANCH   2   3
ENDBRANCH   1   2
BRANCH   1  11
ATOM     11  C   UNL     1      14.879  21.604  51.676  1.00  0.00     0.000 C 
BRANCH  11  12
ATOM     12  C   UNL     1      15.518  20.202  51.676  1.00  0.00    -0.000 C 
BRANCH  12  13
ATOM     13  C   UNL     1      16.809  20.071  52.510  1.00  0.00    -0.000 C 
BRANCH  13  14
ATOM     14  C   UNL     1      18.104  19.898  51.693  1.00  0.00    -0.000 C 
BRANCH  14  15
ATOM     15  C   UNL     1      17.855  19.875  50.175  1.00  0.00    -0.000 C 
BRANCH  15  16
ATOM     16  C   UNL     1      18.993  20.531  49.372  1.00  0.00    -0.000 C 
BRANCH  16  17
ATOM     17  C   UNL     1      20.410  20.054  49.740  1.00  0.00    -0.003 C 
ATOM     18  C   UNL     1      20.825  20.448  51.156  1.00  0.00     0.004 C 
ENDBRANCH  16  17
ENDBRANCH  15  16
ENDBRANCH  14  15
ENDBRANCH  13  14
ENDBRANCH  12  13
ENDBRANCH  11  12
ENDBRANCH   1  11
TORSDOF 14
ENDMDL
