MODEL 1
REMARK VINA RESULT:    -4.732      0.000      0.000
REMARK INTER + INTRA:         -13.014
REMARK INTER:                 -10.817
REMARK INTRA:                  -2.197
REMARK UNBOUND:                -2.197
REMARK SMILES CCCCCCCCCCCCCCCCCCCCCCCC(=O)[O-]
REMARK SMILES IDX 13 1 14 2 15 3 16 4 17 5 18 6 19 7 20 8 21 9 22 10 23 11
REMARK SMILES IDX 24 12 25 13 26 14 12 15 11 16 10 17 9 18 8 19 7 20 6 21 5 22
REMARK SMILES IDX 4 23 3 24 2 25 1 26
REMARK H PARENT
REMARK Flexibility Score: inf
ROOT
ATOM      1  C   UNL     1      -4.018 -16.801   3.960  1.00  0.00     0.000 C 
ENDROOT
BRANCH   1   2
ATOM      2  C   UNL     1      -2.479 -16.829   3.907  1.00  0.00     0.000 C 
BRANCH   2   3
ATOM      3  C   UNL     1      -1.869 -18.068   3.222  1.00  0.00     0.000 C 
BRANCH   3   4
ATOM      4  C   UNL     1      -1.385 -19.176   4.178  1.00  0.00     0.000 C 
BRANCH   4   5
ATOM      5  C   UNL     1      -1.663 -18.921   5.673  1.00  0.00     0.000 C 
BRANCH   5   6
ATOM      6  C   UNL     1      -2.605 -19.937   6.339  1.00  0.00     0.000 C 
BRANCH   6   7
ATOM      7  C   UNL     1      -4.051 -19.849   5.818  1.00  0.00     0.000 C 
BRANCH   7   8
ATOM      8  C   UNL     1      -5.020 -19.307   6.892  1.00  0.00     0.000 C 
BRANCH   8   9
ATOM      9  C   UNL     1      -6.501 -19.366   6.473  1.00  0.00     0.000 C 
BRANCH   9  10
ATOM     10  C   UNL     1      -6.779 -20.404   5.380  1.00  0.00     0.006 C 
BRANCH  10  11
ATOM     11  C   UNL     1      -7.166 -19.727   4.058  1.00  0.00     0.053 C 
BRANCH  11  12
ATOM     12  C   UNL     1      -8.650 -19.535   3.965  1.00  0.00     0.041 C 
ATOM     13  O   UNL     1      -9.132 -18.390   3.748  1.00  0.00    -0.550 OA
ATOM     14  O   UNL     1      -9.504 -20.618   4.130  1.00  0.00    -0.550 OA
ENDBRANCH  11  12
ENDBRANCH  10  11
ENDBRANCH   9  10
ENDBRANCH   8   9
ENDBRANCH   7   8
ENDBRANCH   6   7
ENDBRANCH   5   6
ENDBRANCH   4   5
ENDBRANCH   3   4
ENDBRANCH   2   3
ENDBRANCH   1   2
BRANCH   1  15
ATOM     15  C   UNL     1      -4.612 -16.064   5.174  1.00  0.00     0.000 C 
BRANCH  15  16
ATOM     16  C   UNL     1      -6.150 -15.926   5.129  1.00  0.00     0.000 C 
BRANCH  16  17
ATOM     17  C   UNL     1      -6.664 -14.790   6.027  1.00  0.00     0.000 C 
BRANCH  17  18
ATOM     18  C   UNL     1      -7.379 -13.688   5.229  1.00  0.00    -0.000 C 
BRANCH  18  19
ATOM     19  C   UNL     1      -8.878 -13.974   4.987  1.00  0.00    -0.000 C 
BRANCH  19  20
ATOM     20  C   UNL     1      -9.818 -12.919   5.604  1.00  0.00    -0.000 C 
BRANCH  20  21
ATOM     21  C   UNL     1      -9.302 -12.271   6.905  1.00  0.00    -0.000 C 
BRANCH  21  22
ATOM     22  C   UNL     1      -9.903 -10.879   7.165  1.00  0.00    -0.000 C 
BRANCH  22  23
ATOM     23  C   UNL     1     -11.227 -10.705   6.405  1.00  0.00    -0.000 C 
BRANCH  23  24
ATOM     24  C   UNL     1     -12.428 -10.468   7.341  1.00  0.00    -0.000 C 
BRANCH  24  25
ATOM     25  C   UNL     1     -13.782 -10.300   6.628  1.00  0.00    -0.003 C 
ATOM     26  C   UNL     1     -14.944 -10.079   7.596  1.00  0.00     0.004 C 
ENDBRANCH  24  25
ENDBRANCH  23  24
ENDBRANCH  22  23
ENDBRANCH  21  22
ENDBRANCH  20  21
ENDBRANCH  19  20
ENDBRANCH  18  19
ENDBRANCH  17  18
ENDBRANCH  16  17
ENDBRANCH  15  16
ENDBRANCH   1  15
TORSDOF 22
ENDMDL
MODEL 2
REMARK VINA RESULT:    -4.631      3.263      7.086
REMARK INTER + INTRA:         -12.783
REMARK INTER:                 -10.258
REMARK INTRA:                  -2.524
REMARK UNBOUND:                -2.197
REMARK SMILES CCCCCCCCCCCCCCCCCCCCCCCC(=O)[O-]
REMARK SMILES IDX 13 1 14 2 15 3 16 4 17 5 18 6 19 7 20 8 21 9 22 10 23 11
REMARK SMILES IDX 24 12 25 13 26 14 12 15 11 16 10 17 9 18 8 19 7 20 6 21 5 22
REMARK SMILES IDX 4 23 3 24 2 25 1 26
REMARK H PARENT
REMARK Flexibility Score: inf
ROOT
ATOM      1  C   UNL     1     -10.652 -12.064   6.592  1.00  0.00     0.000 C 
ENDROOT
BRANCH   1   2
ATOM      2  C   UNL     1      -9.865 -12.938   5.598  1.00  0.00     0.000 C 
BRANCH   2   3
ATOM      3  C   UNL     1      -8.355 -13.060   5.883  1.00  0.00     0.000 C 
BRANCH   3   4
ATOM      4  C   UNL     1      -7.627 -14.175   5.105  1.00  0.00     0.000 C 
BRANCH   4   5
ATOM      5  C   UNL     1      -6.489 -14.875   5.874  1.00  0.00     0.000 C 
BRANCH   5   6
ATOM      6  C   UNL     1      -6.495 -16.410   5.785  1.00  0.00     0.000 C 
BRANCH   6   7
ATOM      7  C   UNL     1      -5.526 -16.955   4.721  1.00  0.00     0.000 C 
BRANCH   7   8
ATOM      8  C   UNL     1      -4.209 -16.150   4.671  1.00  0.00     0.000 C 
BRANCH   8   9
ATOM      9  C   UNL     1      -2.995 -16.981   4.217  1.00  0.00     0.000 C 
BRANCH   9  10
ATOM     10  C   UNL     1      -1.736 -16.722   5.053  1.00  0.00     0.006 C 
BRANCH  10  11
ATOM     11  C   UNL     1      -1.630 -15.243   5.452  1.00  0.00     0.053 C 
BRANCH  11  12
ATOM     12  C   UNL     1      -1.748 -15.076   6.937  1.00  0.00     0.041 C 
ATOM     13  O   UNL     1      -0.875 -15.567   7.704  1.00  0.00    -0.550 OA
ATOM     14  O   UNL     1      -2.827 -14.388   7.477  1.00  0.00    -0.550 OA
ENDBRANCH  11  12
ENDBRANCH  10  11
ENDBRANCH   9  10
ENDBRANCH   8   9
ENDBRANCH   7   8
ENDBRANCH   6   7
ENDBRANCH   5   6
ENDBRANCH   4   5
ENDBRANCH   3   4
ENDBRANCH   2   3
ENDBRANCH   1   2
BRANCH   1  15
ATOM     15  C   UNL     1     -10.676 -10.562   6.257  1.00  0.00     0.000 C 
BRANCH  15  16
ATOM     16  C   UNL     1     -12.100  -9.980   6.109  1.00  0.00     0.000 C 
BRANCH  16  17
ATOM     17  C   UNL     1     -13.142 -10.764   6.921  1.00  0.00     0.000 C 
BRANCH  17  18
ATOM     18  C   UNL     1     -13.940  -9.864   7.879  1.00  0.00    -0.000 C 
BRANCH  18  19
ATOM     19  C   UNL     1     -13.532 -10.025   9.361  1.00  0.00    -0.000 C 
BRANCH  19  20
ATOM     20  C   UNL     1     -12.140  -9.449   9.687  1.00  0.00    -0.000 C 
BRANCH  20  21
ATOM     21  C   UNL     1     -11.058 -10.502  10.002  1.00  0.00    -0.000 C 
BRANCH  21  22
ATOM     22  C   UNL     1      -9.656  -9.895  10.173  1.00  0.00    -0.000 C 
BRANCH  22  23
ATOM     23  C   UNL     1      -8.608 -10.712   9.399  1.00  0.00    -0.000 C 
BRANCH  23  24
ATOM     24  C   UNL     1      -8.810 -12.232   9.541  1.00  0.00    -0.000 C 
BRANCH  24  25
ATOM     25  C   UNL     1      -7.513 -13.063   9.525  1.00  0.00    -0.003 C 
ATOM     26  C   UNL     1      -7.767 -14.569   9.593  1.00  0.00     0.004 C 
ENDBRANCH  24  25
ENDBRANCH  23  24
ENDBRANCH  22  23
ENDBRANCH  21  22
ENDBRANCH  20  21
ENDBRANCH  19  20
ENDBRANCH  18  19
ENDBRANCH  17  18
ENDBRANCH  16  17
ENDBRANCH  15  16
ENDBRANCH   1  15
TORSDOF 22
ENDMDL
MODEL 3
REMARK VINA RESULT:    -4.559      1.048      1.681
REMARK INTER + INTRA:         -12.620
REMARK INTER:                  -9.984
REMARK INTRA:                  -2.636
REMARK UNBOUND:                -2.197
REMARK SMILES CCCCCCCCCCCCCCCCCCCCCCCC(=O)[O-]
REMARK SMILES IDX 13 1 14 2 15 3 16 4 17 5 18 6 19 7 20 8 21 9 22 10 23 11
REMARK SMILES IDX 24 12 25 13 26 14 12 15 11 16 10 17 9 18 8 19 7 20 6 21 5 22
REMARK SMILES IDX 4 23 3 24 2 25 1 26
REMARK H PARENT
REMARK Flexibility Score: inf
ROOT
ATOM      1  C   UNL     1      -2.586 -16.768   3.611  1.00  0.00     0.000 C 
ENDROOT
BRANCH   1   2
ATOM      2  C   UNL     1      -1.787 -18.043   3.284  1.00  0.00     0.000 C 
BRANCH   2   3
ATOM      3  C   UNL     1      -0.886 -18.563   4.422  1.00  0.00     0.000 C 
BRANCH   3   4
ATOM      4  C   UNL     1      -0.876 -17.700   5.700  1.00  0.00     0.000 C 
BRANCH   4   5
ATOM      5  C   UNL     1      -1.384 -18.406   6.972  1.00  0.00     0.000 C 
BRANCH   5   6
ATOM      6  C   UNL     1      -2.910 -18.575   7.055  1.00  0.00     0.000 C 
BRANCH   6   7
ATOM      7  C   UNL     1      -3.367 -20.029   6.836  1.00  0.00     0.000 C 
BRANCH   7   8
ATOM      8  C   UNL     1      -4.315 -20.160   5.624  1.00  0.00     0.000 C 
BRANCH   8   9
ATOM      9  C   UNL     1      -5.658 -20.832   5.962  1.00  0.00     0.000 C 
BRANCH   9  10
ATOM     10  C   UNL     1      -6.867 -19.917   5.735  1.00  0.00     0.006 C 
BRANCH  10  11
ATOM     11  C   UNL     1      -7.183 -19.775   4.240  1.00  0.00     0.053 C 
BRANCH  11  12
ATOM     12  C   UNL     1      -8.656 -19.615   4.013  1.00  0.00     0.041 C 
ATOM     13  O   UNL     1      -9.135 -18.488   3.709  1.00  0.00    -0.550 OA
ATOM     14  O   UNL     1      -9.505 -20.706   4.151  1.00  0.00    -0.550 OA
ENDBRANCH  11  12
ENDBRANCH  10  11
ENDBRANCH   9  10
ENDBRANCH   8   9
ENDBRANCH   7   8
ENDBRANCH   6   7
ENDBRANCH   5   6
ENDBRANCH   4   5
ENDBRANCH   3   4
ENDBRANCH   2   3
ENDBRANCH   1   2
BRANCH   1  15
ATOM     15  C   UNL     1      -4.073 -17.001   3.936  1.00  0.00     0.000 C 
BRANCH  15  16
ATOM     16  C   UNL     1      -4.641 -16.023   4.989  1.00  0.00     0.000 C 
BRANCH  16  17
ATOM     17  C   UNL     1      -5.843 -16.609   5.746  1.00  0.00     0.000 C 
BRANCH  17  18
ATOM     18  C   UNL     1      -7.167 -15.924   5.368  1.00  0.00    -0.000 C 
BRANCH  18  19
ATOM     19  C   UNL     1      -7.082 -14.381   5.359  1.00  0.00    -0.000 C 
BRANCH  19  20
ATOM     20  C   UNL     1      -8.403 -13.690   4.967  1.00  0.00    -0.000 C 
BRANCH  20  21
ATOM     21  C   UNL     1      -8.981 -12.738   6.035  1.00  0.00    -0.000 C 
BRANCH  21  22
ATOM     22  C   UNL     1     -10.518 -12.701   6.043  1.00  0.00    -0.000 C 
BRANCH  22  23
ATOM     23  C   UNL     1     -11.030 -11.254   5.950  1.00  0.00    -0.000 C 
BRANCH  23  24
ATOM     24  C   UNL     1     -10.472 -10.349   7.065  1.00  0.00    -0.000 C 
BRANCH  24  25
ATOM     25  C   UNL     1     -11.063 -10.606   8.464  1.00  0.00    -0.003 C 
ATOM     26  C   UNL     1     -12.477 -10.049   8.628  1.00  0.00     0.004 C 
ENDBRANCH  24  25
ENDBRANCH  23  24
ENDBRANCH  22  23
ENDBRANCH  21  22
ENDBRANCH  20  21
ENDBRANCH  19  20
ENDBRANCH  18  19
ENDBRANCH  17  18
ENDBRANCH  16  17
ENDBRANCH  15  16
ENDBRANCH   1  15
TORSDOF 22
ENDMDL
MODEL 4
REMARK VINA RESULT:    -4.553      3.815      5.003
REMARK INTER + INTRA:         -12.605
REMARK INTER:                  -9.793
REMARK INTRA:                  -2.812
REMARK UNBOUND:                -2.197
REMARK SMILES CCCCCCCCCCCCCCCCCCCCCCCC(=O)[O-]
REMARK SMILES IDX 13 1 14 2 15 3 16 4 17 5 18 6 19 7 20 8 21 9 22 10 23 11
REMARK SMILES IDX 24 12 25 13 26 14 12 15 11 16 10 17 9 18 8 19 7 20 6 21 5 22
REMARK SMILES IDX 4 23 3 24 2 25 1 26
REMARK H PARENT
REMARK Flexibility Score: inf
ROOT
ATOM      1  C   UNL     1      -4.506 -17.926   4.701  1.00  0.00     0.000 C 
ENDROOT
BRANCH   1   2
ATOM      2  C   UNL     1      -3.806 -17.085   3.618  1.00  0.00     0.000 C 
BRANCH   2   3
ATOM      3  C   UNL     1      -2.270 -17.212   3.579  1.00  0.00     0.000 C 
BRANCH   3   4
ATOM      4  C   UNL     1      -1.640 -17.943   4.782  1.00  0.00     0.000 C 
BRANCH   4   5
ATOM      5  C   UNL     1      -1.125 -17.027   5.910  1.00  0.00     0.000 C 
BRANCH   5   6
ATOM      6  C   UNL     1      -1.477 -15.539   5.749  1.00  0.00     0.000 C 
BRANCH   6   7
ATOM      7  C   UNL     1      -2.598 -15.079   6.699  1.00  0.00     0.000 C 
BRANCH   7   8
ATOM      8  C   UNL     1      -3.008 -16.190   7.690  1.00  0.00     0.000 C 
BRANCH   8   9
ATOM      9  C   UNL     1      -3.612 -15.655   9.001  1.00  0.00     0.000 C 
BRANCH   9  10
ATOM     10  C   UNL     1      -4.295 -14.292   8.841  1.00  0.00     0.006 C 
BRANCH  10  11
ATOM     11  C   UNL     1      -3.953 -13.359  10.010  1.00  0.00     0.053 C 
BRANCH  11  12
ATOM     12  C   UNL     1      -2.470 -13.260  10.205  1.00  0.00     0.041 C 
ATOM     13  O   UNL     1      -1.946 -13.619  11.295  1.00  0.00    -0.550 OA
ATOM     14  O   UNL     1      -1.666 -12.759   9.190  1.00  0.00    -0.550 OA
ENDBRANCH  11  12
ENDBRANCH  10  11
ENDBRANCH   9  10
ENDBRANCH   8   9
ENDBRANCH   7   8
ENDBRANCH   6   7
ENDBRANCH   5   6
ENDBRANCH   4   5
ENDBRANCH   3   4
ENDBRANCH   2   3
ENDBRANCH   1   2
BRANCH   1  15
ATOM     15  C   UNL     1      -5.653 -17.211   5.438  1.00  0.00     0.000 C 
BRANCH  15  16
ATOM     16  C   UNL     1      -6.028 -15.842   4.827  1.00  0.00     0.000 C 
BRANCH  16  17
ATOM     17  C   UNL     1      -6.556 -14.855   5.880  1.00  0.00     0.000 C 
BRANCH  17  18
ATOM     18  C   UNL     1      -7.277 -13.652   5.249  1.00  0.00    -0.000 C 
BRANCH  18  19
ATOM     19  C   UNL     1      -8.786 -13.890   5.017  1.00  0.00    -0.000 C 
BRANCH  19  20
ATOM     20  C   UNL     1      -9.693 -12.875   5.740  1.00  0.00    -0.000 C 
BRANCH  20  21
ATOM     21  C   UNL     1      -9.109 -12.297   7.047  1.00  0.00    -0.000 C 
BRANCH  21  22
ATOM     22  C   UNL     1      -9.896 -11.088   7.577  1.00  0.00    -0.000 C 
BRANCH  22  23
ATOM     23  C   UNL     1      -9.976  -9.979   6.515  1.00  0.00    -0.000 C 
BRANCH  23  24
ATOM     24  C   UNL     1     -11.387  -9.376   6.384  1.00  0.00    -0.000 C 
BRANCH  24  25
ATOM     25  C   UNL     1     -12.504 -10.397   6.096  1.00  0.00    -0.003 C 
ATOM     26  C   UNL     1     -13.746 -10.185   6.961  1.00  0.00     0.004 C 
ENDBRANCH  24  25
ENDBRANCH  23  24
ENDBRANCH  22  23
ENDBRANCH  21  22
ENDBRANCH  20  21
ENDBRANCH  19  20
ENDBRANCH  18  19
ENDBRANCH  17  18
ENDBRANCH  16  17
ENDBRANCH  15  16
ENDBRANCH   1  15
TORSDOF 22
ENDMDL
MODEL 5
REMARK VINA RESULT:    -4.515      1.346      2.758
REMARK INTER + INTRA:         -12.518
REMARK INTER:                 -10.076
REMARK INTRA:                  -2.442
REMARK UNBOUND:                -2.197
REMARK SMILES CCCCCCCCCCCCCCCCCCCCCCCC(=O)[O-]
REMARK SMILES IDX 13 1 14 2 15 3 16 4 17 5 18 6 19 7 20 8 21 9 22 10 23 11
REMARK SMILES IDX 24 12 25 13 26 14 12 15 11 16 10 17 9 18 8 19 7 20 6 21 5 22
REMARK SMILES IDX 4 23 3 24 2 25 1 26
REMARK H PARENT
REMARK Flexibility Score: inf
ROOT
ATOM      1  C   UNL     1      -6.519 -16.064   5.523  1.00  0.00     0.000 C 
ENDROOT
BRANCH   1   2
ATOM      2  C   UNL     1      -5.230 -16.255   4.702  1.00  0.00     0.000 C 
BRANCH   2   3
ATOM      3  C   UNL     1      -3.918 -16.037   5.481  1.00  0.00     0.000 C 
BRANCH   3   4
ATOM      4  C   UNL     1      -2.629 -16.143   4.641  1.00  0.00     0.000 C 
BRANCH   4   5
ATOM      5  C   UNL     1      -1.355 -16.492   5.436  1.00  0.00     0.000 C 
BRANCH   5   6
ATOM      6  C   UNL     1      -0.984 -17.984   5.444  1.00  0.00     0.000 C 
BRANCH   6   7
ATOM      7  C   UNL     1      -1.580 -18.759   4.254  1.00  0.00     0.000 C 
BRANCH   7   8
ATOM      8  C   UNL     1      -2.434 -19.960   4.716  1.00  0.00     0.000 C 
BRANCH   8   9
ATOM      9  C   UNL     1      -3.924 -19.622   4.902  1.00  0.00     0.000 C 
BRANCH   9  10
ATOM     10  C   UNL     1      -4.541 -20.271   6.146  1.00  0.00     0.006 C 
BRANCH  10  11
ATOM     11  C   UNL     1      -5.672 -19.407   6.721  1.00  0.00     0.053 C 
BRANCH  11  12
ATOM     12  C   UNL     1      -7.014 -19.925   6.299  1.00  0.00     0.041 C 
ATOM     13  O   UNL     1      -7.632 -19.384   5.341  1.00  0.00    -0.550 OA
ATOM     14  O   UNL     1      -7.590 -20.996   6.970  1.00  0.00    -0.550 OA
ENDBRANCH  11  12
ENDBRANCH  10  11
ENDBRANCH   9  10
ENDBRANCH   8   9
ENDBRANCH   7   8
ENDBRANCH   6   7
ENDBRANCH   5   6
ENDBRANCH   4   5
ENDBRANCH   3   4
ENDBRANCH   2   3
ENDBRANCH   1   2
BRANCH   1  15
ATOM     15  C   UNL     1      -6.695 -14.664   6.138  1.00  0.00     0.000 C 
BRANCH  15  16
ATOM     16  C   UNL     1      -7.396 -13.655   5.202  1.00  0.00     0.000 C 
BRANCH  16  17
ATOM     17  C   UNL     1      -8.896 -13.947   5.043  1.00  0.00     0.000 C 
BRANCH  17  18
ATOM     18  C   UNL     1      -9.777 -12.844   5.652  1.00  0.00    -0.000 C 
BRANCH  18  19
ATOM     19  C   UNL     1      -9.164 -12.188   6.910  1.00  0.00    -0.000 C 
BRANCH  19  20
ATOM     20  C   UNL     1      -9.016 -10.657   6.802  1.00  0.00    -0.000 C 
BRANCH  20  21
ATOM     21  C   UNL     1      -8.937  -9.915   8.153  1.00  0.00    -0.000 C 
BRANCH  21  22
ATOM     22  C   UNL     1     -10.087 -10.274   9.107  1.00  0.00    -0.000 C 
BRANCH  22  23
ATOM     23  C   UNL     1     -11.325  -9.407   8.821  1.00  0.00    -0.000 C 
BRANCH  23  24
ATOM     24  C   UNL     1     -12.634 -10.217   8.813  1.00  0.00    -0.000 C 
BRANCH  24  25
ATOM     25  C   UNL     1     -13.475 -10.078   7.531  1.00  0.00    -0.003 C 
ATOM     26  C   UNL     1     -12.667 -10.328   6.256  1.00  0.00     0.004 C 
ENDBRANCH  24  25
ENDBRANCH  23  24
ENDBRANCH  22  23
ENDBRANCH  21  22
ENDBRANCH  20  21
ENDBRANCH  19  20
ENDBRANCH  18  19
ENDBRANCH  17  18
ENDBRANCH  16  17
ENDBRANCH  15  16
ENDBRANCH   1  15
TORSDOF 22
ENDMDL
MODEL 6
REMARK VINA RESULT:    -4.504      3.080      7.647
REMARK INTER + INTRA:         -12.493
REMARK INTER:                  -9.720
REMARK INTRA:                  -2.774
REMARK UNBOUND:                -2.197
REMARK SMILES CCCCCCCCCCCCCCCCCCCCCCCC(=O)[O-]
REMARK SMILES IDX 13 1 14 2 15 3 16 4 17 5 18 6 19 7 20 8 21 9 22 10 23 11
REMARK SMILES IDX 24 12 25 13 26 14 12 15 11 16 10 17 9 18 8 19 7 20 6 21 5 22
REMARK SMILES IDX 4 23 3 24 2 25 1 26
REMARK H PARENT
REMARK Flexibility Score: inf
ROOT
ATOM      1  C   UNL     1      -1.856 -17.825   7.385  1.00  0.00     0.000 C 
ENDROOT
BRANCH   1   2
ATOM      2  C   UNL     1      -1.360 -17.310   6.022  1.00  0.00     0.000 C 
BRANCH   2   3
ATOM      3  C   UNL     1      -2.282 -16.284   5.333  1.00  0.00     0.000 C 
BRANCH   3   4
ATOM      4  C   UNL     1      -3.045 -16.809   4.100  1.00  0.00     0.000 C 
BRANCH   4   5
ATOM      5  C   UNL     1      -4.580 -16.694   4.182  1.00  0.00     0.000 C 
BRANCH   5   6
ATOM      6  C   UNL     1      -5.107 -15.868   5.367  1.00  0.00     0.000 C 
BRANCH   6   7
ATOM      7  C   UNL     1      -6.621 -15.599   5.288  1.00  0.00     0.000 C 
BRANCH   7   8
ATOM      8  C   UNL     1      -6.955 -14.108   5.513  1.00  0.00     0.000 C 
BRANCH   8   9
ATOM      9  C   UNL     1      -8.422 -13.753   5.210  1.00  0.00     0.000 C 
BRANCH   9  10
ATOM     10  C   UNL     1      -9.077 -12.903   6.305  1.00  0.00     0.006 C 
BRANCH  10  11
ATOM     11  C   UNL     1     -10.518 -12.531   5.930  1.00  0.00     0.053 C 
BRANCH  11  12
ATOM     12  C   UNL     1     -10.874 -11.168   6.444  1.00  0.00     0.041 C 
ATOM     13  O   UNL     1     -11.479 -10.346   5.703  1.00  0.00    -0.550 OA
ATOM     14  O   UNL     1     -10.528 -10.799   7.738  1.00  0.00    -0.550 OA
ENDBRANCH  11  12
ENDBRANCH  10  11
ENDBRANCH   9  10
ENDBRANCH   8   9
ENDBRANCH   7   8
ENDBRANCH   6   7
ENDBRANCH   5   6
ENDBRANCH   4   5
ENDBRANCH   3   4
ENDBRANCH   2   3
ENDBRANCH   1   2
BRANCH   1  15
ATOM     15  C   UNL     1      -3.374 -18.067   7.474  1.00  0.00     0.000 C 
BRANCH  15  16
ATOM     16  C   UNL     1      -3.792 -19.523   7.171  1.00  0.00     0.000 C 
BRANCH  16  17
ATOM     17  C   UNL     1      -5.130 -19.605   6.420  1.00  0.00     0.000 C 
BRANCH  17  18
ATOM     18  C   UNL     1      -6.339 -19.589   7.369  1.00  0.00    -0.000 C 
BRANCH  18  19
ATOM     19  C   UNL     1      -7.160 -20.899   7.344  1.00  0.00    -0.000 C 
BRANCH  19  20
ATOM     20  C   UNL     1      -6.592 -21.969   6.391  1.00  0.00    -0.000 C 
BRANCH  20  21
ATOM     21  C   UNL     1      -7.634 -22.645   5.477  1.00  0.00    -0.000 C 
BRANCH  21  22
ATOM     22  C   UNL     1      -8.928 -21.827   5.329  1.00  0.00    -0.000 C 
BRANCH  22  23
ATOM     23  C   UNL     1      -8.989 -21.143   3.954  1.00  0.00    -0.000 C 
BRANCH  23  24
ATOM     24  C   UNL     1      -7.840 -20.142   3.732  1.00  0.00    -0.000 C 
BRANCH  24  25
ATOM     25  C   UNL     1      -8.129 -18.708   4.212  1.00  0.00    -0.003 C 
ATOM     26  C   UNL     1      -9.456 -18.157   3.689  1.00  0.00     0.004 C 
ENDBRANCH  24  25
ENDBRANCH  23  24
ENDBRANCH  22  23
ENDBRANCH  21  22
ENDBRANCH  20  21
ENDBRANCH  19  20
ENDBRANCH  18  19
ENDBRANCH  17  18
ENDBRANCH  16  17
ENDBRANCH  15  16
ENDBRANCH   1  15
TORSDOF 22
ENDMDL
MODEL 7
REMARK VINA RESULT:    -4.466     10.771     12.772
REMARK INTER + INTRA:         -12.407
REMARK INTER:                  -9.397
REMARK INTRA:                  -3.010
REMARK UNBOUND:                -2.197
REMARK SMILES CCCCCCCCCCCCCCCCCCCCCCCC(=O)[O-]
REMARK SMILES IDX 13 1 14 2 15 3 16 4 17 5 18 6 19 7 20 8 21 9 22 10 23 11
REMARK SMILES IDX 24 12 25 13 26 14 12 15 11 16 10 17 9 18 8 19 7 20 6 21 5 22
REMARK SMILES IDX 4 23 3 24 2 25 1 26
REMARK H PARENT
REMARK Flexibility Score: inf
ROOT
ATOM      1  C   UNL     1      -7.936 -17.293  16.810  1.00  0.00     0.000 C 
ENDROOT
BRANCH   1   2
ATOM      2  C   UNL     1      -6.540 -17.938  16.885  1.00  0.00     0.000 C 
BRANCH   2   3
ATOM      3  C   UNL     1      -6.201 -18.905  15.732  1.00  0.00     0.000 C 
BRANCH   3   4
ATOM      4  C   UNL     1      -5.936 -20.364  16.153  1.00  0.00     0.000 C 
BRANCH   4   5
ATOM      5  C   UNL     1      -7.196 -21.233  16.336  1.00  0.00     0.000 C 
BRANCH   5   6
ATOM      6  C   UNL     1      -7.070 -22.675  15.818  1.00  0.00     0.000 C 
BRANCH   6   7
ATOM      7  C   UNL     1      -7.221 -22.781  14.290  1.00  0.00     0.000 C 
BRANCH   7   8
ATOM      8  C   UNL     1      -6.058 -23.568  13.648  1.00  0.00     0.000 C 
BRANCH   8   9
ATOM      9  C   UNL     1      -4.673 -23.178  14.196  1.00  0.00     0.000 C 
BRANCH   9  10
ATOM     10  C   UNL     1      -3.890 -24.368  14.764  1.00  0.00     0.006 C 
BRANCH  10  11
ATOM     11  C   UNL     1      -4.654 -25.683  14.561  1.00  0.00     0.053 C 
BRANCH  11  12
ATOM     12  C   UNL     1      -3.732 -26.862  14.653  1.00  0.00     0.041 C 
ATOM     13  O   UNL     1      -4.176 -28.031  14.490  1.00  0.00    -0.550 OA
ATOM     14  O   UNL     1      -2.385 -26.672  14.934  1.00  0.00    -0.550 OA
ENDBRANCH  11  12
ENDBRANCH  10  11
ENDBRANCH   9  10
ENDBRANCH   8   9
ENDBRANCH   7   8
ENDBRANCH   6   7
ENDBRANCH   5   6
ENDBRANCH   4   5
ENDBRANCH   3   4
ENDBRANCH   2   3
ENDBRANCH   1   2
BRANCH   1  15
ATOM     15  C   UNL     1      -8.939 -17.792  17.866  1.00  0.00     0.000 C 
BRANCH  15  16
ATOM     16  C   UNL     1     -10.159 -16.862  18.056  1.00  0.00     0.000 C 
BRANCH  16  17
ATOM     17  C   UNL     1     -10.984 -17.223  19.301  1.00  0.00     0.000 C 
BRANCH  17  18
ATOM     18  C   UNL     1     -12.200 -18.102  18.966  1.00  0.00    -0.000 C 
BRANCH  18  19
ATOM     19  C   UNL     1     -12.044 -19.571  19.423  1.00  0.00    -0.000 C 
BRANCH  19  20
ATOM     20  C   UNL     1     -11.417 -20.490  18.356  1.00  0.00    -0.000 C 
BRANCH  20  21
ATOM     21  C   UNL     1     -11.769 -20.127  16.898  1.00  0.00    -0.000 C 
BRANCH  21  22
ATOM     22  C   UNL     1     -10.940 -20.907  15.865  1.00  0.00    -0.000 C 
BRANCH  22  23
ATOM     23  C   UNL     1     -10.882 -20.152  14.528  1.00  0.00    -0.000 C 
BRANCH  23  24
ATOM     24  C   UNL     1      -9.553 -19.402  14.321  1.00  0.00    -0.000 C 
BRANCH  24  25
ATOM     25  C   UNL     1      -9.544 -18.414  13.140  1.00  0.00    -0.003 C 
ATOM     26  C   UNL     1     -10.944 -18.096  12.615  1.00  0.00     0.004 C 
ENDBRANCH  24  25
ENDBRANCH  23  24
ENDBRANCH  22  23
ENDBRANCH  21  22
ENDBRANCH  20  21
ENDBRANCH  19  20
ENDBRANCH  18  19
ENDBRANCH  17  18
ENDBRANCH  16  17
ENDBRANCH  15  16
ENDBRANCH   1  15
TORSDOF 22
ENDMDL
MODEL 8
REMARK VINA RESULT:    -4.451      3.457      9.210
REMARK INTER + INTRA:         -12.373
REMARK INTER:                 -10.816
REMARK INTRA:                  -1.557
REMARK UNBOUND:                -2.197
REMARK SMILES CCCCCCCCCCCCCCCCCCCCCCCC(=O)[O-]
REMARK SMILES IDX 13 1 14 2 15 3 16 4 17 5 18 6 19 7 20 8 21 9 22 10 23 11
REMARK SMILES IDX 24 12 25 13 26 14 12 15 11 16 10 17 9 18 8 19 7 20 6 21 5 22
REMARK SMILES IDX 4 23 3 24 2 25 1 26
REMARK H PARENT
REMARK Flexibility Score: inf
ROOT
ATOM      1  C   UNL     1      -4.672 -16.829   4.564  1.00  0.00     0.000 C 
ENDROOT
BRANCH   1   2
ATOM      2  C   UNL     1      -5.238 -15.636   5.356  1.00  0.00     0.000 C 
BRANCH   2   3
ATOM      3  C   UNL     1      -6.749 -15.386   5.176  1.00  0.00     0.000 C 
BRANCH   3   4
ATOM      4  C   UNL     1      -7.211 -13.937   5.428  1.00  0.00     0.000 C 
BRANCH   4   5
ATOM      5  C   UNL     1      -8.709 -13.673   5.182  1.00  0.00     0.000 C 
BRANCH   5   6
ATOM      6  C   UNL     1      -9.464 -13.060   6.373  1.00  0.00     0.000 C 
BRANCH   6   7
ATOM      7  C   UNL     1      -9.259 -11.539   6.497  1.00  0.00     0.000 C 
BRANCH   7   8
ATOM      8  C   UNL     1     -10.601 -10.776   6.538  1.00  0.00     0.000 C 
BRANCH   8   9
ATOM      9  C   UNL     1     -11.129 -10.533   7.964  1.00  0.00     0.000 C 
BRANCH   9  10
ATOM     10  C   UNL     1     -12.399  -9.675   8.000  1.00  0.00     0.006 C 
BRANCH  10  11
ATOM     11  C   UNL     1     -13.492 -10.263   7.099  1.00  0.00     0.053 C 
BRANCH  11  12
ATOM     12  C   UNL     1     -14.851 -10.060   7.697  1.00  0.00     0.041 C 
ATOM     13  O   UNL     1     -15.848  -9.847   6.954  1.00  0.00    -0.550 OA
ATOM     14  O   UNL     1     -15.018 -10.091   9.076  1.00  0.00    -0.550 OA
ENDBRANCH  11  12
ENDBRANCH  10  11
ENDBRANCH   9  10
ENDBRANCH   8   9
ENDBRANCH   7   8
ENDBRANCH   6   7
ENDBRANCH   5   6
ENDBRANCH   4   5
ENDBRANCH   3   4
ENDBRANCH   2   3
ENDBRANCH   1   2
BRANCH   1  15
ATOM     15  C   UNL     1      -3.292 -16.589   3.927  1.00  0.00     0.000 C 
BRANCH  15  16
ATOM     16  C   UNL     1      -2.119 -16.673   4.929  1.00  0.00     0.000 C 
BRANCH  16  17
ATOM     17  C   UNL     1      -1.285 -17.951   4.750  1.00  0.00     0.000 C 
BRANCH  17  18
ATOM     18  C   UNL     1      -2.144 -19.165   4.361  1.00  0.00    -0.000 C 
BRANCH  18  19
ATOM     19  C   UNL     1      -2.837 -19.842   5.566  1.00  0.00    -0.000 C 
BRANCH  19  20
ATOM     20  C   UNL     1      -4.352 -20.050   5.374  1.00  0.00    -0.000 C 
BRANCH  20  21
ATOM     21  C   UNL     1      -5.182 -20.017   6.674  1.00  0.00    -0.000 C 
BRANCH  21  22
ATOM     22  C   UNL     1      -6.685 -20.236   6.437  1.00  0.00    -0.000 C 
BRANCH  22  23
ATOM     23  C   UNL     1      -7.176 -19.407   5.239  1.00  0.00    -0.000 C 
BRANCH  23  24
ATOM     24  C   UNL     1      -7.969 -20.244   4.217  1.00  0.00    -0.000 C 
BRANCH  24  25
ATOM     25  C   UNL     1      -8.987 -19.448   3.379  1.00  0.00    -0.003 C 
ATOM     26  C   UNL     1      -9.154 -18.004   3.853  1.00  0.00     0.004 C 
ENDBRANCH  24  25
ENDBRANCH  23  24
ENDBRANCH  22  23
ENDBRANCH  21  22
ENDBRANCH  20  21
ENDBRANCH  19  20
ENDBRANCH  18  19
ENDBRANCH  17  18
ENDBRANCH  16  17
ENDBRANCH  15  16
ENDBRANCH   1  15
TORSDOF 22
ENDMDL
MODEL 9
REMARK VINA RESULT:    -4.406      4.283      5.256
REMARK INTER + INTRA:         -12.269
REMARK INTER:                  -8.108
REMARK INTRA:                  -4.160
REMARK UNBOUND:                -2.197
REMARK SMILES CCCCCCCCCCCCCCCCCCCCCCCC(=O)[O-]
REMARK SMILES IDX 13 1 14 2 15 3 16 4 17 5 18 6 19 7 20 8 21 9 22 10 23 11
REMARK SMILES IDX 24 12 25 13 26 14 12 15 11 16 10 17 9 18 8 19 7 20 6 21 5 22
REMARK SMILES IDX 4 23 3 24 2 25 1 26
REMARK H PARENT
REMARK Flexibility Score: inf
ROOT
ATOM      1  C   UNL     1      -2.831 -18.156   3.052  1.00  0.00     0.000 C 
ENDROOT
BRANCH   1   2
ATOM      2  C   UNL     1      -1.500 -18.929   3.004  1.00  0.00     0.000 C 
BRANCH   2   3
ATOM      3  C   UNL     1      -1.563 -20.377   3.530  1.00  0.00     0.000 C 
BRANCH   3   4
ATOM      4  C   UNL     1      -1.559 -20.520   5.065  1.00  0.00     0.000 C 
BRANCH   4   5
ATOM      5  C   UNL     1      -2.947 -20.461   5.733  1.00  0.00     0.000 C 
BRANCH   5   6
ATOM      6  C   UNL     1      -3.111 -19.359   6.792  1.00  0.00     0.000 C 
BRANCH   6   7
ATOM      7  C   UNL     1      -4.338 -19.572   7.697  1.00  0.00     0.000 C 
BRANCH   7   8
ATOM      8  C   UNL     1      -5.371 -20.524   7.056  1.00  0.00     0.000 C 
BRANCH   8   9
ATOM      9  C   UNL     1      -6.816 -20.269   7.521  1.00  0.00     0.000 C 
BRANCH   9  10
ATOM     10  C   UNL     1      -7.850 -21.132   6.788  1.00  0.00     0.006 C 
BRANCH  10  11
ATOM     11  C   UNL     1      -7.303 -21.629   5.443  1.00  0.00     0.053 C 
BRANCH  11  12
ATOM     12  C   UNL     1      -8.414 -21.875   4.467  1.00  0.00     0.041 C 
ATOM     13  O   UNL     1      -8.304 -22.778   3.593  1.00  0.00    -0.550 OA
ATOM     14  O   UNL     1      -9.565 -21.100   4.512  1.00  0.00    -0.550 OA
ENDBRANCH  11  12
ENDBRANCH  10  11
ENDBRANCH   9  10
ENDBRANCH   8   9
ENDBRANCH   7   8
ENDBRANCH   6   7
ENDBRANCH   5   6
ENDBRANCH   4   5
ENDBRANCH   3   4
ENDBRANCH   2   3
ENDBRANCH   1   2
BRANCH   1  15
ATOM     15  C   UNL     1      -2.747 -16.758   3.692  1.00  0.00     0.000 C 
BRANCH  15  16
ATOM     16  C   UNL     1      -1.724 -16.662   4.846  1.00  0.00     0.000 C 
BRANCH  16  17
ATOM     17  C   UNL     1      -1.763 -15.297   5.551  1.00  0.00     0.000 C 
BRANCH  17  18
ATOM     18  C   UNL     1      -1.224 -15.363   6.990  1.00  0.00    -0.000 C 
BRANCH  18  19
ATOM     19  C   UNL     1      -2.231 -15.959   7.999  1.00  0.00    -0.000 C 
BRANCH  19  20
ATOM     20  C   UNL     1      -3.546 -15.163   8.108  1.00  0.00    -0.000 C 
BRANCH  20  21
ATOM     21  C   UNL     1      -4.754 -15.971   8.627  1.00  0.00    -0.000 C 
BRANCH  21  22
ATOM     22  C   UNL     1      -5.820 -16.222   7.548  1.00  0.00    -0.000 C 
BRANCH  22  23
ATOM     23  C   UNL     1      -5.569 -15.340   6.315  1.00  0.00    -0.000 C 
BRANCH  23  24
ATOM     24  C   UNL     1      -6.003 -16.013   4.999  1.00  0.00    -0.000 C 
BRANCH  24  25
ATOM     25  C   UNL     1      -6.211 -17.537   5.089  1.00  0.00    -0.003 C 
ATOM     26  C   UNL     1      -7.628 -17.970   4.712  1.00  0.00     0.004 C 
ENDBRANCH  24  25
ENDBRANCH  23  24
ENDBRANCH  22  23
ENDBRANCH  21  22
ENDBRANCH  20  21
ENDBRANCH  19  20
ENDBRANCH  18  19
ENDBRANCH  17  18
ENDBRANCH  16  17
ENDBRANCH  15  16
ENDBRANCH   1  15
TORSDOF 22
ENDMDL
