MODEL 1
REMARK VINA RESULT:    12.056      0.000      0.000
REMARK INTER + INTRA:          23.213
REMARK INTER:                  23.333
REMARK INTRA:                  -0.120
REMARK UNBOUND:                -0.120
REMARK SMILES CCCCCCCCCCCCCCCCCC(=O)[O-]
REMARK SMILES IDX 10 1 11 2 12 3 13 4 14 5 15 6 16 7 17 8 18 9 19 10 20 11
REMARK SMILES IDX 9 12 8 13 7 14 6 15 5 16 4 17 3 18 2 19 1 20
REMARK H PARENT
REMARK Flexibility Score: inf
ROOT
ATOM      1  C   UNL     1      14.545  12.957  16.492  1.00  0.00     0.000 C 
ENDROOT
BRANCH   1   2
ATOM      2  C   UNL     1      14.441  14.167  17.434  1.00  0.00     0.000 C 
BRANCH   2   3
ATOM      3  C   UNL     1      13.711  15.359  16.788  1.00  0.00     0.000 C 
BRANCH   3   4
ATOM      4  C   UNL     1      14.264  16.711  17.267  1.00  0.00     0.000 C 
BRANCH   4   5
ATOM      5  C   UNL     1      15.467  16.556  18.214  1.00  0.00     0.000 C 
BRANCH   5   6
ATOM      6  C   UNL     1      16.290  17.858  18.322  1.00  0.00     0.000 C 
BRANCH   6   7
ATOM      7  C   UNL     1      15.932  18.712  19.550  1.00  0.00     0.006 C 
BRANCH   7   8
ATOM      8  C   UNL     1      17.065  19.653  19.973  1.00  0.00     0.053 C 
BRANCH   8   9
ATOM      9  C   UNL     1      16.821  21.035  19.454  1.00  0.00     0.041 C 
ATOM     10  O   UNL     1      15.666  21.537  19.505  1.00  0.00    -0.550 OA
ATOM     11  O   UNL     1      17.858  21.753  18.873  1.00  0.00    -0.550 OA
ENDBRANCH   8   9
ENDBRANCH   7   8
ENDBRANCH   6   7
ENDBRANCH   5   6
ENDBRANCH   4   5
ENDBRANCH   3   4
ENDBRANCH   2   3
ENDBRANCH   1   2
BRANCH   1  12
ATOM     12  C   UNL     1      13.822  11.715  17.043  1.00  0.00     0.000 C 
BRANCH  12  13
ATOM     13  C   UNL     1      12.558  12.076  17.840  1.00  0.00    -0.000 C 
BRANCH  13  14
ATOM     14  C   UNL     1      11.424  12.608  16.947  1.00  0.00    -0.000 C 
BRANCH  14  15
ATOM     15  C   UNL     1      10.147  11.758  17.044  1.00  0.00    -0.000 C 
BRANCH  15  16
ATOM     16  C   UNL     1       8.956  12.543  17.615  1.00  0.00    -0.000 C 
BRANCH  16  17
ATOM     17  C   UNL     1       8.249  13.346  16.512  1.00  0.00    -0.000 C 
BRANCH  17  18
ATOM     18  C   UNL     1       7.921  12.480  15.278  1.00  0.00    -0.000 C 
BRANCH  18  19
ATOM     19  C   UNL     1       9.128  12.237  14.357  1.00  0.00    -0.003 C 
ATOM     20  C   UNL     1       8.889  11.126  13.337  1.00  0.00     0.004 C 
ENDBRANCH  18  19
ENDBRANCH  17  18
ENDBRANCH  16  17
ENDBRANCH  15  16
ENDBRANCH  14  15
ENDBRANCH  13  14
ENDBRANCH  12  13
ENDBRANCH   1  12
TORSDOF 16
ENDMDL
MODEL 2
REMARK VINA RESULT:    12.174      1.831      3.163
REMARK INTER + INTRA:          23.442
REMARK INTER:                  24.199
REMARK INTRA:                  -0.757
REMARK UNBOUND:                -0.120
REMARK SMILES CCCCCCCCCCCCCCCCCC(=O)[O-]
REMARK SMILES IDX 10 1 11 2 12 3 13 4 14 5 15 6 16 7 17 8 18 9 19 10 20 11
REMARK SMILES IDX 9 12 8 13 7 14 6 15 5 16 4 17 3 18 2 19 1 20
REMARK H PARENT
REMARK Flexibility Score: inf
ROOT
ATOM      1  C   UNL     1      14.716  15.750  17.936  1.00  0.00     0.000 C 
ENDROOT
BRANCH   1   2
ATOM      2  C   UNL     1      15.187  17.185  17.647  1.00  0.00     0.000 C 
BRANCH   2   3
ATOM      3  C   UNL     1      16.310  17.641  18.597  1.00  0.00     0.000 C 
BRANCH   3   4
ATOM      4  C   UNL     1      15.861  18.781  19.526  1.00  0.00     0.000 C 
BRANCH   4   5
ATOM      5  C   UNL     1      16.999  19.764  19.848  1.00  0.00     0.000 C 
BRANCH   5   6
ATOM      6  C   UNL     1      16.617  21.222  19.512  1.00  0.00     0.000 C 
BRANCH   6   7
ATOM      7  C   UNL     1      16.762  21.568  18.021  1.00  0.00     0.006 C 
BRANCH   7   8
ATOM      8  C   UNL     1      15.415  21.811  17.330  1.00  0.00     0.053 C 
BRANCH   8   9
ATOM      9  C   UNL     1      15.496  21.445  15.881  1.00  0.00     0.041 C 
ATOM     10  O   UNL     1      14.666  20.639  15.384  1.00  0.00    -0.550 OA
ATOM     11  O   UNL     1      16.514  21.960  15.090  1.00  0.00    -0.550 OA
ENDBRANCH   8   9
ENDBRANCH   7   8
ENDBRANCH   6   7
ENDBRANCH   5   6
ENDBRANCH   4   5
ENDBRANCH   3   4
ENDBRANCH   2   3
ENDBRANCH   1   2
BRANCH   1  12
ATOM     12  C   UNL     1      13.863  15.168  16.794  1.00  0.00     0.000 C 
BRANCH  12  13
ATOM     13  C   UNL     1      14.130  13.671  16.566  1.00  0.00    -0.000 C 
BRANCH  13  14
ATOM     14  C   UNL     1      13.844  12.819  17.815  1.00  0.00    -0.000 C 
BRANCH  14  15
ATOM     15  C   UNL     1      12.590  11.944  17.660  1.00  0.00    -0.000 C 
BRANCH  15  16
ATOM     16  C   UNL     1      11.513  12.605  16.788  1.00  0.00    -0.000 C 
BRANCH  16  17
ATOM     17  C   UNL     1      10.349  11.637  16.524  1.00  0.00    -0.000 C 
BRANCH  17  18
ATOM     18  C   UNL     1       8.998  12.370  16.394  1.00  0.00    -0.000 C 
BRANCH  18  19
ATOM     19  C   UNL     1       8.572  12.624  14.937  1.00  0.00    -0.003 C 
ATOM     20  C   UNL     1       8.939  11.478  13.998  1.00  0.00     0.004 C 
ENDBRANCH  18  19
ENDBRANCH  17  18
ENDBRANCH  16  17
ENDBRANCH  15  16
ENDBRANCH  14  15
ENDBRANCH  13  14
ENDBRANCH  12  13
ENDBRANCH   1  12
TORSDOF 16
ENDMDL
MODEL 3
REMARK VINA RESULT:    12.199      4.413      9.662
REMARK INTER + INTRA:          23.490
REMARK INTER:                  24.327
REMARK INTRA:                  -0.837
REMARK UNBOUND:                -0.120
REMARK SMILES CCCCCCCCCCCCCCCCCC(=O)[O-]
REMARK SMILES IDX 10 1 11 2 12 3 13 4 14 5 15 6 16 7 17 8 18 9 19 10 20 11
REMARK SMILES IDX 9 12 8 13 7 14 6 15 5 16 4 17 3 18 2 19 1 20
REMARK H PARENT
REMARK Flexibility Score: inf
ROOT
ATOM      1  C   UNL     1      13.561  16.461  16.112  1.00  0.00     0.000 C 
ENDROOT
BRANCH   1   2
ATOM      2  C   UNL     1      14.226  16.053  17.437  1.00  0.00     0.000 C 
BRANCH   2   3
ATOM      3  C   UNL     1      14.739  14.601  17.419  1.00  0.00     0.000 C 
BRANCH   3   4
ATOM      4  C   UNL     1      13.783  13.653  16.678  1.00  0.00     0.000 C 
BRANCH   4   5
ATOM      5  C   UNL     1      13.536  12.343  17.446  1.00  0.00     0.000 C 
BRANCH   5   6
ATOM      6  C   UNL     1      12.032  12.078  17.669  1.00  0.00     0.000 C 
BRANCH   6   7
ATOM      7  C   UNL     1      11.156  12.444  16.460  1.00  0.00     0.006 C 
BRANCH   7   8
ATOM      8  C   UNL     1       9.975  11.486  16.264  1.00  0.00     0.053 C 
BRANCH   8   9
ATOM      9  C   UNL     1       8.850  12.177  15.560  1.00  0.00     0.041 C 
ATOM     10  O   UNL     1       8.058  12.916  16.203  1.00  0.00    -0.550 OA
ATOM     11  O   UNL     1       8.648  11.969  14.202  1.00  0.00    -0.550 OA
ENDBRANCH   8   9
ENDBRANCH   7   8
ENDBRANCH   6   7
ENDBRANCH   5   6
ENDBRANCH   4   5
ENDBRANCH   3   4
ENDBRANCH   2   3
ENDBRANCH   1   2
BRANCH   1  12
ATOM     12  C   UNL     1      13.240  17.965  16.051  1.00  0.00     0.000 C 
BRANCH  12  13
ATOM     13  C   UNL     1      14.212  18.737  15.144  1.00  0.00    -0.000 C 
BRANCH  13  14
ATOM     14  C   UNL     1      14.277  20.237  15.483  1.00  0.00    -0.000 C 
BRANCH  14  15
ATOM     15  C   UNL     1      15.658  20.848  15.196  1.00  0.00    -0.000 C 
BRANCH  15  16
ATOM     16  C   UNL     1      15.878  22.179  15.931  1.00  0.00    -0.000 C 
BRANCH  16  17
ATOM     17  C   UNL     1      15.553  22.041  17.427  1.00  0.00    -0.000 C 
BRANCH  17  18
ATOM     18  C   UNL     1      16.648  21.272  18.194  1.00  0.00    -0.000 C 
BRANCH  18  19
ATOM     19  C   UNL     1      16.354  21.113  19.695  1.00  0.00    -0.003 C 
ATOM     20  C   UNL     1      16.786  19.758  20.250  1.00  0.00     0.004 C 
ENDBRANCH  18  19
ENDBRANCH  17  18
ENDBRANCH  16  17
ENDBRANCH  15  16
ENDBRANCH  14  15
ENDBRANCH  13  14
ENDBRANCH  12  13
ENDBRANCH   1  12
TORSDOF 16
ENDMDL
MODEL 4
REMARK VINA RESULT:    12.382      4.314      9.534
REMARK INTER + INTRA:          23.844
REMARK INTER:                  24.411
REMARK INTRA:                  -0.568
REMARK UNBOUND:                -0.120
REMARK SMILES CCCCCCCCCCCCCCCCCC(=O)[O-]
REMARK SMILES IDX 10 1 11 2 12 3 13 4 14 5 15 6 16 7 17 8 18 9 19 10 20 11
REMARK SMILES IDX 9 12 8 13 7 14 6 15 5 16 4 17 3 18 2 19 1 20
REMARK H PARENT
REMARK Flexibility Score: inf
ROOT
ATOM      1  C   UNL     1      14.635  16.577  17.919  1.00  0.00     0.000 C 
ENDROOT
BRANCH   1   2
ATOM      2  C   UNL     1      14.544  15.044  17.992  1.00  0.00     0.000 C 
BRANCH   2   3
ATOM      3  C   UNL     1      14.512  14.386  16.600  1.00  0.00     0.000 C 
BRANCH   3   4
ATOM      4  C   UNL     1      14.240  12.875  16.675  1.00  0.00     0.000 C 
BRANCH   4   5
ATOM      5  C   UNL     1      13.291  12.502  17.828  1.00  0.00     0.000 C 
BRANCH   5   6
ATOM      6  C   UNL     1      12.127  11.607  17.352  1.00  0.00     0.000 C 
BRANCH   6   7
ATOM      7  C   UNL     1      10.950  12.395  16.754  1.00  0.00     0.006 C 
BRANCH   7   8
ATOM      8  C   UNL     1       9.761  11.501  16.379  1.00  0.00     0.053 C 
BRANCH   8   9
ATOM      9  C   UNL     1       8.774  12.261  15.551  1.00  0.00     0.041 C 
ATOM     10  O   UNL     1       7.911  12.992  16.105  1.00  0.00    -0.550 OA
ATOM     11  O   UNL     1       8.778  12.128  14.169  1.00  0.00    -0.550 OA
ENDBRANCH   8   9
ENDBRANCH   7   8
ENDBRANCH   6   7
ENDBRANCH   5   6
ENDBRANCH   4   5
ENDBRANCH   3   4
ENDBRANCH   2   3
ENDBRANCH   1   2
BRANCH   1  12
ATOM     12  C   UNL     1      16.032  17.104  18.292  1.00  0.00     0.000 C 
BRANCH  12  13
ATOM     13  C   UNL     1      16.044  18.623  18.529  1.00  0.00    -0.000 C 
BRANCH  13  14
ATOM     14  C   UNL     1      16.879  19.027  19.756  1.00  0.00    -0.000 C 
BRANCH  14  15
ATOM     15  C   UNL     1      16.987  20.551  19.923  1.00  0.00    -0.000 C 
BRANCH  15  16
ATOM     16  C   UNL     1      15.833  21.302  19.242  1.00  0.00    -0.000 C 
BRANCH  16  17
ATOM     17  C   UNL     1      16.221  21.730  17.818  1.00  0.00    -0.000 C 
BRANCH  17  18
ATOM     18  C   UNL     1      15.015  21.715  16.855  1.00  0.00    -0.000 C 
BRANCH  18  19
ATOM     19  C   UNL     1      15.366  21.241  15.435  1.00  0.00    -0.003 C 
ATOM     20  C   UNL     1      16.628  21.899  14.879  1.00  0.00     0.004 C 
ENDBRANCH  18  19
ENDBRANCH  17  18
ENDBRANCH  16  17
ENDBRANCH  15  16
ENDBRANCH  14  15
ENDBRANCH  13  14
ENDBRANCH  12  13
ENDBRANCH   1  12
TORSDOF 16
ENDMDL
MODEL 5
REMARK VINA RESULT:    12.555      2.362      2.807
REMARK INTER + INTRA:          24.179
REMARK INTER:                  25.064
REMARK INTRA:                  -0.885
REMARK UNBOUND:                -0.120
REMARK SMILES CCCCCCCCCCCCCCCCCC(=O)[O-]
REMARK SMILES IDX 10 1 11 2 12 3 13 4 14 5 15 6 16 7 17 8 18 9 19 10 20 11
REMARK SMILES IDX 9 12 8 13 7 14 6 15 5 16 4 17 3 18 2 19 1 20
REMARK H PARENT
REMARK Flexibility Score: inf
ROOT
ATOM      1  C   UNL     1      13.874  14.217  16.766  1.00  0.00     0.000 C 
ENDROOT
BRANCH   1   2
ATOM      2  C   UNL     1      14.658  15.170  17.682  1.00  0.00     0.000 C 
BRANCH   2   3
ATOM      3  C   UNL     1      14.407  16.652  17.348  1.00  0.00     0.000 C 
BRANCH   3   4
ATOM      4  C   UNL     1      13.474  16.828  16.138  1.00  0.00     0.000 C 
BRANCH   4   5
ATOM      5  C   UNL     1      13.114  18.302  15.879  1.00  0.00     0.000 C 
BRANCH   5   6
ATOM      6  C   UNL     1      14.342  19.129  15.444  1.00  0.00     0.000 C 
BRANCH   6   7
ATOM      7  C   UNL     1      14.128  20.649  15.547  1.00  0.00     0.006 C 
BRANCH   7   8
ATOM      8  C   UNL     1      15.307  21.376  16.202  1.00  0.00     0.053 C 
BRANCH   8   9
ATOM      9  C   UNL     1      16.325  21.759  15.174  1.00  0.00     0.041 C 
ATOM     10  O   UNL     1      16.225  21.331  13.994  1.00  0.00    -0.550 OA
ATOM     11  O   UNL     1      17.407  22.553  15.529  1.00  0.00    -0.550 OA
ENDBRANCH   8   9
ENDBRANCH   7   8
ENDBRANCH   6   7
ENDBRANCH   5   6
ENDBRANCH   4   5
ENDBRANCH   3   4
ENDBRANCH   2   3
ENDBRANCH   1   2
BRANCH   1  12
ATOM     12  C   UNL     1      14.640  12.915  16.474  1.00  0.00     0.000 C 
BRANCH  12  13
ATOM     13  C   UNL     1      14.048  11.705  17.213  1.00  0.00    -0.000 C 
BRANCH  13  14
ATOM     14  C   UNL     1      12.758  12.048  17.978  1.00  0.00    -0.000 C 
BRANCH  14  15
ATOM     15  C   UNL     1      11.503  11.453  17.318  1.00  0.00    -0.000 C 
BRANCH  15  16
ATOM     16  C   UNL     1      10.700  12.496  16.527  1.00  0.00    -0.000 C 
BRANCH  16  17
ATOM     17  C   UNL     1       9.214  12.455  16.917  1.00  0.00    -0.000 C 
BRANCH  17  18
ATOM     18  C   UNL     1       8.287  12.700  15.708  1.00  0.00    -0.000 C 
BRANCH  18  19
ATOM     19  C   UNL     1       8.969  12.464  14.350  1.00  0.00    -0.003 C 
ATOM     20  C   UNL     1       8.612  11.116  13.727  1.00  0.00     0.004 C 
ENDBRANCH  18  19
ENDBRANCH  17  18
ENDBRANCH  16  17
ENDBRANCH  15  16
ENDBRANCH  14  15
ENDBRANCH  13  14
ENDBRANCH  12  13
ENDBRANCH   1  12
TORSDOF 16
ENDMDL
MODEL 6
REMARK VINA RESULT:    12.831      4.250      9.525
REMARK INTER + INTRA:          24.714
REMARK INTER:                  25.747
REMARK INTRA:                  -1.034
REMARK UNBOUND:                -0.120
REMARK SMILES CCCCCCCCCCCCCCCCCC(=O)[O-]
REMARK SMILES IDX 10 1 11 2 12 3 13 4 14 5 15 6 16 7 17 8 18 9 19 10 20 11
REMARK SMILES IDX 9 12 8 13 7 14 6 15 5 16 4 17 3 18 2 19 1 20
REMARK H PARENT
REMARK Flexibility Score: inf
ROOT
ATOM      1  C   UNL     1      13.502  15.166  16.493  1.00  0.00     0.000 C 
ENDROOT
BRANCH   1   2
ATOM      2  C   UNL     1      14.568  14.105  16.811  1.00  0.00     0.000 C 
BRANCH   2   3
ATOM      3  C   UNL     1      13.996  12.675  16.813  1.00  0.00     0.000 C 
BRANCH   3   4
ATOM      4  C   UNL     1      13.057  12.423  18.004  1.00  0.00     0.000 C 
BRANCH   4   5
ATOM      5  C   UNL     1      11.847  11.550  17.628  1.00  0.00     0.000 C 
BRANCH   5   6
ATOM      6  C   UNL     1      10.923  12.251  16.609  1.00  0.00     0.000 C 
BRANCH   6   7
ATOM      7  C   UNL     1       9.429  11.954  16.827  1.00  0.00     0.006 C 
BRANCH   7   8
ATOM      8  C   UNL     1       8.523  12.687  15.830  1.00  0.00     0.053 C 
BRANCH   8   9
ATOM      9  C   UNL     1       8.827  12.256  14.430  1.00  0.00     0.041 C 
ATOM     10  O   UNL     1       8.573  11.080  14.059  1.00  0.00    -0.550 OA
ATOM     11  O   UNL     1       9.434  13.140  13.547  1.00  0.00    -0.550 OA
ENDBRANCH   8   9
ENDBRANCH   7   8
ENDBRANCH   6   7
ENDBRANCH   5   6
ENDBRANCH   4   5
ENDBRANCH   3   4
ENDBRANCH   2   3
ENDBRANCH   1   2
BRANCH   1  12
ATOM     12  C   UNL     1      13.893  16.566  17.001  1.00  0.00     0.000 C 
BRANCH  12  13
ATOM     13  C   UNL     1      15.101  16.530  17.950  1.00  0.00    -0.000 C 
BRANCH  13  14
ATOM     14  C   UNL     1      15.226  17.806  18.801  1.00  0.00    -0.000 C 
BRANCH  14  15
ATOM     15  C   UNL     1      16.638  18.410  18.758  1.00  0.00    -0.000 C 
BRANCH  15  16
ATOM     16  C   UNL     1      16.923  19.334  19.952  1.00  0.00    -0.000 C 
BRANCH  16  17
ATOM     17  C   UNL     1      16.267  20.709  19.752  1.00  0.00    -0.000 C 
BRANCH  17  18
ATOM     18  C   UNL     1      16.758  21.408  18.467  1.00  0.00    -0.000 C 
BRANCH  18  19
ATOM     19  C   UNL     1      15.623  21.796  17.504  1.00  0.00    -0.003 C 
ATOM     20  C   UNL     1      16.088  21.935  16.056  1.00  0.00     0.004 C 
ENDBRANCH  18  19
ENDBRANCH  17  18
ENDBRANCH  16  17
ENDBRANCH  15  16
ENDBRANCH  14  15
ENDBRANCH  13  14
ENDBRANCH  12  13
ENDBRANCH   1  12
TORSDOF 16
ENDMDL
MODEL 7
REMARK VINA RESULT:    12.929      5.491      7.650
REMARK INTER + INTRA:          24.903
REMARK INTER:                  25.792
REMARK INTRA:                  -0.888
REMARK UNBOUND:                -0.120
REMARK SMILES CCCCCCCCCCCCCCCCCC(=O)[O-]
REMARK SMILES IDX 10 1 11 2 12 3 13 4 14 5 15 6 16 7 17 8 18 9 19 10 20 11
REMARK SMILES IDX 9 12 8 13 7 14 6 15 5 16 4 17 3 18 2 19 1 20
REMARK H PARENT
REMARK Flexibility Score: inf
ROOT
ATOM      1  C   UNL     1      16.014  10.580  16.067  1.00  0.00     0.000 C 
ENDROOT
BRANCH   1   2
ATOM      2  C   UNL     1      16.278  10.464  14.557  1.00  0.00     0.000 C 
BRANCH   2   3
ATOM      3  C   UNL     1      16.142   9.018  14.043  1.00  0.00     0.000 C 
BRANCH   3   4
ATOM      4  C   UNL     1      15.877   8.960  12.529  1.00  0.00     0.000 C 
BRANCH   4   5
ATOM      5  C   UNL     1      16.907   9.764  11.717  1.00  0.00     0.000 C 
BRANCH   5   6
ATOM      6  C   UNL     1      16.562   9.793  10.213  1.00  0.00     0.000 C 
BRANCH   6   7
ATOM      7  C   UNL     1      16.484  11.212   9.626  1.00  0.00     0.006 C 
BRANCH   7   8
ATOM      8  C   UNL     1      17.114  12.271  10.538  1.00  0.00     0.053 C 
BRANCH   8   9
ATOM      9  C   UNL     1      16.958  13.636   9.943  1.00  0.00     0.041 C 
ATOM     10  O   UNL     1      17.968  14.363   9.752  1.00  0.00    -0.550 OA
ATOM     11  O   UNL     1      15.693  14.122   9.641  1.00  0.00    -0.550 OA
ENDBRANCH   8   9
ENDBRANCH   7   8
ENDBRANCH   6   7
ENDBRANCH   5   6
ENDBRANCH   4   5
ENDBRANCH   3   4
ENDBRANCH   2   3
ENDBRANCH   1   2
BRANCH   1  12
ATOM     12  C   UNL     1      14.678  11.277  16.381  1.00  0.00     0.000 C 
BRANCH  12  13
ATOM     13  C   UNL     1      14.833  12.796  16.557  1.00  0.00    -0.000 C 
BRANCH  13  14
ATOM     14  C   UNL     1      13.560  13.464  17.104  1.00  0.00    -0.000 C 
BRANCH  14  15
ATOM     15  C   UNL     1      12.403  12.469  17.292  1.00  0.00    -0.000 C 
BRANCH  15  16
ATOM     16  C   UNL     1      11.191  12.798  16.408  1.00  0.00    -0.000 C 
BRANCH  16  17
ATOM     17  C   UNL     1       9.976  11.945  16.803  1.00  0.00    -0.000 C 
BRANCH  17  18
ATOM     18  C   UNL     1       8.674  12.441  16.141  1.00  0.00    -0.000 C 
BRANCH  18  19
ATOM     19  C   UNL     1       8.793  12.639  14.620  1.00  0.00    -0.003 C 
ATOM     20  C   UNL     1       8.855  11.323  13.848  1.00  0.00     0.004 C 
ENDBRANCH  18  19
ENDBRANCH  17  18
ENDBRANCH  16  17
ENDBRANCH  15  16
ENDBRANCH  14  15
ENDBRANCH  13  14
ENDBRANCH  12  13
ENDBRANCH   1  12
TORSDOF 16
ENDMDL
MODEL 8
REMARK VINA RESULT:    13.113      4.886      9.382
REMARK INTER + INTRA:          25.260
REMARK INTER:                  25.877
REMARK INTRA:                  -0.617
REMARK UNBOUND:                -0.120
REMARK SMILES CCCCCCCCCCCCCCCCCC(=O)[O-]
REMARK SMILES IDX 10 1 11 2 12 3 13 4 14 5 15 6 16 7 17 8 18 9 19 10 20 11
REMARK SMILES IDX 9 12 8 13 7 14 6 15 5 16 4 17 3 18 2 19 1 20
REMARK H PARENT
REMARK Flexibility Score: inf
ROOT
ATOM      1  C   UNL     1      14.264  13.858  16.684  1.00  0.00     0.000 C 
ENDROOT
BRANCH   1   2
ATOM      2  C   UNL     1      13.959  12.434  17.176  1.00  0.00     0.000 C 
BRANCH   2   3
ATOM      3  C   UNL     1      12.548  12.305  17.779  1.00  0.00     0.000 C 
BRANCH   3   4
ATOM      4  C   UNL     1      11.444  12.497  16.727  1.00  0.00     0.000 C 
BRANCH   4   5
ATOM      5  C   UNL     1      10.137  11.777  17.104  1.00  0.00     0.000 C 
BRANCH   5   6
ATOM      6  C   UNL     1       8.930  12.740  17.120  1.00  0.00     0.000 C 
BRANCH   6   7
ATOM      7  C   UNL     1       8.157  12.779  15.791  1.00  0.00     0.006 C 
BRANCH   7   8
ATOM      8  C   UNL     1       9.076  12.824  14.566  1.00  0.00     0.053 C 
BRANCH   8   9
ATOM      9  C   UNL     1       8.911  11.587  13.740  1.00  0.00     0.041 C 
ATOM     10  O   UNL     1       9.498  11.482  12.631  1.00  0.00    -0.550 OA
ATOM     11  O   UNL     1       8.073  10.569  14.175  1.00  0.00    -0.550 OA
ENDBRANCH   8   9
ENDBRANCH   7   8
ENDBRANCH   6   7
ENDBRANCH   5   6
ENDBRANCH   4   5
ENDBRANCH   3   4
ENDBRANCH   2   3
ENDBRANCH   1   2
BRANCH   1  12
ATOM     12  C   UNL     1      14.588  14.824  17.837  1.00  0.00     0.000 C 
BRANCH  12  13
ATOM     13  C   UNL     1      14.327  16.292  17.464  1.00  0.00    -0.000 C 
BRANCH  13  14
ATOM     14  C   UNL     1      13.471  16.441  16.194  1.00  0.00    -0.000 C 
BRANCH  14  15
ATOM     15  C   UNL     1      13.127  17.906  15.881  1.00  0.00    -0.000 C 
BRANCH  15  16
ATOM     16  C   UNL     1      14.373  18.759  15.601  1.00  0.00    -0.000 C 
BRANCH  16  17
ATOM     17  C   UNL     1      13.994  20.232  15.387  1.00  0.00    -0.000 C 
BRANCH  17  18
ATOM     18  C   UNL     1      15.027  21.197  16.005  1.00  0.00    -0.000 C 
BRANCH  18  19
ATOM     19  C   UNL     1      16.132  21.627  15.024  1.00  0.00    -0.003 C 
ATOM     20  C   UNL     1      17.247  22.427  15.693  1.00  0.00     0.004 C 
ENDBRANCH  18  19
ENDBRANCH  17  18
ENDBRANCH  16  17
ENDBRANCH  15  16
ENDBRANCH  14  15
ENDBRANCH  13  14
ENDBRANCH  12  13
ENDBRANCH   1  12
TORSDOF 16
ENDMDL
