MODEL 1
REMARK VINA RESULT:    -3.596      0.000      0.000
REMARK INTER + INTRA:          -8.635
REMARK INTER:                  -6.539
REMARK INTRA:                  -2.096
REMARK UNBOUND:                -2.096
REMARK SMILES CCCCCCCCCCCCCCCC(=O)[O-]
REMARK SMILES IDX 9 1 10 2 11 3 12 4 13 5 14 6 15 7 16 8 17 9 18 10 8 11 7 12
REMARK SMILES IDX 6 13 5 14 4 15 3 16 2 17 1 18
REMARK H PARENT
REMARK Flexibility Score: inf
ROOT
ATOM      1  C   UNL     1      -4.682   3.919  -0.981  1.00  0.00     0.000 C 
ENDROOT
BRANCH   1   2
ATOM      2  C   UNL     1      -3.598   2.848  -0.766  1.00  0.00     0.000 C 
BRANCH   2   3
ATOM      3  C   UNL     1      -3.079   2.801   0.680  1.00  0.00     0.000 C 
BRANCH   3   4
ATOM      4  C   UNL     1      -3.573   4.011   1.481  1.00  0.00     0.000 C 
BRANCH   4   5
ATOM      5  C   UNL     1      -4.315   3.565   2.748  1.00  0.00     0.000 C 
BRANCH   5   6
ATOM      6  C   UNL     1      -5.758   4.101   2.816  1.00  0.00     0.006 C 
BRANCH   6   7
ATOM      7  C   UNL     1      -6.330   4.199   4.239  1.00  0.00     0.053 C 
BRANCH   7   8
ATOM      8  C   UNL     1      -5.576   5.181   5.083  1.00  0.00     0.041 C 
ATOM      9  O   UNL     1      -5.156   6.257   4.582  1.00  0.00    -0.550 OA
ATOM     10  O   UNL     1      -5.368   4.923   6.432  1.00  0.00    -0.550 OA
ENDBRANCH   7   8
ENDBRANCH   6   7
ENDBRANCH   5   6
ENDBRANCH   4   5
ENDBRANCH   3   4
ENDBRANCH   2   3
ENDBRANCH   1   2
BRANCH   1  11
ATOM     11  C   UNL     1      -6.079   3.367  -1.320  1.00  0.00     0.000 C 
BRANCH  11  12
ATOM     12  C   UNL     1      -6.255   1.894  -0.916  1.00  0.00    -0.000 C 
BRANCH  12  13
ATOM     13  C   UNL     1      -7.080   1.730   0.371  1.00  0.00    -0.000 C 
BRANCH  13  14
ATOM     14  C   UNL     1      -6.460   0.708   1.341  1.00  0.00    -0.000 C 
BRANCH  14  15
ATOM     15  C   UNL     1      -5.264  -0.040   0.730  1.00  0.00    -0.000 C 
BRANCH  15  16
ATOM     16  C   UNL     1      -5.459  -1.565   0.732  1.00  0.00    -0.000 C 
BRANCH  16  17
ATOM     17  C   UNL     1      -6.892  -1.975   1.108  1.00  0.00    -0.003 C 
ATOM     18  C   UNL     1      -6.952  -2.834   2.372  1.00  0.00     0.004 C 
ENDBRANCH  16  17
ENDBRANCH  15  16
ENDBRANCH  14  15
ENDBRANCH  13  14
ENDBRANCH  12  13
ENDBRANCH  11  12
ENDBRANCH   1  11
TORSDOF 14
ENDMDL
MODEL 2
REMARK VINA RESULT:    -3.511      2.877      5.789
REMARK INTER + INTRA:          -8.480
REMARK INTER:                  -6.282
REMARK INTRA:                  -2.198
REMARK UNBOUND:                -2.096
REMARK SMILES CCCCCCCCCCCCCCCC(=O)[O-]
REMARK SMILES IDX 9 1 10 2 11 3 12 4 13 5 14 6 15 7 16 8 17 9 18 10 8 11 7 12
REMARK SMILES IDX 6 13 5 14 4 15 3 16 2 17 1 18
REMARK H PARENT
REMARK Flexibility Score: inf
ROOT
ATOM      1  C   UNL     1      -7.419   2.842  -0.072  1.00  0.00     0.000 C 
ENDROOT
BRANCH   1   2
ATOM      2  C   UNL     1      -6.814   1.455  -0.354  1.00  0.00     0.000 C 
BRANCH   2   3
ATOM      3  C   UNL     1      -6.217   0.795   0.898  1.00  0.00     0.000 C 
BRANCH   3   4
ATOM      4  C   UNL     1      -5.105  -0.191   0.524  1.00  0.00     0.000 C 
BRANCH   4   5
ATOM      5  C   UNL     1      -5.464  -1.617   0.966  1.00  0.00     0.000 C 
BRANCH   5   6
ATOM      6  C   UNL     1      -6.629  -2.219   0.158  1.00  0.00     0.006 C 
BRANCH   6   7
ATOM      7  C   UNL     1      -7.633  -3.023   0.999  1.00  0.00     0.053 C 
BRANCH   7   8
ATOM      8  C   UNL     1      -7.842  -2.422   2.355  1.00  0.00     0.041 C 
ATOM      9  O   UNL     1      -7.347  -2.970   3.375  1.00  0.00    -0.550 OA
ATOM     10  O   UNL     1      -8.554  -1.237   2.488  1.00  0.00    -0.550 OA
ENDBRANCH   7   8
ENDBRANCH   6   7
ENDBRANCH   5   6
ENDBRANCH   4   5
ENDBRANCH   3   4
ENDBRANCH   2   3
ENDBRANCH   1   2
BRANCH   1  11
ATOM     11  C   UNL     1      -6.670   4.019  -0.721  1.00  0.00     0.000 C 
BRANCH  11  12
ATOM     12  C   UNL     1      -5.535   3.566  -1.655  1.00  0.00    -0.000 C 
BRANCH  12  13
ATOM     13  C   UNL     1      -4.148   3.981  -1.140  1.00  0.00    -0.000 C 
BRANCH  13  14
ATOM     14  C   UNL     1      -3.336   2.787  -0.607  1.00  0.00    -0.000 C 
BRANCH  14  15
ATOM     15  C   UNL     1      -3.081   2.871   0.907  1.00  0.00    -0.000 C 
BRANCH  15  16
ATOM     16  C   UNL     1      -3.729   4.111   1.545  1.00  0.00    -0.000 C 
BRANCH  16  17
ATOM     17  C   UNL     1      -4.214   3.849   2.980  1.00  0.00    -0.003 C 
ATOM     18  C   UNL     1      -5.735   3.720   3.078  1.00  0.00     0.004 C 
ENDBRANCH  16  17
ENDBRANCH  15  16
ENDBRANCH  14  15
ENDBRANCH  13  14
ENDBRANCH  12  13
ENDBRANCH  11  12
ENDBRANCH   1  11
TORSDOF 14
ENDMDL
MODEL 3
REMARK VINA RESULT:    -3.480      1.469      2.875
REMARK INTER + INTRA:          -8.425
REMARK INTER:                  -6.624
REMARK INTRA:                  -1.800
REMARK UNBOUND:                -2.096
REMARK SMILES CCCCCCCCCCCCCCCC(=O)[O-]
REMARK SMILES IDX 9 1 10 2 11 3 12 4 13 5 14 6 15 7 16 8 17 9 18 10 8 11 7 12
REMARK SMILES IDX 6 13 5 14 4 15 3 16 2 17 1 18
REMARK H PARENT
REMARK Flexibility Score: inf
ROOT
ATOM      1  C   UNL     1      -6.703   1.848  -0.810  1.00  0.00     0.000 C 
ENDROOT
BRANCH   1   2
ATOM      2  C   UNL     1      -6.320   3.324  -1.018  1.00  0.00     0.000 C 
BRANCH   2   3
ATOM      3  C   UNL     1      -4.917   3.502  -1.619  1.00  0.00     0.000 C 
BRANCH   3   4
ATOM      4  C   UNL     1      -3.945   4.078  -0.585  1.00  0.00     0.000 C 
BRANCH   4   5
ATOM      5  C   UNL     1      -3.322   2.961   0.265  1.00  0.00     0.000 C 
BRANCH   5   6
ATOM      6  C   UNL     1      -3.198   3.341   1.753  1.00  0.00     0.006 C 
BRANCH   6   7
ATOM      7  C   UNL     1      -4.542   3.487   2.482  1.00  0.00     0.053 C 
BRANCH   7   8
ATOM      8  C   UNL     1      -4.752   4.875   3.006  1.00  0.00     0.041 C 
ATOM      9  O   UNL     1      -4.221   5.229   4.091  1.00  0.00    -0.550 OA
ATOM     10  O   UNL     1      -5.504   5.787   2.277  1.00  0.00    -0.550 OA
ENDBRANCH   7   8
ENDBRANCH   6   7
ENDBRANCH   5   6
ENDBRANCH   4   5
ENDBRANCH   3   4
ENDBRANCH   2   3
ENDBRANCH   1   2
BRANCH   1  11
ATOM     11  C   UNL     1      -7.312   1.524   0.566  1.00  0.00     0.000 C 
BRANCH  11  12
ATOM     12  C   UNL     1      -6.468   0.524   1.374  1.00  0.00    -0.000 C 
BRANCH  12  13
ATOM     13  C   UNL     1      -5.256   0.002   0.585  1.00  0.00    -0.000 C 
BRANCH  13  14
ATOM     14  C   UNL     1      -5.267  -1.530   0.435  1.00  0.00    -0.000 C 
BRANCH  14  15
ATOM     15  C   UNL     1      -6.653  -2.141   0.692  1.00  0.00    -0.000 C 
BRANCH  15  16
ATOM     16  C   UNL     1      -7.498  -2.248  -0.588  1.00  0.00    -0.000 C 
BRANCH  16  17
ATOM     17  C   UNL     1      -7.632  -3.696  -1.085  1.00  0.00    -0.003 C 
ATOM     18  C   UNL     1      -6.479  -4.121  -1.995  1.00  0.00     0.004 C 
ENDBRANCH  16  17
ENDBRANCH  15  16
ENDBRANCH  14  15
ENDBRANCH  13  14
ENDBRANCH  12  13
ENDBRANCH  11  12
ENDBRANCH   1  11
TORSDOF 14
ENDMDL
MODEL 4
REMARK VINA RESULT:    -3.477      3.792      6.411
REMARK INTER + INTRA:          -8.419
REMARK INTER:                  -6.260
REMARK INTRA:                  -2.159
REMARK UNBOUND:                -2.096
REMARK SMILES CCCCCCCCCCCCCCCC(=O)[O-]
REMARK SMILES IDX 9 1 10 2 11 3 12 4 13 5 14 6 15 7 16 8 17 9 18 10 8 11 7 12
REMARK SMILES IDX 6 13 5 14 4 15 3 16 2 17 1 18
REMARK H PARENT
REMARK Flexibility Score: inf
ROOT
ATOM      1  C   UNL     1      -6.445   3.174  -0.634  1.00  0.00     0.000 C 
ENDROOT
BRANCH   1   2
ATOM      2  C   UNL     1      -6.846   1.692  -0.752  1.00  0.00     0.000 C 
BRANCH   2   3
ATOM      3  C   UNL     1      -6.615   0.903   0.545  1.00  0.00     0.000 C 
BRANCH   3   4
ATOM      4  C   UNL     1      -5.259   0.190   0.522  1.00  0.00     0.000 C 
BRANCH   4   5
ATOM      5  C   UNL     1      -5.431  -1.325   0.697  1.00  0.00     0.000 C 
BRANCH   5   6
ATOM      6  C   UNL     1      -6.908  -1.750   0.810  1.00  0.00     0.006 C 
BRANCH   6   7
ATOM      7  C   UNL     1      -7.346  -2.795  -0.228  1.00  0.00     0.053 C 
BRANCH   7   8
ATOM      8  C   UNL     1      -8.384  -2.258  -1.165  1.00  0.00     0.041 C 
ATOM      9  O   UNL     1      -8.634  -2.858  -2.244  1.00  0.00    -0.550 OA
ATOM     10  O   UNL     1      -9.100  -1.116  -0.830  1.00  0.00    -0.550 OA
ENDBRANCH   7   8
ENDBRANCH   6   7
ENDBRANCH   5   6
ENDBRANCH   4   5
ENDBRANCH   3   4
ENDBRANCH   2   3
ENDBRANCH   1   2
BRANCH   1  11
ATOM     11  C   UNL     1      -5.318   3.618  -1.583  1.00  0.00     0.000 C 
BRANCH  11  12
ATOM     12  C   UNL     1      -4.031   4.017  -0.840  1.00  0.00    -0.000 C 
BRANCH  12  13
ATOM     13  C   UNL     1      -3.304   2.808  -0.231  1.00  0.00    -0.000 C 
BRANCH  13  14
ATOM     14  C   UNL     1      -2.959   3.016   1.255  1.00  0.00    -0.000 C 
BRANCH  14  15
ATOM     15  C   UNL     1      -3.892   4.025   1.944  1.00  0.00    -0.000 C 
BRANCH  15  16
ATOM     16  C   UNL     1      -4.994   3.341   2.770  1.00  0.00    -0.000 C 
BRANCH  16  17
ATOM     17  C   UNL     1      -6.285   4.173   2.832  1.00  0.00    -0.003 C 
ATOM     18  C   UNL     1      -6.151   5.528   2.138  1.00  0.00     0.004 C 
ENDBRANCH  16  17
ENDBRANCH  15  16
ENDBRANCH  14  15
ENDBRANCH  13  14
ENDBRANCH  12  13
ENDBRANCH  11  12
ENDBRANCH   1  11
TORSDOF 14
ENDMDL
MODEL 5
REMARK VINA RESULT:    -3.464      3.331      6.132
REMARK INTER + INTRA:          -8.394
REMARK INTER:                  -5.830
REMARK INTRA:                  -2.563
REMARK UNBOUND:                -2.096
REMARK SMILES CCCCCCCCCCCCCCCC(=O)[O-]
REMARK SMILES IDX 9 1 10 2 11 3 12 4 13 5 14 6 15 7 16 8 17 9 18 10 8 11 7 12
REMARK SMILES IDX 6 13 5 14 4 15 3 16 2 17 1 18
REMARK H PARENT
REMARK Flexibility Score: inf
ROOT
ATOM      1  C   UNL     1      -5.160   3.162   2.680  1.00  0.00     0.000 C 
ENDROOT
BRANCH   1   2
ATOM      2  C   UNL     1      -6.670   3.037   2.410  1.00  0.00     0.000 C 
BRANCH   2   3
ATOM      3  C   UNL     1      -7.117   1.589   2.157  1.00  0.00     0.000 C 
BRANCH   3   4
ATOM      4  C   UNL     1      -7.595   1.406   0.712  1.00  0.00     0.000 C 
BRANCH   4   5
ATOM      5  C   UNL     1      -6.579   0.592  -0.103  1.00  0.00     0.000 C 
BRANCH   5   6
ATOM      6  C   UNL     1      -5.480  -0.041   0.772  1.00  0.00     0.006 C 
BRANCH   6   7
ATOM      7  C   UNL     1      -5.372  -1.568   0.645  1.00  0.00     0.053 C 
BRANCH   7   8
ATOM      8  C   UNL     1      -6.707  -2.239   0.746  1.00  0.00     0.041 C 
ATOM      9  O   UNL     1      -7.172  -2.876  -0.235  1.00  0.00    -0.550 OA
ATOM     10  O   UNL     1      -7.422  -2.190   1.936  1.00  0.00    -0.550 OA
ENDBRANCH   7   8
ENDBRANCH   6   7
ENDBRANCH   5   6
ENDBRANCH   4   5
ENDBRANCH   3   4
ENDBRANCH   2   3
ENDBRANCH   1   2
BRANCH   1  11
ATOM     11  C   UNL     1      -4.545   4.523   2.306  1.00  0.00     0.000 C 
BRANCH  11  12
ATOM     12  C   UNL     1      -3.508   4.421   1.175  1.00  0.00    -0.000 C 
BRANCH  12  13
ATOM     13  C   UNL     1      -3.255   2.971   0.736  1.00  0.00    -0.000 C 
BRANCH  13  14
ATOM     14  C   UNL     1      -3.668   2.718  -0.726  1.00  0.00    -0.000 C 
BRANCH  14  15
ATOM     15  C   UNL     1      -3.530   3.969  -1.606  1.00  0.00    -0.000 C 
BRANCH  15  16
ATOM     16  C   UNL     1      -4.835   4.324  -2.337  1.00  0.00    -0.000 C 
BRANCH  16  17
ATOM     17  C   UNL     1      -6.082   3.822  -1.591  1.00  0.00    -0.003 C 
ATOM     18  C   UNL     1      -6.756   4.914  -0.760  1.00  0.00     0.004 C 
ENDBRANCH  16  17
ENDBRANCH  15  16
ENDBRANCH  14  15
ENDBRANCH  13  14
ENDBRANCH  12  13
ENDBRANCH  11  12
ENDBRANCH   1  11
TORSDOF 14
ENDMDL
MODEL 6
REMARK VINA RESULT:    -3.453      4.232      6.224
REMARK INTER + INTRA:          -8.374
REMARK INTER:                  -7.516
REMARK INTRA:                  -0.858
REMARK UNBOUND:                -2.096
REMARK SMILES CCCCCCCCCCCCCCCC(=O)[O-]
REMARK SMILES IDX 9 1 10 2 11 3 12 4 13 5 14 6 15 7 16 8 17 9 18 10 8 11 7 12
REMARK SMILES IDX 6 13 5 14 4 15 3 16 2 17 1 18
REMARK H PARENT
REMARK Flexibility Score: inf
ROOT
ATOM      1  C   UNL     1      -7.470  -2.908   0.366  1.00  0.00     0.000 C 
ENDROOT
BRANCH   1   2
ATOM      2  C   UNL     1      -6.635  -1.973   1.260  1.00  0.00     0.000 C 
BRANCH   2   3
ATOM      3  C   UNL     1      -5.452  -1.332   0.518  1.00  0.00     0.000 C 
BRANCH   3   4
ATOM      4  C   UNL     1      -5.236   0.115   0.975  1.00  0.00     0.000 C 
BRANCH   4   5
ATOM      5  C   UNL     1      -5.880   1.104  -0.007  1.00  0.00     0.000 C 
BRANCH   5   6
ATOM      6  C   UNL     1      -4.904   2.197  -0.481  1.00  0.00     0.006 C 
BRANCH   6   7
ATOM      7  C   UNL     1      -3.585   2.251   0.305  1.00  0.00     0.053 C 
BRANCH   7   8
ATOM      8  C   UNL     1      -3.398   3.563   1.002  1.00  0.00     0.041 C 
ATOM      9  O   UNL     1      -3.729   4.636   0.433  1.00  0.00    -0.550 OA
ATOM     10  O   UNL     1      -2.892   3.598   2.295  1.00  0.00    -0.550 OA
ENDBRANCH   7   8
ENDBRANCH   6   7
ENDBRANCH   5   6
ENDBRANCH   4   5
ENDBRANCH   3   4
ENDBRANCH   2   3
ENDBRANCH   1   2
BRANCH   1  11
ATOM     11  C   UNL     1      -7.011  -2.979  -1.102  1.00  0.00     0.000 C 
BRANCH  11  12
ATOM     12  C   UNL     1      -6.955  -4.418  -1.642  1.00  0.00    -0.000 C 
BRANCH  12  13
ATOM     13  C   UNL     1      -5.883  -4.599  -2.728  1.00  0.00    -0.000 C 
BRANCH  13  14
ATOM     14  C   UNL     1      -5.719  -6.069  -3.156  1.00  0.00    -0.000 C 
BRANCH  14  15
ATOM     15  C   UNL     1      -5.956  -7.052  -1.999  1.00  0.00    -0.000 C 
BRANCH  15  16
ATOM     16  C   UNL     1      -4.807  -8.062  -1.838  1.00  0.00    -0.000 C 
BRANCH  16  17
ATOM     17  C   UNL     1      -3.617  -7.750  -2.760  1.00  0.00    -0.003 C 
ATOM     18  C   UNL     1      -2.267  -8.060  -2.112  1.00  0.00     0.004 C 
ENDBRANCH  16  17
ENDBRANCH  15  16
ENDBRANCH  14  15
ENDBRANCH  13  14
ENDBRANCH  12  13
ENDBRANCH  11  12
ENDBRANCH   1  11
TORSDOF 14
ENDMDL
MODEL 7
REMARK VINA RESULT:    -3.430      3.900      6.349
REMARK INTER + INTRA:          -8.333
REMARK INTER:                  -5.883
REMARK INTRA:                  -2.450
REMARK UNBOUND:                -2.096
REMARK SMILES CCCCCCCCCCCCCCCC(=O)[O-]
REMARK SMILES IDX 9 1 10 2 11 3 12 4 13 5 14 6 15 7 16 8 17 9 18 10 8 11 7 12
REMARK SMILES IDX 6 13 5 14 4 15 3 16 2 17 1 18
REMARK H PARENT
REMARK Flexibility Score: inf
ROOT
ATOM      1  C   UNL     1      -6.070   1.738  -0.048  1.00  0.00     0.000 C 
ENDROOT
BRANCH   1   2
ATOM      2  C   UNL     1      -6.048   2.610  -1.316  1.00  0.00     0.000 C 
BRANCH   2   3
ATOM      3  C   UNL     1      -6.719   3.977  -1.116  1.00  0.00     0.000 C 
BRANCH   3   4
ATOM      4  C   UNL     1      -6.190   5.002  -2.126  1.00  0.00     0.000 C 
BRANCH   4   5
ATOM      5  C   UNL     1      -4.656   5.043  -2.115  1.00  0.00     0.000 C 
BRANCH   5   6
ATOM      6  C   UNL     1      -4.042   4.843  -3.513  1.00  0.00     0.006 C 
BRANCH   6   7
ATOM      7  C   UNL     1      -2.616   4.269  -3.501  1.00  0.00     0.053 C 
BRANCH   7   8
ATOM      8  C   UNL     1      -1.624   5.214  -4.106  1.00  0.00     0.041 C 
ATOM      9  O   UNL     1      -0.773   4.794  -4.934  1.00  0.00    -0.550 OA
ATOM     10  O   UNL     1      -1.662   6.564  -3.784  1.00  0.00    -0.550 OA
ENDBRANCH   7   8
ENDBRANCH   6   7
ENDBRANCH   5   6
ENDBRANCH   4   5
ENDBRANCH   3   4
ENDBRANCH   2   3
ENDBRANCH   1   2
BRANCH   1  11
ATOM     11  C   UNL     1      -4.690   1.244   0.423  1.00  0.00     0.000 C 
BRANCH  11  12
ATOM     12  C   UNL     1      -3.551   2.210   0.056  1.00  0.00    -0.000 C 
BRANCH  12  13
ATOM     13  C   UNL     1      -3.063   3.030   1.262  1.00  0.00    -0.000 C 
BRANCH  13  14
ATOM     14  C   UNL     1      -3.524   4.498   1.201  1.00  0.00    -0.000 C 
BRANCH  14  15
ATOM     15  C   UNL     1      -4.839   4.738   1.959  1.00  0.00    -0.000 C 
BRANCH  15  16
ATOM     16  C   UNL     1      -4.921   3.933   3.266  1.00  0.00    -0.000 C 
BRANCH  16  17
ATOM     17  C   UNL     1      -6.226   3.128   3.380  1.00  0.00    -0.003 C 
ATOM     18  C   UNL     1      -7.406   3.810   2.687  1.00  0.00     0.004 C 
ENDBRANCH  16  17
ENDBRANCH  15  16
ENDBRANCH  14  15
ENDBRANCH  13  14
ENDBRANCH  12  13
ENDBRANCH  11  12
ENDBRANCH   1  11
TORSDOF 14
ENDMDL
MODEL 8
REMARK VINA RESULT:    -3.413      1.138      1.678
REMARK INTER + INTRA:          -8.301
REMARK INTER:                  -6.316
REMARK INTRA:                  -1.986
REMARK UNBOUND:                -2.096
REMARK SMILES CCCCCCCCCCCCCCCC(=O)[O-]
REMARK SMILES IDX 9 1 10 2 11 3 12 4 13 5 14 6 15 7 16 8 17 9 18 10 8 11 7 12
REMARK SMILES IDX 6 13 5 14 4 15 3 16 2 17 1 18
REMARK H PARENT
REMARK Flexibility Score: inf
ROOT
ATOM      1  C   UNL     1      -5.535   3.760  -1.647  1.00  0.00     0.000 C 
ENDROOT
BRANCH   1   2
ATOM      2  C   UNL     1      -4.117   3.944  -1.078  1.00  0.00     0.000 C 
BRANCH   2   3
ATOM      3  C   UNL     1      -3.530   2.648  -0.498  1.00  0.00     0.000 C 
BRANCH   3   4
ATOM      4  C   UNL     1      -3.144   2.830   0.974  1.00  0.00     0.000 C 
BRANCH   4   5
ATOM      5  C   UNL     1      -3.859   4.045   1.584  1.00  0.00     0.000 C 
BRANCH   5   6
ATOM      6  C   UNL     1      -4.479   3.744   2.961  1.00  0.00     0.006 C 
BRANCH   6   7
ATOM      7  C   UNL     1      -5.490   4.796   3.443  1.00  0.00     0.053 C 
BRANCH   7   8
ATOM      8  C   UNL     1      -5.224   5.230   4.851  1.00  0.00     0.041 C 
ATOM      9  O   UNL     1      -4.041   5.355   5.263  1.00  0.00    -0.550 OA
ATOM     10  O   UNL     1      -6.283   5.531   5.699  1.00  0.00    -0.550 OA
ENDBRANCH   7   8
ENDBRANCH   6   7
ENDBRANCH   5   6
ENDBRANCH   4   5
ENDBRANCH   3   4
ENDBRANCH   2   3
ENDBRANCH   1   2
BRANCH   1  11
ATOM     11  C   UNL     1      -6.221   2.438  -1.260  1.00  0.00     0.000 C 
BRANCH  11  12
ATOM     12  C   UNL     1      -7.756   2.515  -1.334  1.00  0.00    -0.000 C 
BRANCH  12  13
ATOM     13  C   UNL     1      -8.423   2.294   0.033  1.00  0.00    -0.000 C 
BRANCH  13  14
ATOM     14  C   UNL     1      -7.414   2.335   1.194  1.00  0.00    -0.000 C 
BRANCH  14  15
ATOM     15  C   UNL     1      -7.370   1.020   1.988  1.00  0.00    -0.000 C 
BRANCH  15  16
ATOM     16  C   UNL     1      -6.975  -0.183   1.115  1.00  0.00    -0.000 C 
BRANCH  16  17
ATOM     17  C   UNL     1      -5.454  -0.302   0.931  1.00  0.00    -0.003 C 
ATOM     18  C   UNL     1      -5.023  -1.679   0.427  1.00  0.00     0.004 C 
ENDBRANCH  16  17
ENDBRANCH  15  16
ENDBRANCH  14  15
ENDBRANCH  13  14
ENDBRANCH  12  13
ENDBRANCH  11  12
ENDBRANCH   1  11
TORSDOF 14
ENDMDL
MODEL 9
REMARK VINA RESULT:    -3.392      4.738      7.121
REMARK INTER + INTRA:          -8.264
REMARK INTER:                  -6.243
REMARK INTRA:                  -2.020
REMARK UNBOUND:                -2.096
REMARK SMILES CCCCCCCCCCCCCCCC(=O)[O-]
REMARK SMILES IDX 9 1 10 2 11 3 12 4 13 5 14 6 15 7 16 8 17 9 18 10 8 11 7 12
REMARK SMILES IDX 6 13 5 14 4 15 3 16 2 17 1 18
REMARK H PARENT
REMARK Flexibility Score: inf
ROOT
ATOM      1  C   UNL     1      -6.915   3.502  -0.504  1.00  0.00     0.000 C 
ENDROOT
BRANCH   1   2
ATOM      2  C   UNL     1      -6.421   4.800  -1.167  1.00  0.00     0.000 C 
BRANCH   2   3
ATOM      3  C   UNL     1      -5.532   4.546  -2.393  1.00  0.00     0.000 C 
BRANCH   3   4
ATOM      4  C   UNL     1      -4.113   5.077  -2.163  1.00  0.00     0.000 C 
BRANCH   4   5
ATOM      5  C   UNL     1      -3.112   4.403  -3.113  1.00  0.00     0.000 C 
BRANCH   5   6
ATOM      6  C   UNL     1      -3.330   4.795  -4.586  1.00  0.00     0.006 C 
BRANCH   6   7
ATOM      7  C   UNL     1      -2.595   3.898  -5.594  1.00  0.00     0.053 C 
BRANCH   7   8
ATOM      8  C   UNL     1      -3.408   3.654  -6.829  1.00  0.00     0.041 C 
ATOM      9  O   UNL     1      -3.274   2.581  -7.474  1.00  0.00    -0.550 OA
ATOM     10  O   UNL     1      -4.341   4.595  -7.245  1.00  0.00    -0.550 OA
ENDBRANCH   7   8
ENDBRANCH   6   7
ENDBRANCH   5   6
ENDBRANCH   4   5
ENDBRANCH   3   4
ENDBRANCH   2   3
ENDBRANCH   1   2
BRANCH   1  11
ATOM     11  C   UNL     1      -6.325   2.208  -1.093  1.00  0.00     0.000 C 
BRANCH  11  12
ATOM     12  C   UNL     1      -6.182   1.086  -0.051  1.00  0.00    -0.000 C 
BRANCH  12  13
ATOM     13  C   UNL     1      -4.787   1.056   0.595  1.00  0.00    -0.000 C 
BRANCH  13  14
ATOM     14  C   UNL     1      -3.804   2.027  -0.084  1.00  0.00    -0.000 C 
BRANCH  14  15
ATOM     15  C   UNL     1      -3.043   2.902   0.924  1.00  0.00    -0.000 C 
BRANCH  15  16
ATOM     16  C   UNL     1      -3.899   4.062   1.461  1.00  0.00    -0.000 C 
BRANCH  16  17
ATOM     17  C   UNL     1      -4.316   3.856   2.926  1.00  0.00    -0.003 C 
ATOM     18  C   UNL     1      -5.809   3.565   3.083  1.00  0.00     0.004 C 
ENDBRANCH  16  17
ENDBRANCH  15  16
ENDBRANCH  14  15
ENDBRANCH  13  14
ENDBRANCH  12  13
ENDBRANCH  11  12
ENDBRANCH   1  11
TORSDOF 14
ENDMDL
