MODEL 1
REMARK VINA RESULT:    -4.871      0.000      0.000
REMARK INTER + INTRA:         -11.988
REMARK INTER:                  -9.142
REMARK INTRA:                  -2.847
REMARK UNBOUND:                -2.847
REMARK SMILES CCCCCCCCC=CCCCCCCCC(=O)[O-]
REMARK SMILES IDX 10 1 9 2 11 3 12 4 13 5 14 6 15 7 16 8 17 9 18 10 19 11
REMARK SMILES IDX 20 12 8 13 7 14 6 15 5 16 4 17 3 18 2 19 1 20
REMARK H PARENT
REMARK Flexibility Score: inf
ROOT
ATOM      1  C   UNL     1      38.809  19.406  31.303  1.00  0.00    -0.031 C 
ATOM      2  C   UNL     1      37.591  19.177  30.789  1.00  0.00    -0.031 C 
ENDROOT
BRANCH   1   3
ATOM      3  C   UNL     1      38.994  20.218  32.556  1.00  0.00     0.027 C 
BRANCH   3   4
ATOM      4  C   UNL     1      40.021  19.561  33.493  1.00  0.00     0.004 C 
BRANCH   4   5
ATOM      5  C   UNL     1      40.678  18.318  32.873  1.00  0.00     0.000 C 
BRANCH   5   6
ATOM      6  C   UNL     1      40.396  17.038  33.677  1.00  0.00     0.000 C 
BRANCH   6   7
ATOM      7  C   UNL     1      39.049  16.387  33.315  1.00  0.00     0.000 C 
BRANCH   7   8
ATOM      8  C   UNL     1      37.913  16.627  34.325  1.00  0.00     0.006 C 
BRANCH   8   9
ATOM      9  C   UNL     1      36.612  17.099  33.662  1.00  0.00     0.053 C 
BRANCH   9  10
ATOM     10  C   UNL     1      35.964  18.166  34.487  1.00  0.00     0.041 C 
ATOM     11  O   UNL     1      36.661  19.078  35.005  1.00  0.00    -0.550 OA
ATOM     12  O   UNL     1      34.596  18.125  34.725  1.00  0.00    -0.550 OA
ENDBRANCH   9  10
ENDBRANCH   8   9
ENDBRANCH   7   8
ENDBRANCH   6   7
ENDBRANCH   5   6
ENDBRANCH   4   5
ENDBRANCH   3   4
ENDBRANCH   1   3
BRANCH   2  13
ATOM     13  C   UNL     1      37.405  18.348  29.548  1.00  0.00     0.027 C 
BRANCH  13  14
ATOM     14  C   UNL     1      38.368  17.154  29.530  1.00  0.00     0.004 C 
BRANCH  14  15
ATOM     15  C   UNL     1      37.780  15.985  28.732  1.00  0.00     0.000 C 
BRANCH  15  16
ATOM     16  C   UNL     1      36.278  16.192  28.479  1.00  0.00     0.000 C 
BRANCH  16  17
ATOM     17  C   UNL     1      35.404  15.218  29.284  1.00  0.00    -0.000 C 
BRANCH  17  18
ATOM     18  C   UNL     1      34.785  15.871  30.532  1.00  0.00    -0.000 C 
BRANCH  18  19
ATOM     19  C   UNL     1      33.953  17.117  30.193  1.00  0.00    -0.003 C 
ATOM     20  C   UNL     1      34.033  18.193  31.277  1.00  0.00     0.004 C 
ENDBRANCH  18  19
ENDBRANCH  17  18
ENDBRANCH  16  17
ENDBRANCH  15  16
ENDBRANCH  14  15
ENDBRANCH  13  14
ENDBRANCH   2  13
TORSDOF 15
ENDMDL
MODEL 2
REMARK VINA RESULT:    -4.806      1.555      3.419
REMARK INTER + INTRA:         -11.867
REMARK INTER:                  -9.219
REMARK INTRA:                  -2.647
REMARK UNBOUND:                -2.847
REMARK SMILES CCCCCCCCC=CCCCCCCCC(=O)[O-]
REMARK SMILES IDX 10 1 9 2 11 3 12 4 13 5 14 6 15 7 16 8 17 9 18 10 19 11
REMARK SMILES IDX 20 12 8 13 7 14 6 15 5 16 4 17 3 18 2 19 1 20
REMARK H PARENT
REMARK Flexibility Score: inf
ROOT
ATOM      1  C   UNL     1      36.251  18.088  29.807  1.00  0.00    -0.031 C 
ATOM      2  C   UNL     1      35.463  18.050  30.892  1.00  0.00    -0.031 C 
ENDROOT
BRANCH   1   3
ATOM      3  C   UNL     1      37.675  18.568  29.885  1.00  0.00     0.027 C 
BRANCH   3   4
ATOM      4  C   UNL     1      38.643  17.392  30.094  1.00  0.00     0.004 C 
BRANCH   4   5
ATOM      5  C   UNL     1      40.110  17.843  30.190  1.00  0.00     0.000 C 
BRANCH   5   6
ATOM      6  C   UNL     1      40.271  19.167  30.954  1.00  0.00     0.000 C 
BRANCH   6   7
ATOM      7  C   UNL     1      41.013  19.000  32.293  1.00  0.00     0.000 C 
BRANCH   7   8
ATOM      8  C   UNL     1      40.108  18.886  33.533  1.00  0.00     0.006 C 
BRANCH   8   9
ATOM      9  C   UNL     1      38.748  19.572  33.347  1.00  0.00     0.053 C 
BRANCH   9  10
ATOM     10  C   UNL     1      37.654  18.722  33.910  1.00  0.00     0.041 C 
ATOM     11  O   UNL     1      36.807  19.220  34.700  1.00  0.00    -0.550 OA
ATOM     12  O   UNL     1      37.596  17.369  33.603  1.00  0.00    -0.550 OA
ENDBRANCH   9  10
ENDBRANCH   8   9
ENDBRANCH   7   8
ENDBRANCH   6   7
ENDBRANCH   5   6
ENDBRANCH   4   5
ENDBRANCH   3   4
ENDBRANCH   1   3
BRANCH   2  13
ATOM     13  C   UNL     1      34.046  17.551  30.818  1.00  0.00     0.027 C 
BRANCH  13  14
ATOM     14  C   UNL     1      33.695  17.094  29.396  1.00  0.00     0.004 C 
BRANCH  14  15
ATOM     15  C   UNL     1      33.220  15.636  29.390  1.00  0.00     0.000 C 
BRANCH  15  16
ATOM     16  C   UNL     1      34.244  14.721  30.080  1.00  0.00     0.000 C 
BRANCH  16  17
ATOM     17  C   UNL     1      35.457  14.415  29.188  1.00  0.00    -0.000 C 
BRANCH  17  18
ATOM     18  C   UNL     1      36.735  14.141  30.001  1.00  0.00    -0.000 C 
BRANCH  18  19
ATOM     19  C   UNL     1      36.574  14.495  31.487  1.00  0.00    -0.003 C 
ATOM     20  C   UNL     1      37.808  14.138  32.316  1.00  0.00     0.004 C 
ENDBRANCH  18  19
ENDBRANCH  17  18
ENDBRANCH  16  17
ENDBRANCH  15  16
ENDBRANCH  14  15
ENDBRANCH  13  14
ENDBRANCH   2  13
TORSDOF 15
ENDMDL
MODEL 3
REMARK VINA RESULT:    -4.765      2.905      5.905
REMARK INTER + INTRA:         -11.789
REMARK INTER:                  -9.289
REMARK INTRA:                  -2.500
REMARK UNBOUND:                -2.847
REMARK SMILES CCCCCCCCC=CCCCCCCCC(=O)[O-]
REMARK SMILES IDX 10 1 9 2 11 3 12 4 13 5 14 6 15 7 16 8 17 9 18 10 19 11
REMARK SMILES IDX 20 12 8 13 7 14 6 15 5 16 4 17 3 18 2 19 1 20
REMARK H PARENT
REMARK Flexibility Score: inf
ROOT
ATOM      1  C   UNL     1      37.150  17.789  34.646  1.00  0.00    -0.031 C 
ATOM      2  C   UNL     1      37.980  17.193  33.776  1.00  0.00    -0.031 C 
ENDROOT
BRANCH   1   3
ATOM      3  C   UNL     1      35.725  18.106  34.284  1.00  0.00     0.027 C 
BRANCH   3   4
ATOM      4  C   UNL     1      35.296  17.348  33.017  1.00  0.00     0.004 C 
BRANCH   4   5
ATOM      5  C   UNL     1      34.226  18.102  32.210  1.00  0.00     0.000 C 
BRANCH   5   6
ATOM      6  C   UNL     1      34.095  17.578  30.770  1.00  0.00     0.000 C 
BRANCH   6   7
ATOM      7  C   UNL     1      34.692  16.171  30.588  1.00  0.00     0.000 C 
BRANCH   7   8
ATOM      8  C   UNL     1      33.850  15.209  29.729  1.00  0.00     0.006 C 
BRANCH   8   9
ATOM      9  C   UNL     1      34.385  15.059  28.299  1.00  0.00     0.053 C 
BRANCH   9  10
ATOM     10  C   UNL     1      33.479  15.749  27.329  1.00  0.00     0.041 C 
ATOM     11  O   UNL     1      32.414  15.193  26.950  1.00  0.00    -0.550 OA
ATOM     12  O   UNL     1      33.834  16.985  26.803  1.00  0.00    -0.550 OA
ENDBRANCH   9  10
ENDBRANCH   8   9
ENDBRANCH   7   8
ENDBRANCH   6   7
ENDBRANCH   5   6
ENDBRANCH   4   5
ENDBRANCH   3   4
ENDBRANCH   1   3
BRANCH   2  13
ATOM     13  C   UNL     1      39.398  16.858  34.146  1.00  0.00     0.027 C 
BRANCH  13  14
ATOM     14  C   UNL     1      40.359  17.165  32.989  1.00  0.00     0.004 C 
BRANCH  14  15
ATOM     15  C   UNL     1      40.572  18.675  32.838  1.00  0.00     0.000 C 
BRANCH  15  16
ATOM     16  C   UNL     1      40.025  19.176  31.493  1.00  0.00     0.000 C 
BRANCH  16  17
ATOM     17  C   UNL     1      38.822  20.118  31.657  1.00  0.00    -0.000 C 
BRANCH  17  18
ATOM     18  C   UNL     1      37.527  19.532  31.067  1.00  0.00    -0.000 C 
BRANCH  18  19
ATOM     19  C   UNL     1      37.784  18.292  30.199  1.00  0.00    -0.003 C 
ATOM     20  C   UNL     1      37.172  18.411  28.803  1.00  0.00     0.004 C 
ENDBRANCH  18  19
ENDBRANCH  17  18
ENDBRANCH  16  17
ENDBRANCH  15  16
ENDBRANCH  14  15
ENDBRANCH  13  14
ENDBRANCH   2  13
TORSDOF 15
ENDMDL
MODEL 4
REMARK VINA RESULT:    -4.715      1.109      5.194
REMARK INTER + INTRA:         -11.697
REMARK INTER:                  -8.952
REMARK INTRA:                  -2.745
REMARK UNBOUND:                -2.847
REMARK SMILES CCCCCCCCC=CCCCCCCCC(=O)[O-]
REMARK SMILES IDX 10 1 9 2 11 3 12 4 13 5 14 6 15 7 16 8 17 9 18 10 19 11
REMARK SMILES IDX 20 12 8 13 7 14 6 15 5 16 4 17 3 18 2 19 1 20
REMARK H PARENT
REMARK Flexibility Score: inf
ROOT
ATOM      1  C   UNL     1      37.752  18.122  29.072  1.00  0.00    -0.031 C 
ATOM      2  C   UNL     1      38.464  17.964  30.199  1.00  0.00    -0.031 C 
ENDROOT
BRANCH   1   3
ATOM      3  C   UNL     1      37.086  16.958  28.392  1.00  0.00     0.027 C 
BRANCH   3   4
ATOM      4  C   UNL     1      35.723  17.366  27.808  1.00  0.00     0.004 C 
BRANCH   4   5
ATOM      5  C   UNL     1      34.591  16.413  28.224  1.00  0.00     0.000 C 
BRANCH   5   6
ATOM      6  C   UNL     1      34.523  16.206  29.746  1.00  0.00     0.000 C 
BRANCH   6   7
ATOM      7  C   UNL     1      33.884  17.398  30.484  1.00  0.00     0.000 C 
BRANCH   7   8
ATOM      8  C   UNL     1      34.837  18.189  31.397  1.00  0.00     0.006 C 
BRANCH   8   9
ATOM      9  C   UNL     1      35.330  17.372  32.599  1.00  0.00     0.053 C 
BRANCH   9  10
ATOM     10  C   UNL     1      34.800  17.947  33.874  1.00  0.00     0.041 C 
ATOM     11  O   UNL     1      33.576  18.228  33.981  1.00  0.00    -0.550 OA
ATOM     12  O   UNL     1      35.664  18.219  34.926  1.00  0.00    -0.550 OA
ENDBRANCH   9  10
ENDBRANCH   8   9
ENDBRANCH   7   8
ENDBRANCH   6   7
ENDBRANCH   5   6
ENDBRANCH   4   5
ENDBRANCH   3   4
ENDBRANCH   1   3
BRANCH   2  13
ATOM     13  C   UNL     1      39.113  19.130  30.890  1.00  0.00     0.027 C 
BRANCH  13  14
ATOM     14  C   UNL     1      38.146  19.796  31.878  1.00  0.00     0.004 C 
BRANCH  14  15
ATOM     15  C   UNL     1      38.554  19.505  33.327  1.00  0.00     0.000 C 
BRANCH  15  16
ATOM     16  C   UNL     1      40.021  19.055  33.405  1.00  0.00     0.000 C 
BRANCH  16  17
ATOM     17  C   UNL     1      40.169  17.604  33.890  1.00  0.00    -0.000 C 
BRANCH  17  18
ATOM     18  C   UNL     1      38.820  16.869  33.980  1.00  0.00    -0.000 C 
BRANCH  18  19
ATOM     19  C   UNL     1      38.751  15.651  33.047  1.00  0.00    -0.003 C 
ATOM     20  C   UNL     1      40.065  15.398  32.309  1.00  0.00     0.004 C 
ENDBRANCH  18  19
ENDBRANCH  17  18
ENDBRANCH  16  17
ENDBRANCH  15  16
ENDBRANCH  14  15
ENDBRANCH  13  14
ENDBRANCH   2  13
TORSDOF 15
ENDMDL
MODEL 5
REMARK VINA RESULT:    -4.701      2.051      4.978
REMARK INTER + INTRA:         -11.671
REMARK INTER:                  -8.956
REMARK INTRA:                  -2.715
REMARK UNBOUND:                -2.847
REMARK SMILES CCCCCCCCC=CCCCCCCCC(=O)[O-]
REMARK SMILES IDX 10 1 9 2 11 3 12 4 13 5 14 6 15 7 16 8 17 9 18 10 19 11
REMARK SMILES IDX 20 12 8 13 7 14 6 15 5 16 4 17 3 18 2 19 1 20
REMARK H PARENT
REMARK Flexibility Score: inf
ROOT
ATOM      1  C   UNL     1      38.067  18.723  30.252  1.00  0.00    -0.031 C 
ATOM      2  C   UNL     1      37.738  19.588  31.224  1.00  0.00    -0.031 C 
ENDROOT
BRANCH   1   3
ATOM      3  C   UNL     1      37.023  18.100  29.366  1.00  0.00     0.027 C 
BRANCH   3   4
ATOM      4  C   UNL     1      37.662  17.133  28.356  1.00  0.00     0.004 C 
BRANCH   4   5
ATOM      5  C   UNL     1      38.280  15.897  29.029  1.00  0.00     0.000 C 
BRANCH   5   6
ATOM      6  C   UNL     1      37.251  15.089  29.837  1.00  0.00     0.000 C 
BRANCH   6   7
ATOM      7  C   UNL     1      36.445  14.105  28.968  1.00  0.00     0.000 C 
BRANCH   7   8
ATOM      8  C   UNL     1      34.998  14.532  28.666  1.00  0.00     0.006 C 
BRANCH   8   9
ATOM      9  C   UNL     1      34.297  15.166  29.875  1.00  0.00     0.053 C 
BRANCH   9  10
ATOM     10  C   UNL     1      33.696  16.483  29.499  1.00  0.00     0.041 C 
ATOM     11  O   UNL     1      33.552  17.385  30.366  1.00  0.00    -0.550 OA
ATOM     12  O   UNL     1      33.249  16.698  28.201  1.00  0.00    -0.550 OA
ENDBRANCH   9  10
ENDBRANCH   8   9
ENDBRANCH   7   8
ENDBRANCH   6   7
ENDBRANCH   5   6
ENDBRANCH   4   5
ENDBRANCH   3   4
ENDBRANCH   1   3
BRANCH   2  13
ATOM     13  C   UNL     1      38.783  20.227  32.095  1.00  0.00     0.027 C 
BRANCH  13  14
ATOM     14  C   UNL     1      38.837  19.558  33.475  1.00  0.00     0.004 C 
BRANCH  14  15
ATOM     15  C   UNL     1      39.967  18.524  33.540  1.00  0.00     0.000 C 
BRANCH  15  16
ATOM     16  C   UNL     1      39.417  17.098  33.395  1.00  0.00     0.000 C 
BRANCH  16  17
ATOM     17  C   UNL     1      38.062  16.912  34.097  1.00  0.00    -0.000 C 
BRANCH  17  18
ATOM     18  C   UNL     1      37.005  16.268  33.184  1.00  0.00    -0.000 C 
BRANCH  18  19
ATOM     19  C   UNL     1      35.797  17.186  32.944  1.00  0.00    -0.003 C 
ATOM     20  C   UNL     1      35.381  17.953  34.200  1.00  0.00     0.004 C 
ENDBRANCH  18  19
ENDBRANCH  17  18
ENDBRANCH  16  17
ENDBRANCH  15  16
ENDBRANCH  14  15
ENDBRANCH  13  14
ENDBRANCH   2  13
TORSDOF 15
ENDMDL
MODEL 6
REMARK VINA RESULT:    -4.688      2.720      5.404
REMARK INTER + INTRA:         -11.646
REMARK INTER:                  -9.048
REMARK INTRA:                  -2.598
REMARK UNBOUND:                -2.847
REMARK SMILES CCCCCCCCC=CCCCCCCCC(=O)[O-]
REMARK SMILES IDX 10 1 9 2 11 3 12 4 13 5 14 6 15 7 16 8 17 9 18 10 19 11
REMARK SMILES IDX 20 12 8 13 7 14 6 15 5 16 4 17 3 18 2 19 1 20
REMARK H PARENT
REMARK Flexibility Score: inf
ROOT
ATOM      1  C   UNL     1      37.777  18.812  33.520  1.00  0.00    -0.031 C 
ATOM      2  C   UNL     1      38.502  19.874  33.138  1.00  0.00    -0.031 C 
ENDROOT
BRANCH   1   3
ATOM      3  C   UNL     1      36.879  18.864  34.726  1.00  0.00     0.027 C 
BRANCH   3   4
ATOM      4  C   UNL     1      35.618  18.011  34.513  1.00  0.00     0.004 C 
BRANCH   4   5
ATOM      5  C   UNL     1      35.490  17.492  33.072  1.00  0.00     0.000 C 
BRANCH   5   6
ATOM      6  C   UNL     1      34.295  18.108  32.327  1.00  0.00     0.000 C 
BRANCH   6   7
ATOM      7  C   UNL     1      34.264  17.738  30.833  1.00  0.00     0.000 C 
BRANCH   7   8
ATOM      8  C   UNL     1      35.611  17.282  30.244  1.00  0.00     0.006 C 
BRANCH   8   9
ATOM      9  C   UNL     1      35.465  16.595  28.880  1.00  0.00     0.053 C 
BRANCH   9  10
ATOM     10  C   UNL     1      36.153  17.392  27.818  1.00  0.00     0.041 C 
ATOM     11  O   UNL     1      37.409  17.494  27.815  1.00  0.00    -0.550 OA
ATOM     12  O   UNL     1      35.406  18.064  26.858  1.00  0.00    -0.550 OA
ENDBRANCH   9  10
ENDBRANCH   8   9
ENDBRANCH   7   8
ENDBRANCH   6   7
ENDBRANCH   5   6
ENDBRANCH   4   5
ENDBRANCH   3   4
ENDBRANCH   1   3
BRANCH   2  13
ATOM     13  C   UNL     1      39.383  19.828  31.921  1.00  0.00     0.027 C 
BRANCH  13  14
ATOM     14  C   UNL     1      38.807  18.886  30.856  1.00  0.00     0.004 C 
BRANCH  14  15
ATOM     15  C   UNL     1      39.897  17.971  30.284  1.00  0.00     0.000 C 
BRANCH  15  16
ATOM     16  C   UNL     1      39.520  16.492  30.460  1.00  0.00     0.000 C 
BRANCH  16  17
ATOM     17  C   UNL     1      39.565  16.041  31.929  1.00  0.00    -0.000 C 
BRANCH  17  18
ATOM     18  C   UNL     1      40.974  16.151  32.539  1.00  0.00    -0.000 C 
BRANCH  18  19
ATOM     19  C   UNL     1      41.001  17.026  33.802  1.00  0.00    -0.003 C 
ATOM     20  C   UNL     1      40.337  16.350  35.001  1.00  0.00     0.004 C 
ENDBRANCH  18  19
ENDBRANCH  17  18
ENDBRANCH  16  17
ENDBRANCH  15  16
ENDBRANCH  14  15
ENDBRANCH  13  14
ENDBRANCH   2  13
TORSDOF 15
ENDMDL
MODEL 7
REMARK VINA RESULT:    -4.685      2.283      4.341
REMARK INTER + INTRA:         -11.640
REMARK INTER:                  -8.675
REMARK INTRA:                  -2.965
REMARK UNBOUND:                -2.847
REMARK SMILES CCCCCCCCC=CCCCCCCCC(=O)[O-]
REMARK SMILES IDX 10 1 9 2 11 3 12 4 13 5 14 6 15 7 16 8 17 9 18 10 19 11
REMARK SMILES IDX 20 12 8 13 7 14 6 15 5 16 4 17 3 18 2 19 1 20
REMARK H PARENT
REMARK Flexibility Score: inf
ROOT
ATOM      1  C   UNL     1      34.449  17.923  31.117  1.00  0.00    -0.031 C 
ATOM      2  C   UNL     1      34.049  16.757  30.588  1.00  0.00    -0.031 C 
ENDROOT
BRANCH   1   3
ATOM      3  C   UNL     1      34.961  18.012  32.529  1.00  0.00     0.027 C 
BRANCH   3   4
ATOM      4  C   UNL     1      35.978  16.896  32.820  1.00  0.00     0.004 C 
BRANCH   4   5
ATOM      5  C   UNL     1      37.348  17.442  33.251  1.00  0.00     0.000 C 
BRANCH   5   6
ATOM      6  C   UNL     1      37.307  18.942  33.587  1.00  0.00     0.000 C 
BRANCH   6   7
ATOM      7  C   UNL     1      38.567  19.695  33.123  1.00  0.00     0.000 C 
BRANCH   7   8
ATOM      8  C   UNL     1      39.903  19.052  33.536  1.00  0.00     0.006 C 
BRANCH   8   9
ATOM      9  C   UNL     1      40.889  18.918  32.368  1.00  0.00     0.053 C 
BRANCH   9  10
ATOM     10  C   UNL     1      40.975  17.493  31.920  1.00  0.00     0.041 C 
ATOM     11  O   UNL     1      40.980  16.561  32.768  1.00  0.00    -0.550 OA
ATOM     12  O   UNL     1      41.100  17.195  30.569  1.00  0.00    -0.550 OA
ENDBRANCH   9  10
ENDBRANCH   8   9
ENDBRANCH   7   8
ENDBRANCH   6   7
ENDBRANCH   5   6
ENDBRANCH   4   5
ENDBRANCH   3   4
ENDBRANCH   1   3
BRANCH   2  13
ATOM     13  C   UNL     1      33.557  16.664  29.170  1.00  0.00     0.027 C 
BRANCH  13  14
ATOM     14  C   UNL     1      34.265  15.534  28.412  1.00  0.00     0.004 C 
BRANCH  14  15
ATOM     15  C   UNL     1      34.965  14.574  29.382  1.00  0.00     0.000 C 
BRANCH  15  16
ATOM     16  C   UNL     1      36.447  14.405  29.015  1.00  0.00     0.000 C 
BRANCH  16  17
ATOM     17  C   UNL     1      37.089  15.715  28.530  1.00  0.00    -0.000 C 
BRANCH  17  18
ATOM     18  C   UNL     1      37.825  16.466  29.653  1.00  0.00    -0.000 C 
BRANCH  18  19
ATOM     19  C   UNL     1      37.780  17.990  29.469  1.00  0.00    -0.003 C 
ATOM     20  C   UNL     1      36.903  18.416  28.291  1.00  0.00     0.004 C 
ENDBRANCH  18  19
ENDBRANCH  17  18
ENDBRANCH  16  17
ENDBRANCH  15  16
ENDBRANCH  14  15
ENDBRANCH  13  14
ENDBRANCH   2  13
TORSDOF 15
ENDMDL
MODEL 8
REMARK VINA RESULT:    -4.644      2.574      6.245
REMARK INTER + INTRA:         -11.564
REMARK INTER:                  -9.360
REMARK INTRA:                  -2.204
REMARK UNBOUND:                -2.847
REMARK SMILES CCCCCCCCC=CCCCCCCCC(=O)[O-]
REMARK SMILES IDX 10 1 9 2 11 3 12 4 13 5 14 6 15 7 16 8 17 9 18 10 19 11
REMARK SMILES IDX 20 12 8 13 7 14 6 15 5 16 4 17 3 18 2 19 1 20
REMARK H PARENT
REMARK Flexibility Score: inf
ROOT
ATOM      1  C   UNL     1      34.997  17.270  31.571  1.00  0.00    -0.031 C 
ATOM      2  C   UNL     1      34.874  17.746  32.820  1.00  0.00    -0.031 C 
ENDROOT
BRANCH   1   3
ATOM      3  C   UNL     1      33.990  17.595  30.502  1.00  0.00     0.027 C 
BRANCH   3   4
ATOM      4  C   UNL     1      33.574  16.330  29.732  1.00  0.00     0.004 C 
BRANCH   4   5
ATOM      5  C   UNL     1      34.441  15.111  30.085  1.00  0.00     0.000 C 
BRANCH   5   6
ATOM      6  C   UNL     1      35.048  14.439  28.843  1.00  0.00     0.000 C 
BRANCH   6   7
ATOM      7  C   UNL     1      36.588  14.441  28.852  1.00  0.00     0.000 C 
BRANCH   7   8
ATOM      8  C   UNL     1      37.238  15.779  29.247  1.00  0.00     0.006 C 
BRANCH   8   9
ATOM      9  C   UNL     1      37.623  16.638  28.035  1.00  0.00     0.053 C 
BRANCH   9  10
ATOM     10  C   UNL     1      36.701  17.810  27.912  1.00  0.00     0.041 C 
ATOM     11  O   UNL     1      36.910  18.854  28.585  1.00  0.00    -0.550 OA
ATOM     12  O   UNL     1      35.582  17.731  27.092  1.00  0.00    -0.550 OA
ENDBRANCH   9  10
ENDBRANCH   8   9
ENDBRANCH   7   8
ENDBRANCH   6   7
ENDBRANCH   5   6
ENDBRANCH   4   5
ENDBRANCH   3   4
ENDBRANCH   1   3
BRANCH   2  13
ATOM     13  C   UNL     1      35.893  17.439  33.882  1.00  0.00     0.027 C 
BRANCH  13  14
ATOM     14  C   UNL     1      36.361  18.719  34.586  1.00  0.00     0.004 C 
BRANCH  14  15
ATOM     15  C   UNL     1      37.761  19.126  34.111  1.00  0.00     0.000 C 
BRANCH  15  16
ATOM     16  C   UNL     1      38.551  17.905  33.618  1.00  0.00     0.000 C 
BRANCH  16  17
ATOM     17  C   UNL     1      40.019  18.237  33.305  1.00  0.00    -0.000 C 
BRANCH  17  18
ATOM     18  C   UNL     1      40.163  19.288  32.190  1.00  0.00    -0.000 C 
BRANCH  18  19
ATOM     19  C   UNL     1      39.581  18.808  30.851  1.00  0.00    -0.003 C 
ATOM     20  C   UNL     1      40.468  17.772  30.160  1.00  0.00     0.004 C 
ENDBRANCH  18  19
ENDBRANCH  17  18
ENDBRANCH  16  17
ENDBRANCH  15  16
ENDBRANCH  14  15
ENDBRANCH  13  14
ENDBRANCH   2  13
TORSDOF 15
ENDMDL
MODEL 9
REMARK VINA RESULT:    -4.620      1.607      3.693
REMARK INTER + INTRA:         -11.519
REMARK INTER:                  -8.774
REMARK INTRA:                  -2.745
REMARK UNBOUND:                -2.847
REMARK SMILES CCCCCCCCC=CCCCCCCCC(=O)[O-]
REMARK SMILES IDX 10 1 9 2 11 3 12 4 13 5 14 6 15 7 16 8 17 9 18 10 19 11
REMARK SMILES IDX 20 12 8 13 7 14 6 15 5 16 4 17 3 18 2 19 1 20
REMARK H PARENT
REMARK Flexibility Score: inf
ROOT
ATOM      1  C   UNL     1      35.735  17.764  33.315  1.00  0.00    -0.031 C 
ATOM      2  C   UNL     1      35.487  17.372  32.055  1.00  0.00    -0.031 C 
ENDROOT
BRANCH   1   3
ATOM      3  C   UNL     1      36.872  17.184  34.109  1.00  0.00     0.027 C 
BRANCH   3   4
ATOM      4  C   UNL     1      37.370  15.870  33.484  1.00  0.00     0.004 C 
BRANCH   4   5
ATOM      5  C   UNL     1      38.841  15.943  33.046  1.00  0.00     0.000 C 
BRANCH   5   6
ATOM      6  C   UNL     1      39.671  16.895  33.923  1.00  0.00     0.000 C 
BRANCH   6   7
ATOM      7  C   UNL     1      40.933  17.417  33.212  1.00  0.00     0.000 C 
BRANCH   7   8
ATOM      8  C   UNL     1      40.855  18.876  32.726  1.00  0.00     0.006 C 
BRANCH   8   9
ATOM      9  C   UNL     1      40.075  19.029  31.414  1.00  0.00     0.053 C 
BRANCH   9  10
ATOM     10  C   UNL     1      38.733  19.636  31.672  1.00  0.00     0.041 C 
ATOM     11  O   UNL     1      37.818  19.542  30.811  1.00  0.00    -0.550 OA
ATOM     12  O   UNL     1      38.506  20.349  32.843  1.00  0.00    -0.550 OA
ENDBRANCH   9  10
ENDBRANCH   8   9
ENDBRANCH   7   8
ENDBRANCH   6   7
ENDBRANCH   5   6
ENDBRANCH   4   5
ENDBRANCH   3   4
ENDBRANCH   1   3
BRANCH   2  13
ATOM     13  C   UNL     1      34.362  17.967  31.254  1.00  0.00     0.027 C 
BRANCH  13  14
ATOM     14  C   UNL     1      33.903  17.008  30.148  1.00  0.00     0.004 C 
BRANCH  14  15
ATOM     15  C   UNL     1      34.391  15.581  30.421  1.00  0.00     0.000 C 
BRANCH  15  16
ATOM     16  C   UNL     1      34.539  14.790  29.112  1.00  0.00     0.000 C 
BRANCH  16  17
ATOM     17  C   UNL     1      35.974  14.819  28.563  1.00  0.00    -0.000 C 
BRANCH  17  18
ATOM     18  C   UNL     1      37.024  15.048  29.664  1.00  0.00    -0.000 C 
BRANCH  18  19
ATOM     19  C   UNL     1      37.904  16.277  29.391  1.00  0.00    -0.003 C 
ATOM     20  C   UNL     1      37.384  17.129  28.232  1.00  0.00     0.004 C 
ENDBRANCH  18  19
ENDBRANCH  17  18
ENDBRANCH  16  17
ENDBRANCH  15  16
ENDBRANCH  14  15
ENDBRANCH  13  14
ENDBRANCH   2  13
TORSDOF 15
ENDMDL
