MODEL 1
REMARK VINA RESULT:    -3.823      0.000      0.000
REMARK INTER + INTRA:          -8.596
REMARK INTER:                  -6.952
REMARK INTRA:                  -1.644
REMARK UNBOUND:                -1.644
REMARK SMILES CCCCCCCCCCCCCCCC(=O)[O-]
REMARK SMILES IDX 9 1 10 2 11 3 12 4 13 5 14 6 15 7 16 8 17 9 18 10 8 11 7 12
REMARK SMILES IDX 6 13 5 14 4 15 3 16 2 17 1 18
REMARK H PARENT
REMARK Flexibility Score: inf
ROOT
ATOM      1  C   UNL     1      43.348  -0.409  24.519  1.00  0.00     0.000 C 
ENDROOT
BRANCH   1   2
ATOM      2  C   UNL     1      42.718  -0.764  25.883  1.00  0.00     0.000 C 
BRANCH   2   3
ATOM      3  C   UNL     1      43.417  -1.930  26.606  1.00  0.00     0.000 C 
BRANCH   3   4
ATOM      4  C   UNL     1      42.715  -3.296  26.479  1.00  0.00     0.000 C 
BRANCH   4   5
ATOM      5  C   UNL     1      43.580  -4.420  25.876  1.00  0.00     0.000 C 
BRANCH   5   6
ATOM      6  C   UNL     1      44.191  -5.342  26.946  1.00  0.00     0.006 C 
BRANCH   6   7
ATOM      7  C   UNL     1      43.124  -6.175  27.669  1.00  0.00     0.053 C 
BRANCH   7   8
ATOM      8  C   UNL     1      43.641  -6.756  28.950  1.00  0.00     0.041 C 
ATOM      9  O   UNL     1      42.839  -7.187  29.819  1.00  0.00    -0.550 OA
ATOM     10  O   UNL     1      45.010  -6.852  29.169  1.00  0.00    -0.550 OA
ENDBRANCH   7   8
ENDBRANCH   6   7
ENDBRANCH   5   6
ENDBRANCH   4   5
ENDBRANCH   3   4
ENDBRANCH   2   3
ENDBRANCH   1   2
BRANCH   1  11
ATOM     11  C   UNL     1      44.852  -0.711  24.468  1.00  0.00     0.000 C 
BRANCH  11  12
ATOM     12  C   UNL     1      45.230  -1.398  23.146  1.00  0.00    -0.000 C 
BRANCH  12  13
ATOM     13  C   UNL     1      45.612  -2.875  23.331  1.00  0.00    -0.000 C 
BRANCH  13  14
ATOM     14  C   UNL     1      47.051  -3.113  23.830  1.00  0.00    -0.000 C 
BRANCH  14  15
ATOM     15  C   UNL     1      47.152  -4.156  24.963  1.00  0.00    -0.000 C 
BRANCH  15  16
ATOM     16  C   UNL     1      47.299  -5.590  24.424  1.00  0.00    -0.000 C 
BRANCH  16  17
ATOM     17  C   UNL     1      47.947  -6.541  25.443  1.00  0.00    -0.003 C 
ATOM     18  C   UNL     1      47.767  -6.073  26.887  1.00  0.00     0.004 C 
ENDBRANCH  16  17
ENDBRANCH  15  16
ENDBRANCH  14  15
ENDBRANCH  13  14
ENDBRANCH  12  13
ENDBRANCH  11  12
ENDBRANCH   1  11
TORSDOF 14
ENDMDL
MODEL 2
REMARK VINA RESULT:    -3.815      2.227      4.433
REMARK INTER + INTRA:          -8.582
REMARK INTER:                  -6.262
REMARK INTRA:                  -2.320
REMARK UNBOUND:                -1.644
REMARK SMILES CCCCCCCCCCCCCCCC(=O)[O-]
REMARK SMILES IDX 9 1 10 2 11 3 12 4 13 5 14 6 15 7 16 8 17 9 18 10 8 11 7 12
REMARK SMILES IDX 6 13 5 14 4 15 3 16 2 17 1 18
REMARK H PARENT
REMARK Flexibility Score: inf
ROOT
ATOM      1  C   UNL     1      44.785  -0.153  25.301  1.00  0.00     0.000 C 
ENDROOT
BRANCH   1   2
ATOM      2  C   UNL     1      45.941  -0.419  24.314  1.00  0.00     0.000 C 
BRANCH   2   3
ATOM      3  C   UNL     1      45.604  -1.454  23.224  1.00  0.00     0.000 C 
BRANCH   3   4
ATOM      4  C   UNL     1      46.071  -2.893  23.519  1.00  0.00     0.000 C 
BRANCH   4   5
ATOM      5  C   UNL     1      45.143  -3.703  24.443  1.00  0.00     0.000 C 
BRANCH   5   6
ATOM      6  C   UNL     1      45.896  -4.374  25.606  1.00  0.00     0.006 C 
BRANCH   6   7
ATOM      7  C   UNL     1      46.311  -3.366  26.685  1.00  0.00     0.053 C 
BRANCH   7   8
ATOM      8  C   UNL     1      47.737  -3.554  27.107  1.00  0.00     0.041 C 
ATOM      9  O   UNL     1      48.005  -3.989  28.258  1.00  0.00    -0.550 OA
ATOM     10  O   UNL     1      48.769  -3.281  26.217  1.00  0.00    -0.550 OA
ENDBRANCH   7   8
ENDBRANCH   6   7
ENDBRANCH   5   6
ENDBRANCH   4   5
ENDBRANCH   3   4
ENDBRANCH   2   3
ENDBRANCH   1   2
BRANCH   1  11
ATOM     11  C   UNL     1      43.404  -0.366  24.663  1.00  0.00     0.000 C 
BRANCH  11  12
ATOM     12  C   UNL     1      42.370  -0.788  25.719  1.00  0.00    -0.000 C 
BRANCH  12  13
ATOM     13  C   UNL     1      42.928  -1.811  26.721  1.00  0.00    -0.000 C 
BRANCH  13  14
ATOM     14  C   UNL     1      42.205  -3.172  26.726  1.00  0.00    -0.000 C 
BRANCH  14  15
ATOM     15  C   UNL     1      42.615  -4.090  27.898  1.00  0.00    -0.000 C 
BRANCH  15  16
ATOM     16  C   UNL     1      42.985  -5.507  27.425  1.00  0.00    -0.000 C 
BRANCH  16  17
ATOM     17  C   UNL     1      43.528  -6.386  28.563  1.00  0.00    -0.003 C 
ATOM     18  C   UNL     1      45.033  -6.221  28.773  1.00  0.00     0.004 C 
ENDBRANCH  16  17
ENDBRANCH  15  16
ENDBRANCH  14  15
ENDBRANCH  13  14
ENDBRANCH  12  13
ENDBRANCH  11  12
ENDBRANCH   1  11
TORSDOF 14
ENDMDL
MODEL 3
REMARK VINA RESULT:    -3.804      2.754      5.099
REMARK INTER + INTRA:          -8.562
REMARK INTER:                  -5.975
REMARK INTRA:                  -2.586
REMARK UNBOUND:                -1.644
REMARK SMILES CCCCCCCCCCCCCCCC(=O)[O-]
REMARK SMILES IDX 9 1 10 2 11 3 12 4 13 5 14 6 15 7 16 8 17 9 18 10 8 11 7 12
REMARK SMILES IDX 6 13 5 14 4 15 3 16 2 17 1 18
REMARK H PARENT
REMARK Flexibility Score: inf
ROOT
ATOM      1  C   UNL     1      41.663  -4.504  26.969  1.00  0.00     0.000 C 
ENDROOT
BRANCH   1   2
ATOM      2  C   UNL     1      42.637  -5.618  26.529  1.00  0.00     0.000 C 
BRANCH   2   3
ATOM      3  C   UNL     1      43.559  -5.213  25.362  1.00  0.00     0.000 C 
BRANCH   3   4
ATOM      4  C   UNL     1      44.981  -4.783  25.770  1.00  0.00     0.000 C 
BRANCH   4   5
ATOM      5  C   UNL     1      45.418  -5.227  27.178  1.00  0.00     0.000 C 
BRANCH   5   6
ATOM      6  C   UNL     1      46.284  -4.176  27.895  1.00  0.00     0.006 C 
BRANCH   6   7
ATOM      7  C   UNL     1      46.553  -2.949  27.012  1.00  0.00     0.053 C 
BRANCH   7   8
ATOM      8  C   UNL     1      47.980  -2.889  26.560  1.00  0.00     0.041 C 
ATOM      9  O   UNL     1      48.500  -1.784  26.251  1.00  0.00    -0.550 OA
ATOM     10  O   UNL     1      48.746  -4.047  26.511  1.00  0.00    -0.550 OA
ENDBRANCH   7   8
ENDBRANCH   6   7
ENDBRANCH   5   6
ENDBRANCH   4   5
ENDBRANCH   3   4
ENDBRANCH   2   3
ENDBRANCH   1   2
BRANCH   1  11
ATOM     11  C   UNL     1      42.120  -3.795  28.252  1.00  0.00     0.000 C 
BRANCH  11  12
ATOM     12  C   UNL     1      42.902  -2.514  27.923  1.00  0.00    -0.000 C 
BRANCH  12  13
ATOM     13  C   UNL     1      42.488  -1.894  26.578  1.00  0.00    -0.000 C 
BRANCH  13  14
ATOM     14  C   UNL     1      43.438  -0.801  26.050  1.00  0.00    -0.000 C 
BRANCH  14  15
ATOM     15  C   UNL     1      44.111  -1.158  24.707  1.00  0.00    -0.000 C 
BRANCH  15  16
ATOM     16  C   UNL     1      45.456  -0.435  24.519  1.00  0.00    -0.000 C 
BRANCH  16  17
ATOM     17  C   UNL     1      46.361  -1.128  23.488  1.00  0.00    -0.003 C 
ATOM     18  C   UNL     1      45.814  -2.482  23.036  1.00  0.00     0.004 C 
ENDBRANCH  16  17
ENDBRANCH  15  16
ENDBRANCH  14  15
ENDBRANCH  13  14
ENDBRANCH  12  13
ENDBRANCH  11  12
ENDBRANCH   1  11
TORSDOF 14
ENDMDL
MODEL 4
REMARK VINA RESULT:    -3.719      2.316      4.747
REMARK INTER + INTRA:          -8.407
REMARK INTER:                  -6.289
REMARK INTRA:                  -2.118
REMARK UNBOUND:                -1.644
REMARK SMILES CCCCCCCCCCCCCCCC(=O)[O-]
REMARK SMILES IDX 9 1 10 2 11 3 12 4 13 5 14 6 15 7 16 8 17 9 18 10 8 11 7 12
REMARK SMILES IDX 6 13 5 14 4 15 3 16 2 17 1 18
REMARK H PARENT
REMARK Flexibility Score: inf
ROOT
ATOM      1  C   UNL     1      45.496  -0.678  24.202  1.00  0.00     0.000 C 
ENDROOT
BRANCH   1   2
ATOM      2  C   UNL     1      45.397  -1.776  23.122  1.00  0.00     0.000 C 
BRANCH   2   3
ATOM      3  C   UNL     1      45.545  -3.206  23.673  1.00  0.00     0.000 C 
BRANCH   3   4
ATOM      4  C   UNL     1      46.805  -3.453  24.526  1.00  0.00     0.000 C 
BRANCH   4   5
ATOM      5  C   UNL     1      47.598  -4.723  24.165  1.00  0.00     0.000 C 
BRANCH   5   6
ATOM      6  C   UNL     1      47.379  -5.869  25.168  1.00  0.00     0.006 C 
BRANCH   6   7
ATOM      7  C   UNL     1      48.690  -6.580  25.529  1.00  0.00     0.053 C 
BRANCH   7   8
ATOM      8  C   UNL     1      49.597  -5.703  26.338  1.00  0.00     0.041 C 
ATOM      9  O   UNL     1      50.812  -5.591  26.027  1.00  0.00    -0.550 OA
ATOM     10  O   UNL     1      49.093  -4.984  27.414  1.00  0.00    -0.550 OA
ENDBRANCH   7   8
ENDBRANCH   6   7
ENDBRANCH   5   6
ENDBRANCH   4   5
ENDBRANCH   3   4
ENDBRANCH   2   3
ENDBRANCH   1   2
BRANCH   1  11
ATOM     11  C   UNL     1      44.121  -0.247  24.733  1.00  0.00     0.000 C 
BRANCH  11  12
ATOM     12  C   UNL     1      43.860  -0.841  26.126  1.00  0.00    -0.000 C 
BRANCH  12  13
ATOM     13  C   UNL     1      42.537  -1.621  26.201  1.00  0.00    -0.000 C 
BRANCH  13  14
ATOM     14  C   UNL     1      42.581  -2.885  27.082  1.00  0.00    -0.000 C 
BRANCH  14  15
ATOM     15  C   UNL     1      43.182  -4.118  26.372  1.00  0.00    -0.000 C 
BRANCH  15  16
ATOM     16  C   UNL     1      44.434  -4.650  27.089  1.00  0.00    -0.000 C 
BRANCH  16  17
ATOM     17  C   UNL     1      44.847  -3.775  28.284  1.00  0.00    -0.003 C 
ATOM     18  C   UNL     1      46.180  -3.061  28.062  1.00  0.00     0.004 C 
ENDBRANCH  16  17
ENDBRANCH  15  16
ENDBRANCH  14  15
ENDBRANCH  13  14
ENDBRANCH  12  13
ENDBRANCH  11  12
ENDBRANCH   1  11
TORSDOF 14
ENDMDL
MODEL 5
REMARK VINA RESULT:    -3.672      1.810      4.627
REMARK INTER + INTRA:          -8.322
REMARK INTER:                  -6.454
REMARK INTRA:                  -1.868
REMARK UNBOUND:                -1.644
REMARK SMILES CCCCCCCCCCCCCCCC(=O)[O-]
REMARK SMILES IDX 9 1 10 2 11 3 12 4 13 5 14 6 15 7 16 8 17 9 18 10 8 11 7 12
REMARK SMILES IDX 6 13 5 14 4 15 3 16 2 17 1 18
REMARK H PARENT
REMARK Flexibility Score: inf
ROOT
ATOM      1  C   UNL     1      46.453  -3.115  24.337  1.00  0.00     0.000 C 
ENDROOT
BRANCH   1   2
ATOM      2  C   UNL     1      47.858  -3.385  23.759  1.00  0.00     0.000 C 
BRANCH   2   3
ATOM      3  C   UNL     1      48.278  -4.866  23.810  1.00  0.00     0.000 C 
BRANCH   3   4
ATOM      4  C   UNL     1      47.441  -5.753  24.752  1.00  0.00     0.000 C 
BRANCH   4   5
ATOM      5  C   UNL     1      48.257  -6.678  25.673  1.00  0.00     0.000 C 
BRANCH   5   6
ATOM      6  C   UNL     1      47.835  -6.574  27.150  1.00  0.00     0.006 C 
BRANCH   6   7
ATOM      7  C   UNL     1      46.755  -5.506  27.369  1.00  0.00     0.053 C 
BRANCH   7   8
ATOM      8  C   UNL     1      47.253  -4.373  28.212  1.00  0.00     0.041 C 
ATOM      9  O   UNL     1      47.369  -3.220  27.719  1.00  0.00    -0.550 OA
ATOM     10  O   UNL     1      47.556  -4.582  29.552  1.00  0.00    -0.550 OA
ENDBRANCH   7   8
ENDBRANCH   6   7
ENDBRANCH   5   6
ENDBRANCH   4   5
ENDBRANCH   3   4
ENDBRANCH   2   3
ENDBRANCH   1   2
BRANCH   1  11
ATOM     11  C   UNL     1      45.479  -2.563  23.286  1.00  0.00     0.000 C 
BRANCH  11  12
ATOM     12  C   UNL     1      44.754  -1.315  23.812  1.00  0.00    -0.000 C 
BRANCH  12  13
ATOM     13  C   UNL     1      44.671  -1.277  25.346  1.00  0.00    -0.000 C 
BRANCH  13  14
ATOM     14  C   UNL     1      43.250  -1.093  25.913  1.00  0.00    -0.000 C 
BRANCH  14  15
ATOM     15  C   UNL     1      42.666  -2.370  26.556  1.00  0.00    -0.000 C 
BRANCH  15  16
ATOM     16  C   UNL     1      43.737  -3.453  26.774  1.00  0.00    -0.000 C 
BRANCH  16  17
ATOM     17  C   UNL     1      43.473  -4.720  25.944  1.00  0.00    -0.003 C 
ATOM     18  C   UNL     1      42.948  -5.881  26.787  1.00  0.00     0.004 C 
ENDBRANCH  16  17
ENDBRANCH  15  16
ENDBRANCH  14  15
ENDBRANCH  13  14
ENDBRANCH  12  13
ENDBRANCH  11  12
ENDBRANCH   1  11
TORSDOF 14
ENDMDL
MODEL 6
REMARK VINA RESULT:    -3.670      2.284      5.056
REMARK INTER + INTRA:          -8.318
REMARK INTER:                  -6.389
REMARK INTRA:                  -1.929
REMARK UNBOUND:                -1.644
REMARK SMILES CCCCCCCCCCCCCCCC(=O)[O-]
REMARK SMILES IDX 9 1 10 2 11 3 12 4 13 5 14 6 15 7 16 8 17 9 18 10 8 11 7 12
REMARK SMILES IDX 6 13 5 14 4 15 3 16 2 17 1 18
REMARK H PARENT
REMARK Flexibility Score: inf
ROOT
ATOM      1  C   UNL     1      46.829  -5.557  27.996  1.00  0.00     0.000 C 
ENDROOT
BRANCH   1   2
ATOM      2  C   UNL     1      45.992  -5.897  29.247  1.00  0.00     0.000 C 
BRANCH   2   3
ATOM      3  C   UNL     1      44.638  -6.559  28.928  1.00  0.00     0.000 C 
BRANCH   3   4
ATOM      4  C   UNL     1      43.553  -5.605  28.391  1.00  0.00     0.000 C 
BRANCH   4   5
ATOM      5  C   UNL     1      43.274  -5.721  26.881  1.00  0.00     0.000 C 
BRANCH   5   6
ATOM      6  C   UNL     1      43.752  -4.490  26.089  1.00  0.00     0.006 C 
BRANCH   6   7
ATOM      7  C   UNL     1      43.627  -3.195  26.903  1.00  0.00     0.053 C 
BRANCH   7   8
ATOM      8  C   UNL     1      42.340  -2.481  26.622  1.00  0.00     0.041 C 
ATOM      9  O   UNL     1      42.352  -1.333  26.106  1.00  0.00    -0.550 OA
ATOM     10  O   UNL     1      41.126  -3.097  26.901  1.00  0.00    -0.550 OA
ENDBRANCH   7   8
ENDBRANCH   6   7
ENDBRANCH   5   6
ENDBRANCH   4   5
ENDBRANCH   3   4
ENDBRANCH   2   3
ENDBRANCH   1   2
BRANCH   1  11
ATOM     11  C   UNL     1      47.743  -6.713  27.565  1.00  0.00     0.000 C 
BRANCH  11  12
ATOM     12  C   UNL     1      48.179  -6.552  26.100  1.00  0.00    -0.000 C 
BRANCH  12  13
ATOM     13  C   UNL     1      47.125  -5.834  25.242  1.00  0.00    -0.000 C 
BRANCH  13  14
ATOM     14  C   UNL     1      47.687  -4.752  24.299  1.00  0.00    -0.000 C 
BRANCH  14  15
ATOM     15  C   UNL     1      47.177  -3.328  24.611  1.00  0.00    -0.000 C 
BRANCH  15  16
ATOM     16  C   UNL     1      46.557  -2.648  23.378  1.00  0.00    -0.000 C 
BRANCH  16  17
ATOM     17  C   UNL     1      45.156  -2.082  23.658  1.00  0.00    -0.003 C 
ATOM     18  C   UNL     1      45.193  -0.663  24.224  1.00  0.00     0.004 C 
ENDBRANCH  16  17
ENDBRANCH  15  16
ENDBRANCH  14  15
ENDBRANCH  13  14
ENDBRANCH  12  13
ENDBRANCH  11  12
ENDBRANCH   1  11
TORSDOF 14
ENDMDL
MODEL 7
REMARK VINA RESULT:    -3.665      3.119      6.398
REMARK INTER + INTRA:          -8.308
REMARK INTER:                  -6.701
REMARK INTRA:                  -1.607
REMARK UNBOUND:                -1.644
REMARK SMILES CCCCCCCCCCCCCCCC(=O)[O-]
REMARK SMILES IDX 9 1 10 2 11 3 12 4 13 5 14 6 15 7 16 8 17 9 18 10 8 11 7 12
REMARK SMILES IDX 6 13 5 14 4 15 3 16 2 17 1 18
REMARK H PARENT
REMARK Flexibility Score: inf
ROOT
ATOM      1  C   UNL     1      43.708  -6.291  29.092  1.00  0.00     0.000 C 
ENDROOT
BRANCH   1   2
ATOM      2  C   UNL     1      43.587  -5.986  27.584  1.00  0.00     0.000 C 
BRANCH   2   3
ATOM      3  C   UNL     1      44.264  -4.669  27.159  1.00  0.00     0.000 C 
BRANCH   3   4
ATOM      4  C   UNL     1      44.672  -4.590  25.675  1.00  0.00     0.000 C 
BRANCH   4   5
ATOM      5  C   UNL     1      45.499  -3.349  25.292  1.00  0.00     0.000 C 
BRANCH   5   6
ATOM      6  C   UNL     1      45.186  -2.837  23.875  1.00  0.00     0.006 C 
BRANCH   6   7
ATOM      7  C   UNL     1      45.530  -1.350  23.708  1.00  0.00     0.053 C 
BRANCH   7   8
ATOM      8  C   UNL     1      44.670  -0.478  24.571  1.00  0.00     0.041 C 
ATOM      9  O   UNL     1      45.195   0.271  25.436  1.00  0.00    -0.550 OA
ATOM     10  O   UNL     1      43.291  -0.469  24.398  1.00  0.00    -0.550 OA
ENDBRANCH   7   8
ENDBRANCH   6   7
ENDBRANCH   5   6
ENDBRANCH   4   5
ENDBRANCH   3   4
ENDBRANCH   2   3
ENDBRANCH   1   2
BRANCH   1  11
ATOM     11  C   UNL     1      43.232  -7.707  29.447  1.00  0.00     0.000 C 
BRANCH  11  12
ATOM     12  C   UNL     1      44.311  -8.468  30.232  1.00  0.00    -0.000 C 
BRANCH  12  13
ATOM     13  C   UNL     1      45.669  -7.748  30.228  1.00  0.00    -0.000 C 
BRANCH  13  14
ATOM     14  C   UNL     1      46.841  -8.580  29.673  1.00  0.00    -0.000 C 
BRANCH  14  15
ATOM     15  C   UNL     1      47.662  -7.851  28.586  1.00  0.00    -0.000 C 
BRANCH  15  16
ATOM     16  C   UNL     1      47.349  -6.346  28.532  1.00  0.00    -0.000 C 
BRANCH  16  17
ATOM     17  C   UNL     1      47.897  -5.674  27.263  1.00  0.00    -0.003 C 
ATOM     18  C   UNL     1      48.105  -6.661  26.114  1.00  0.00     0.004 C 
ENDBRANCH  16  17
ENDBRANCH  15  16
ENDBRANCH  14  15
ENDBRANCH  13  14
ENDBRANCH  12  13
ENDBRANCH  11  12
ENDBRANCH   1  11
TORSDOF 14
ENDMDL
MODEL 8
REMARK VINA RESULT:    -3.649      1.353      4.345
REMARK INTER + INTRA:          -8.279
REMARK INTER:                  -6.053
REMARK INTRA:                  -2.226
REMARK UNBOUND:                -1.644
REMARK SMILES CCCCCCCCCCCCCCCC(=O)[O-]
REMARK SMILES IDX 9 1 10 2 11 3 12 4 13 5 14 6 15 7 16 8 17 9 18 10 8 11 7 12
REMARK SMILES IDX 6 13 5 14 4 15 3 16 2 17 1 18
REMARK H PARENT
REMARK Flexibility Score: inf
ROOT
ATOM      1  C   UNL     1      44.750  -4.502  25.346  1.00  0.00     0.000 C 
ENDROOT
BRANCH   1   2
ATOM      2  C   UNL     1      46.003  -3.935  26.047  1.00  0.00     0.000 C 
BRANCH   2   3
ATOM      3  C   UNL     1      47.068  -4.999  26.373  1.00  0.00     0.000 C 
BRANCH   3   4
ATOM      4  C   UNL     1      46.919  -5.675  27.750  1.00  0.00     0.000 C 
BRANCH   4   5
ATOM      5  C   UNL     1      46.390  -4.761  28.871  1.00  0.00     0.000 C 
BRANCH   5   6
ATOM      6  C   UNL     1      45.109  -5.303  29.529  1.00  0.00     0.006 C 
BRANCH   6   7
ATOM      7  C   UNL     1      44.652  -6.627  28.902  1.00  0.00     0.053 C 
BRANCH   7   8
ATOM      8  C   UNL     1      43.243  -6.967  29.280  1.00  0.00     0.041 C 
ATOM      9  O   UNL     1      42.913  -8.165  29.483  1.00  0.00    -0.550 OA
ATOM     10  O   UNL     1      42.301  -5.958  29.442  1.00  0.00    -0.550 OA
ENDBRANCH   7   8
ENDBRANCH   6   7
ENDBRANCH   5   6
ENDBRANCH   4   5
ENDBRANCH   3   4
ENDBRANCH   2   3
ENDBRANCH   1   2
BRANCH   1  11
ATOM     11  C   UNL     1      43.474  -4.321  26.182  1.00  0.00     0.000 C 
BRANCH  11  12
ATOM     12  C   UNL     1      43.527  -3.016  26.990  1.00  0.00    -0.000 C 
BRANCH  12  13
ATOM     13  C   UNL     1      42.523  -1.965  26.490  1.00  0.00    -0.000 C 
BRANCH  13  14
ATOM     14  C   UNL     1      43.154  -0.644  26.009  1.00  0.00    -0.000 C 
BRANCH  14  15
ATOM     15  C   UNL     1      43.506  -0.634  24.505  1.00  0.00    -0.000 C 
BRANCH  15  16
ATOM     16  C   UNL     1      45.014  -0.808  24.259  1.00  0.00    -0.000 C 
BRANCH  16  17
ATOM     17  C   UNL     1      45.316  -1.602  22.978  1.00  0.00    -0.003 C 
ATOM     18  C   UNL     1      46.812  -1.702  22.682  1.00  0.00     0.004 C 
ENDBRANCH  16  17
ENDBRANCH  15  16
ENDBRANCH  14  15
ENDBRANCH  13  14
ENDBRANCH  12  13
ENDBRANCH  11  12
ENDBRANCH   1  11
TORSDOF 14
ENDMDL
MODEL 9
REMARK VINA RESULT:    -3.634      2.514      4.800
REMARK INTER + INTRA:          -8.252
REMARK INTER:                  -5.866
REMARK INTRA:                  -2.387
REMARK UNBOUND:                -1.644
REMARK SMILES CCCCCCCCCCCCCCCC(=O)[O-]
REMARK SMILES IDX 9 1 10 2 11 3 12 4 13 5 14 6 15 7 16 8 17 9 18 10 8 11 7 12
REMARK SMILES IDX 6 13 5 14 4 15 3 16 2 17 1 18
REMARK H PARENT
REMARK Flexibility Score: inf
ROOT
ATOM      1  C   UNL     1      43.286  -1.756  27.017  1.00  0.00     0.000 C 
ENDROOT
BRANCH   1   2
ATOM      2  C   UNL     1      42.484  -1.221  25.811  1.00  0.00     0.000 C 
BRANCH   2   3
ATOM      3  C   UNL     1      43.307  -0.329  24.863  1.00  0.00     0.000 C 
BRANCH   3   4
ATOM      4  C   UNL     1      44.776  -0.754  24.674  1.00  0.00     0.000 C 
BRANCH   4   5
ATOM      5  C   UNL     1      45.065  -1.549  23.388  1.00  0.00     0.000 C 
BRANCH   5   6
ATOM      6  C   UNL     1      45.419  -3.022  23.662  1.00  0.00     0.006 C 
BRANCH   6   7
ATOM      7  C   UNL     1      46.170  -3.198  24.989  1.00  0.00     0.053 C 
BRANCH   7   8
ATOM      8  C   UNL     1      47.576  -3.669  24.777  1.00  0.00     0.041 C 
ATOM      9  O   UNL     1      48.274  -4.043  25.757  1.00  0.00    -0.550 OA
ATOM     10  O   UNL     1      48.107  -3.726  23.494  1.00  0.00    -0.550 OA
ENDBRANCH   7   8
ENDBRANCH   6   7
ENDBRANCH   5   6
ENDBRANCH   4   5
ENDBRANCH   3   4
ENDBRANCH   2   3
ENDBRANCH   1   2
BRANCH   1  11
ATOM     11  C   UNL     1      42.816  -3.148  27.467  1.00  0.00     0.000 C 
BRANCH  11  12
ATOM     12  C   UNL     1      42.784  -4.126  26.283  1.00  0.00    -0.000 C 
BRANCH  12  13
ATOM     13  C   UNL     1      43.254  -5.539  26.666  1.00  0.00    -0.000 C 
BRANCH  13  14
ATOM     14  C   UNL     1      43.292  -5.819  28.181  1.00  0.00    -0.000 C 
BRANCH  14  15
ATOM     15  C   UNL     1      44.690  -6.216  28.704  1.00  0.00    -0.000 C 
BRANCH  15  16
ATOM     16  C   UNL     1      45.819  -5.474  27.968  1.00  0.00    -0.000 C 
BRANCH  16  17
ATOM     17  C   UNL     1      46.631  -4.560  28.900  1.00  0.00    -0.003 C 
ATOM     18  C   UNL     1      46.355  -3.076  28.659  1.00  0.00     0.004 C 
ENDBRANCH  16  17
ENDBRANCH  15  16
ENDBRANCH  14  15
ENDBRANCH  13  14
ENDBRANCH  12  13
ENDBRANCH  11  12
ENDBRANCH   1  11
TORSDOF 14
ENDMDL
