MODEL 1
REMARK VINA RESULT:    -3.579      0.000      0.000
REMARK INTER + INTRA:         -10.927
REMARK INTER:                  -7.763
REMARK INTRA:                  -3.164
REMARK UNBOUND:                -3.164
REMARK SMILES CCCCCCCCCCCCCCCCCCCCCC(=O)[O-]
REMARK SMILES IDX 12 1 11 2 10 3 9 4 8 5 7 6 6 7 5 8 4 9 3 10 2 11 1 12 13 13
REMARK SMILES IDX 14 14 15 15 16 16 17 17 18 18 19 19 20 20 21 21 22 22 23 23
REMARK SMILES IDX 24 24
REMARK H PARENT
REMARK Flexibility Score: inf
ROOT
ATOM      1  C   UNL     1     -11.869   3.475  37.073  1.00  0.00     0.000 C 
ENDROOT
BRANCH   1   2
ATOM      2  C   UNL     1     -12.862   3.180  35.937  1.00  0.00     0.000 C 
BRANCH   2   3
ATOM      3  C   UNL     1     -13.015   1.671  35.716  1.00  0.00     0.000 C 
BRANCH   3   4
ATOM      4  C   UNL     1     -12.115   1.189  34.572  1.00  0.00    -0.000 C 
BRANCH   4   5
ATOM      5  C   UNL     1     -12.903   0.340  33.567  1.00  0.00    -0.000 C 
BRANCH   5   6
ATOM      6  C   UNL     1     -12.874   0.973  32.169  1.00  0.00    -0.000 C 
BRANCH   6   7
ATOM      7  C   UNL     1     -14.008   0.443  31.265  1.00  0.00    -0.000 C 
BRANCH   7   8
ATOM      8  C   UNL     1     -15.190   1.415  31.120  1.00  0.00    -0.000 C 
BRANCH   8   9
ATOM      9  C   UNL     1     -16.437   0.958  31.895  1.00  0.00    -0.000 C 
BRANCH   9  10
ATOM     10  C   UNL     1     -16.690  -0.556  31.784  1.00  0.00    -0.000 C 
BRANCH  10  11
ATOM     11  C   UNL     1     -16.704  -1.313  33.125  1.00  0.00    -0.003 C 
ATOM     12  C   UNL     1     -16.388  -0.416  34.322  1.00  0.00     0.004 C 
ENDBRANCH  10  11
ENDBRANCH   9  10
ENDBRANCH   8   9
ENDBRANCH   7   8
ENDBRANCH   6   7
ENDBRANCH   5   6
ENDBRANCH   4   5
ENDBRANCH   3   4
ENDBRANCH   2   3
ENDBRANCH   1   2
BRANCH   1  13
ATOM     13  C   UNL     1     -10.442   3.715  36.558  1.00  0.00     0.000 C 
BRANCH  13  14
ATOM     14  C   UNL     1     -10.135   5.207  36.342  1.00  0.00     0.000 C 
BRANCH  14  15
ATOM     15  C   UNL     1     -10.221   5.625  34.865  1.00  0.00     0.000 C 
BRANCH  15  16
ATOM     16  C   UNL     1      -9.716   4.529  33.912  1.00  0.00     0.000 C 
BRANCH  16  17
ATOM     17  C   UNL     1     -10.757   4.145  32.848  1.00  0.00     0.000 C 
BRANCH  17  18
ATOM     18  C   UNL     1     -12.028   5.007  32.930  1.00  0.00     0.000 C 
BRANCH  18  19
ATOM     19  C   UNL     1     -13.144   4.427  32.052  1.00  0.00     0.000 C 
BRANCH  19  20
ATOM     20  C   UNL     1     -12.908   4.762  30.572  1.00  0.00     0.006 C 
BRANCH  20  21
ATOM     21  C   UNL     1     -12.831   6.273  30.323  1.00  0.00     0.053 C 
BRANCH  21  22
ATOM     22  C   UNL     1     -11.696   6.630  29.411  1.00  0.00     0.041 C 
ATOM     23  O   UNL     1     -10.644   5.937  29.409  1.00  0.00    -0.550 OA
ATOM     24  O   UNL     1     -11.784   7.750  28.594  1.00  0.00    -0.550 OA
ENDBRANCH  21  22
ENDBRANCH  20  21
ENDBRANCH  19  20
ENDBRANCH  18  19
ENDBRANCH  17  18
ENDBRANCH  16  17
ENDBRANCH  15  16
ENDBRANCH  14  15
ENDBRANCH  13  14
ENDBRANCH   1  13
TORSDOF 20
ENDMDL
MODEL 2
REMARK VINA RESULT:    -3.570      2.520      5.316
REMARK INTER + INTRA:         -10.908
REMARK INTER:                  -6.989
REMARK INTRA:                  -3.919
REMARK UNBOUND:                -3.164
REMARK SMILES CCCCCCCCCCCCCCCCCCCCCC(=O)[O-]
REMARK SMILES IDX 12 1 11 2 10 3 9 4 8 5 7 6 6 7 5 8 4 9 3 10 2 11 1 12 13 13
REMARK SMILES IDX 14 14 15 15 16 16 17 17 18 18 19 19 20 20 21 21 22 22 23 23
REMARK SMILES IDX 24 24
REMARK H PARENT
REMARK Flexibility Score: inf
ROOT
ATOM      1  C   UNL     1      -9.803   4.586  33.755  1.00  0.00     0.000 C 
ENDROOT
BRANCH   1   2
ATOM      2  C   UNL     1     -10.404   5.588  34.752  1.00  0.00     0.000 C 
BRANCH   2   3
ATOM      3  C   UNL     1      -9.897   5.321  36.175  1.00  0.00     0.000 C 
BRANCH   3   4
ATOM      4  C   UNL     1      -9.479   3.856  36.344  1.00  0.00    -0.000 C 
BRANCH   4   5
ATOM      5  C   UNL     1      -9.622   3.404  37.802  1.00  0.00    -0.000 C 
BRANCH   5   6
ATOM      6  C   UNL     1     -10.442   2.110  37.900  1.00  0.00    -0.000 C 
BRANCH   6   7
ATOM      7  C   UNL     1     -11.767   2.315  38.665  1.00  0.00    -0.000 C 
BRANCH   7   8
ATOM      8  C   UNL     1     -12.688   3.373  38.035  1.00  0.00    -0.000 C 
BRANCH   8   9
ATOM      9  C   UNL     1     -13.553   2.809  36.896  1.00  0.00    -0.000 C 
BRANCH   9  10
ATOM     10  C   UNL     1     -13.032   3.197  35.500  1.00  0.00    -0.000 C 
BRANCH  10  11
ATOM     11  C   UNL     1     -12.962   2.039  34.488  1.00  0.00    -0.003 C 
ATOM     12  C   UNL     1     -11.584   1.380  34.423  1.00  0.00     0.004 C 
ENDBRANCH  10  11
ENDBRANCH   9  10
ENDBRANCH   8   9
ENDBRANCH   7   8
ENDBRANCH   6   7
ENDBRANCH   5   6
ENDBRANCH   4   5
ENDBRANCH   3   4
ENDBRANCH   2   3
ENDBRANCH   1   2
BRANCH   1  13
ATOM     13  C   UNL     1     -10.577   4.540  32.429  1.00  0.00     0.000 C 
BRANCH  13  14
ATOM     14  C   UNL     1     -11.987   5.147  32.546  1.00  0.00     0.000 C 
BRANCH  14  15
ATOM     15  C   UNL     1     -12.485   5.756  31.225  1.00  0.00     0.000 C 
BRANCH  15  16
ATOM     16  C   UNL     1     -11.524   5.490  30.055  1.00  0.00     0.000 C 
BRANCH  16  17
ATOM     17  C   UNL     1     -12.261   5.282  28.722  1.00  0.00     0.000 C 
BRANCH  17  18
ATOM     18  C   UNL     1     -11.937   3.925  28.075  1.00  0.00     0.000 C 
BRANCH  18  19
ATOM     19  C   UNL     1     -10.888   3.161  28.893  1.00  0.00     0.000 C 
BRANCH  19  20
ATOM     20  C   UNL     1     -11.408   1.772  29.291  1.00  0.00     0.006 C 
BRANCH  20  21
ATOM     21  C   UNL     1     -11.934   1.739  30.732  1.00  0.00     0.053 C 
BRANCH  21  22
ATOM     22  C   UNL     1     -13.428   1.623  30.777  1.00  0.00     0.041 C 
ATOM     23  O   UNL     1     -13.968   0.538  31.118  1.00  0.00    -0.550 OA
ATOM     24  O   UNL     1     -14.221   2.701  30.404  1.00  0.00    -0.550 OA
ENDBRANCH  21  22
ENDBRANCH  20  21
ENDBRANCH  19  20
ENDBRANCH  18  19
ENDBRANCH  17  18
ENDBRANCH  16  17
ENDBRANCH  15  16
ENDBRANCH  14  15
ENDBRANCH  13  14
ENDBRANCH   1  13
TORSDOF 20
ENDMDL
MODEL 3
REMARK VINA RESULT:    -3.565      5.481      8.934
REMARK INTER + INTRA:         -10.898
REMARK INTER:                  -7.030
REMARK INTRA:                  -3.867
REMARK UNBOUND:                -3.164
REMARK SMILES CCCCCCCCCCCCCCCCCCCCCC(=O)[O-]
REMARK SMILES IDX 12 1 11 2 10 3 9 4 8 5 7 6 6 7 5 8 4 9 3 10 2 11 1 12 13 13
REMARK SMILES IDX 14 14 15 15 16 16 17 17 18 18 19 19 20 20 21 21 22 22 23 23
REMARK SMILES IDX 24 24
REMARK H PARENT
REMARK Flexibility Score: inf
ROOT
ATOM      1  C   UNL     1      -6.349   0.066  36.031  1.00  0.00     0.000 C 
ENDROOT
BRANCH   1   2
ATOM      2  C   UNL     1      -6.120  -1.016  37.098  1.00  0.00     0.000 C 
BRANCH   2   3
ATOM      3  C   UNL     1      -5.293  -0.469  38.268  1.00  0.00     0.000 C 
BRANCH   3   4
ATOM      4  C   UNL     1      -3.972   0.134  37.774  1.00  0.00    -0.000 C 
BRANCH   4   5
ATOM      5  C   UNL     1      -3.600   1.384  38.580  1.00  0.00    -0.000 C 
BRANCH   5   6
ATOM      6  C   UNL     1      -3.265   2.559  37.650  1.00  0.00    -0.000 C 
BRANCH   6   7
ATOM      7  C   UNL     1      -4.518   3.118  36.941  1.00  0.00    -0.000 C 
BRANCH   7   8
ATOM      8  C   UNL     1      -4.393   3.167  35.409  1.00  0.00    -0.000 C 
BRANCH   8   9
ATOM      9  C   UNL     1      -3.134   2.455  34.890  1.00  0.00    -0.000 C 
BRANCH   9  10
ATOM     10  C   UNL     1      -3.455   1.232  34.011  1.00  0.00    -0.000 C 
BRANCH  10  11
ATOM     11  C   UNL     1      -2.731  -0.065  34.414  1.00  0.00    -0.003 C 
ATOM     12  C   UNL     1      -3.217  -1.289  33.637  1.00  0.00     0.004 C 
ENDBRANCH  10  11
ENDBRANCH   9  10
ENDBRANCH   8   9
ENDBRANCH   7   8
ENDBRANCH   6   7
ENDBRANCH   5   6
ENDBRANCH   4   5
ENDBRANCH   3   4
ENDBRANCH   2   3
ENDBRANCH   1   2
BRANCH   1  13
ATOM     13  C   UNL     1      -7.517   1.001  36.383  1.00  0.00     0.000 C 
BRANCH  13  14
ATOM     14  C   UNL     1      -8.485   0.379  37.405  1.00  0.00     0.000 C 
BRANCH  14  15
ATOM     15  C   UNL     1      -8.798   1.321  38.579  1.00  0.00     0.000 C 
BRANCH  15  16
ATOM     16  C   UNL     1      -7.684   2.353  38.820  1.00  0.00     0.000 C 
BRANCH  16  17
ATOM     17  C   UNL     1      -8.212   3.797  38.834  1.00  0.00     0.000 C 
BRANCH  17  18
ATOM     18  C   UNL     1      -7.847   4.570  37.556  1.00  0.00     0.000 C 
BRANCH  18  19
ATOM     19  C   UNL     1      -9.060   5.331  37.007  1.00  0.00     0.000 C 
BRANCH  19  20
ATOM     20  C   UNL     1     -10.239   4.377  36.761  1.00  0.00     0.006 C 
BRANCH  20  21
ATOM     21  C   UNL     1     -10.059   3.546  35.485  1.00  0.00     0.053 C 
BRANCH  21  22
ATOM     22  C   UNL     1     -10.041   4.407  34.258  1.00  0.00     0.041 C 
ATOM     23  O   UNL     1      -9.173   4.218  33.365  1.00  0.00    -0.550 OA
ATOM     24  O   UNL     1     -10.957   5.442  34.120  1.00  0.00    -0.550 OA
ENDBRANCH  21  22
ENDBRANCH  20  21
ENDBRANCH  19  20
ENDBRANCH  18  19
ENDBRANCH  17  18
ENDBRANCH  16  17
ENDBRANCH  15  16
ENDBRANCH  14  15
ENDBRANCH  13  14
ENDBRANCH   1  13
TORSDOF 20
ENDMDL
MODEL 4
REMARK VINA RESULT:    -3.537      5.864      8.741
REMARK INTER + INTRA:         -10.836
REMARK INTER:                  -7.154
REMARK INTRA:                  -3.682
REMARK UNBOUND:                -3.164
REMARK SMILES CCCCCCCCCCCCCCCCCCCCCC(=O)[O-]
REMARK SMILES IDX 12 1 11 2 10 3 9 4 8 5 7 6 6 7 5 8 4 9 3 10 2 11 1 12 13 13
REMARK SMILES IDX 14 14 15 15 16 16 17 17 18 18 19 19 20 20 21 21 22 22 23 23
REMARK SMILES IDX 24 24
REMARK H PARENT
REMARK Flexibility Score: inf
ROOT
ATOM      1  C   UNL     1      -5.931  -0.196  36.965  1.00  0.00     0.000 C 
ENDROOT
BRANCH   1   2
ATOM      2  C   UNL     1      -5.022  -0.338  38.195  1.00  0.00     0.000 C 
BRANCH   2   3
ATOM      3  C   UNL     1      -3.651   0.302  37.945  1.00  0.00     0.000 C 
BRANCH   3   4
ATOM      4  C   UNL     1      -3.596   1.725  38.514  1.00  0.00    -0.000 C 
BRANCH   4   5
ATOM      5  C   UNL     1      -3.323   2.753  37.410  1.00  0.00    -0.000 C 
BRANCH   5   6
ATOM      6  C   UNL     1      -2.641   2.095  36.201  1.00  0.00    -0.000 C 
BRANCH   6   7
ATOM      7  C   UNL     1      -3.343   2.446  34.872  1.00  0.00    -0.000 C 
BRANCH   7   8
ATOM      8  C   UNL     1      -3.503   1.249  33.921  1.00  0.00    -0.000 C 
BRANCH   8   9
ATOM      9  C   UNL     1      -2.758  -0.004  34.408  1.00  0.00    -0.000 C 
BRANCH   9  10
ATOM     10  C   UNL     1      -3.297  -1.304  33.783  1.00  0.00    -0.000 C 
BRANCH  10  11
ATOM     11  C   UNL     1      -4.801  -1.291  33.454  1.00  0.00    -0.003 C 
ATOM     12  C   UNL     1      -5.561  -2.466  34.070  1.00  0.00     0.004 C 
ENDBRANCH  10  11
ENDBRANCH   9  10
ENDBRANCH   8   9
ENDBRANCH   7   8
ENDBRANCH   6   7
ENDBRANCH   5   6
ENDBRANCH   4   5
ENDBRANCH   3   4
ENDBRANCH   2   3
ENDBRANCH   1   2
BRANCH   1  13
ATOM     13  C   UNL     1      -6.852   1.031  37.054  1.00  0.00     0.000 C 
BRANCH  13  14
ATOM     14  C   UNL     1      -6.861   1.858  35.755  1.00  0.00     0.000 C 
BRANCH  14  15
ATOM     15  C   UNL     1      -6.746   3.370  36.012  1.00  0.00     0.000 C 
BRANCH  15  16
ATOM     16  C   UNL     1      -6.927   3.731  37.496  1.00  0.00     0.000 C 
BRANCH  16  17
ATOM     17  C   UNL     1      -7.943   4.865  37.707  1.00  0.00     0.000 C 
BRANCH  17  18
ATOM     18  C   UNL     1      -9.349   4.498  37.202  1.00  0.00     0.000 C 
BRANCH  18  19
ATOM     19  C   UNL     1      -9.882   5.565  36.237  1.00  0.00     0.000 C 
BRANCH  19  20
ATOM     20  C   UNL     1     -10.181   4.956  34.859  1.00  0.00     0.006 C 
BRANCH  20  21
ATOM     21  C   UNL     1     -10.384   3.437  34.925  1.00  0.00     0.053 C 
BRANCH  21  22
ATOM     22  C   UNL     1     -11.803   3.051  34.637  1.00  0.00     0.041 C 
ATOM     23  O   UNL     1     -12.719   3.365  35.441  1.00  0.00    -0.550 OA
ATOM     24  O   UNL     1     -12.107   2.310  33.502  1.00  0.00    -0.550 OA
ENDBRANCH  21  22
ENDBRANCH  20  21
ENDBRANCH  19  20
ENDBRANCH  18  19
ENDBRANCH  17  18
ENDBRANCH  16  17
ENDBRANCH  15  16
ENDBRANCH  14  15
ENDBRANCH  13  14
ENDBRANCH   1  13
TORSDOF 20
ENDMDL
MODEL 5
REMARK VINA RESULT:    -3.515      4.588      8.201
REMARK INTER + INTRA:         -10.788
REMARK INTER:                  -7.232
REMARK INTRA:                  -3.556
REMARK UNBOUND:                -3.164
REMARK SMILES CCCCCCCCCCCCCCCCCCCCCC(=O)[O-]
REMARK SMILES IDX 12 1 11 2 10 3 9 4 8 5 7 6 6 7 5 8 4 9 3 10 2 11 1 12 13 13
REMARK SMILES IDX 14 14 15 15 16 16 17 17 18 18 19 19 20 20 21 21 22 22 23 23
REMARK SMILES IDX 24 24
REMARK H PARENT
REMARK Flexibility Score: inf
ROOT
ATOM      1  C   UNL     1      -7.236   2.206  34.705  1.00  0.00     0.000 C 
ENDROOT
BRANCH   1   2
ATOM      2  C   UNL     1      -6.621   3.591  34.957  1.00  0.00     0.000 C 
BRANCH   2   3
ATOM      3  C   UNL     1      -5.155   3.632  34.510  1.00  0.00     0.000 C 
BRANCH   3   4
ATOM      4  C   UNL     1      -4.250   4.135  35.642  1.00  0.00    -0.000 C 
BRANCH   4   5
ATOM      5  C   UNL     1      -5.076   4.608  36.843  1.00  0.00    -0.000 C 
BRANCH   5   6
ATOM      6  C   UNL     1      -4.733   3.798  38.102  1.00  0.00    -0.000 C 
BRANCH   6   7
ATOM      7  C   UNL     1      -3.553   2.831  37.870  1.00  0.00    -0.000 C 
BRANCH   7   8
ATOM      8  C   UNL     1      -3.646   1.532  38.687  1.00  0.00    -0.000 C 
BRANCH   8   9
ATOM      9  C   UNL     1      -3.572   0.270  37.812  1.00  0.00    -0.000 C 
BRANCH   9  10
ATOM     10  C   UNL     1      -4.652   0.236  36.715  1.00  0.00    -0.000 C 
BRANCH  10  11
ATOM     11  C   UNL     1      -4.115   0.124  35.277  1.00  0.00    -0.003 C 
ATOM     12  C   UNL     1      -2.593   0.244  35.194  1.00  0.00     0.004 C 
ENDBRANCH  10  11
ENDBRANCH   9  10
ENDBRANCH   8   9
ENDBRANCH   7   8
ENDBRANCH   6   7
ENDBRANCH   5   6
ENDBRANCH   4   5
ENDBRANCH   3   4
ENDBRANCH   2   3
ENDBRANCH   1   2
BRANCH   1  13
ATOM     13  C   UNL     1      -7.947   1.644  35.946  1.00  0.00     0.000 C 
BRANCH  13  14
ATOM     14  C   UNL     1      -8.363   2.746  36.938  1.00  0.00     0.000 C 
BRANCH  14  15
ATOM     15  C   UNL     1      -9.839   2.646  37.354  1.00  0.00     0.000 C 
BRANCH  15  16
ATOM     16  C   UNL     1     -10.634   3.919  37.017  1.00  0.00     0.000 C 
BRANCH  16  17
ATOM     17  C   UNL     1      -9.750   5.024  36.417  1.00  0.00     0.000 C 
BRANCH  17  18
ATOM     18  C   UNL     1     -10.340   5.614  35.125  1.00  0.00     0.000 C 
BRANCH  18  19
ATOM     19  C   UNL     1      -9.863   4.832  33.895  1.00  0.00     0.000 C 
BRANCH  19  20
ATOM     20  C   UNL     1     -11.000   3.977  33.315  1.00  0.00     0.006 C 
BRANCH  20  21
ATOM     21  C   UNL     1     -12.172   4.831  32.813  1.00  0.00     0.053 C 
BRANCH  21  22
ATOM     22  C   UNL     1     -11.966   5.284  31.399  1.00  0.00     0.041 C 
ATOM     23  O   UNL     1     -12.715   6.164  30.902  1.00  0.00    -0.550 OA
ATOM     24  O   UNL     1     -10.973   4.704  30.620  1.00  0.00    -0.550 OA
ENDBRANCH  21  22
ENDBRANCH  20  21
ENDBRANCH  19  20
ENDBRANCH  18  19
ENDBRANCH  17  18
ENDBRANCH  16  17
ENDBRANCH  15  16
ENDBRANCH  14  15
ENDBRANCH  13  14
ENDBRANCH   1  13
TORSDOF 20
ENDMDL
MODEL 6
REMARK VINA RESULT:    -3.506      5.458      9.704
REMARK INTER + INTRA:         -10.768
REMARK INTER:                  -6.937
REMARK INTRA:                  -3.832
REMARK UNBOUND:                -3.164
REMARK SMILES CCCCCCCCCCCCCCCCCCCCCC(=O)[O-]
REMARK SMILES IDX 12 1 11 2 10 3 9 4 8 5 7 6 6 7 5 8 4 9 3 10 2 11 1 12 13 13
REMARK SMILES IDX 14 14 15 15 16 16 17 17 18 18 19 19 20 20 21 21 22 22 23 23
REMARK SMILES IDX 24 24
REMARK H PARENT
REMARK Flexibility Score: inf
ROOT
ATOM      1  C   UNL     1     -11.775   2.750  34.749  1.00  0.00     0.000 C 
ENDROOT
BRANCH   1   2
ATOM      2  C   UNL     1     -11.012   4.022  35.149  1.00  0.00     0.000 C 
BRANCH   2   3
ATOM      3  C   UNL     1      -9.666   3.677  35.797  1.00  0.00     0.000 C 
BRANCH   3   4
ATOM      4  C   UNL     1      -9.322   4.672  36.912  1.00  0.00    -0.000 C 
BRANCH   4   5
ATOM      5  C   UNL     1      -7.994   4.309  37.587  1.00  0.00    -0.000 C 
BRANCH   5   6
ATOM      6  C   UNL     1      -7.813   5.084  38.901  1.00  0.00    -0.000 C 
BRANCH   6   7
ATOM      7  C   UNL     1      -6.968   4.301  39.928  1.00  0.00    -0.000 C 
BRANCH   7   8
ATOM      8  C   UNL     1      -6.419   2.968  39.393  1.00  0.00    -0.000 C 
BRANCH   8   9
ATOM      9  C   UNL     1      -4.885   2.947  39.306  1.00  0.00    -0.000 C 
BRANCH   9  10
ATOM     10  C   UNL     1      -4.367   2.841  37.860  1.00  0.00    -0.000 C 
BRANCH  10  11
ATOM     11  C   UNL     1      -4.395   1.423  37.262  1.00  0.00    -0.003 C 
ATOM     12  C   UNL     1      -3.610   0.406  38.092  1.00  0.00     0.004 C 
ENDBRANCH  10  11
ENDBRANCH   9  10
ENDBRANCH   8   9
ENDBRANCH   7   8
ENDBRANCH   6   7
ENDBRANCH   5   6
ENDBRANCH   4   5
ENDBRANCH   3   4
ENDBRANCH   2   3
ENDBRANCH   1   2
BRANCH   1  13
ATOM     13  C   UNL     1     -12.560   2.141  35.921  1.00  0.00     0.000 C 
BRANCH  13  14
ATOM     14  C   UNL     1     -13.247   3.211  36.789  1.00  0.00     0.000 C 
BRANCH  14  15
ATOM     15  C   UNL     1     -12.764   3.193  38.248  1.00  0.00     0.000 C 
BRANCH  15  16
ATOM     16  C   UNL     1     -11.970   1.921  38.591  1.00  0.00     0.000 C 
BRANCH  16  17
ATOM     17  C   UNL     1     -10.635   2.229  39.288  1.00  0.00     0.000 C 
BRANCH  17  18
ATOM     18  C   UNL     1      -9.624   1.077  39.160  1.00  0.00     0.000 C 
BRANCH  18  19
ATOM     19  C   UNL     1      -9.483   0.628  37.700  1.00  0.00     0.000 C 
BRANCH  19  20
ATOM     20  C   UNL     1      -8.017   0.315  37.363  1.00  0.00     0.006 C 
BRANCH  20  21
ATOM     21  C   UNL     1      -7.330  -0.505  38.462  1.00  0.00     0.053 C 
BRANCH  21  22
ATOM     22  C   UNL     1      -7.600  -1.972  38.313  1.00  0.00     0.041 C 
ATOM     23  O   UNL     1      -7.785  -2.468  37.171  1.00  0.00    -0.550 OA
ATOM     24  O   UNL     1      -7.688  -2.782  39.439  1.00  0.00    -0.550 OA
ENDBRANCH  21  22
ENDBRANCH  20  21
ENDBRANCH  19  20
ENDBRANCH  18  19
ENDBRANCH  17  18
ENDBRANCH  16  17
ENDBRANCH  15  16
ENDBRANCH  14  15
ENDBRANCH  13  14
ENDBRANCH   1  13
TORSDOF 20
ENDMDL
MODEL 7
REMARK VINA RESULT:    -3.474      4.412      8.327
REMARK INTER + INTRA:         -10.699
REMARK INTER:                  -7.383
REMARK INTRA:                  -3.316
REMARK UNBOUND:                -3.164
REMARK SMILES CCCCCCCCCCCCCCCCCCCCCC(=O)[O-]
REMARK SMILES IDX 12 1 11 2 10 3 9 4 8 5 7 6 6 7 5 8 4 9 3 10 2 11 1 12 13 13
REMARK SMILES IDX 14 14 15 15 16 16 17 17 18 18 19 19 20 20 21 21 22 22 23 23
REMARK SMILES IDX 24 24
REMARK H PARENT
REMARK Flexibility Score: inf
ROOT
ATOM      1  C   UNL     1      -7.577   4.169  37.339  1.00  0.00     0.000 C 
ENDROOT
BRANCH   1   2
ATOM      2  C   UNL     1      -7.647   4.745  38.762  1.00  0.00     0.000 C 
BRANCH   2   3
ATOM      3  C   UNL     1      -7.779   3.628  39.803  1.00  0.00     0.000 C 
BRANCH   3   4
ATOM      4  C   UNL     1      -6.711   2.548  39.590  1.00  0.00    -0.000 C 
BRANCH   4   5
ATOM      5  C   UNL     1      -7.343   1.155  39.495  1.00  0.00    -0.000 C 
BRANCH   5   6
ATOM      6  C   UNL     1      -6.813   0.391  38.272  1.00  0.00    -0.000 C 
BRANCH   6   7
ATOM      7  C   UNL     1      -5.602  -0.500  38.621  1.00  0.00    -0.000 C 
BRANCH   7   8
ATOM      8  C   UNL     1      -4.325  -0.142  37.842  1.00  0.00    -0.000 C 
BRANCH   8   9
ATOM      9  C   UNL     1      -3.650   1.138  38.360  1.00  0.00    -0.000 C 
BRANCH   9  10
ATOM     10  C   UNL     1      -3.795   2.327  37.392  1.00  0.00    -0.000 C 
BRANCH  10  11
ATOM     11  C   UNL     1      -2.985   3.579  37.776  1.00  0.00    -0.003 C 
ATOM     12  C   UNL     1      -3.862   4.806  38.028  1.00  0.00     0.004 C 
ENDBRANCH  10  11
ENDBRANCH   9  10
ENDBRANCH   8   9
ENDBRANCH   7   8
ENDBRANCH   6   7
ENDBRANCH   5   6
ENDBRANCH   4   5
ENDBRANCH   3   4
ENDBRANCH   2   3
ENDBRANCH   1   2
BRANCH   1  13
ATOM     13  C   UNL     1      -8.966   3.973  36.714  1.00  0.00     0.000 C 
BRANCH  13  14
ATOM     14  C   UNL     1      -9.247   2.505  36.345  1.00  0.00     0.000 C 
BRANCH  14  15
ATOM     15  C   UNL     1     -10.169   1.803  37.354  1.00  0.00     0.000 C 
BRANCH  15  16
ATOM     16  C   UNL     1     -11.042   2.793  38.143  1.00  0.00     0.000 C 
BRANCH  16  17
ATOM     17  C   UNL     1     -12.476   2.880  37.596  1.00  0.00     0.000 C 
BRANCH  17  18
ATOM     18  C   UNL     1     -12.881   1.627  36.801  1.00  0.00     0.000 C 
BRANCH  18  19
ATOM     19  C   UNL     1     -13.186   1.977  35.339  1.00  0.00     0.000 C 
BRANCH  19  20
ATOM     20  C   UNL     1     -12.771   3.422  35.023  1.00  0.00     0.006 C 
BRANCH  20  21
ATOM     21  C   UNL     1     -11.862   3.510  33.790  1.00  0.00     0.053 C 
BRANCH  21  22
ATOM     22  C   UNL     1     -11.532   4.930  33.442  1.00  0.00     0.041 C 
ATOM     23  O   UNL     1     -10.723   5.583  34.153  1.00  0.00    -0.550 OA
ATOM     24  O   UNL     1     -12.147   5.543  32.358  1.00  0.00    -0.550 OA
ENDBRANCH  21  22
ENDBRANCH  20  21
ENDBRANCH  19  20
ENDBRANCH  18  19
ENDBRANCH  17  18
ENDBRANCH  16  17
ENDBRANCH  15  16
ENDBRANCH  14  15
ENDBRANCH  13  14
ENDBRANCH   1  13
TORSDOF 20
ENDMDL
MODEL 8
REMARK VINA RESULT:    -3.440      5.038      8.245
REMARK INTER + INTRA:         -10.625
REMARK INTER:                  -7.003
REMARK INTRA:                  -3.622
REMARK UNBOUND:                -3.164
REMARK SMILES CCCCCCCCCCCCCCCCCCCCCC(=O)[O-]
REMARK SMILES IDX 12 1 11 2 10 3 9 4 8 5 7 6 6 7 5 8 4 9 3 10 2 11 1 12 13 13
REMARK SMILES IDX 14 14 15 15 16 16 17 17 18 18 19 19 20 20 21 21 22 22 23 23
REMARK SMILES IDX 24 24
REMARK H PARENT
REMARK Flexibility Score: inf
ROOT
ATOM      1  C   UNL     1      -4.830   0.924  38.160  1.00  0.00     0.000 C 
ENDROOT
BRANCH   1   2
ATOM      2  C   UNL     1      -3.907   2.050  38.652  1.00  0.00     0.000 C 
BRANCH   2   3
ATOM      3  C   UNL     1      -3.187   2.724  37.478  1.00  0.00     0.000 C 
BRANCH   3   4
ATOM      4  C   UNL     1      -4.026   3.871  36.902  1.00  0.00    -0.000 C 
BRANCH   4   5
ATOM      5  C   UNL     1      -3.736   4.075  35.411  1.00  0.00    -0.000 C 
BRANCH   5   6
ATOM      6  C   UNL     1      -5.028   4.012  34.584  1.00  0.00    -0.000 C 
BRANCH   6   7
ATOM      7  C   UNL     1      -6.246   3.590  35.434  1.00  0.00    -0.000 C 
BRANCH   7   8
ATOM      8  C   UNL     1      -6.760   2.175  35.120  1.00  0.00    -0.000 C 
BRANCH   8   9
ATOM      9  C   UNL     1      -5.923   1.461  34.047  1.00  0.00    -0.000 C 
BRANCH   9  10
ATOM     10  C   UNL     1      -5.047   0.333  34.622  1.00  0.00    -0.000 C 
BRANCH  10  11
ATOM     11  C   UNL     1      -3.531   0.532  34.443  1.00  0.00    -0.003 C 
ATOM     12  C   UNL     1      -2.817  -0.720  33.932  1.00  0.00     0.004 C 
ENDBRANCH  10  11
ENDBRANCH   9  10
ENDBRANCH   8   9
ENDBRANCH   7   8
ENDBRANCH   6   7
ENDBRANCH   5   6
ENDBRANCH   4   5
ENDBRANCH   3   4
ENDBRANCH   2   3
ENDBRANCH   1   2
BRANCH   1  13
ATOM     13  C   UNL     1      -6.278   1.097  38.642  1.00  0.00     0.000 C 
BRANCH  13  14
ATOM     14  C   UNL     1      -6.482   2.395  39.444  1.00  0.00     0.000 C 
BRANCH  14  15
ATOM     15  C   UNL     1      -7.626   3.262  38.893  1.00  0.00     0.000 C 
BRANCH  15  16
ATOM     16  C   UNL     1      -7.201   4.723  38.666  1.00  0.00     0.000 C 
BRANCH  16  17
ATOM     17  C   UNL     1      -8.240   5.521  37.861  1.00  0.00     0.000 C 
BRANCH  17  18
ATOM     18  C   UNL     1      -9.300   4.618  37.208  1.00  0.00     0.000 C 
BRANCH  18  19
ATOM     19  C   UNL     1     -10.053   5.366  36.101  1.00  0.00     0.000 C 
BRANCH  19  20
ATOM     20  C   UNL     1     -10.039   4.564  34.791  1.00  0.00     0.006 C 
BRANCH  20  21
ATOM     21  C   UNL     1     -10.981   5.157  33.736  1.00  0.00     0.053 C 
BRANCH  21  22
ATOM     22  C   UNL     1     -11.960   4.141  33.230  1.00  0.00     0.041 C 
ATOM     23  O   UNL     1     -13.198   4.345  33.341  1.00  0.00    -0.550 OA
ATOM     24  O   UNL     1     -11.505   2.953  32.673  1.00  0.00    -0.550 OA
ENDBRANCH  21  22
ENDBRANCH  20  21
ENDBRANCH  19  20
ENDBRANCH  18  19
ENDBRANCH  17  18
ENDBRANCH  16  17
ENDBRANCH  15  16
ENDBRANCH  14  15
ENDBRANCH  13  14
ENDBRANCH   1  13
TORSDOF 20
ENDMDL
MODEL 9
REMARK VINA RESULT:    -3.438      5.837      8.513
REMARK INTER + INTRA:         -10.622
REMARK INTER:                  -6.861
REMARK INTRA:                  -3.761
REMARK UNBOUND:                -3.164
REMARK SMILES CCCCCCCCCCCCCCCCCCCCCC(=O)[O-]
REMARK SMILES IDX 12 1 11 2 10 3 9 4 8 5 7 6 6 7 5 8 4 9 3 10 2 11 1 12 13 13
REMARK SMILES IDX 14 14 15 15 16 16 17 17 18 18 19 19 20 20 21 21 22 22 23 23
REMARK SMILES IDX 24 24
REMARK H PARENT
REMARK Flexibility Score: inf
ROOT
ATOM      1  C   UNL     1      -5.583  -0.050  36.644  1.00  0.00     0.000 C 
ENDROOT
BRANCH   1   2
ATOM      2  C   UNL     1      -6.661   0.875  37.230  1.00  0.00     0.000 C 
BRANCH   2   3
ATOM      3  C   UNL     1      -7.426   0.181  38.363  1.00  0.00     0.000 C 
BRANCH   3   4
ATOM      4  C   UNL     1      -7.591   1.115  39.569  1.00  0.00    -0.000 C 
BRANCH   4   5
ATOM      5  C   UNL     1      -6.984   2.494  39.286  1.00  0.00    -0.000 C 
BRANCH   5   6
ATOM      6  C   UNL     1      -8.048   3.596  39.387  1.00  0.00    -0.000 C 
BRANCH   6   7
ATOM      7  C   UNL     1      -7.597   4.908  38.710  1.00  0.00    -0.000 C 
BRANCH   7   8
ATOM      8  C   UNL     1      -8.468   5.318  37.511  1.00  0.00    -0.000 C 
BRANCH   8   9
ATOM      9  C   UNL     1      -9.070   4.112  36.771  1.00  0.00    -0.000 C 
BRANCH   9  10
ATOM     10  C   UNL     1     -10.610   4.128  36.752  1.00  0.00    -0.000 C 
BRANCH  10  11
ATOM     11  C   UNL     1     -11.280   2.995  37.550  1.00  0.00    -0.003 C 
ATOM     12  C   UNL     1     -12.749   3.274  37.869  1.00  0.00     0.004 C 
ENDBRANCH  10  11
ENDBRANCH   9  10
ENDBRANCH   8   9
ENDBRANCH   7   8
ENDBRANCH   6   7
ENDBRANCH   5   6
ENDBRANCH   4   5
ENDBRANCH   3   4
ENDBRANCH   2   3
ENDBRANCH   1   2
BRANCH   1  13
ATOM     13  C   UNL     1      -4.168   0.528  36.791  1.00  0.00     0.000 C 
BRANCH  13  14
ATOM     14  C   UNL     1      -3.715   0.617  38.260  1.00  0.00     0.000 C 
BRANCH  14  15
ATOM     15  C   UNL     1      -3.498   2.065  38.729  1.00  0.00     0.000 C 
BRANCH  15  16
ATOM     16  C   UNL     1      -3.328   3.045  37.557  1.00  0.00     0.000 C 
BRANCH  16  17
ATOM     17  C   UNL     1      -4.191   4.308  37.715  1.00  0.00     0.000 C 
BRANCH  17  18
ATOM     18  C   UNL     1      -4.596   4.918  36.362  1.00  0.00     0.000 C 
BRANCH  18  19
ATOM     19  C   UNL     1      -5.529   3.976  35.591  1.00  0.00     0.000 C 
BRANCH  19  20
ATOM     20  C   UNL     1      -4.951   3.641  34.209  1.00  0.00     0.006 C 
BRANCH  20  21
ATOM     21  C   UNL     1      -5.286   2.210  33.769  1.00  0.00     0.053 C 
BRANCH  21  22
ATOM     22  C   UNL     1      -4.193   1.614  32.935  1.00  0.00     0.041 C 
ATOM     23  O   UNL     1      -3.055   1.412  33.433  1.00  0.00    -0.550 OA
ATOM     24  O   UNL     1      -4.421   1.319  31.596  1.00  0.00    -0.550 OA
ENDBRANCH  21  22
ENDBRANCH  20  21
ENDBRANCH  19  20
ENDBRANCH  18  19
ENDBRANCH  17  18
ENDBRANCH  16  17
ENDBRANCH  15  16
ENDBRANCH  14  15
ENDBRANCH  13  14
ENDBRANCH   1  13
TORSDOF 20
ENDMDL
