MODEL 1
REMARK VINA RESULT:    -4.698      0.000      0.000
REMARK INTER + INTRA:         -10.354
REMARK INTER:                  -8.543
REMARK INTRA:                  -1.811
REMARK UNBOUND:                -1.811
REMARK SMILES CCCCCCCCCCCCCCCC(=O)[O-]
REMARK SMILES IDX 9 1 10 2 11 3 12 4 13 5 14 6 15 7 16 8 17 9 18 10 8 11 7 12
REMARK SMILES IDX 6 13 5 14 4 15 3 16 2 17 1 18
REMARK H PARENT
REMARK Flexibility Score: inf
ROOT
ATOM      1  C   UNL     1     -31.569  67.873  86.867  1.00  0.00     0.000 C 
ENDROOT
BRANCH   1   2
ATOM      2  C   UNL     1     -32.182  66.732  86.033  1.00  0.00     0.000 C 
BRANCH   2   3
ATOM      3  C   UNL     1     -31.166  65.896  85.230  1.00  0.00     0.000 C 
BRANCH   3   4
ATOM      4  C   UNL     1     -30.311  64.929  86.073  1.00  0.00     0.000 C 
BRANCH   4   5
ATOM      5  C   UNL     1     -30.116  63.527  85.460  1.00  0.00     0.000 C 
BRANCH   5   6
ATOM      6  C   UNL     1     -28.695  63.234  84.939  1.00  0.00     0.006 C 
BRANCH   6   7
ATOM      7  C   UNL     1     -28.645  62.313  83.711  1.00  0.00     0.053 C 
BRANCH   7   8
ATOM      8  C   UNL     1     -27.596  61.254  83.848  1.00  0.00     0.041 C 
ATOM      9  O   UNL     1     -27.614  60.243  83.097  1.00  0.00    -0.550 OA
ATOM     10  O   UNL     1     -26.580  61.399  84.784  1.00  0.00    -0.550 OA
ENDBRANCH   7   8
ENDBRANCH   6   7
ENDBRANCH   5   6
ENDBRANCH   4   5
ENDBRANCH   3   4
ENDBRANCH   2   3
ENDBRANCH   1   2
BRANCH   1  11
ATOM     11  C   UNL     1     -30.506  68.719  86.137  1.00  0.00     0.000 C 
BRANCH  11  12
ATOM     12  C   UNL     1     -29.188  68.912  86.908  1.00  0.00    -0.000 C 
BRANCH  12  13
ATOM     13  C   UNL     1     -28.205  67.748  86.713  1.00  0.00    -0.000 C 
BRANCH  13  14
ATOM     14  C   UNL     1     -27.362  67.946  85.448  1.00  0.00    -0.000 C 
BRANCH  14  15
ATOM     15  C   UNL     1     -27.544  66.770  84.477  1.00  0.00    -0.000 C 
BRANCH  15  16
ATOM     16  C   UNL     1     -28.594  67.058  83.391  1.00  0.00    -0.000 C 
BRANCH  16  17
ATOM     17  C   UNL     1     -28.062  66.805  81.973  1.00  0.00    -0.003 C 
ATOM     18  C   UNL     1     -28.153  65.326  81.607  1.00  0.00     0.004 C 
ENDBRANCH  16  17
ENDBRANCH  15  16
ENDBRANCH  14  15
ENDBRANCH  13  14
ENDBRANCH  12  13
ENDBRANCH  11  12
ENDBRANCH   1  11
TORSDOF 14
ENDMDL
MODEL 2
REMARK VINA RESULT:    -4.521      2.645      5.551
REMARK INTER + INTRA:         -10.033
REMARK INTER:                  -8.454
REMARK INTRA:                  -1.579
REMARK UNBOUND:                -1.811
REMARK SMILES CCCCCCCCCCCCCCCC(=O)[O-]
REMARK SMILES IDX 9 1 10 2 11 3 12 4 13 5 14 6 15 7 16 8 17 9 18 10 8 11 7 12
REMARK SMILES IDX 6 13 5 14 4 15 3 16 2 17 1 18
REMARK H PARENT
REMARK Flexibility Score: inf
ROOT
ATOM      1  C   UNL     1     -28.850  63.497  84.712  1.00  0.00     0.000 C 
ENDROOT
BRANCH   1   2
ATOM      2  C   UNL     1     -29.086  63.392  83.193  1.00  0.00     0.000 C 
BRANCH   2   3
ATOM      3  C   UNL     1     -29.466  64.717  82.501  1.00  0.00     0.000 C 
BRANCH   3   4
ATOM      4  C   UNL     1     -28.322  65.391  81.717  1.00  0.00     0.000 C 
BRANCH   4   5
ATOM      5  C   UNL     1     -28.071  66.870  82.073  1.00  0.00     0.000 C 
BRANCH   5   6
ATOM      6  C   UNL     1     -28.404  67.258  83.527  1.00  0.00     0.006 C 
BRANCH   6   7
ATOM      7  C   UNL     1     -27.342  66.837  84.555  1.00  0.00     0.053 C 
BRANCH   7   8
ATOM      8  C   UNL     1     -27.307  67.760  85.733  1.00  0.00     0.041 C 
ATOM      9  O   UNL     1     -26.581  68.788  85.712  1.00  0.00    -0.550 OA
ATOM     10  O   UNL     1     -28.101  67.501  86.843  1.00  0.00    -0.550 OA
ENDBRANCH   7   8
ENDBRANCH   6   7
ENDBRANCH   5   6
ENDBRANCH   4   5
ENDBRANCH   3   4
ENDBRANCH   2   3
ENDBRANCH   1   2
BRANCH   1  11
ATOM     11  C   UNL     1     -30.130  63.568  85.569  1.00  0.00     0.000 C 
BRANCH  11  12
ATOM     12  C   UNL     1     -30.355  64.908  86.291  1.00  0.00    -0.000 C 
BRANCH  12  13
ATOM     13  C   UNL     1     -31.020  65.965  85.397  1.00  0.00    -0.000 C 
BRANCH  13  14
ATOM     14  C   UNL     1     -32.153  66.682  86.141  1.00  0.00    -0.000 C 
BRANCH  14  15
ATOM     15  C   UNL     1     -31.645  67.968  86.810  1.00  0.00    -0.000 C 
BRANCH  15  16
ATOM     16  C   UNL     1     -30.825  68.848  85.853  1.00  0.00    -0.000 C 
BRANCH  16  17
ATOM     17  C   UNL     1     -30.576  70.255  86.412  1.00  0.00    -0.003 C 
ATOM     18  C   UNL     1     -31.399  71.299  85.660  1.00  0.00     0.004 C 
ENDBRANCH  16  17
ENDBRANCH  15  16
ENDBRANCH  14  15
ENDBRANCH  13  14
ENDBRANCH  12  13
ENDBRANCH  11  12
ENDBRANCH   1  11
TORSDOF 14
ENDMDL
MODEL 3
REMARK VINA RESULT:    -4.485      0.694      3.498
REMARK INTER + INTRA:          -9.967
REMARK INTER:                  -8.026
REMARK INTRA:                  -1.941
REMARK UNBOUND:                -1.811
REMARK SMILES CCCCCCCCCCCCCCCC(=O)[O-]
REMARK SMILES IDX 9 1 10 2 11 3 12 4 13 5 14 6 15 7 16 8 17 9 18 10 8 11 7 12
REMARK SMILES IDX 6 13 5 14 4 15 3 16 2 17 1 18
REMARK H PARENT
REMARK Flexibility Score: inf
ROOT
ATOM      1  C   UNL     1     -27.366  67.037  84.668  1.00  0.00     0.000 C 
ENDROOT
BRANCH   1   2
ATOM      2  C   UNL     1     -28.478  67.068  83.601  1.00  0.00     0.000 C 
BRANCH   2   3
ATOM      3  C   UNL     1     -28.028  66.673  82.181  1.00  0.00     0.000 C 
BRANCH   3   4
ATOM      4  C   UNL     1     -28.346  65.219  81.779  1.00  0.00     0.000 C 
BRANCH   4   5
ATOM      5  C   UNL     1     -29.488  64.557  82.577  1.00  0.00     0.000 C 
BRANCH   5   6
ATOM      6  C   UNL     1     -29.297  63.055  82.865  1.00  0.00     0.006 C 
BRANCH   6   7
ATOM      7  C   UNL     1     -28.454  62.750  84.113  1.00  0.00     0.053 C 
BRANCH   7   8
ATOM      8  C   UNL     1     -27.673  61.482  83.964  1.00  0.00     0.041 C 
ATOM      9  O   UNL     1     -26.670  61.264  84.693  1.00  0.00    -0.550 OA
ATOM     10  O   UNL     1     -28.071  60.524  83.039  1.00  0.00    -0.550 OA
ENDBRANCH   7   8
ENDBRANCH   6   7
ENDBRANCH   5   6
ENDBRANCH   4   5
ENDBRANCH   3   4
ENDBRANCH   2   3
ENDBRANCH   1   2
BRANCH   1  11
ATOM     11  C   UNL     1     -27.329  68.257  85.609  1.00  0.00     0.000 C 
BRANCH  11  12
ATOM     12  C   UNL     1     -28.175  68.119  86.887  1.00  0.00    -0.000 C 
BRANCH  12  13
ATOM     13  C   UNL     1     -29.319  69.140  86.961  1.00  0.00    -0.000 C 
BRANCH  13  14
ATOM     14  C   UNL     1     -30.506  68.701  86.095  1.00  0.00    -0.000 C 
BRANCH  14  15
ATOM     15  C   UNL     1     -31.112  67.390  86.618  1.00  0.00    -0.000 C 
BRANCH  15  16
ATOM     16  C   UNL     1     -31.504  66.427  85.486  1.00  0.00    -0.000 C 
BRANCH  16  17
ATOM     17  C   UNL     1     -30.843  65.049  85.627  1.00  0.00    -0.003 C 
ATOM     18  C   UNL     1     -29.733  65.077  86.676  1.00  0.00     0.004 C 
ENDBRANCH  16  17
ENDBRANCH  15  16
ENDBRANCH  14  15
ENDBRANCH  13  14
ENDBRANCH  12  13
ENDBRANCH  11  12
ENDBRANCH   1  11
TORSDOF 14
ENDMDL
MODEL 4
REMARK VINA RESULT:    -4.450      1.903      4.427
REMARK INTER + INTRA:          -9.904
REMARK INTER:                  -8.289
REMARK INTRA:                  -1.615
REMARK UNBOUND:                -1.811
REMARK SMILES CCCCCCCCCCCCCCCC(=O)[O-]
REMARK SMILES IDX 9 1 10 2 11 3 12 4 13 5 14 6 15 7 16 8 17 9 18 10 8 11 7 12
REMARK SMILES IDX 6 13 5 14 4 15 3 16 2 17 1 18
REMARK H PARENT
REMARK Flexibility Score: inf
ROOT
ATOM      1  C   UNL     1     -30.495  68.311  85.742  1.00  0.00     0.000 C 
ENDROOT
BRANCH   1   2
ATOM      2  C   UNL     1     -29.580  68.872  86.848  1.00  0.00     0.000 C 
BRANCH   2   3
ATOM      3  C   UNL     1     -28.202  68.189  86.959  1.00  0.00     0.000 C 
BRANCH   3   4
ATOM      4  C   UNL     1     -27.182  68.606  85.881  1.00  0.00     0.000 C 
BRANCH   4   5
ATOM      5  C   UNL     1     -26.549  67.440  85.095  1.00  0.00     0.000 C 
BRANCH   5   6
ATOM      6  C   UNL     1     -27.553  66.430  84.506  1.00  0.00     0.006 C 
BRANCH   6   7
ATOM      7  C   UNL     1     -28.241  66.898  83.214  1.00  0.00     0.053 C 
BRANCH   7   8
ATOM      8  C   UNL     1     -28.589  65.750  82.318  1.00  0.00     0.041 C 
ATOM      9  O   UNL     1     -27.762  65.341  81.461  1.00  0.00    -0.550 OA
ATOM     10  O   UNL     1     -29.815  65.111  82.451  1.00  0.00    -0.550 OA
ENDBRANCH   7   8
ENDBRANCH   6   7
ENDBRANCH   5   6
ENDBRANCH   4   5
ENDBRANCH   3   4
ENDBRANCH   2   3
ENDBRANCH   1   2
BRANCH   1  11
ATOM     11  C   UNL     1     -31.360  67.104  86.160  1.00  0.00     0.000 C 
BRANCH  11  12
ATOM     12  C   UNL     1     -30.910  65.751  85.581  1.00  0.00    -0.000 C 
BRANCH  12  13
ATOM     13  C   UNL     1     -29.926  65.007  86.495  1.00  0.00    -0.000 C 
BRANCH  13  14
ATOM     14  C   UNL     1     -30.266  63.514  86.572  1.00  0.00    -0.000 C 
BRANCH  14  15
ATOM     15  C   UNL     1     -30.092  62.839  85.203  1.00  0.00    -0.000 C 
BRANCH  15  16
ATOM     16  C   UNL     1     -28.667  62.990  84.647  1.00  0.00    -0.000 C 
BRANCH  16  17
ATOM     17  C   UNL     1     -28.211  61.759  83.851  1.00  0.00    -0.003 C 
ATOM     18  C   UNL     1     -26.949  61.149  84.458  1.00  0.00     0.004 C 
ENDBRANCH  16  17
ENDBRANCH  15  16
ENDBRANCH  14  15
ENDBRANCH  13  14
ENDBRANCH  12  13
ENDBRANCH  11  12
ENDBRANCH   1  11
TORSDOF 14
ENDMDL
MODEL 5
REMARK VINA RESULT:    -4.409      3.253      5.558
REMARK INTER + INTRA:          -9.829
REMARK INTER:                  -7.667
REMARK INTRA:                  -2.163
REMARK UNBOUND:                -1.811
REMARK SMILES CCCCCCCCCCCCCCCC(=O)[O-]
REMARK SMILES IDX 9 1 10 2 11 3 12 4 13 5 14 6 15 7 16 8 17 9 18 10 8 11 7 12
REMARK SMILES IDX 6 13 5 14 4 15 3 16 2 17 1 18
REMARK H PARENT
REMARK Flexibility Score: inf
ROOT
ATOM      1  C   UNL     1     -27.017  66.977  85.196  1.00  0.00     0.000 C 
ENDROOT
BRANCH   1   2
ATOM      2  C   UNL     1     -27.656  65.613  85.522  1.00  0.00     0.000 C 
BRANCH   2   3
ATOM      3  C   UNL     1     -28.624  65.620  86.721  1.00  0.00     0.000 C 
BRANCH   3   4
ATOM      4  C   UNL     1     -29.985  64.943  86.459  1.00  0.00     0.000 C 
BRANCH   4   5
ATOM      5  C   UNL     1     -31.021  65.821  85.728  1.00  0.00     0.000 C 
BRANCH   5   6
ATOM      6  C   UNL     1     -31.392  67.131  86.451  1.00  0.00     0.006 C 
BRANCH   6   7
ATOM      7  C   UNL     1     -31.090  68.406  85.649  1.00  0.00     0.053 C 
BRANCH   7   8
ATOM      8  C   UNL     1     -30.289  69.390  86.444  1.00  0.00     0.041 C 
ATOM      9  O   UNL     1     -30.557  70.619  86.389  1.00  0.00    -0.550 OA
ATOM     10  O   UNL     1     -29.264  68.946  87.271  1.00  0.00    -0.550 OA
ENDBRANCH   7   8
ENDBRANCH   6   7
ENDBRANCH   5   6
ENDBRANCH   4   5
ENDBRANCH   3   4
ENDBRANCH   2   3
ENDBRANCH   1   2
BRANCH   1  11
ATOM     11  C   UNL     1     -27.830  67.867  84.235  1.00  0.00     0.000 C 
BRANCH  11  12
ATOM     12  C   UNL     1     -28.724  67.104  83.241  1.00  0.00    -0.000 C 
BRANCH  12  13
ATOM     13  C   UNL     1     -27.948  66.568  82.029  1.00  0.00    -0.000 C 
BRANCH  13  14
ATOM     14  C   UNL     1     -28.423  65.160  81.650  1.00  0.00    -0.000 C 
BRANCH  14  15
ATOM     15  C   UNL     1     -29.422  64.620  82.683  1.00  0.00    -0.000 C 
BRANCH  15  16
ATOM     16  C   UNL     1     -29.332  63.095  82.853  1.00  0.00    -0.000 C 
BRANCH  16  17
ATOM     17  C   UNL     1     -28.639  62.686  84.160  1.00  0.00    -0.003 C 
ATOM     18  C   UNL     1     -27.694  61.507  83.935  1.00  0.00     0.004 C 
ENDBRANCH  16  17
ENDBRANCH  15  16
ENDBRANCH  14  15
ENDBRANCH  13  14
ENDBRANCH  12  13
ENDBRANCH  11  12
ENDBRANCH   1  11
TORSDOF 14
ENDMDL
MODEL 6
REMARK VINA RESULT:    -4.409      1.853      4.656
REMARK INTER + INTRA:          -9.828
REMARK INTER:                  -8.109
REMARK INTRA:                  -1.719
REMARK UNBOUND:                -1.811
REMARK SMILES CCCCCCCCCCCCCCCC(=O)[O-]
REMARK SMILES IDX 9 1 10 2 11 3 12 4 13 5 14 6 15 7 16 8 17 9 18 10 8 11 7 12
REMARK SMILES IDX 6 13 5 14 4 15 3 16 2 17 1 18
REMARK H PARENT
REMARK Flexibility Score: inf
ROOT
ATOM      1  C   UNL     1     -26.559  67.514  85.052  1.00  0.00     0.000 C 
ENDROOT
BRANCH   1   2
ATOM      2  C   UNL     1     -27.091  68.614  85.992  1.00  0.00     0.000 C 
BRANCH   2   3
ATOM      3  C   UNL     1     -28.304  68.204  86.850  1.00  0.00     0.000 C 
BRANCH   3   4
ATOM      4  C   UNL     1     -29.583  69.028  86.603  1.00  0.00     0.000 C 
BRANCH   4   5
ATOM      5  C   UNL     1     -30.680  68.304  85.795  1.00  0.00     0.000 C 
BRANCH   5   6
ATOM      6  C   UNL     1     -31.242  67.029  86.455  1.00  0.00     0.006 C 
BRANCH   6   7
ATOM      7  C   UNL     1     -31.059  65.750  85.624  1.00  0.00     0.053 C 
BRANCH   7   8
ATOM      8  C   UNL     1     -30.245  64.724  86.348  1.00  0.00     0.041 C 
ATOM      9  O   UNL     1     -29.207  65.064  86.974  1.00  0.00    -0.550 OA
ATOM     10  O   UNL     1     -30.650  63.395  86.357  1.00  0.00    -0.550 OA
ENDBRANCH   7   8
ENDBRANCH   6   7
ENDBRANCH   5   6
ENDBRANCH   4   5
ENDBRANCH   3   4
ENDBRANCH   2   3
ENDBRANCH   1   2
BRANCH   1  11
ATOM     11  C   UNL     1     -27.636  66.583  84.460  1.00  0.00     0.000 C 
BRANCH  11  12
ATOM     12  C   UNL     1     -28.491  67.205  83.341  1.00  0.00    -0.000 C 
BRANCH  12  13
ATOM     13  C   UNL     1     -28.154  66.646  81.951  1.00  0.00    -0.000 C 
BRANCH  13  14
ATOM     14  C   UNL     1     -28.187  65.114  81.951  1.00  0.00    -0.000 C 
BRANCH  14  15
ATOM     15  C   UNL     1     -29.608  64.594  82.216  1.00  0.00    -0.000 C 
BRANCH  15  16
ATOM     16  C   UNL     1     -29.623  63.341  83.105  1.00  0.00    -0.000 C 
BRANCH  16  17
ATOM     17  C   UNL     1     -28.316  63.156  83.888  1.00  0.00    -0.003 C 
ATOM     18  C   UNL     1     -27.923  61.682  83.962  1.00  0.00     0.004 C 
ENDBRANCH  16  17
ENDBRANCH  15  16
ENDBRANCH  14  15
ENDBRANCH  13  14
ENDBRANCH  12  13
ENDBRANCH  11  12
ENDBRANCH   1  11
TORSDOF 14
ENDMDL
MODEL 7
REMARK VINA RESULT:    -4.360      3.106      5.420
REMARK INTER + INTRA:          -9.740
REMARK INTER:                  -8.082
REMARK INTRA:                  -1.658
REMARK UNBOUND:                -1.811
REMARK SMILES CCCCCCCCCCCCCCCC(=O)[O-]
REMARK SMILES IDX 9 1 10 2 11 3 12 4 13 5 14 6 15 7 16 8 17 9 18 10 8 11 7 12
REMARK SMILES IDX 6 13 5 14 4 15 3 16 2 17 1 18
REMARK H PARENT
REMARK Flexibility Score: inf
ROOT
ATOM      1  C   UNL     1     -28.331  65.281  81.805  1.00  0.00     0.000 C 
ENDROOT
BRANCH   1   2
ATOM      2  C   UNL     1     -29.474  64.584  82.570  1.00  0.00     0.000 C 
BRANCH   2   3
ATOM      3  C   UNL     1     -29.051  63.343  83.380  1.00  0.00     0.000 C 
BRANCH   3   4
ATOM      4  C   UNL     1     -28.983  63.556  84.905  1.00  0.00     0.000 C 
BRANCH   4   5
ATOM      5  C   UNL     1     -30.334  63.865  85.582  1.00  0.00     0.000 C 
BRANCH   5   6
ATOM      6  C   UNL     1     -30.436  65.261  86.229  1.00  0.00     0.006 C 
BRANCH   6   7
ATOM      7  C   UNL     1     -31.198  66.296  85.389  1.00  0.00     0.053 C 
BRANCH   7   8
ATOM      8  C   UNL     1     -31.304  67.615  86.089  1.00  0.00     0.041 C 
ATOM      9  O   UNL     1     -30.753  68.638  85.602  1.00  0.00    -0.550 OA
ATOM     10  O   UNL     1     -32.038  67.723  87.263  1.00  0.00    -0.550 OA
ENDBRANCH   7   8
ENDBRANCH   6   7
ENDBRANCH   5   6
ENDBRANCH   4   5
ENDBRANCH   3   4
ENDBRANCH   2   3
ENDBRANCH   1   2
BRANCH   1  11
ATOM     11  C   UNL     1     -28.186  66.791  82.082  1.00  0.00     0.000 C 
BRANCH  11  12
ATOM     12  C   UNL     1     -28.374  67.204  83.552  1.00  0.00    -0.000 C 
BRANCH  12  13
ATOM     13  C   UNL     1     -27.340  66.564  84.490  1.00  0.00    -0.000 C 
BRANCH  13  14
ATOM     14  C   UNL     1     -26.406  67.625  85.085  1.00  0.00    -0.000 C 
BRANCH  14  15
ATOM     15  C   UNL     1     -27.187  68.618  85.958  1.00  0.00    -0.000 C 
BRANCH  15  16
ATOM     16  C   UNL     1     -27.934  67.930  87.112  1.00  0.00    -0.000 C 
BRANCH  16  17
ATOM     17  C   UNL     1     -28.355  68.914  88.212  1.00  0.00    -0.003 C 
ATOM     18  C   UNL     1     -27.506  68.730  89.468  1.00  0.00     0.004 C 
ENDBRANCH  16  17
ENDBRANCH  15  16
ENDBRANCH  14  15
ENDBRANCH  13  14
ENDBRANCH  12  13
ENDBRANCH  11  12
ENDBRANCH   1  11
TORSDOF 14
ENDMDL
MODEL 8
REMARK VINA RESULT:    -4.354      1.813      4.041
REMARK INTER + INTRA:          -9.729
REMARK INTER:                  -8.149
REMARK INTRA:                  -1.580
REMARK UNBOUND:                -1.811
REMARK SMILES CCCCCCCCCCCCCCCC(=O)[O-]
REMARK SMILES IDX 9 1 10 2 11 3 12 4 13 5 14 6 15 7 16 8 17 9 18 10 8 11 7 12
REMARK SMILES IDX 6 13 5 14 4 15 3 16 2 17 1 18
REMARK H PARENT
REMARK Flexibility Score: inf
ROOT
ATOM      1  C   UNL     1     -27.388  66.620  84.661  1.00  0.00     0.000 C 
ENDROOT
BRANCH   1   2
ATOM      2  C   UNL     1     -28.346  67.121  83.562  1.00  0.00     0.000 C 
BRANCH   2   3
ATOM      3  C   UNL     1     -27.978  66.684  82.131  1.00  0.00     0.000 C 
BRANCH   3   4
ATOM      4  C   UNL     1     -28.406  65.249  81.760  1.00  0.00     0.000 C 
BRANCH   4   5
ATOM      5  C   UNL     1     -29.624  64.711  82.537  1.00  0.00     0.000 C 
BRANCH   5   6
ATOM      6  C   UNL     1     -29.404  63.357  83.241  1.00  0.00     0.006 C 
BRANCH   6   7
ATOM      7  C   UNL     1     -28.726  63.460  84.615  1.00  0.00     0.053 C 
BRANCH   7   8
ATOM      8  C   UNL     1     -29.715  63.715  85.709  1.00  0.00     0.041 C 
ATOM      9  O   UNL     1     -30.735  62.986  85.825  1.00  0.00    -0.550 OA
ATOM     10  O   UNL     1     -29.495  64.739  86.621  1.00  0.00    -0.550 OA
ENDBRANCH   7   8
ENDBRANCH   6   7
ENDBRANCH   5   6
ENDBRANCH   4   5
ENDBRANCH   3   4
ENDBRANCH   2   3
ENDBRANCH   1   2
BRANCH   1  11
ATOM     11  C   UNL     1     -26.426  67.685  85.224  1.00  0.00     0.000 C 
BRANCH  11  12
ATOM     12  C   UNL     1     -27.094  68.779  86.077  1.00  0.00    -0.000 C 
BRANCH  12  13
ATOM     13  C   UNL     1     -28.122  68.219  87.070  1.00  0.00    -0.000 C 
BRANCH  13  14
ATOM     14  C   UNL     1     -29.383  69.091  87.107  1.00  0.00    -0.000 C 
BRANCH  14  15
ATOM     15  C   UNL     1     -30.468  68.528  86.177  1.00  0.00    -0.000 C 
BRANCH  15  16
ATOM     16  C   UNL     1     -31.638  67.896  86.948  1.00  0.00    -0.000 C 
BRANCH  16  17
ATOM     17  C   UNL     1     -32.332  66.779  86.157  1.00  0.00    -0.003 C 
ATOM     18  C   UNL     1     -31.607  66.506  84.840  1.00  0.00     0.004 C 
ENDBRANCH  16  17
ENDBRANCH  15  16
ENDBRANCH  14  15
ENDBRANCH  13  14
ENDBRANCH  12  13
ENDBRANCH  11  12
ENDBRANCH   1  11
TORSDOF 14
ENDMDL
MODEL 9
REMARK VINA RESULT:    -4.320      1.698      3.394
REMARK INTER + INTRA:          -9.666
REMARK INTER:                  -8.114
REMARK INTRA:                  -1.552
REMARK UNBOUND:                -1.811
REMARK SMILES CCCCCCCCCCCCCCCC(=O)[O-]
REMARK SMILES IDX 9 1 10 2 11 3 12 4 13 5 14 6 15 7 16 8 17 9 18 10 8 11 7 12
REMARK SMILES IDX 6 13 5 14 4 15 3 16 2 17 1 18
REMARK H PARENT
REMARK Flexibility Score: inf
ROOT
ATOM      1  C   UNL     1     -28.093  68.102  86.948  1.00  0.00     0.000 C 
ENDROOT
BRANCH   1   2
ATOM      2  C   UNL     1     -29.314  69.033  87.078  1.00  0.00     0.000 C 
BRANCH   2   3
ATOM      3  C   UNL     1     -30.496  68.689  86.150  1.00  0.00     0.000 C 
BRANCH   3   4
ATOM      4  C   UNL     1     -31.653  67.929  86.829  1.00  0.00     0.000 C 
BRANCH   4   5
ATOM      5  C   UNL     1     -32.119  66.657  86.092  1.00  0.00     0.000 C 
BRANCH   5   6
ATOM      6  C   UNL     1     -31.018  65.916  85.308  1.00  0.00     0.006 C 
BRANCH   6   7
ATOM      7  C   UNL     1     -30.009  65.163  86.187  1.00  0.00     0.053 C 
BRANCH   7   8
ATOM      8  C   UNL     1     -29.949  63.707  85.847  1.00  0.00     0.041 C 
ATOM      9  O   UNL     1     -30.776  62.902  86.352  1.00  0.00    -0.550 OA
ATOM     10  O   UNL     1     -28.997  63.241  84.949  1.00  0.00    -0.550 OA
ENDBRANCH   7   8
ENDBRANCH   6   7
ENDBRANCH   5   6
ENDBRANCH   4   5
ENDBRANCH   3   4
ENDBRANCH   2   3
ENDBRANCH   1   2
BRANCH   1  11
ATOM     11  C   UNL     1     -27.010  68.578  85.959  1.00  0.00     0.000 C 
BRANCH  11  12
ATOM     12  C   UNL     1     -26.435  67.480  85.046  1.00  0.00    -0.000 C 
BRANCH  12  13
ATOM     13  C   UNL     1     -27.521  66.588  84.427  1.00  0.00    -0.000 C 
BRANCH  13  14
ATOM     14  C   UNL     1     -28.327  67.355  83.372  1.00  0.00    -0.000 C 
BRANCH  14  15
ATOM     15  C   UNL     1     -28.201  66.691  81.993  1.00  0.00    -0.000 C 
BRANCH  15  16
ATOM     16  C   UNL     1     -28.376  65.165  82.054  1.00  0.00    -0.000 C 
BRANCH  16  17
ATOM     17  C   UNL     1     -29.836  64.746  82.281  1.00  0.00    -0.003 C 
ATOM     18  C   UNL     1     -30.368  63.942  81.097  1.00  0.00     0.004 C 
ENDBRANCH  16  17
ENDBRANCH  15  16
ENDBRANCH  14  15
ENDBRANCH  13  14
ENDBRANCH  12  13
ENDBRANCH  11  12
ENDBRANCH   1  11
TORSDOF 14
ENDMDL
