MODEL 1
REMARK VINA RESULT:    -4.326      0.000      0.000
REMARK INTER + INTRA:          -5.710
REMARK INTER:                  -5.337
REMARK INTRA:                  -0.372
REMARK UNBOUND:                -0.372
REMARK SMILES Oc1cc(O)c2cc(O)c(-c3cc(O)c(O)c(O)c3)[o+]c2c1
REMARK SMILES IDX 10 1 20 2 21 3 22 4 2 5 3 6 4 7 6 8 7 9 8 10 11 11 12 12
REMARK SMILES IDX 13 13 19 14 15 15 17 16 14 17 16 19 18 21 9 23 1 25 5 27
REMARK H PARENT 14 18 16 20 18 22 9 24 1 26 5 28
REMARK Flexibility Score: inf
ROOT
ATOM      1  C   UNL     1      10.351  -1.256  14.108  1.00  0.00     0.402 A 
ATOM      2  O   UNL     1      10.094  -2.394  13.468  1.00  0.00    -0.202 OA
ATOM      3  C   UNL     1      11.026  -3.297  13.181  1.00  0.00     0.368 A 
ATOM      4  C   UNL     1      10.657  -4.464  12.507  1.00  0.00     0.162 A 
ATOM      5  C   UNL     1      11.614  -5.431  12.195  1.00  0.00     0.128 A 
ATOM      6  C   UNL     1      12.950  -5.231  12.559  1.00  0.00     0.093 A 
ATOM      7  C   UNL     1      13.345  -4.070  13.235  1.00  0.00     0.136 A 
ATOM      8  C   UNL     1      12.375  -3.083  13.551  1.00  0.00     0.125 A 
ATOM      9  C   UNL     1      12.682  -1.884  14.215  1.00  0.00     0.078 A 
ATOM     10  C   UNL     1      11.672  -0.956  14.489  1.00  0.00     0.223 A 
ENDROOT
BRANCH   1  11
ATOM     11  C   UNL     1       9.224  -0.335  14.379  1.00  0.00     0.091 A 
ATOM     12  C   UNL     1       8.932   0.685  13.464  1.00  0.00     0.068 A 
ATOM     13  C   UNL     1       7.861   1.562  13.678  1.00  0.00     0.162 A 
ATOM     14  C   UNL     1       8.404  -0.496  15.506  1.00  0.00     0.068 A 
ATOM     15  C   UNL     1       7.052   1.409  14.828  1.00  0.00     0.200 A 
ATOM     16  C   UNL     1       7.330   0.369  15.736  1.00  0.00     0.162 A 
BRANCH  13  17
ATOM     17  O   UNL     1       7.641   2.560  12.727  1.00  0.00    -0.504 OA
ATOM     18  H   UNL     1       7.925   3.522  12.838  1.00  0.00     0.293 HD
ENDBRANCH  13  17
BRANCH  15  19
ATOM     19  O   UNL     1       5.974   2.257  15.100  1.00  0.00    -0.502 OA
ATOM     20  H   UNL     1       5.169   2.361  14.501  1.00  0.00     0.293 HD
ENDBRANCH  15  19
BRANCH  16  21
ATOM     21  O   UNL     1       6.546   0.176  16.872  1.00  0.00    -0.504 OA
ATOM     22  H   UNL     1       6.126  -0.719  17.094  1.00  0.00     0.293 HD
ENDBRANCH  16  21
ENDBRANCH   1  11
BRANCH  10  23
ATOM     23  O   UNL     1      11.984   0.257  15.103  1.00  0.00    -0.500 OA
ATOM     24  H   UNL     1      12.673   0.889  14.712  1.00  0.00     0.294 HD
ENDBRANCH  10  23
BRANCH   5  25
ATOM     25  O   UNL     1      11.226  -6.588  11.523  1.00  0.00    -0.507 OA
ATOM     26  H   UNL     1      11.845  -7.386  11.443  1.00  0.00     0.293 HD
ENDBRANCH   5  25
BRANCH   7  27
ATOM     27  O   UNL     1      14.698  -3.947  13.566  1.00  0.00    -0.507 OA
ATOM     28  H   UNL     1      15.068  -3.258  14.203  1.00  0.00     0.293 HD
ENDBRANCH   7  27
TORSDOF 7
ENDMDL
MODEL 2
REMARK VINA RESULT:    -4.256      2.344      7.302
REMARK INTER + INTRA:          -5.623
REMARK INTER:                  -5.386
REMARK INTRA:                  -0.237
REMARK UNBOUND:                -0.372
REMARK SMILES Oc1cc(O)c2cc(O)c(-c3cc(O)c(O)c(O)c3)[o+]c2c1
REMARK SMILES IDX 10 1 20 2 21 3 22 4 2 5 3 6 4 7 6 8 7 9 8 10 11 11 12 12
REMARK SMILES IDX 13 13 19 14 15 15 17 16 14 17 16 19 18 21 9 23 1 25 5 27
REMARK H PARENT 14 18 16 20 18 22 9 24 1 26 5 28
REMARK Flexibility Score: inf
ROOT
ATOM      1  C   UNL     1      10.954   0.122  14.172  1.00  0.00     0.402 A 
ATOM      2  O   UNL     1      11.299   1.327  13.726  1.00  0.00    -0.202 OA
ATOM      3  C   UNL     1      10.435   2.180  13.186  1.00  0.00     0.368 A 
ATOM      4  C   UNL     1      10.893   3.426  12.749  1.00  0.00     0.162 A 
ATOM      5  C   UNL     1      10.007   4.344  12.181  1.00  0.00     0.128 A 
ATOM      6  C   UNL     1       8.653   4.014  12.049  1.00  0.00     0.093 A 
ATOM      7  C   UNL     1       8.170   2.772  12.479  1.00  0.00     0.136 A 
ATOM      8  C   UNL     1       9.068   1.836  13.055  1.00  0.00     0.125 A 
ATOM      9  C   UNL     1       8.675   0.564  13.502  1.00  0.00     0.078 A 
ATOM     10  C   UNL     1       9.619  -0.307  14.055  1.00  0.00     0.223 A 
ENDROOT
BRANCH   1  11
ATOM     11  C   UNL     1      12.009  -0.734  14.762  1.00  0.00     0.091 A 
ATOM     12  C   UNL     1      12.415  -1.893  14.088  1.00  0.00     0.068 A 
ATOM     13  C   UNL     1      13.423  -2.714  14.607  1.00  0.00     0.162 A 
ATOM     14  C   UNL     1      12.652  -0.380  15.959  1.00  0.00     0.068 A 
ATOM     15  C   UNL     1      14.052  -2.364  15.825  1.00  0.00     0.200 A 
ATOM     16  C   UNL     1      13.661  -1.188  16.491  1.00  0.00     0.162 A 
BRANCH  13  17
ATOM     17  O   UNL     1      13.764  -3.859  13.883  1.00  0.00    -0.504 OA
ATOM     18  H   UNL     1      13.315  -4.756  13.995  1.00  0.00     0.293 HD
ENDBRANCH  13  17
BRANCH  15  19
ATOM     19  O   UNL     1      15.058  -3.148  16.397  1.00  0.00    -0.502 OA
ATOM     20  H   UNL     1      15.950  -3.331  15.962  1.00  0.00     0.293 HD
ENDBRANCH  15  19
BRANCH  16  21
ATOM     21  O   UNL     1      14.268  -0.800  17.685  1.00  0.00    -0.504 OA
ATOM     22  H   UNL     1      14.545  -1.468  18.394  1.00  0.00     0.293 HD
ENDBRANCH  16  21
ENDBRANCH   1  11
BRANCH  10  23
ATOM     23  O   UNL     1       9.240  -1.590  14.453  1.00  0.00    -0.500 OA
ATOM     24  H   UNL     1       8.413  -1.749  15.015  1.00  0.00     0.294 HD
ENDBRANCH  10  23
BRANCH   5  25
ATOM     25  O   UNL     1      10.482   5.580  11.751  1.00  0.00    -0.507 OA
ATOM     26  H   UNL     1      10.505   6.383  12.369  1.00  0.00     0.293 HD
ENDBRANCH   5  25
BRANCH   7  27
ATOM     27  O   UNL     1       6.804   2.521  12.315  1.00  0.00    -0.507 OA
ATOM     28  H   UNL     1       6.079   2.910  12.899  1.00  0.00     0.293 HD
ENDBRANCH   7  27
TORSDOF 7
ENDMDL
MODEL 3
REMARK VINA RESULT:    -3.996      2.143      7.071
REMARK INTER + INTRA:          -5.303
REMARK INTER:                  -4.960
REMARK INTRA:                  -0.343
REMARK UNBOUND:                -0.372
REMARK SMILES Oc1cc(O)c2cc(O)c(-c3cc(O)c(O)c(O)c3)[o+]c2c1
REMARK SMILES IDX 10 1 20 2 21 3 22 4 2 5 3 6 4 7 6 8 7 9 8 10 11 11 12 12
REMARK SMILES IDX 13 13 19 14 15 15 17 16 14 17 16 19 18 21 9 23 1 25 5 27
REMARK H PARENT 14 18 16 20 18 22 9 24 1 26 5 28
REMARK Flexibility Score: inf
ROOT
ATOM      1  C   UNL     1      10.515   0.065  14.598  1.00  0.00     0.402 A 
ATOM      2  O   UNL     1       9.402  -0.126  15.301  1.00  0.00    -0.202 OA
ATOM      3  C   UNL     1       8.270   0.531  15.069  1.00  0.00     0.368 A 
ATOM      4  C   UNL     1       7.152   0.259  15.861  1.00  0.00     0.162 A 
ATOM      5  C   UNL     1       5.949   0.931  15.638  1.00  0.00     0.128 A 
ATOM      6  C   UNL     1       5.863   1.883  14.616  1.00  0.00     0.093 A 
ATOM      7  C   UNL     1       6.970   2.174  13.808  1.00  0.00     0.136 A 
ATOM      8  C   UNL     1       8.195   1.494  14.034  1.00  0.00     0.125 A 
ATOM      9  C   UNL     1       9.358   1.729  13.283  1.00  0.00     0.078 A 
ATOM     10  C   UNL     1      10.531   1.023  13.567  1.00  0.00     0.223 A 
ENDROOT
BRANCH   1  11
ATOM     11  C   UNL     1      11.710  -0.737  14.947  1.00  0.00     0.091 A 
ATOM     12  C   UNL     1      12.074  -1.821  14.137  1.00  0.00     0.068 A 
ATOM     13  C   UNL     1      13.209  -2.588  14.426  1.00  0.00     0.162 A 
ATOM     14  C   UNL     1      12.522  -0.400  16.042  1.00  0.00     0.068 A 
ATOM     15  C   UNL     1      14.010  -2.258  15.545  1.00  0.00     0.200 A 
ATOM     16  C   UNL     1      13.659  -1.155  16.345  1.00  0.00     0.162 A 
BRANCH  13  17
ATOM     17  O   UNL     1      13.499  -3.660  13.579  1.00  0.00    -0.504 OA
ATOM     18  H   UNL     1      12.803  -4.194  13.080  1.00  0.00     0.293 HD
ENDBRANCH  13  17
BRANCH  15  19
ATOM     19  O   UNL     1      15.150  -2.991  15.888  1.00  0.00    -0.502 OA
ATOM     20  H   UNL     1      16.075  -2.597  15.967  1.00  0.00     0.293 HD
ENDBRANCH  15  19
BRANCH  16  21
ATOM     21  O   UNL     1      14.431  -0.788  17.446  1.00  0.00    -0.504 OA
ATOM     22  H   UNL     1      15.421  -0.994  17.505  1.00  0.00     0.293 HD
ENDBRANCH  16  21
ENDBRANCH   1  11
BRANCH  10  23
ATOM     23  O   UNL     1      11.700   1.293  12.855  1.00  0.00    -0.500 OA
ATOM     24  H   UNL     1      11.683   1.501  11.864  1.00  0.00     0.294 HD
ENDBRANCH  10  23
BRANCH   5  25
ATOM     25  O   UNL     1       4.846   0.646  16.438  1.00  0.00    -0.507 OA
ATOM     26  H   UNL     1       3.963   1.128  16.314  1.00  0.00     0.293 HD
ENDBRANCH   5  25
BRANCH   7  27
ATOM     27  O   UNL     1       6.801   3.135  12.807  1.00  0.00    -0.507 OA
ATOM     28  H   UNL     1       6.951   4.124  12.936  1.00  0.00     0.293 HD
ENDBRANCH   7  27
TORSDOF 7
ENDMDL
MODEL 4
REMARK VINA RESULT:    -3.969     11.192     14.132
REMARK INTER + INTRA:          -5.269
REMARK INTER:                  -4.984
REMARK INTRA:                  -0.285
REMARK UNBOUND:                -0.372
REMARK SMILES Oc1cc(O)c2cc(O)c(-c3cc(O)c(O)c(O)c3)[o+]c2c1
REMARK SMILES IDX 10 1 20 2 21 3 22 4 2 5 3 6 4 7 6 8 7 9 8 10 11 11 12 12
REMARK SMILES IDX 13 13 19 14 15 15 17 16 14 17 16 19 18 21 9 23 1 25 5 27
REMARK H PARENT 14 18 16 20 18 22 9 24 1 26 5 28
REMARK Flexibility Score: inf
ROOT
ATOM      1  C   UNL     1      12.276   8.207  21.739  1.00  0.00     0.402 A 
ATOM      2  O   UNL     1      11.056   8.532  22.161  1.00  0.00    -0.202 OA
ATOM      3  C   UNL     1      10.711   8.560  23.444  1.00  0.00     0.368 A 
ATOM      4  C   UNL     1       9.404   8.917  23.788  1.00  0.00     0.162 A 
ATOM      5  C   UNL     1       9.015   8.957  25.128  1.00  0.00     0.128 A 
ATOM      6  C   UNL     1       9.937   8.639  26.132  1.00  0.00     0.093 A 
ATOM      7  C   UNL     1      11.252   8.279  25.812  1.00  0.00     0.136 A 
ATOM      8  C   UNL     1      11.651   8.234  24.450  1.00  0.00     0.125 A 
ATOM      9  C   UNL     1      12.944   7.872  24.037  1.00  0.00     0.078 A 
ATOM     10  C   UNL     1      13.262   7.846  22.675  1.00  0.00     0.223 A 
ENDROOT
BRANCH   1  11
ATOM     11  C   UNL     1      12.540   8.223  20.282  1.00  0.00     0.091 A 
ATOM     12  C   UNL     1      11.867   7.320  19.449  1.00  0.00     0.068 A 
ATOM     13  C   UNL     1      12.077   7.320  18.065  1.00  0.00     0.162 A 
ATOM     14  C   UNL     1      13.411   9.163  19.707  1.00  0.00     0.068 A 
ATOM     15  C   UNL     1      12.973   8.255  17.494  1.00  0.00     0.200 A 
ATOM     16  C   UNL     1      13.632   9.178  18.327  1.00  0.00     0.162 A 
BRANCH  13  17
ATOM     17  O   UNL     1      11.378   6.382  17.303  1.00  0.00    -0.504 OA
ATOM     18  H   UNL     1      11.701   5.443  17.123  1.00  0.00     0.293 HD
ENDBRANCH  13  17
BRANCH  15  19
ATOM     19  O   UNL     1      13.230   8.299  16.121  1.00  0.00    -0.502 OA
ATOM     20  H   UNL     1      13.245   9.147  15.573  1.00  0.00     0.293 HD
ENDBRANCH  15  19
BRANCH  16  21
ATOM     21  O   UNL     1      14.510  10.125  17.801  1.00  0.00    -0.504 OA
ATOM     22  H   UNL     1      15.482  10.177  18.082  1.00  0.00     0.293 HD
ENDBRANCH  16  21
ENDBRANCH   1  11
BRANCH  10  23
ATOM     23  O   UNL     1      14.530   7.438  22.261  1.00  0.00    -0.500 OA
ATOM     24  H   UNL     1      14.759   7.328  21.281  1.00  0.00     0.294 HD
ENDBRANCH  10  23
BRANCH   5  25
ATOM     25  O   UNL     1       7.708   9.315  25.451  1.00  0.00    -0.507 OA
ATOM     26  H   UNL     1       7.012   8.618  25.688  1.00  0.00     0.293 HD
ENDBRANCH   5  25
BRANCH   7  27
ATOM     27  O   UNL     1      12.113   7.980  26.872  1.00  0.00    -0.507 OA
ATOM     28  H   UNL     1      13.008   8.421  27.021  1.00  0.00     0.293 HD
ENDBRANCH   7  27
TORSDOF 7
ENDMDL
MODEL 5
REMARK VINA RESULT:    -3.874      8.340     10.796
REMARK INTER + INTRA:          -5.152
REMARK INTER:                  -5.124
REMARK INTRA:                  -0.028
REMARK UNBOUND:                -0.372
REMARK SMILES Oc1cc(O)c2cc(O)c(-c3cc(O)c(O)c(O)c3)[o+]c2c1
REMARK SMILES IDX 10 1 20 2 21 3 22 4 2 5 3 6 4 7 6 8 7 9 8 10 11 11 12 12
REMARK SMILES IDX 13 13 19 14 15 15 17 16 14 17 16 19 18 21 9 23 1 25 5 27
REMARK H PARENT 14 18 16 20 18 22 9 24 1 26 5 28
REMARK Flexibility Score: inf
ROOT
ATOM      1  C   UNL     1       9.757  -8.216  19.067  1.00  0.00     0.402 A 
ATOM      2  O   UNL     1      10.335  -8.605  20.200  1.00  0.00    -0.202 OA
ATOM      3  C   UNL     1       9.707  -8.621  21.372  1.00  0.00     0.368 A 
ATOM      4  C   UNL     1      10.398  -9.049  22.508  1.00  0.00     0.162 A 
ATOM      5  C   UNL     1       9.763  -9.080  23.750  1.00  0.00     0.128 A 
ATOM      6  C   UNL     1       8.426  -8.679  23.859  1.00  0.00     0.093 A 
ATOM      7  C   UNL     1       7.712  -8.246  22.734  1.00  0.00     0.136 A 
ATOM      8  C   UNL     1       8.356  -8.211  21.470  1.00  0.00     0.125 A 
ATOM      9  C   UNL     1       7.722  -7.780  20.293  1.00  0.00     0.078 A 
ATOM     10  C   UNL     1       8.423  -7.769  19.084  1.00  0.00     0.223 A 
ENDROOT
BRANCH   1  11
ATOM     11  C   UNL     1      10.561  -8.252  17.823  1.00  0.00     0.091 A 
ATOM     12  C   UNL     1      11.892  -7.816  17.848  1.00  0.00     0.068 A 
ATOM     13  C   UNL     1      12.687  -7.856  16.697  1.00  0.00     0.162 A 
ATOM     14  C   UNL     1      10.035  -8.769  16.628  1.00  0.00     0.068 A 
ATOM     15  C   UNL     1      12.144  -8.356  15.490  1.00  0.00     0.200 A 
ATOM     16  C   UNL     1      10.814  -8.817  15.469  1.00  0.00     0.162 A 
BRANCH  13  17
ATOM     17  O   UNL     1      14.000  -7.392  16.799  1.00  0.00    -0.504 OA
ATOM     18  H   UNL     1      14.635  -7.646  17.541  1.00  0.00     0.293 HD
ENDBRANCH  13  17
BRANCH  15  19
ATOM     19  O   UNL     1      12.885  -8.414  14.306  1.00  0.00    -0.502 OA
ATOM     20  H   UNL     1      13.396  -9.226  13.996  1.00  0.00     0.293 HD
ENDBRANCH  15  19
BRANCH  16  21
ATOM     21  O   UNL     1      10.248  -9.332  14.303  1.00  0.00    -0.504 OA
ATOM     22  H   UNL     1      10.135 -10.327  14.150  1.00  0.00     0.293 HD
ENDBRANCH  16  21
ENDBRANCH   1  11
BRANCH  10  23
ATOM     23  O   UNL     1       7.810  -7.294  17.924  1.00  0.00    -0.500 OA
ATOM     24  H   UNL     1       8.351  -6.952  17.139  1.00  0.00     0.294 HD
ENDBRANCH  10  23
BRANCH   5  25
ATOM     25  O   UNL     1      10.469  -9.509  24.871  1.00  0.00    -0.507 OA
ATOM     26  H   UNL     1      10.205 -10.349  25.374  1.00  0.00     0.293 HD
ENDBRANCH   5  25
BRANCH   7  27
ATOM     27  O   UNL     1       6.380  -7.866  22.926  1.00  0.00    -0.507 OA
ATOM     28  H   UNL     1       6.031  -6.928  22.799  1.00  0.00     0.293 HD
ENDBRANCH   7  27
TORSDOF 7
ENDMDL
MODEL 6
REMARK VINA RESULT:    -3.846      3.625      6.059
REMARK INTER + INTRA:          -5.118
REMARK INTER:                  -4.734
REMARK INTRA:                  -0.384
REMARK UNBOUND:                -0.372
REMARK SMILES Oc1cc(O)c2cc(O)c(-c3cc(O)c(O)c(O)c3)[o+]c2c1
REMARK SMILES IDX 10 1 20 2 21 3 22 4 2 5 3 6 4 7 6 8 7 9 8 10 11 11 12 12
REMARK SMILES IDX 13 13 19 14 15 15 17 16 14 17 16 19 18 21 9 23 1 25 5 27
REMARK H PARENT 14 18 16 20 18 22 9 24 1 26 5 28
REMARK Flexibility Score: inf
ROOT
ATOM      1  C   UNL     1       6.134   1.720  14.933  1.00  0.00     0.402 A 
ATOM      2  O   UNL     1       6.814   2.244  13.917  1.00  0.00    -0.202 OA
ATOM      3  C   UNL     1       8.044   1.864  13.588  1.00  0.00     0.368 A 
ATOM      4  C   UNL     1       8.676   2.473  12.500  1.00  0.00     0.162 A 
ATOM      5  C   UNL     1       9.967   2.091  12.130  1.00  0.00     0.128 A 
ATOM      6  C   UNL     1      10.632   1.093  12.852  1.00  0.00     0.093 A 
ATOM      7  C   UNL     1      10.019   0.467  13.946  1.00  0.00     0.136 A 
ATOM      8  C   UNL     1       8.708   0.855  14.326  1.00  0.00     0.125 A 
ATOM      9  C   UNL     1       8.023   0.292  15.415  1.00  0.00     0.078 A 
ATOM     10  C   UNL     1       6.733   0.729  15.733  1.00  0.00     0.223 A 
ENDROOT
BRANCH   1  11
ATOM     11  C   UNL     1       4.765   2.222  15.193  1.00  0.00     0.091 A 
ATOM     12  C   UNL     1       4.591   3.408  15.919  1.00  0.00     0.068 A 
ATOM     13  C   UNL     1       3.313   3.922  16.166  1.00  0.00     0.162 A 
ATOM     14  C   UNL     1       3.636   1.565  14.678  1.00  0.00     0.068 A 
ATOM     15  C   UNL     1       2.178   3.243  15.664  1.00  0.00     0.200 A 
ATOM     16  C   UNL     1       2.352   2.065  14.914  1.00  0.00     0.162 A 
BRANCH  13  17
ATOM     17  O   UNL     1       3.221   5.102  16.908  1.00  0.00    -0.504 OA
ATOM     18  H   UNL     1       4.015   5.651  17.200  1.00  0.00     0.293 HD
ENDBRANCH  13  17
BRANCH  15  19
ATOM     19  O   UNL     1       0.876   3.703  15.884  1.00  0.00    -0.502 OA
ATOM     20  H   UNL     1       0.091   3.491  15.287  1.00  0.00     0.293 HD
ENDBRANCH  15  19
BRANCH  16  21
ATOM     21  O   UNL     1       1.260   1.376  14.389  1.00  0.00    -0.504 OA
ATOM     22  H   UNL     1       0.788   1.673  13.543  1.00  0.00     0.293 HD
ENDBRANCH  16  21
ENDBRANCH   1  11
BRANCH  10  23
ATOM     23  O   UNL     1       6.071   0.207  16.844  1.00  0.00    -0.500 OA
ATOM     24  H   UNL     1       6.259   0.542  17.781  1.00  0.00     0.294 HD
ENDBRANCH  10  23
BRANCH   5  25
ATOM     25  O   UNL     1      10.580   2.710  11.044  1.00  0.00    -0.507 OA
ATOM     26  H   UNL     1      10.712   3.715  11.012  1.00  0.00     0.293 HD
ENDBRANCH   5  25
BRANCH   7  27
ATOM     27  O   UNL     1      10.749  -0.522  14.611  1.00  0.00    -0.507 OA
ATOM     28  H   UNL     1      11.388  -1.159  14.160  1.00  0.00     0.293 HD
ENDBRANCH   7  27
TORSDOF 7
ENDMDL
MODEL 7
REMARK VINA RESULT:    -3.838      9.172     10.971
REMARK INTER + INTRA:          -5.107
REMARK INTER:                  -4.782
REMARK INTRA:                  -0.325
REMARK UNBOUND:                -0.372
REMARK SMILES Oc1cc(O)c2cc(O)c(-c3cc(O)c(O)c(O)c3)[o+]c2c1
REMARK SMILES IDX 10 1 20 2 21 3 22 4 2 5 3 6 4 7 6 8 7 9 8 10 11 11 12 12
REMARK SMILES IDX 13 13 19 14 15 15 17 16 14 17 16 19 18 21 9 23 1 25 5 27
REMARK H PARENT 14 18 16 20 18 22 9 24 1 26 5 28
REMARK Flexibility Score: inf
ROOT
ATOM      1  C   UNL     1       9.891  -7.486  20.475  1.00  0.00     0.402 A 
ATOM      2  O   UNL     1       9.998  -7.936  21.723  1.00  0.00    -0.202 OA
ATOM      3  C   UNL     1       9.016  -8.569  22.357  1.00  0.00     0.368 A 
ATOM      4  C   UNL     1       9.225  -9.007  23.668  1.00  0.00     0.162 A 
ATOM      5  C   UNL     1       8.213  -9.677  24.357  1.00  0.00     0.128 A 
ATOM      6  C   UNL     1       6.983  -9.912  23.732  1.00  0.00     0.093 A 
ATOM      7  C   UNL     1       6.749  -9.483  22.419  1.00  0.00     0.136 A 
ATOM      8  C   UNL     1       7.775  -8.799  21.717  1.00  0.00     0.125 A 
ATOM      9  C   UNL     1       7.626  -8.322  20.404  1.00  0.00     0.078 A 
ATOM     10  C   UNL     1       8.681  -7.653  19.777  1.00  0.00     0.223 A 
ENDROOT
BRANCH   1  11
ATOM     11  C   UNL     1      11.061  -6.805  19.874  1.00  0.00     0.091 A 
ATOM     12  C   UNL     1      11.441  -5.541  20.345  1.00  0.00     0.068 A 
ATOM     13  C   UNL     1      12.553  -4.877  19.814  1.00  0.00     0.162 A 
ATOM     14  C   UNL     1      11.834  -7.423  18.878  1.00  0.00     0.068 A 
ATOM     15  C   UNL     1      13.315  -5.495  18.795  1.00  0.00     0.200 A 
ATOM     16  C   UNL     1      12.948  -6.775  18.337  1.00  0.00     0.162 A 
BRANCH  13  17
ATOM     17  O   UNL     1      12.860  -3.616  20.328  1.00  0.00    -0.504 OA
ATOM     18  H   UNL     1      13.523  -3.451  21.071  1.00  0.00     0.293 HD
ENDBRANCH  13  17
BRANCH  15  19
ATOM     19  O   UNL     1      14.430  -4.879  18.220  1.00  0.00    -0.502 OA
ATOM     20  H   UNL     1      15.379  -5.014  18.538  1.00  0.00     0.293 HD
ENDBRANCH  15  19
BRANCH  16  21
ATOM     21  O   UNL     1      13.683  -7.424  17.346  1.00  0.00    -0.504 OA
ATOM     22  H   UNL     1      14.510  -7.014  16.929  1.00  0.00     0.293 HD
ENDBRANCH  16  21
ENDBRANCH   1  11
BRANCH  10  23
ATOM     23  O   UNL     1       8.516  -7.135  18.492  1.00  0.00    -0.500 OA
ATOM     24  H   UNL     1       9.305  -6.818  17.942  1.00  0.00     0.294 HD
ENDBRANCH  10  23
BRANCH   5  25
ATOM     25  O   UNL     1       8.441 -10.105  25.662  1.00  0.00    -0.507 OA
ATOM     26  H   UNL     1       8.614  -9.446  26.413  1.00  0.00     0.293 HD
ENDBRANCH   5  25
BRANCH   7  27
ATOM     27  O   UNL     1       5.496  -9.759  21.866  1.00  0.00    -0.507 OA
ATOM     28  H   UNL     1       4.814 -10.378  22.280  1.00  0.00     0.293 HD
ENDBRANCH   7  27
TORSDOF 7
ENDMDL
MODEL 8
REMARK VINA RESULT:    -3.759     11.391     14.058
REMARK INTER + INTRA:          -5.011
REMARK INTER:                  -4.645
REMARK INTRA:                  -0.366
REMARK UNBOUND:                -0.372
REMARK SMILES Oc1cc(O)c2cc(O)c(-c3cc(O)c(O)c(O)c3)[o+]c2c1
REMARK SMILES IDX 10 1 20 2 21 3 22 4 2 5 3 6 4 7 6 8 7 9 8 10 11 11 12 12
REMARK SMILES IDX 13 13 19 14 15 15 17 16 14 17 16 19 18 21 9 23 1 25 5 27
REMARK H PARENT 14 18 16 20 18 22 9 24 1 26 5 28
REMARK Flexibility Score: inf
ROOT
ATOM      1  C   UNL     1      12.559   8.878  21.177  1.00  0.00     0.402 A 
ATOM      2  O   UNL     1      11.695   8.492  22.113  1.00  0.00    -0.202 OA
ATOM      3  C   UNL     1      11.896   8.679  23.413  1.00  0.00     0.368 A 
ATOM      4  C   UNL     1      10.928   8.240  24.321  1.00  0.00     0.162 A 
ATOM      5  C   UNL     1      11.111   8.425  25.692  1.00  0.00     0.128 A 
ATOM      6  C   UNL     1      12.270   9.054  26.161  1.00  0.00     0.093 A 
ATOM      7  C   UNL     1      13.255   9.503  25.272  1.00  0.00     0.136 A 
ATOM      8  C   UNL     1      13.073   9.314  23.877  1.00  0.00     0.125 A 
ATOM      9  C   UNL     1      14.012   9.720  22.914  1.00  0.00     0.078 A 
ATOM     10  C   UNL     1      13.765   9.495  21.557  1.00  0.00     0.223 A 
ENDROOT
BRANCH   1  11
ATOM     11  C   UNL     1      12.216   8.623  19.760  1.00  0.00     0.091 A 
ATOM     12  C   UNL     1      12.691   7.463  19.133  1.00  0.00     0.068 A 
ATOM     13  C   UNL     1      12.370   7.179  17.800  1.00  0.00     0.162 A 
ATOM     14  C   UNL     1      11.376   9.490  19.043  1.00  0.00     0.068 A 
ATOM     15  C   UNL     1      11.541   8.069  17.076  1.00  0.00     0.200 A 
ATOM     16  C   UNL     1      11.044   9.222  17.712  1.00  0.00     0.162 A 
BRANCH  13  17
ATOM     17  O   UNL     1      12.892   6.010  17.242  1.00  0.00    -0.504 OA
ATOM     18  H   UNL     1      13.049   5.874  16.255  1.00  0.00     0.293 HD
ENDBRANCH  13  17
BRANCH  15  19
ATOM     19  O   UNL     1      11.192   7.844  15.742  1.00  0.00    -0.502 OA
ATOM     20  H   UNL     1      11.776   7.359  15.077  1.00  0.00     0.293 HD
ENDBRANCH  15  19
BRANCH  16  21
ATOM     21  O   UNL     1      10.211  10.114  17.038  1.00  0.00    -0.504 OA
ATOM     22  H   UNL     1       9.626   9.828  16.261  1.00  0.00     0.293 HD
ENDBRANCH  16  21
ENDBRANCH   1  11
BRANCH  10  23
ATOM     23  O   UNL     1      14.719   9.852  20.604  1.00  0.00    -0.500 OA
ATOM     24  H   UNL     1      15.353  10.628  20.751  1.00  0.00     0.294 HD
ENDBRANCH  10  23
BRANCH   5  25
ATOM     25  O   UNL     1      10.135   7.980  26.580  1.00  0.00    -0.507 OA
ATOM     26  H   UNL     1       9.539   7.191  26.360  1.00  0.00     0.293 HD
ENDBRANCH   5  25
BRANCH   7  27
ATOM     27  O   UNL     1      14.381  10.125  25.820  1.00  0.00    -0.507 OA
ATOM     28  H   UNL     1      15.007  10.725  25.305  1.00  0.00     0.293 HD
ENDBRANCH   7  27
TORSDOF 7
ENDMDL
MODEL 9
REMARK VINA RESULT:    -3.716     11.026     13.351
REMARK INTER + INTRA:          -4.957
REMARK INTER:                  -4.859
REMARK INTRA:                  -0.098
REMARK UNBOUND:                -0.372
REMARK SMILES Oc1cc(O)c2cc(O)c(-c3cc(O)c(O)c(O)c3)[o+]c2c1
REMARK SMILES IDX 10 1 20 2 21 3 22 4 2 5 3 6 4 7 6 8 7 9 8 10 11 11 12 12
REMARK SMILES IDX 13 13 19 14 15 15 17 16 14 17 16 19 18 21 9 23 1 25 5 27
REMARK H PARENT 14 18 16 20 18 22 9 24 1 26 5 28
REMARK Flexibility Score: inf
ROOT
ATOM      1  C   UNL     1      11.965   8.027  21.886  1.00  0.00     0.402 A 
ATOM      2  O   UNL     1      11.042   8.464  21.034  1.00  0.00    -0.202 OA
ATOM      3  C   UNL     1      11.005   8.111  19.753  1.00  0.00     0.368 A 
ATOM      4  C   UNL     1       9.992   8.621  18.936  1.00  0.00     0.162 A 
ATOM      5  C   UNL     1       9.927   8.265  17.588  1.00  0.00     0.128 A 
ATOM      6  C   UNL     1      10.880   7.392  17.052  1.00  0.00     0.093 A 
ATOM      7  C   UNL     1      11.904   6.867  17.850  1.00  0.00     0.136 A 
ATOM      8  C   UNL     1      11.975   7.229  19.220  1.00  0.00     0.125 A 
ATOM      9  C   UNL     1      12.973   6.762  20.091  1.00  0.00     0.078 A 
ATOM     10  C   UNL     1      12.981   7.166  21.429  1.00  0.00     0.223 A 
ENDROOT
BRANCH   1  11
ATOM     11  C   UNL     1      11.893   8.485  23.292  1.00  0.00     0.091 A 
ATOM     12  C   UNL     1      10.726   8.259  24.033  1.00  0.00     0.068 A 
ATOM     13  C   UNL     1      10.630   8.660  25.371  1.00  0.00     0.162 A 
ATOM     14  C   UNL     1      12.992   9.093  23.920  1.00  0.00     0.068 A 
ATOM     15  C   UNL     1      11.733   9.293  25.991  1.00  0.00     0.200 A 
ATOM     16  C   UNL     1      12.915   9.500  25.255  1.00  0.00     0.162 A 
BRANCH  13  17
ATOM     17  O   UNL     1       9.429   8.410  26.038  1.00  0.00    -0.504 OA
ATOM     18  H   UNL     1       9.343   7.811  26.845  1.00  0.00     0.293 HD
ENDBRANCH  13  17
BRANCH  15  19
ATOM     19  O   UNL     1      11.695   9.723  27.320  1.00  0.00    -0.502 OA
ATOM     20  H   UNL     1      11.790  10.686  27.608  1.00  0.00     0.293 HD
ENDBRANCH  15  19
BRANCH  16  21
ATOM     21  O   UNL     1      14.029  10.105  25.835  1.00  0.00    -0.504 OA
ATOM     22  H   UNL     1      14.909  10.203  25.344  1.00  0.00     0.293 HD
ENDBRANCH  16  21
ENDBRANCH   1  11
BRANCH  10  23
ATOM     23  O   UNL     1      14.000   6.743  22.283  1.00  0.00    -0.500 OA
ATOM     24  H   UNL     1      14.155   5.762  22.479  1.00  0.00     0.294 HD
ENDBRANCH  10  23
BRANCH   5  25
ATOM     25  O   UNL     1       8.911   8.785  16.790  1.00  0.00    -0.507 OA
ATOM     26  H   UNL     1       9.109   9.224  15.899  1.00  0.00     0.293 HD
ENDBRANCH   5  25
BRANCH   7  27
ATOM     27  O   UNL     1      12.814   5.999  17.239  1.00  0.00    -0.507 OA
ATOM     28  H   UNL     1      12.899   5.872  16.242  1.00  0.00     0.293 HD
ENDBRANCH   7  27
TORSDOF 7
ENDMDL
