MODEL 1
REMARK VINA RESULT:     5.188      0.000      0.000
REMARK INTER + INTRA:           5.536
REMARK INTER:                   6.856
REMARK INTRA:                  -1.320
REMARK UNBOUND:                -1.320
REMARK SMILES CC[C@H](C=C[C@H](C)[C@H]1CC[C@H]2[C@@H]3CC=C4C[C@H](O)CC[C@@]4(C)[C@@H]3CC[C@@]12C)C(C)C
REMARK SMILES IDX 6 1 7 2 5 3 4 4 3 5 2 6 1 7 28 8 29 9 30 10 8 11 9 12 26 13
REMARK SMILES IDX 10 14 11 15 25 16 27 17 12 18 24 19 23 20 13 21 21 22 14 23
REMARK SMILES IDX 15 24 20 25 22 26 16 27 19 28 17 29 18 30
REMARK H PARENT 18 31
REMARK Flexibility Score: inf
ROOT
ATOM      1  C   UNL     1      11.399  16.911  25.371  1.00  0.00     0.012 C 
ATOM      2  C   UNL     1      10.021  17.298  25.939  1.00  0.00     0.012 C 
ENDROOT
BRANCH   1   3
ATOM      3  C   UNL     1      11.449  17.269  23.901  1.00  0.00    -0.028 C 
ATOM      4  C   UNL     1      12.527  17.045  23.130  1.00  0.00    -0.027 C 
BRANCH   4   5
ATOM      5  C   UNL     1      12.582  17.401  21.655  1.00  0.00     0.014 C 
BRANCH   5   6
ATOM      6  C   UNL     1      11.274  18.110  21.216  1.00  0.00     0.004 C 
ATOM      7  C   UNL     1      10.703  17.591  19.897  1.00  0.00     0.004 C 
ENDBRANCH   5   6
BRANCH   5   8
ATOM      8  C   UNL     1      13.929  18.125  21.302  1.00  0.00    -0.011 C 
ATOM      9  C   UNL     1      14.527  17.750  19.933  1.00  0.00     0.008 C 
ATOM     10  C   UNL     1      14.990  17.950  22.402  1.00  0.00     0.008 C 
ENDBRANCH   5   8
ENDBRANCH   4   5
ENDBRANCH   1   3
BRANCH   1  11
ATOM     11  C   UNL     1      12.569  17.555  26.185  1.00  0.00     0.002 C 
ATOM     12  C   UNL     1      12.080  18.124  27.521  1.00  0.00     0.005 C 
ATOM     13  C   UNL     1      13.832  16.667  26.540  1.00  0.00    -0.026 C 
ATOM     14  C   UNL     1      13.286  18.120  28.431  1.00  0.00     0.005 C 
ATOM     15  C   UNL     1      14.049  16.839  28.084  1.00  0.00    -0.001 C 
ATOM     16  C   UNL     1      13.711  15.161  26.152  1.00  0.00     0.007 C 
ATOM     17  C   UNL     1      15.062  17.261  25.798  1.00  0.00     0.012 C 
ATOM     18  C   UNL     1      13.570  15.612  28.938  1.00  0.00     0.000 C 
ATOM     19  C   UNL     1      14.653  14.288  26.979  1.00  0.00     0.005 C 
ATOM     20  C   UNL     1      14.191  14.244  28.452  1.00  0.00     0.003 C 
ATOM     21  C   UNL     1      13.767  15.862  30.462  1.00  0.00     0.031 C 
ATOM     22  C   UNL     1      15.254  13.619  29.428  1.00  0.00    -0.008 C 
ATOM     23  C   UNL     1      13.884  14.594  31.257  1.00  0.00    -0.027 C 
ATOM     24  C   UNL     1      14.617  13.556  30.815  1.00  0.00    -0.065 C 
ATOM     25  C   UNL     1      15.603  12.169  28.968  1.00  0.00     0.014 C 
ATOM     26  C   UNL     1      16.560  14.457  29.481  1.00  0.00     0.016 C 
ATOM     27  C   UNL     1      14.548  12.245  31.569  1.00  0.00     0.063 C 
ATOM     28  C   UNL     1      16.444  11.404  30.001  1.00  0.00     0.033 C 
ATOM     29  C   UNL     1      15.838  11.411  31.429  1.00  0.00     0.118 C 
BRANCH  29  30
ATOM     30  O   UNL     1      16.799  11.817  32.373  1.00  0.00    -0.393 OA
ATOM     31  H   UNL     1      17.171  12.683  32.065  1.00  0.00     0.210 HD
ENDBRANCH  29  30
ENDBRANCH   1  11
TORSDOF 6
ENDMDL
