MODEL 1
REMARK VINA RESULT:    -3.750      0.000      0.000
REMARK INTER + INTRA:         -13.282
REMARK INTER:                  -9.890
REMARK INTRA:                  -3.392
REMARK UNBOUND:                -3.392
REMARK SMILES CCCCCCCCCCCCCCCCCCCCCCCCCCCCCC(=O)[O-]
REMARK SMILES IDX 16 1 17 2 18 3 19 4 20 5 21 6 22 7 23 8 24 9 25 10 26 11
REMARK SMILES IDX 27 12 28 13 29 14 30 15 31 16 32 17 15 18 14 19 13 20 12 21
REMARK SMILES IDX 11 22 10 23 9 24 8 25 7 26 6 27 5 28 4 29 3 30 2 31 1 32
REMARK H PARENT
REMARK Flexibility Score: inf
ROOT
ATOM      1  C   UNL     1      84.212 125.003 128.103  1.00  0.00     0.000 C 
ENDROOT
BRANCH   1   2
ATOM      2  C   UNL     1      85.213 125.410 129.195  1.00  0.00     0.000 C 
BRANCH   2   3
ATOM      3  C   UNL     1      86.639 125.486 128.637  1.00  0.00     0.000 C 
BRANCH   3   4
ATOM      4  C   UNL     1      87.208 124.084 128.384  1.00  0.00     0.000 C 
BRANCH   4   5
ATOM      5  C   UNL     1      86.992 123.173 129.599  1.00  0.00     0.000 C 
BRANCH   5   6
ATOM      6  C   UNL     1      88.323 122.582 130.090  1.00  0.00     0.000 C 
BRANCH   6   7
ATOM      7  C   UNL     1      88.127 121.556 131.226  1.00  0.00     0.000 C 
BRANCH   7   8
ATOM      8  C   UNL     1      87.048 120.500 130.930  1.00  0.00     0.000 C 
BRANCH   8   9
ATOM      9  C   UNL     1      87.128 119.955 129.496  1.00  0.00     0.000 C 
BRANCH   9  10
ATOM     10  C   UNL     1      85.873 119.167 129.086  1.00  0.00     0.000 C 
BRANCH  10  11
ATOM     11  C   UNL     1      84.596 120.026 129.118  1.00  0.00     0.000 C 
BRANCH  11  12
ATOM     12  C   UNL     1      84.089 120.373 127.707  1.00  0.00     0.000 C 
BRANCH  12  13
ATOM     13  C   UNL     1      85.114 121.194 126.905  1.00  0.00     0.006 C 
BRANCH  13  14
ATOM     14  C   UNL     1      84.450 122.068 125.833  1.00  0.00     0.053 C 
BRANCH  14  15
ATOM     15  C   UNL     1      83.184 121.455 125.315  1.00  0.00     0.041 C 
ATOM     16  O   UNL     1      82.171 122.175 125.103  1.00  0.00    -0.550 OA
ATOM     17  O   UNL     1      83.128 120.093 125.048  1.00  0.00    -0.550 OA
ENDBRANCH  14  15
ENDBRANCH  13  14
ENDBRANCH  12  13
ENDBRANCH  11  12
ENDBRANCH  10  11
ENDBRANCH   9  10
ENDBRANCH   8   9
ENDBRANCH   7   8
ENDBRANCH   6   7
ENDBRANCH   5   6
ENDBRANCH   4   5
ENDBRANCH   3   4
ENDBRANCH   2   3
ENDBRANCH   1   2
BRANCH   1  18
ATOM     18  C   UNL     1      82.750 125.047 128.582  1.00  0.00     0.000 C 
BRANCH  18  19
ATOM     19  C   UNL     1      81.883 123.852 128.142  1.00  0.00     0.000 C 
BRANCH  19  20
ATOM     20  C   UNL     1      81.915 122.638 129.091  1.00  0.00     0.000 C 
BRANCH  20  21
ATOM     21  C   UNL     1      82.270 122.967 130.554  1.00  0.00     0.000 C 
BRANCH  21  22
ATOM     22  C   UNL     1      83.771 122.874 130.900  1.00  0.00     0.000 C 
BRANCH  22  23
ATOM     23  C   UNL     1      84.126 123.158 132.370  1.00  0.00     0.000 C 
BRANCH  23  24
ATOM     24  C   UNL     1      83.010 123.900 133.125  1.00  0.00    -0.000 C 
BRANCH  24  25
ATOM     25  C   UNL     1      83.158 125.432 133.056  1.00  0.00    -0.000 C 
BRANCH  25  26
ATOM     26  C   UNL     1      81.877 126.199 132.675  1.00  0.00    -0.000 C 
BRANCH  26  27
ATOM     27  C   UNL     1      82.055 127.080 131.430  1.00  0.00    -0.000 C 
BRANCH  27  28
ATOM     28  C   UNL     1      82.427 128.517 131.817  1.00  0.00    -0.000 C 
BRANCH  28  29
ATOM     29  C   UNL     1      82.502 129.464 130.607  1.00  0.00    -0.000 C 
BRANCH  29  30
ATOM     30  C   UNL     1      82.314 130.950 130.971  1.00  0.00    -0.000 C 
BRANCH  30  31
ATOM     31  C   UNL     1      82.621 131.233 132.450  1.00  0.00    -0.003 C 
ATOM     32  C   UNL     1      84.122 131.370 132.685  1.00  0.00     0.004 C 
ENDBRANCH  30  31
ENDBRANCH  29  30
ENDBRANCH  28  29
ENDBRANCH  27  28
ENDBRANCH  26  27
ENDBRANCH  25  26
ENDBRANCH  24  25
ENDBRANCH  23  24
ENDBRANCH  22  23
ENDBRANCH  21  22
ENDBRANCH  20  21
ENDBRANCH  19  20
ENDBRANCH  18  19
ENDBRANCH   1  18
TORSDOF 28
ENDMDL
MODEL 2
REMARK VINA RESULT:    -3.646      2.141      3.925
REMARK INTER + INTRA:         -13.006
REMARK INTER:                 -10.802
REMARK INTRA:                  -2.204
REMARK UNBOUND:                -3.392
REMARK SMILES CCCCCCCCCCCCCCCCCCCCCCCCCCCCCC(=O)[O-]
REMARK SMILES IDX 16 1 17 2 18 3 19 4 20 5 21 6 22 7 23 8 24 9 25 10 26 11
REMARK SMILES IDX 27 12 28 13 29 14 30 15 31 16 32 17 15 18 14 19 13 20 12 21
REMARK SMILES IDX 11 22 10 23 9 24 8 25 7 26 6 27 5 28 4 29 3 30 2 31 1 32
REMARK H PARENT
REMARK Flexibility Score: inf
ROOT
ATOM      1  C   UNL     1      84.648 122.876 124.876  1.00  0.00     0.000 C 
ENDROOT
BRANCH   1   2
ATOM      2  C   UNL     1      85.067 121.506 125.428  1.00  0.00     0.000 C 
BRANCH   2   3
ATOM      3  C   UNL     1      83.988 120.929 126.351  1.00  0.00     0.000 C 
BRANCH   3   4
ATOM      4  C   UNL     1      84.515 119.715 127.126  1.00  0.00     0.000 C 
BRANCH   4   5
ATOM      5  C   UNL     1      84.873 120.094 128.569  1.00  0.00     0.000 C 
BRANCH   5   6
ATOM      6  C   UNL     1      85.413 118.880 129.341  1.00  0.00     0.000 C 
BRANCH   6   7
ATOM      7  C   UNL     1      86.719 119.200 130.100  1.00  0.00     0.000 C 
BRANCH   7   8
ATOM      8  C   UNL     1      86.733 120.594 130.750  1.00  0.00     0.000 C 
BRANCH   8   9
ATOM      9  C   UNL     1      88.155 121.138 130.958  1.00  0.00     0.000 C 
BRANCH   9  10
ATOM     10  C   UNL     1      88.182 122.449 131.760  1.00  0.00     0.000 C 
BRANCH  10  11
ATOM     11  C   UNL     1      88.126 123.696 130.860  1.00  0.00     0.000 C 
BRANCH  11  12
ATOM     12  C   UNL     1      87.903 123.340 129.380  1.00  0.00     0.000 C 
BRANCH  12  13
ATOM     13  C   UNL     1      86.423 123.448 128.971  1.00  0.00     0.006 C 
BRANCH  13  14
ATOM     14  C   UNL     1      85.707 124.607 129.677  1.00  0.00     0.053 C 
BRANCH  14  15
ATOM     15  C   UNL     1      85.653 125.837 128.822  1.00  0.00     0.041 C 
ATOM     16  O   UNL     1      86.673 126.212 128.184  1.00  0.00    -0.550 OA
ATOM     17  O   UNL     1      84.471 126.559 128.715  1.00  0.00    -0.550 OA
ENDBRANCH  14  15
ENDBRANCH  13  14
ENDBRANCH  12  13
ENDBRANCH  11  12
ENDBRANCH  10  11
ENDBRANCH   9  10
ENDBRANCH   8   9
ENDBRANCH   7   8
ENDBRANCH   6   7
ENDBRANCH   5   6
ENDBRANCH   4   5
ENDBRANCH   3   4
ENDBRANCH   2   3
ENDBRANCH   1   2
BRANCH   1  18
ATOM     18  C   UNL     1      83.136 123.136 124.999  1.00  0.00     0.000 C 
BRANCH  18  19
ATOM     19  C   UNL     1      82.740 124.191 126.051  1.00  0.00     0.000 C 
BRANCH  19  20
ATOM     20  C   UNL     1      82.929 123.755 127.516  1.00  0.00     0.000 C 
BRANCH  20  21
ATOM     21  C   UNL     1      81.904 122.722 128.024  1.00  0.00     0.000 C 
BRANCH  21  22
ATOM     22  C   UNL     1      82.244 122.075 129.382  1.00  0.00     0.000 C 
BRANCH  22  23
ATOM     23  C   UNL     1      82.161 123.015 130.598  1.00  0.00     0.000 C 
BRANCH  23  24
ATOM     24  C   UNL     1      81.884 124.477 130.209  1.00  0.00    -0.000 C 
BRANCH  24  25
ATOM     25  C   UNL     1      81.949 125.438 131.412  1.00  0.00    -0.000 C 
BRANCH  25  26
ATOM     26  C   UNL     1      82.036 126.934 131.053  1.00  0.00    -0.000 C 
BRANCH  26  27
ATOM     27  C   UNL     1      82.903 127.735 132.034  1.00  0.00    -0.000 C 
BRANCH  27  28
ATOM     28  C   UNL     1      82.035 128.546 133.006  1.00  0.00    -0.000 C 
BRANCH  28  29
ATOM     29  C   UNL     1      82.479 130.014 133.125  1.00  0.00    -0.000 C 
BRANCH  29  30
ATOM     30  C   UNL     1      83.281 130.518 131.908  1.00  0.00    -0.000 C 
BRANCH  30  31
ATOM     31  C   UNL     1      83.562 132.028 131.978  1.00  0.00    -0.003 C 
ATOM     32  C   UNL     1      82.966 132.755 130.777  1.00  0.00     0.004 C 
ENDBRANCH  30  31
ENDBRANCH  29  30
ENDBRANCH  28  29
ENDBRANCH  27  28
ENDBRANCH  26  27
ENDBRANCH  25  26
ENDBRANCH  24  25
ENDBRANCH  23  24
ENDBRANCH  22  23
ENDBRANCH  21  22
ENDBRANCH  20  21
ENDBRANCH  19  20
ENDBRANCH  18  19
ENDBRANCH   1  18
TORSDOF 28
ENDMDL
MODEL 3
REMARK VINA RESULT:    -3.577      1.510      3.359
REMARK INTER + INTRA:         -12.823
REMARK INTER:                  -8.983
REMARK INTRA:                  -3.840
REMARK UNBOUND:                -3.392
REMARK SMILES CCCCCCCCCCCCCCCCCCCCCCCCCCCCCC(=O)[O-]
REMARK SMILES IDX 16 1 17 2 18 3 19 4 20 5 21 6 22 7 23 8 24 9 25 10 26 11
REMARK SMILES IDX 27 12 28 13 29 14 30 15 31 16 32 17 15 18 14 19 13 20 12 21
REMARK SMILES IDX 11 22 10 23 9 24 8 25 7 26 6 27 5 28 4 29 3 30 2 31 1 32
REMARK H PARENT
REMARK Flexibility Score: inf
ROOT
ATOM      1  C   UNL     1      87.190 122.699 128.747  1.00  0.00     0.000 C 
ENDROOT
BRANCH   1   2
ATOM      2  C   UNL     1      87.638 121.423 129.475  1.00  0.00     0.000 C 
BRANCH   2   3
ATOM      3  C   UNL     1      88.406 121.760 130.759  1.00  0.00     0.000 C 
BRANCH   3   4
ATOM      4  C   UNL     1      87.937 120.884 131.928  1.00  0.00     0.000 C 
BRANCH   4   5
ATOM      5  C   UNL     1      86.457 121.131 132.245  1.00  0.00     0.000 C 
BRANCH   5   6
ATOM      6  C   UNL     1      86.210 122.603 132.612  1.00  0.00     0.000 C 
BRANCH   6   7
ATOM      7  C   UNL     1      84.707 122.954 132.652  1.00  0.00     0.000 C 
BRANCH   7   8
ATOM      8  C   UNL     1      83.782 121.752 132.392  1.00  0.00     0.000 C 
BRANCH   8   9
ATOM      9  C   UNL     1      82.838 121.977 131.200  1.00  0.00     0.000 C 
BRANCH   9  10
ATOM     10  C   UNL     1      82.911 120.848 130.159  1.00  0.00     0.000 C 
BRANCH  10  11
ATOM     11  C   UNL     1      82.368 121.272 128.783  1.00  0.00     0.000 C 
BRANCH  11  12
ATOM     12  C   UNL     1      83.015 122.573 128.276  1.00  0.00     0.000 C 
BRANCH  12  13
ATOM     13  C   UNL     1      82.032 123.435 127.464  1.00  0.00     0.006 C 
BRANCH  13  14
ATOM     14  C   UNL     1      82.421 123.523 125.982  1.00  0.00     0.053 C 
BRANCH  14  15
ATOM     15  C   UNL     1      83.825 123.056 125.741  1.00  0.00     0.041 C 
ATOM     16  O   UNL     1      84.800 123.746 126.141  1.00  0.00    -0.550 OA
ATOM     17  O   UNL     1      84.055 121.849 125.093  1.00  0.00    -0.550 OA
ENDBRANCH  14  15
ENDBRANCH  13  14
ENDBRANCH  12  13
ENDBRANCH  11  12
ENDBRANCH  10  11
ENDBRANCH   9  10
ENDBRANCH   8   9
ENDBRANCH   7   8
ENDBRANCH   6   7
ENDBRANCH   5   6
ENDBRANCH   4   5
ENDBRANCH   3   4
ENDBRANCH   2   3
ENDBRANCH   1   2
BRANCH   1  18
ATOM     18  C   UNL     1      86.241 123.569 129.590  1.00  0.00     0.000 C 
BRANCH  18  19
ATOM     19  C   UNL     1      86.606 125.065 129.650  1.00  0.00     0.000 C 
BRANCH  19  20
ATOM     20  C   UNL     1      85.932 125.944 128.580  1.00  0.00     0.000 C 
BRANCH  20  21
ATOM     21  C   UNL     1      84.394 126.001 128.660  1.00  0.00     0.000 C 
BRANCH  21  22
ATOM     22  C   UNL     1      83.816 126.096 130.087  1.00  0.00     0.000 C 
BRANCH  22  23
ATOM     23  C   UNL     1      82.317 125.767 130.214  1.00  0.00     0.000 C 
BRANCH  23  24
ATOM     24  C   UNL     1      81.960 125.107 131.557  1.00  0.00    -0.000 C 
BRANCH  24  25
ATOM     25  C   UNL     1      82.547 125.857 132.767  1.00  0.00    -0.000 C 
BRANCH  25  26
ATOM     26  C   UNL     1      81.876 127.204 133.094  1.00  0.00    -0.000 C 
BRANCH  26  27
ATOM     27  C   UNL     1      82.749 128.413 132.727  1.00  0.00    -0.000 C 
BRANCH  27  28
ATOM     28  C   UNL     1      81.924 129.497 132.021  1.00  0.00    -0.000 C 
BRANCH  28  29
ATOM     29  C   UNL     1      82.748 130.316 131.012  1.00  0.00    -0.000 C 
BRANCH  29  30
ATOM     30  C   UNL     1      84.051 130.892 131.600  1.00  0.00    -0.000 C 
BRANCH  30  31
ATOM     31  C   UNL     1      83.887 132.346 132.071  1.00  0.00    -0.003 C 
ATOM     32  C   UNL     1      82.781 133.055 131.295  1.00  0.00     0.004 C 
ENDBRANCH  30  31
ENDBRANCH  29  30
ENDBRANCH  28  29
ENDBRANCH  27  28
ENDBRANCH  26  27
ENDBRANCH  25  26
ENDBRANCH  24  25
ENDBRANCH  23  24
ENDBRANCH  22  23
ENDBRANCH  21  22
ENDBRANCH  20  21
ENDBRANCH  19  20
ENDBRANCH  18  19
ENDBRANCH   1  18
TORSDOF 28
ENDMDL
MODEL 4
REMARK VINA RESULT:    -3.421      2.792      7.010
REMARK INTER + INTRA:         -12.414
REMARK INTER:                  -8.261
REMARK INTRA:                  -4.153
REMARK UNBOUND:                -3.392
REMARK SMILES CCCCCCCCCCCCCCCCCCCCCCCCCCCCCC(=O)[O-]
REMARK SMILES IDX 16 1 17 2 18 3 19 4 20 5 21 6 22 7 23 8 24 9 25 10 26 11
REMARK SMILES IDX 27 12 28 13 29 14 30 15 31 16 32 17 15 18 14 19 13 20 12 21
REMARK SMILES IDX 11 22 10 23 9 24 8 25 7 26 6 27 5 28 4 29 3 30 2 31 1 32
REMARK H PARENT
REMARK Flexibility Score: inf
ROOT
ATOM      1  C   UNL     1      85.248 125.457 128.280  1.00  0.00     0.000 C 
ENDROOT
BRANCH   1   2
ATOM      2  C   UNL     1      85.873 124.264 127.541  1.00  0.00     0.000 C 
BRANCH   2   3
ATOM      3  C   UNL     1      85.469 122.937 128.195  1.00  0.00     0.000 C 
BRANCH   3   4
ATOM      4  C   UNL     1      86.679 122.006 128.346  1.00  0.00     0.000 C 
BRANCH   4   5
ATOM      5  C   UNL     1      86.329 120.780 129.199  1.00  0.00     0.000 C 
BRANCH   5   6
ATOM      6  C   UNL     1      87.251 120.678 130.424  1.00  0.00     0.000 C 
BRANCH   6   7
ATOM      7  C   UNL     1      88.523 121.539 130.276  1.00  0.00     0.000 C 
BRANCH   7   8
ATOM      8  C   UNL     1      88.835 122.404 131.509  1.00  0.00     0.000 C 
BRANCH   8   9
ATOM      9  C   UNL     1      88.407 123.869 131.330  1.00  0.00     0.000 C 
BRANCH   9  10
ATOM     10  C   UNL     1      86.881 124.044 131.281  1.00  0.00     0.000 C 
BRANCH  10  11
ATOM     11  C   UNL     1      86.197 123.673 132.609  1.00  0.00     0.000 C 
BRANCH  11  12
ATOM     12  C   UNL     1      84.664 123.616 132.481  1.00  0.00     0.000 C 
BRANCH  12  13
ATOM     13  C   UNL     1      83.980 124.835 133.125  1.00  0.00     0.006 C 
BRANCH  13  14
ATOM     14  C   UNL     1      84.317 126.143 132.397  1.00  0.00     0.053 C 
BRANCH  14  15
ATOM     15  C   UNL     1      83.105 127.002 132.194  1.00  0.00     0.041 C 
ATOM     16  O   UNL     1      82.973 128.075 132.840  1.00  0.00    -0.550 OA
ATOM     17  O   UNL     1      82.131 126.624 131.278  1.00  0.00    -0.550 OA
ENDBRANCH  14  15
ENDBRANCH  13  14
ENDBRANCH  12  13
ENDBRANCH  11  12
ENDBRANCH  10  11
ENDBRANCH   9  10
ENDBRANCH   8   9
ENDBRANCH   7   8
ENDBRANCH   6   7
ENDBRANCH   5   6
ENDBRANCH   4   5
ENDBRANCH   3   4
ENDBRANCH   2   3
ENDBRANCH   1   2
BRANCH   1  18
ATOM     18  C   UNL     1      83.739 125.286 128.529  1.00  0.00     0.000 C 
BRANCH  18  19
ATOM     19  C   UNL     1      82.976 124.534 127.421  1.00  0.00     0.000 C 
BRANCH  19  20
ATOM     20  C   UNL     1      81.993 123.458 127.920  1.00  0.00     0.000 C 
BRANCH  20  21
ATOM     21  C   UNL     1      81.922 123.304 129.451  1.00  0.00     0.000 C 
BRANCH  21  22
ATOM     22  C   UNL     1      82.635 122.058 130.017  1.00  0.00     0.000 C 
BRANCH  22  23
ATOM     23  C   UNL     1      81.883 120.728 129.832  1.00  0.00     0.000 C 
BRANCH  23  24
ATOM     24  C   UNL     1      82.689 119.689 129.036  1.00  0.00    -0.000 C 
BRANCH  24  25
ATOM     25  C   UNL     1      81.875 119.043 127.898  1.00  0.00    -0.000 C 
BRANCH  25  26
ATOM     26  C   UNL     1      82.357 119.377 126.473  1.00  0.00    -0.000 C 
BRANCH  26  27
ATOM     27  C   UNL     1      82.620 120.876 126.266  1.00  0.00    -0.000 C 
BRANCH  27  28
ATOM     28  C   UNL     1      84.079 121.133 125.867  1.00  0.00    -0.000 C 
BRANCH  28  29
ATOM     29  C   UNL     1      84.211 121.961 124.578  1.00  0.00    -0.000 C 
BRANCH  29  30
ATOM     30  C   UNL     1      82.985 121.860 123.649  1.00  0.00    -0.000 C 
BRANCH  30  31
ATOM     31  C   UNL     1      82.989 120.570 122.813  1.00  0.00    -0.003 C 
ATOM     32  C   UNL     1      82.267 120.772 121.485  1.00  0.00     0.004 C 
ENDBRANCH  30  31
ENDBRANCH  29  30
ENDBRANCH  28  29
ENDBRANCH  27  28
ENDBRANCH  26  27
ENDBRANCH  25  26
ENDBRANCH  24  25
ENDBRANCH  23  24
ENDBRANCH  22  23
ENDBRANCH  21  22
ENDBRANCH  20  21
ENDBRANCH  19  20
ENDBRANCH  18  19
ENDBRANCH   1  18
TORSDOF 28
ENDMDL
MODEL 5
REMARK VINA RESULT:    -3.371      3.385      7.820
REMARK INTER + INTRA:         -12.280
REMARK INTER:                  -9.292
REMARK INTRA:                  -2.988
REMARK UNBOUND:                -3.392
REMARK SMILES CCCCCCCCCCCCCCCCCCCCCCCCCCCCCC(=O)[O-]
REMARK SMILES IDX 16 1 17 2 18 3 19 4 20 5 21 6 22 7 23 8 24 9 25 10 26 11
REMARK SMILES IDX 27 12 28 13 29 14 30 15 31 16 32 17 15 18 14 19 13 20 12 21
REMARK SMILES IDX 11 22 10 23 9 24 8 25 7 26 6 27 5 28 4 29 3 30 2 31 1 32
REMARK H PARENT
REMARK Flexibility Score: inf
ROOT
ATOM      1  C   UNL     1      81.875 120.292 122.780  1.00  0.00     0.000 C 
ENDROOT
BRANCH   1   2
ATOM      2  C   UNL     1      83.146 120.836 122.111  1.00  0.00     0.000 C 
BRANCH   2   3
ATOM      3  C   UNL     1      83.720 122.021 122.897  1.00  0.00     0.000 C 
BRANCH   3   4
ATOM      4  C   UNL     1      82.770 122.447 124.024  1.00  0.00     0.000 C 
BRANCH   4   5
ATOM      5  C   UNL     1      83.537 122.686 125.331  1.00  0.00     0.000 C 
BRANCH   5   6
ATOM      6  C   UNL     1      82.582 122.711 126.535  1.00  0.00     0.000 C 
BRANCH   6   7
ATOM      7  C   UNL     1      82.305 124.145 127.035  1.00  0.00     0.000 C 
BRANCH   7   8
ATOM      8  C   UNL     1      82.994 124.481 128.369  1.00  0.00     0.000 C 
BRANCH   8   9
ATOM      9  C   UNL     1      82.016 124.499 129.555  1.00  0.00     0.000 C 
BRANCH   9  10
ATOM     10  C   UNL     1      81.875 125.891 130.191  1.00  0.00     0.000 C 
BRANCH  10  11
ATOM     11  C   UNL     1      83.128 126.312 130.980  1.00  0.00     0.000 C 
BRANCH  11  12
ATOM     12  C   UNL     1      82.825 127.412 132.014  1.00  0.00     0.000 C 
BRANCH  12  13
ATOM     13  C   UNL     1      82.377 128.727 131.352  1.00  0.00     0.006 C 
BRANCH  13  14
ATOM     14  C   UNL     1      82.352 129.898 132.342  1.00  0.00     0.053 C 
BRANCH  14  15
ATOM     15  C   UNL     1      82.666 131.204 131.676  1.00  0.00     0.041 C 
ATOM     16  O   UNL     1      83.135 131.223 130.507  1.00  0.00    -0.550 OA
ATOM     17  O   UNL     1      82.422 132.400 132.340  1.00  0.00    -0.550 OA
ENDBRANCH  14  15
ENDBRANCH  13  14
ENDBRANCH  12  13
ENDBRANCH  11  12
ENDBRANCH  10  11
ENDBRANCH   9  10
ENDBRANCH   8   9
ENDBRANCH   7   8
ENDBRANCH   6   7
ENDBRANCH   5   6
ENDBRANCH   4   5
ENDBRANCH   3   4
ENDBRANCH   2   3
ENDBRANCH   1   2
BRANCH   1  18
ATOM     18  C   UNL     1      82.138 119.040 123.637  1.00  0.00     0.000 C 
BRANCH  18  19
ATOM     19  C   UNL     1      81.987 119.247 125.157  1.00  0.00     0.000 C 
BRANCH  19  20
ATOM     20  C   UNL     1      83.311 119.287 125.944  1.00  0.00     0.000 C 
BRANCH  20  21
ATOM     21  C   UNL     1      83.199 118.875 127.425  1.00  0.00     0.000 C 
BRANCH  21  22
ATOM     22  C   UNL     1      83.971 119.773 128.413  1.00  0.00     0.000 C 
BRANCH  22  23
ATOM     23  C   UNL     1      85.201 120.492 127.829  1.00  0.00     0.000 C 
BRANCH  23  24
ATOM     24  C   UNL     1      85.718 121.626 128.729  1.00  0.00    -0.000 C 
BRANCH  24  25
ATOM     25  C   UNL     1      84.815 121.876 129.953  1.00  0.00    -0.000 C 
BRANCH  25  26
ATOM     26  C   UNL     1      85.226 121.127 131.236  1.00  0.00    -0.000 C 
BRANCH  26  27
ATOM     27  C   UNL     1      85.420 122.062 132.438  1.00  0.00    -0.000 C 
BRANCH  27  28
ATOM     28  C   UNL     1      85.109 123.517 132.064  1.00  0.00    -0.000 C 
BRANCH  28  29
ATOM     29  C   UNL     1      86.141 124.121 131.095  1.00  0.00    -0.000 C 
BRANCH  29  30
ATOM     30  C   UNL     1      87.598 123.991 131.583  1.00  0.00    -0.000 C 
BRANCH  30  31
ATOM     31  C   UNL     1      88.468 123.175 130.613  1.00  0.00    -0.003 C 
ATOM     32  C   UNL     1      88.910 121.859 131.244  1.00  0.00     0.004 C 
ENDBRANCH  30  31
ENDBRANCH  29  30
ENDBRANCH  28  29
ENDBRANCH  27  28
ENDBRANCH  26  27
ENDBRANCH  25  26
ENDBRANCH  24  25
ENDBRANCH  23  24
ENDBRANCH  22  23
ENDBRANCH  21  22
ENDBRANCH  20  21
ENDBRANCH  19  20
ENDBRANCH  18  19
ENDBRANCH   1  18
TORSDOF 28
ENDMDL
MODEL 6
REMARK VINA RESULT:    -3.295      2.369      4.570
REMARK INTER + INTRA:         -12.082
REMARK INTER:                  -8.509
REMARK INTRA:                  -3.572
REMARK UNBOUND:                -3.392
REMARK SMILES CCCCCCCCCCCCCCCCCCCCCCCCCCCCCC(=O)[O-]
REMARK SMILES IDX 16 1 17 2 18 3 19 4 20 5 21 6 22 7 23 8 24 9 25 10 26 11
REMARK SMILES IDX 27 12 28 13 29 14 30 15 31 16 32 17 15 18 14 19 13 20 12 21
REMARK SMILES IDX 11 22 10 23 9 24 8 25 7 26 6 27 5 28 4 29 3 30 2 31 1 32
REMARK H PARENT
REMARK Flexibility Score: inf
ROOT
ATOM      1  C   UNL     1      84.811 122.779 125.433  1.00  0.00     0.000 C 
ENDROOT
BRANCH   1   2
ATOM      2  C   UNL     1      84.041 122.374 124.167  1.00  0.00     0.000 C 
BRANCH   2   3
ATOM      3  C   UNL     1      83.863 120.853 124.092  1.00  0.00     0.000 C 
BRANCH   3   4
ATOM      4  C   UNL     1      82.467 120.436 124.574  1.00  0.00     0.000 C 
BRANCH   4   5
ATOM      5  C   UNL     1      82.547 119.238 125.527  1.00  0.00     0.000 C 
BRANCH   5   6
ATOM      6  C   UNL     1      81.875 119.556 126.872  1.00  0.00     0.000 C 
BRANCH   6   7
ATOM      7  C   UNL     1      82.844 119.403 128.064  1.00  0.00     0.000 C 
BRANCH   7   8
ATOM      8  C   UNL     1      83.131 120.721 128.803  1.00  0.00     0.000 C 
BRANCH   8   9
ATOM      9  C   UNL     1      84.564 121.228 128.579  1.00  0.00     0.000 C 
BRANCH   9  10
ATOM     10  C   UNL     1      85.543 120.105 128.203  1.00  0.00     0.000 C 
BRANCH  10  11
ATOM     11  C   UNL     1      86.843 120.150 129.026  1.00  0.00     0.000 C 
BRANCH  11  12
ATOM     12  C   UNL     1      87.216 121.581 129.451  1.00  0.00     0.000 C 
BRANCH  12  13
ATOM     13  C   UNL     1      88.251 121.599 130.591  1.00  0.00     0.006 C 
BRANCH  13  14
ATOM     14  C   UNL     1      87.622 121.275 131.953  1.00  0.00     0.053 C 
BRANCH  14  15
ATOM     15  C   UNL     1      86.262 121.886 132.104  1.00  0.00     0.041 C 
ATOM     16  O   UNL     1      86.143 123.096 132.435  1.00  0.00    -0.550 OA
ATOM     17  O   UNL     1      85.126 121.124 131.860  1.00  0.00    -0.550 OA
ENDBRANCH  14  15
ENDBRANCH  13  14
ENDBRANCH  12  13
ENDBRANCH  11  12
ENDBRANCH  10  11
ENDBRANCH   9  10
ENDBRANCH   8   9
ENDBRANCH   7   8
ENDBRANCH   6   7
ENDBRANCH   5   6
ENDBRANCH   4   5
ENDBRANCH   3   4
ENDBRANCH   2   3
ENDBRANCH   1   2
BRANCH   1  18
ATOM     18  C   UNL     1      84.073 123.839 126.271  1.00  0.00     0.000 C 
BRANCH  18  19
ATOM     19  C   UNL     1      82.539 123.694 126.301  1.00  0.00     0.000 C 
BRANCH  19  20
ATOM     20  C   UNL     1      81.875 124.068 127.640  1.00  0.00     0.000 C 
BRANCH  20  21
ATOM     21  C   UNL     1      82.720 124.978 128.552  1.00  0.00     0.000 C 
BRANCH  21  22
ATOM     22  C   UNL     1      82.377 124.900 130.054  1.00  0.00     0.000 C 
BRANCH  22  23
ATOM     23  C   UNL     1      82.149 123.480 130.604  1.00  0.00     0.000 C 
BRANCH  23  24
ATOM     24  C   UNL     1      81.976 123.449 132.132  1.00  0.00    -0.000 C 
BRANCH  24  25
ATOM     25  C   UNL     1      82.049 124.850 132.770  1.00  0.00    -0.000 C 
BRANCH  25  26
ATOM     26  C   UNL     1      83.466 125.338 133.124  1.00  0.00    -0.000 C 
BRANCH  26  27
ATOM     27  C   UNL     1      83.728 126.785 132.683  1.00  0.00    -0.000 C 
BRANCH  27  28
ATOM     28  C   UNL     1      82.414 127.524 132.398  1.00  0.00    -0.000 C 
BRANCH  28  29
ATOM     29  C   UNL     1      82.628 128.887 131.717  1.00  0.00    -0.000 C 
BRANCH  29  30
ATOM     30  C   UNL     1      82.467 130.088 132.671  1.00  0.00    -0.000 C 
BRANCH  30  31
ATOM     31  C   UNL     1      82.268 131.412 131.916  1.00  0.00    -0.003 C 
ATOM     32  C   UNL     1      82.561 131.247 130.428  1.00  0.00     0.004 C 
ENDBRANCH  30  31
ENDBRANCH  29  30
ENDBRANCH  28  29
ENDBRANCH  27  28
ENDBRANCH  26  27
ENDBRANCH  25  26
ENDBRANCH  24  25
ENDBRANCH  23  24
ENDBRANCH  22  23
ENDBRANCH  21  22
ENDBRANCH  20  21
ENDBRANCH  19  20
ENDBRANCH  18  19
ENDBRANCH   1  18
TORSDOF 28
ENDMDL
MODEL 7
REMARK VINA RESULT:    -3.284      2.592      5.963
REMARK INTER + INTRA:         -12.051
REMARK INTER:                  -8.591
REMARK INTRA:                  -3.460
REMARK UNBOUND:                -3.392
REMARK SMILES CCCCCCCCCCCCCCCCCCCCCCCCCCCCCC(=O)[O-]
REMARK SMILES IDX 16 1 17 2 18 3 19 4 20 5 21 6 22 7 23 8 24 9 25 10 26 11
REMARK SMILES IDX 27 12 28 13 29 14 30 15 31 16 32 17 15 18 14 19 13 20 12 21
REMARK SMILES IDX 11 22 10 23 9 24 8 25 7 26 6 27 5 28 4 29 3 30 2 31 1 32
REMARK H PARENT
REMARK Flexibility Score: inf
ROOT
ATOM      1  C   UNL     1      83.186 123.632 125.791  1.00  0.00     0.000 C 
ENDROOT
BRANCH   1   2
ATOM      2  C   UNL     1      84.437 123.497 124.909  1.00  0.00     0.000 C 
BRANCH   2   3
ATOM      3  C   UNL     1      84.276 122.360 123.893  1.00  0.00     0.000 C 
BRANCH   3   4
ATOM      4  C   UNL     1      82.794 122.061 123.630  1.00  0.00     0.000 C 
BRANCH   4   5
ATOM      5  C   UNL     1      82.632 120.930 122.607  1.00  0.00     0.000 C 
BRANCH   5   6
ATOM      6  C   UNL     1      82.204 119.623 123.291  1.00  0.00     0.000 C 
BRANCH   6   7
ATOM      7  C   UNL     1      82.969 119.371 124.608  1.00  0.00     0.000 C 
BRANCH   7   8
ATOM      8  C   UNL     1      82.055 119.156 125.826  1.00  0.00     0.000 C 
BRANCH   8   9
ATOM      9  C   UNL     1      82.737 119.522 127.153  1.00  0.00     0.000 C 
BRANCH   9  10
ATOM     10  C   UNL     1      84.271 119.550 127.048  1.00  0.00     0.000 C 
BRANCH  10  11
ATOM     11  C   UNL     1      84.943 120.106 128.317  1.00  0.00     0.000 C 
BRANCH  11  12
ATOM     12  C   UNL     1      86.032 119.165 128.861  1.00  0.00     0.000 C 
BRANCH  12  13
ATOM     13  C   UNL     1      87.171 119.933 129.556  1.00  0.00     0.006 C 
BRANCH  13  14
ATOM     14  C   UNL     1      86.782 120.401 130.964  1.00  0.00     0.053 C 
BRANCH  14  15
ATOM     15  C   UNL     1      87.280 121.785 131.253  1.00  0.00     0.041 C 
ATOM     16  O   UNL     1      86.489 122.667 131.682  1.00  0.00    -0.550 OA
ATOM     17  O   UNL     1      88.621 122.095 131.066  1.00  0.00    -0.550 OA
ENDBRANCH  14  15
ENDBRANCH  13  14
ENDBRANCH  12  13
ENDBRANCH  11  12
ENDBRANCH  10  11
ENDBRANCH   9  10
ENDBRANCH   8   9
ENDBRANCH   7   8
ENDBRANCH   6   7
ENDBRANCH   5   6
ENDBRANCH   4   5
ENDBRANCH   3   4
ENDBRANCH   2   3
ENDBRANCH   1   2
BRANCH   1  18
ATOM     18  C   UNL     1      83.496 123.509 127.294  1.00  0.00     0.000 C 
BRANCH  18  19
ATOM     19  C   UNL     1      84.981 123.288 127.638  1.00  0.00     0.000 C 
BRANCH  19  20
ATOM     20  C   UNL     1      85.698 124.506 128.251  1.00  0.00     0.000 C 
BRANCH  20  21
ATOM     21  C   UNL     1      85.116 124.995 129.591  1.00  0.00     0.000 C 
BRANCH  21  22
ATOM     22  C   UNL     1      84.407 126.364 129.537  1.00  0.00     0.000 C 
BRANCH  22  23
ATOM     23  C   UNL     1      83.062 126.439 130.281  1.00  0.00     0.000 C 
BRANCH  23  24
ATOM     24  C   UNL     1      82.923 127.705 131.144  1.00  0.00    -0.000 C 
BRANCH  24  25
ATOM     25  C   UNL     1      81.881 127.550 132.269  1.00  0.00    -0.000 C 
BRANCH  25  26
ATOM     26  C   UNL     1      81.891 126.189 132.991  1.00  0.00    -0.000 C 
BRANCH  26  27
ATOM     27  C   UNL     1      83.204 125.418 132.796  1.00  0.00    -0.000 C 
BRANCH  27  28
ATOM     28  C   UNL     1      82.993 123.910 132.987  1.00  0.00    -0.000 C 
BRANCH  28  29
ATOM     29  C   UNL     1      81.876 123.342 132.094  1.00  0.00    -0.000 C 
BRANCH  29  30
ATOM     30  C   UNL     1      82.359 122.915 130.694  1.00  0.00    -0.000 C 
BRANCH  30  31
ATOM     31  C   UNL     1      83.189 121.622 130.731  1.00  0.00    -0.003 C 
ATOM     32  C   UNL     1      82.300 120.403 130.952  1.00  0.00     0.004 C 
ENDBRANCH  30  31
ENDBRANCH  29  30
ENDBRANCH  28  29
ENDBRANCH  27  28
ENDBRANCH  26  27
ENDBRANCH  25  26
ENDBRANCH  24  25
ENDBRANCH  23  24
ENDBRANCH  22  23
ENDBRANCH  21  22
ENDBRANCH  20  21
ENDBRANCH  19  20
ENDBRANCH  18  19
ENDBRANCH   1  18
TORSDOF 28
ENDMDL
MODEL 8
REMARK VINA RESULT:    -0.825      3.188      7.775
REMARK INTER + INTRA:          -5.568
REMARK INTER:                  -2.029
REMARK INTRA:                  -3.539
REMARK UNBOUND:                -3.392
REMARK SMILES CCCCCCCCCCCCCCCCCCCCCCCCCCCCCC(=O)[O-]
REMARK SMILES IDX 16 1 17 2 18 3 19 4 20 5 21 6 22 7 23 8 24 9 25 10 26 11
REMARK SMILES IDX 27 12 28 13 29 14 30 15 31 16 32 17 15 18 14 19 13 20 12 21
REMARK SMILES IDX 11 22 10 23 9 24 8 25 7 26 6 27 5 28 4 29 3 30 2 31 1 32
REMARK H PARENT
REMARK Flexibility Score: inf
ROOT
ATOM      1  C   UNL     1      84.215 125.404 128.276  1.00  0.00     0.000 C 
ENDROOT
BRANCH   1   2
ATOM      2  C   UNL     1      85.725 125.349 128.554  1.00  0.00     0.000 C 
BRANCH   2   3
ATOM      3  C   UNL     1      86.291 123.956 128.254  1.00  0.00     0.000 C 
BRANCH   3   4
ATOM      4  C   UNL     1      87.684 123.782 128.873  1.00  0.00     0.000 C 
BRANCH   4   5
ATOM      5  C   UNL     1      87.596 123.126 130.257  1.00  0.00     0.000 C 
BRANCH   5   6
ATOM      6  C   UNL     1      88.102 124.077 131.352  1.00  0.00     0.000 C 
BRANCH   6   7
ATOM      7  C   UNL     1      86.961 124.596 132.252  1.00  0.00     0.000 C 
BRANCH   7   8
ATOM      8  C   UNL     1      85.561 124.435 131.636  1.00  0.00     0.000 C 
BRANCH   8   9
ATOM      9  C   UNL     1      84.457 125.075 132.492  1.00  0.00     0.000 C 
BRANCH   9  10
ATOM     10  C   UNL     1      83.749 126.239 131.781  1.00  0.00     0.000 C 
BRANCH  10  11
ATOM     11  C   UNL     1      82.239 126.284 132.075  1.00  0.00     0.000 C 
BRANCH  11  12
ATOM     12  C   UNL     1      81.875 127.375 133.098  1.00  0.00     0.000 C 
BRANCH  12  13
ATOM     13  C   UNL     1      82.894 128.529 133.107  1.00  0.00     0.006 C 
BRANCH  13  14
ATOM     14  C   UNL     1      82.248 129.880 132.773  1.00  0.00     0.053 C 
BRANCH  14  15
ATOM     15  C   UNL     1      83.138 130.733 131.921  1.00  0.00     0.041 C 
ATOM     16  O   UNL     1      83.112 130.623 130.666  1.00  0.00    -0.550 OA
ATOM     17  O   UNL     1      83.984 131.663 132.513  1.00  0.00    -0.550 OA
ENDBRANCH  14  15
ENDBRANCH  13  14
ENDBRANCH  12  13
ENDBRANCH  11  12
ENDBRANCH  10  11
ENDBRANCH   9  10
ENDBRANCH   8   9
ENDBRANCH   7   8
ENDBRANCH   6   7
ENDBRANCH   5   6
ENDBRANCH   4   5
ENDBRANCH   3   4
ENDBRANCH   2   3
ENDBRANCH   1   2
BRANCH   1  18
ATOM     18  C   UNL     1      83.651 124.067 127.760  1.00  0.00     0.000 C 
BRANCH  18  19
ATOM     19  C   UNL     1      82.978 124.134 126.376  1.00  0.00     0.000 C 
BRANCH  19  20
ATOM     20  C   UNL     1      83.942 124.324 125.190  1.00  0.00     0.000 C 
BRANCH  20  21
ATOM     21  C   UNL     1      84.639 123.038 124.706  1.00  0.00     0.000 C 
BRANCH  21  22
ATOM     22  C   UNL     1      83.767 121.766 124.747  1.00  0.00     0.000 C 
BRANCH  22  23
ATOM     23  C   UNL     1      83.636 121.102 126.130  1.00  0.00     0.000 C 
BRANCH  23  24
ATOM     24  C   UNL     1      82.301 120.361 126.316  1.00  0.00    -0.000 C 
BRANCH  24  25
ATOM     25  C   UNL     1      82.469 118.985 126.989  1.00  0.00    -0.000 C 
BRANCH  25  26
ATOM     26  C   UNL     1      81.909 118.881 128.419  1.00  0.00    -0.000 C 
BRANCH  26  27
ATOM     27  C   UNL     1      82.973 119.124 129.499  1.00  0.00    -0.000 C 
BRANCH  27  28
ATOM     28  C   UNL     1      83.211 120.625 129.713  1.00  0.00    -0.000 C 
BRANCH  28  29
ATOM     29  C   UNL     1      84.704 120.993 129.772  1.00  0.00    -0.000 C 
BRANCH  29  30
ATOM     30  C   UNL     1      85.526 120.434 128.594  1.00  0.00    -0.000 C 
BRANCH  30  31
ATOM     31  C   UNL     1      86.800 119.711 129.060  1.00  0.00    -0.003 C 
ATOM     32  C   UNL     1      86.660 119.221 130.497  1.00  0.00     0.004 C 
ENDBRANCH  30  31
ENDBRANCH  29  30
ENDBRANCH  28  29
ENDBRANCH  27  28
ENDBRANCH  26  27
ENDBRANCH  25  26
ENDBRANCH  24  25
ENDBRANCH  23  24
ENDBRANCH  22  23
ENDBRANCH  21  22
ENDBRANCH  20  21
ENDBRANCH  19  20
ENDBRANCH  18  19
ENDBRANCH   1  18
TORSDOF 28
ENDMDL
