MODEL 1
REMARK VINA RESULT:    -5.157      0.000      0.000
REMARK INTER + INTRA:          -6.342
REMARK INTER:                  -6.062
REMARK INTRA:                  -0.281
REMARK UNBOUND:                -0.281
REMARK SMILES O=c1cc(-c2ccc(O)c(O)c2)oc2cc(O)cc(O)c12
REMARK SMILES IDX 4 1 3 2 2 3 1 4 21 5 19 6 18 7 16 8 15 9 14 10 13 11 5 12
REMARK SMILES IDX 6 13 7 14 8 15 12 16 10 17 9 18 11 20 20 22 17 24
REMARK H PARENT 9 19 11 21 20 23 17 25
REMARK Flexibility Score: inf
ROOT
ATOM      1  C   UNL     1      24.456  29.708   6.312  1.00  0.00     0.138 A 
ATOM      2  C   UNL     1      25.499  29.793   7.244  1.00  0.00     0.100 A 
ATOM      3  C   UNL     1      26.412  28.744   7.356  1.00  0.00     0.197 A 
ATOM      4  O   UNL     1      27.374  28.876   8.157  1.00  0.00    -0.289 OA
ATOM      5  C   UNL     1      26.260  27.589   6.551  1.00  0.00     0.107 A 
ATOM      6  C   UNL     1      27.105  26.441   6.609  1.00  0.00     0.134 A 
ATOM      7  C   UNL     1      26.926  25.406   5.682  1.00  0.00     0.093 A 
ATOM      8  C   UNL     1      25.898  25.450   4.741  1.00  0.00     0.123 A 
ATOM      9  C   UNL     1      25.031  26.543   4.712  1.00  0.00     0.094 A 
ATOM     10  C   UNL     1      25.205  27.607   5.600  1.00  0.00     0.146 A 
ATOM     11  O   UNL     1      24.367  28.637   5.530  1.00  0.00    -0.456 OA
ENDROOT
BRANCH   1  12
ATOM     12  C   UNL     1      23.457  30.794   6.152  1.00  0.00     0.021 A 
ATOM     13  C   UNL     1      23.033  31.161   4.863  1.00  0.00     0.016 A 
ATOM     14  C   UNL     1      22.090  32.175   4.686  1.00  0.00     0.051 A 
ATOM     15  C   UNL     1      21.544  32.833   5.791  1.00  0.00     0.157 A 
ATOM     16  C   UNL     1      22.894  31.452   7.263  1.00  0.00     0.062 A 
ATOM     17  C   UNL     1      21.945  32.470   7.087  1.00  0.00     0.158 A 
BRANCH  15  18
ATOM     18  O   UNL     1      20.604  33.843   5.583  1.00  0.00    -0.504 OA
ATOM     19  H   UNL     1      20.210  34.378   6.348  1.00  0.00     0.293 HD
ENDBRANCH  15  18
BRANCH  17  20
ATOM     20  O   UNL     1      21.396  33.116   8.194  1.00  0.00    -0.504 OA
ATOM     21  H   UNL     1      20.685  33.830   8.093  1.00  0.00     0.293 HD
ENDBRANCH  17  20
ENDBRANCH   1  12
BRANCH   6  22
ATOM     22  O   UNL     1      28.110  26.258   7.563  1.00  0.00    -0.507 OA
ATOM     23  H   UNL     1      28.935  26.831   7.649  1.00  0.00     0.293 HD
ENDBRANCH   6  22
BRANCH   8  24
ATOM     24  O   UNL     1      25.742  24.395   3.845  1.00  0.00    -0.508 OA
ATOM     25  H   UNL     1      25.913  23.435   4.122  1.00  0.00     0.293 HD
ENDBRANCH   8  24
TORSDOF 5
ENDMDL
MODEL 2
REMARK VINA RESULT:    -5.149      2.333      6.075
REMARK INTER + INTRA:          -6.333
REMARK INTER:                  -6.056
REMARK INTRA:                  -0.277
REMARK UNBOUND:                -0.281
REMARK SMILES O=c1cc(-c2ccc(O)c(O)c2)oc2cc(O)cc(O)c12
REMARK SMILES IDX 4 1 3 2 2 3 1 4 21 5 19 6 18 7 16 8 15 9 14 10 13 11 5 12
REMARK SMILES IDX 6 13 7 14 8 15 12 16 10 17 9 18 11 20 20 22 17 24
REMARK H PARENT 9 19 11 21 20 23 17 25
REMARK Flexibility Score: inf
ROOT
ATOM      1  C   UNL     1      24.717  27.424   6.188  1.00  0.00     0.138 A 
ATOM      2  C   UNL     1      26.088  27.287   6.447  1.00  0.00     0.100 A 
ATOM      3  C   UNL     1      26.782  28.332   7.058  1.00  0.00     0.197 A 
ATOM      4  O   UNL     1      27.997  28.156   7.335  1.00  0.00    -0.289 OA
ATOM      5  C   UNL     1      26.105  29.532   7.382  1.00  0.00     0.107 A 
ATOM      6  C   UNL     1      26.720  30.678   7.969  1.00  0.00     0.134 A 
ATOM      7  C   UNL     1      25.925  31.767   8.353  1.00  0.00     0.093 A 
ATOM      8  C   UNL     1      24.551  31.776   8.116  1.00  0.00     0.123 A 
ATOM      9  C   UNL     1      23.949  30.682   7.492  1.00  0.00     0.094 A 
ATOM     10  C   UNL     1      24.708  29.567   7.130  1.00  0.00     0.146 A 
ATOM     11  O   UNL     1      24.093  28.539   6.552  1.00  0.00    -0.456 OA
ENDROOT
BRANCH   1  12
ATOM     12  C   UNL     1      23.930  26.345   5.539  1.00  0.00     0.021 A 
ATOM     13  C   UNL     1      24.279  25.916   4.247  1.00  0.00     0.016 A 
ATOM     14  C   UNL     1      23.559  24.898   3.617  1.00  0.00     0.051 A 
ATOM     15  C   UNL     1      22.487  24.284   4.268  1.00  0.00     0.157 A 
ATOM     16  C   UNL     1      22.856  25.713   6.196  1.00  0.00     0.062 A 
ATOM     17  C   UNL     1      22.133  24.690   5.565  1.00  0.00     0.158 A 
BRANCH  15  18
ATOM     18  O   UNL     1      21.785  23.271   3.613  1.00  0.00    -0.504 OA
ATOM     19  H   UNL     1      21.522  23.342   2.638  1.00  0.00     0.293 HD
ENDBRANCH  15  18
BRANCH  17  20
ATOM     20  O   UNL     1      21.071  24.073   6.224  1.00  0.00    -0.504 OA
ATOM     21  H   UNL     1      20.108  24.318   6.026  1.00  0.00     0.293 HD
ENDBRANCH  17  20
ENDBRANCH   1  12
BRANCH   6  22
ATOM     22  O   UNL     1      28.096  30.808   8.174  1.00  0.00    -0.507 OA
ATOM     23  H   UNL     1      28.525  31.112   9.035  1.00  0.00     0.293 HD
ENDBRANCH   6  22
BRANCH   8  24
ATOM     24  O   UNL     1      23.796  32.881   8.497  1.00  0.00    -0.508 OA
ATOM     25  H   UNL     1      23.051  33.242   7.910  1.00  0.00     0.293 HD
ENDBRANCH   8  24
TORSDOF 5
ENDMDL
MODEL 3
REMARK VINA RESULT:    -5.116      1.077      1.077
REMARK INTER + INTRA:          -6.294
REMARK INTER:                  -6.031
REMARK INTRA:                  -0.263
REMARK UNBOUND:                -0.281
REMARK SMILES O=c1cc(-c2ccc(O)c(O)c2)oc2cc(O)cc(O)c12
REMARK SMILES IDX 4 1 3 2 2 3 1 4 21 5 19 6 18 7 16 8 15 9 14 10 13 11 5 12
REMARK SMILES IDX 6 13 7 14 8 15 12 16 10 17 9 18 11 20 20 22 17 24
REMARK H PARENT 9 19 11 21 20 23 17 25
REMARK Flexibility Score: inf
ROOT
ATOM      1  C   UNL     1      24.147  29.530   6.038  1.00  0.00     0.138 A 
ATOM      2  C   UNL     1      25.516  29.674   6.305  1.00  0.00     0.100 A 
ATOM      3  C   UNL     1      26.321  28.538   6.409  1.00  0.00     0.197 A 
ATOM      4  O   UNL     1      27.556  28.701   6.587  1.00  0.00    -0.289 OA
ATOM      5  C   UNL     1      25.745  27.252   6.274  1.00  0.00     0.107 A 
ATOM      6  C   UNL     1      26.461  26.024   6.401  1.00  0.00     0.134 A 
ATOM      7  C   UNL     1      25.808  24.815   6.132  1.00  0.00     0.093 A 
ATOM      8  C   UNL     1      24.454  24.784   5.801  1.00  0.00     0.123 A 
ATOM      9  C   UNL     1      23.731  25.976   5.727  1.00  0.00     0.094 A 
ATOM     10  C   UNL     1      24.362  27.201   5.956  1.00  0.00     0.146 A 
ATOM     11  O   UNL     1      23.641  28.314   5.861  1.00  0.00    -0.456 OA
ENDROOT
BRANCH   1  12
ATOM     12  C   UNL     1      23.244  30.703   5.919  1.00  0.00     0.021 A 
ATOM     13  C   UNL     1      22.854  31.149   4.645  1.00  0.00     0.016 A 
ATOM     14  C   UNL     1      22.001  32.246   4.507  1.00  0.00     0.051 A 
ATOM     15  C   UNL     1      21.514  32.910   5.635  1.00  0.00     0.157 A 
ATOM     16  C   UNL     1      22.741  31.368   7.055  1.00  0.00     0.062 A 
ATOM     17  C   UNL     1      21.883  32.469   6.917  1.00  0.00     0.158 A 
BRANCH  15  18
ATOM     18  O   UNL     1      20.665  34.004   5.466  1.00  0.00    -0.504 OA
ATOM     19  H   UNL     1      19.884  33.985   4.821  1.00  0.00     0.293 HD
ENDBRANCH  15  18
BRANCH  17  20
ATOM     20  O   UNL     1      21.392  33.120   8.047  1.00  0.00    -0.504 OA
ATOM     21  H   UNL     1      22.001  33.640   8.667  1.00  0.00     0.293 HD
ENDBRANCH  17  20
ENDBRANCH   1  12
BRANCH   6  22
ATOM     22  O   UNL     1      27.795  25.936   6.808  1.00  0.00    -0.507 OA
ATOM     23  H   UNL     1      28.460  25.262   6.462  1.00  0.00     0.293 HD
ENDBRANCH   6  22
BRANCH   8  24
ATOM     24  O   UNL     1      23.835  23.561   5.554  1.00  0.00    -0.508 OA
ATOM     25  H   UNL     1      23.360  23.049   6.291  1.00  0.00     0.293 HD
ENDBRANCH   8  24
TORSDOF 5
ENDMDL
MODEL 4
REMARK VINA RESULT:    -4.705      1.225      2.808
REMARK INTER + INTRA:          -5.811
REMARK INTER:                  -5.529
REMARK INTRA:                  -0.282
REMARK UNBOUND:                -0.281
REMARK SMILES O=c1cc(-c2ccc(O)c(O)c2)oc2cc(O)cc(O)c12
REMARK SMILES IDX 4 1 3 2 2 3 1 4 21 5 19 6 18 7 16 8 15 9 14 10 13 11 5 12
REMARK SMILES IDX 6 13 7 14 8 15 12 16 10 17 9 18 11 20 20 22 17 24
REMARK H PARENT 9 19 11 21 20 23 17 25
REMARK Flexibility Score: inf
ROOT
ATOM      1  C   UNL     1      23.386  29.244   5.140  1.00  0.00     0.138 A 
ATOM      2  C   UNL     1      22.811  28.182   4.428  1.00  0.00     0.100 A 
ATOM      3  C   UNL     1      23.433  26.933   4.432  1.00  0.00     0.197 A 
ATOM      4  O   UNL     1      22.861  25.983   3.837  1.00  0.00    -0.289 OA
ATOM      5  C   UNL     1      24.653  26.756   5.127  1.00  0.00     0.107 A 
ATOM      6  C   UNL     1      25.397  25.539   5.166  1.00  0.00     0.134 A 
ATOM      7  C   UNL     1      26.532  25.450   5.983  1.00  0.00     0.093 A 
ATOM      8  C   UNL     1      26.984  26.549   6.712  1.00  0.00     0.123 A 
ATOM      9  C   UNL     1      26.295  27.761   6.638  1.00  0.00     0.094 A 
ATOM     10  C   UNL     1      25.139  27.871   5.860  1.00  0.00     0.146 A 
ATOM     11  O   UNL     1      24.504  29.038   5.829  1.00  0.00    -0.456 OA
ENDROOT
BRANCH   1  12
ATOM     12  C   UNL     1      22.768  30.594   5.168  1.00  0.00     0.021 A 
ATOM     13  C   UNL     1      22.486  31.251   3.958  1.00  0.00     0.016 A 
ATOM     14  C   UNL     1      21.899  32.518   3.957  1.00  0.00     0.051 A 
ATOM     15  C   UNL     1      21.574  33.148   5.161  1.00  0.00     0.157 A 
ATOM     16  C   UNL     1      22.427  31.227   6.379  1.00  0.00     0.062 A 
ATOM     17  C   UNL     1      21.836  32.499   6.379  1.00  0.00     0.158 A 
BRANCH  15  18
ATOM     18  O   UNL     1      20.990  34.414   5.129  1.00  0.00    -0.504 OA
ATOM     19  H   UNL     1      21.232  35.101   4.425  1.00  0.00     0.293 HD
ENDBRANCH  15  18
BRANCH  17  20
ATOM     20  O   UNL     1      21.504  33.118   7.584  1.00  0.00    -0.504 OA
ATOM     21  H   UNL     1      20.676  33.694   7.674  1.00  0.00     0.293 HD
ENDBRANCH  17  20
ENDBRANCH   1  12
BRANCH   6  22
ATOM     22  O   UNL     1      25.082  24.406   4.411  1.00  0.00    -0.507 OA
ATOM     23  H   UNL     1      24.836  23.507   4.796  1.00  0.00     0.293 HD
ENDBRANCH   6  22
BRANCH   8  24
ATOM     24  O   UNL     1      28.125  26.428   7.501  1.00  0.00    -0.508 OA
ATOM     25  H   UNL     1      28.093  26.574   8.504  1.00  0.00     0.293 HD
ENDBRANCH   8  24
TORSDOF 5
ENDMDL
MODEL 5
REMARK VINA RESULT:    -4.698      1.603      6.483
REMARK INTER + INTRA:          -5.803
REMARK INTER:                  -5.505
REMARK INTRA:                  -0.297
REMARK UNBOUND:                -0.281
REMARK SMILES O=c1cc(-c2ccc(O)c(O)c2)oc2cc(O)cc(O)c12
REMARK SMILES IDX 4 1 3 2 2 3 1 4 21 5 19 6 18 7 16 8 15 9 14 10 13 11 5 12
REMARK SMILES IDX 6 13 7 14 8 15 12 16 10 17 9 18 11 20 20 22 17 24
REMARK H PARENT 9 19 11 21 20 23 17 25
REMARK Flexibility Score: inf
ROOT
ATOM      1  C   UNL     1      24.989  27.989   5.988  1.00  0.00     0.138 A 
ATOM      2  C   UNL     1      26.140  28.242   6.747  1.00  0.00     0.100 A 
ATOM      3  C   UNL     1      26.231  29.421   7.489  1.00  0.00     0.197 A 
ATOM      4  O   UNL     1      27.249  29.591   8.210  1.00  0.00    -0.289 OA
ATOM      5  C   UNL     1      25.177  30.364   7.444  1.00  0.00     0.107 A 
ATOM      6  C   UNL     1      25.179  31.618   8.126  1.00  0.00     0.134 A 
ATOM      7  C   UNL     1      24.030  32.418   8.101  1.00  0.00     0.093 A 
ATOM      8  C   UNL     1      22.903  32.041   7.371  1.00  0.00     0.123 A 
ATOM      9  C   UNL     1      22.911  30.842   6.655  1.00  0.00     0.094 A 
ATOM     10  C   UNL     1      24.029  30.005   6.689  1.00  0.00     0.146 A 
ATOM     11  O   UNL     1      23.990  28.865   6.006  1.00  0.00    -0.456 OA
ENDROOT
BRANCH   1  12
ATOM     12  C   UNL     1      24.840  26.753   5.179  1.00  0.00     0.021 A 
ATOM     13  C   UNL     1      25.946  26.250   4.473  1.00  0.00     0.016 A 
ATOM     14  C   UNL     1      25.834  25.086   3.710  1.00  0.00     0.051 A 
ATOM     15  C   UNL     1      24.621  24.397   3.646  1.00  0.00     0.157 A 
ATOM     16  C   UNL     1      23.622  26.047   5.122  1.00  0.00     0.062 A 
ATOM     17  C   UNL     1      23.508  24.877   4.357  1.00  0.00     0.158 A 
BRANCH  15  18
ATOM     18  O   UNL     1      24.538  23.237   2.875  1.00  0.00    -0.504 OA
ATOM     19  H   UNL     1      25.105  22.420   3.068  1.00  0.00     0.293 HD
ENDBRANCH  15  18
BRANCH  17  20
ATOM     20  O   UNL     1      22.298  24.187   4.307  1.00  0.00    -0.504 OA
ATOM     21  H   UNL     1      22.228  23.216   4.586  1.00  0.00     0.293 HD
ENDBRANCH  17  20
ENDBRANCH   1  12
BRANCH   6  22
ATOM     22  O   UNL     1      26.281  32.130   8.816  1.00  0.00    -0.507 OA
ATOM     23  H   UNL     1      26.299  32.333   9.804  1.00  0.00     0.293 HD
ENDBRANCH   6  22
BRANCH   8  24
ATOM     24  O   UNL     1      21.784  32.869   7.357  1.00  0.00    -0.508 OA
ATOM     25  H   UNL     1      21.697  33.631   6.693  1.00  0.00     0.293 HD
ENDBRANCH   8  24
TORSDOF 5
ENDMDL
MODEL 6
REMARK VINA RESULT:    -4.690      2.756      6.564
REMARK INTER + INTRA:          -5.793
REMARK INTER:                  -5.519
REMARK INTRA:                  -0.275
REMARK UNBOUND:                -0.281
REMARK SMILES O=c1cc(-c2ccc(O)c(O)c2)oc2cc(O)cc(O)c12
REMARK SMILES IDX 4 1 3 2 2 3 1 4 21 5 19 6 18 7 16 8 15 9 14 10 13 11 5 12
REMARK SMILES IDX 6 13 7 14 8 15 12 16 10 17 9 18 11 20 20 22 17 24
REMARK H PARENT 9 19 11 21 20 23 17 25
REMARK Flexibility Score: inf
ROOT
ATOM      1  C   UNL     1      23.640  27.079   5.611  1.00  0.00     0.138 A 
ATOM      2  C   UNL     1      22.906  28.192   5.178  1.00  0.00     0.100 A 
ATOM      3  C   UNL     1      23.340  29.476   5.512  1.00  0.00     0.197 A 
ATOM      4  O   UNL     1      22.697  30.457   5.057  1.00  0.00    -0.289 OA
ATOM      5  C   UNL     1      24.498  29.643   6.309  1.00  0.00     0.107 A 
ATOM      6  C   UNL     1      25.010  30.901   6.745  1.00  0.00     0.134 A 
ATOM      7  C   UNL     1      26.229  30.949   7.433  1.00  0.00     0.093 A 
ATOM      8  C   UNL     1      26.922  29.783   7.754  1.00  0.00     0.123 A 
ATOM      9  C   UNL     1      26.402  28.542   7.380  1.00  0.00     0.094 A 
ATOM     10  C   UNL     1      25.207  28.464   6.662  1.00  0.00     0.146 A 
ATOM     11  O   UNL     1      24.753  27.264   6.312  1.00  0.00    -0.456 OA
ENDROOT
BRANCH   1  12
ATOM     12  C   UNL     1      23.223  25.691   5.286  1.00  0.00     0.021 A 
ATOM     13  C   UNL     1      24.159  24.798   4.738  1.00  0.00     0.016 A 
ATOM     14  C   UNL     1      23.794  23.486   4.430  1.00  0.00     0.051 A 
ATOM     15  C   UNL     1      22.493  23.038   4.673  1.00  0.00     0.157 A 
ATOM     16  C   UNL     1      21.916  25.232   5.541  1.00  0.00     0.062 A 
ATOM     17  C   UNL     1      21.548  23.914   5.234  1.00  0.00     0.158 A 
BRANCH  15  18
ATOM     18  O   UNL     1      22.157  21.723   4.353  1.00  0.00    -0.504 OA
ATOM     19  H   UNL     1      22.857  21.028   4.125  1.00  0.00     0.293 HD
ENDBRANCH  15  18
BRANCH  17  20
ATOM     20  O   UNL     1      20.252  23.470   5.489  1.00  0.00    -0.504 OA
ATOM     21  H   UNL     1      20.060  22.509   5.746  1.00  0.00     0.293 HD
ENDBRANCH  17  20
ENDBRANCH   1  12
BRANCH   6  22
ATOM     22  O   UNL     1      24.355  32.121   6.551  1.00  0.00    -0.507 OA
ATOM     23  H   UNL     1      24.735  33.024   6.790  1.00  0.00     0.293 HD
ENDBRANCH   6  22
BRANCH   8  24
ATOM     24  O   UNL     1      28.124  29.868   8.452  1.00  0.00    -0.508 OA
ATOM     25  H   UNL     1      28.851  29.169   8.343  1.00  0.00     0.293 HD
ENDBRANCH   8  24
TORSDOF 5
ENDMDL
MODEL 7
REMARK VINA RESULT:    -4.630      3.040      6.628
REMARK INTER + INTRA:          -5.723
REMARK INTER:                  -5.440
REMARK INTRA:                  -0.283
REMARK UNBOUND:                -0.281
REMARK SMILES O=c1cc(-c2ccc(O)c(O)c2)oc2cc(O)cc(O)c12
REMARK SMILES IDX 4 1 3 2 2 3 1 4 21 5 19 6 18 7 16 8 15 9 14 10 13 11 5 12
REMARK SMILES IDX 6 13 7 14 8 15 12 16 10 17 9 18 11 20 20 22 17 24
REMARK H PARENT 9 19 11 21 20 23 17 25
REMARK Flexibility Score: inf
ROOT
ATOM      1  C   UNL     1      23.368  28.334   4.935  1.00  0.00     0.138 A 
ATOM      2  C   UNL     1      24.732  28.446   4.632  1.00  0.00     0.100 A 
ATOM      3  C   UNL     1      25.275  29.701   4.351  1.00  0.00     0.197 A 
ATOM      4  O   UNL     1      26.514  29.779   4.145  1.00  0.00    -0.289 OA
ATOM      5  C   UNL     1      24.440  30.844   4.344  1.00  0.00     0.107 A 
ATOM      6  C   UNL     1      24.876  32.166   4.032  1.00  0.00     0.134 A 
ATOM      7  C   UNL     1      23.983  33.237   4.171  1.00  0.00     0.093 A 
ATOM      8  C   UNL     1      22.658  33.027   4.551  1.00  0.00     0.123 A 
ATOM      9  C   UNL     1      22.207  31.731   4.805  1.00  0.00     0.094 A 
ATOM     10  C   UNL     1      23.082  30.646   4.709  1.00  0.00     0.146 A 
ATOM     11  O   UNL     1      22.616  29.429   4.975  1.00  0.00    -0.456 OA
ENDROOT
BRANCH   1  12
ATOM     12  C   UNL     1      22.738  27.024   5.239  1.00  0.00     0.021 A 
ATOM     13  C   UNL     1      23.275  26.218   6.256  1.00  0.00     0.016 A 
ATOM     14  C   UNL     1      22.697  24.985   6.566  1.00  0.00     0.051 A 
ATOM     15  C   UNL     1      21.568  24.539   5.874  1.00  0.00     0.157 A 
ATOM     16  C   UNL     1      21.592  26.576   4.552  1.00  0.00     0.062 A 
ATOM     17  C   UNL     1      21.010  25.339   4.864  1.00  0.00     0.158 A 
BRANCH  15  18
ATOM     18  O   UNL     1      21.014  23.302   6.204  1.00  0.00    -0.504 OA
ATOM     19  H   UNL     1      20.442  23.171   7.030  1.00  0.00     0.293 HD
ENDBRANCH  15  18
BRANCH  17  20
ATOM     20  O   UNL     1      19.876  24.905   4.178  1.00  0.00    -0.504 OA
ATOM     21  H   UNL     1      19.186  24.308   4.617  1.00  0.00     0.293 HD
ENDBRANCH  17  20
ENDBRANCH   1  12
BRANCH   6  22
ATOM     22  O   UNL     1      26.155  32.477   3.563  1.00  0.00    -0.507 OA
ATOM     23  H   UNL     1      26.523  32.201   2.666  1.00  0.00     0.293 HD
ENDBRANCH   6  22
BRANCH   8  24
ATOM     24  O   UNL     1      21.795  34.114   4.664  1.00  0.00    -0.508 OA
ATOM     25  H   UNL     1      21.701  34.628   5.533  1.00  0.00     0.293 HD
ENDBRANCH   8  24
TORSDOF 5
ENDMDL
MODEL 8
REMARK VINA RESULT:    -4.596      1.472      7.323
REMARK INTER + INTRA:          -5.683
REMARK INTER:                  -5.420
REMARK INTRA:                  -0.263
REMARK UNBOUND:                -0.281
REMARK SMILES O=c1cc(-c2ccc(O)c(O)c2)oc2cc(O)cc(O)c12
REMARK SMILES IDX 4 1 3 2 2 3 1 4 21 5 19 6 18 7 16 8 15 9 14 10 13 11 5 12
REMARK SMILES IDX 6 13 7 14 8 15 12 16 10 17 9 18 11 20 20 22 17 24
REMARK H PARENT 9 19 11 21 20 23 17 25
REMARK Flexibility Score: inf
ROOT
ATOM      1  C   UNL     1      24.469  28.888   5.656  1.00  0.00     0.138 A 
ATOM      2  C   UNL     1      24.134  29.209   4.333  1.00  0.00     0.100 A 
ATOM      3  C   UNL     1      23.292  30.292   4.078  1.00  0.00     0.197 A 
ATOM      4  O   UNL     1      23.060  30.595   2.879  1.00  0.00    -0.289 OA
ATOM      5  C   UNL     1      22.757  31.037   5.157  1.00  0.00     0.107 A 
ATOM      6  C   UNL     1      21.856  32.135   5.019  1.00  0.00     0.134 A 
ATOM      7  C   UNL     1      21.485  32.870   6.152  1.00  0.00     0.093 A 
ATOM      8  C   UNL     1      21.933  32.511   7.423  1.00  0.00     0.123 A 
ATOM      9  C   UNL     1      22.771  31.405   7.576  1.00  0.00     0.094 A 
ATOM     10  C   UNL     1      23.187  30.673   6.461  1.00  0.00     0.146 A 
ATOM     11  O   UNL     1      23.998  29.636   6.648  1.00  0.00    -0.456 OA
ENDROOT
BRANCH   1  12
ATOM     12  C   UNL     1      25.360  27.746   5.984  1.00  0.00     0.021 A 
ATOM     13  C   UNL     1      26.692  27.992   6.358  1.00  0.00     0.016 A 
ATOM     14  C   UNL     1      27.548  26.936   6.677  1.00  0.00     0.051 A 
ATOM     15  C   UNL     1      27.088  25.617   6.639  1.00  0.00     0.157 A 
ATOM     16  C   UNL     1      24.897  26.415   5.960  1.00  0.00     0.062 A 
ATOM     17  C   UNL     1      25.755  25.354   6.282  1.00  0.00     0.158 A 
BRANCH  15  18
ATOM     18  O   UNL     1      27.966  24.583   6.962  1.00  0.00    -0.504 OA
ATOM     19  H   UNL     1      27.640  23.683   7.294  1.00  0.00     0.293 HD
ENDBRANCH  15  18
BRANCH  17  20
ATOM     20  O   UNL     1      25.287  24.041   6.254  1.00  0.00    -0.504 OA
ATOM     21  H   UNL     1      25.380  23.462   5.428  1.00  0.00     0.293 HD
ENDBRANCH  17  20
ENDBRANCH   1  12
BRANCH   6  22
ATOM     22  O   UNL     1      21.282  32.526   3.806  1.00  0.00    -0.507 OA
ATOM     23  H   UNL     1      21.588  33.310   3.250  1.00  0.00     0.293 HD
ENDBRANCH   6  22
BRANCH   8  24
ATOM     24  O   UNL     1      21.532  33.256   8.529  1.00  0.00    -0.508 OA
ATOM     25  H   UNL     1      22.099  34.014   8.892  1.00  0.00     0.293 HD
ENDBRANCH   8  24
TORSDOF 5
ENDMDL
MODEL 9
REMARK VINA RESULT:    -4.539      2.555      4.495
REMARK INTER + INTRA:          -5.615
REMARK INTER:                  -5.321
REMARK INTRA:                  -0.294
REMARK UNBOUND:                -0.281
REMARK SMILES O=c1cc(-c2ccc(O)c(O)c2)oc2cc(O)cc(O)c12
REMARK SMILES IDX 4 1 3 2 2 3 1 4 21 5 19 6 18 7 16 8 15 9 14 10 13 11 5 12
REMARK SMILES IDX 6 13 7 14 8 15 12 16 10 17 9 18 11 20 20 22 17 24
REMARK H PARENT 9 19 11 21 20 23 17 25
REMARK Flexibility Score: inf
ROOT
ATOM      1  C   UNL     1      24.955  27.201   6.163  1.00  0.00     0.138 A 
ATOM      2  C   UNL     1      25.914  26.526   5.395  1.00  0.00     0.100 A 
ATOM      3  C   UNL     1      25.586  25.307   4.799  1.00  0.00     0.197 A 
ATOM      4  O   UNL     1      26.446  24.756   4.063  1.00  0.00    -0.289 OA
ATOM      5  C   UNL     1      24.301  24.748   4.999  1.00  0.00     0.107 A 
ATOM      6  C   UNL     1      23.870  23.493   4.475  1.00  0.00     0.134 A 
ATOM      7  C   UNL     1      22.537  23.097   4.643  1.00  0.00     0.093 A 
ATOM      8  C   UNL     1      21.638  23.879   5.366  1.00  0.00     0.123 A 
ATOM      9  C   UNL     1      22.063  25.083   5.930  1.00  0.00     0.094 A 
ATOM     10  C   UNL     1      23.377  25.522   5.751  1.00  0.00     0.146 A 
ATOM     11  O   UNL     1      23.739  26.682   6.291  1.00  0.00    -0.456 OA
ENDROOT
BRANCH   1  12
ATOM     12  C   UNL     1      25.250  28.500   6.821  1.00  0.00     0.021 A 
ATOM     13  C   UNL     1      26.480  28.678   7.477  1.00  0.00     0.016 A 
ATOM     14  C   UNL     1      26.785  29.891   8.098  1.00  0.00     0.051 A 
ATOM     15  C   UNL     1      25.875  30.950   8.067  1.00  0.00     0.157 A 
ATOM     16  C   UNL     1      24.341  29.574   6.781  1.00  0.00     0.062 A 
ATOM     17  C   UNL     1      24.646  30.793   7.403  1.00  0.00     0.158 A 
BRANCH  15  18
ATOM     18  O   UNL     1      26.206  32.149   8.697  1.00  0.00    -0.504 OA
ATOM     19  H   UNL     1      27.122  32.571   8.605  1.00  0.00     0.293 HD
ENDBRANCH  15  18
BRANCH  17  20
ATOM     20  O   UNL     1      23.738  31.850   7.359  1.00  0.00    -0.504 OA
ATOM     21  H   UNL     1      22.770  31.730   7.632  1.00  0.00     0.293 HD
ENDBRANCH  17  20
ENDBRANCH   1  12
BRANCH   6  22
ATOM     22  O   UNL     1      24.709  22.595   3.809  1.00  0.00    -0.507 OA
ATOM     23  H   UNL     1      24.871  21.641   4.090  1.00  0.00     0.293 HD
ENDBRANCH   6  22
BRANCH   8  24
ATOM     24  O   UNL     1      20.324  23.445   5.525  1.00  0.00    -0.508 OA
ATOM     25  H   UNL     1      20.063  22.806   6.268  1.00  0.00     0.293 HD
ENDBRANCH   8  24
TORSDOF 5
ENDMDL
