MODEL 1
REMARK VINA RESULT:     5.880      0.000      0.000
REMARK INTER + INTRA:          11.021
REMARK INTER:                  11.380
REMARK INTRA:                  -0.359
REMARK UNBOUND:                -0.359
REMARK SMILES CCCCCCCCCCCCCCCCCC(=O)[O-]
REMARK SMILES IDX 10 1 11 2 12 3 13 4 14 5 15 6 16 7 17 8 18 9 19 10 20 11
REMARK SMILES IDX 9 12 8 13 7 14 6 15 5 16 4 17 3 18 2 19 1 20
REMARK H PARENT
REMARK Flexibility Score: inf
ROOT
ATOM      1  C   UNL     1      -6.826 -23.596 -24.539  1.00  0.00     0.000 C 
ENDROOT
BRANCH   1   2
ATOM      2  C   UNL     1      -5.358 -23.210 -24.767  1.00  0.00     0.000 C 
BRANCH   2   3
ATOM      3  C   UNL     1      -4.430 -23.723 -23.653  1.00  0.00     0.000 C 
BRANCH   3   4
ATOM      4  C   UNL     1      -2.951 -23.721 -24.068  1.00  0.00     0.000 C 
BRANCH   4   5
ATOM      5  C   UNL     1      -2.666 -22.599 -25.076  1.00  0.00     0.000 C 
BRANCH   5   6
ATOM      6  C   UNL     1      -1.768 -21.518 -24.458  1.00  0.00     0.000 C 
BRANCH   6   7
ATOM      7  C   UNL     1      -1.936 -20.141 -25.124  1.00  0.00     0.006 C 
BRANCH   7   8
ATOM      8  C   UNL     1      -0.802 -19.151 -24.807  1.00  0.00     0.053 C 
BRANCH   8   9
ATOM      9  C   UNL     1       0.556 -19.774 -24.928  1.00  0.00     0.041 C 
ATOM     10  O   UNL     1       0.675 -21.026 -24.996  1.00  0.00    -0.550 OA
ATOM     11  O   UNL     1       1.693 -18.976 -24.929  1.00  0.00    -0.550 OA
ENDBRANCH   8   9
ENDBRANCH   7   8
ENDBRANCH   6   7
ENDBRANCH   5   6
ENDBRANCH   4   5
ENDBRANCH   3   4
ENDBRANCH   2   3
ENDBRANCH   1   2
BRANCH   1  12
ATOM     12  C   UNL     1      -6.948 -24.686 -23.468  1.00  0.00     0.000 C 
BRANCH  12  13
ATOM     13  C   UNL     1      -8.406 -25.124 -23.290  1.00  0.00    -0.000 C 
BRANCH  13  14
ATOM     14  C   UNL     1      -9.261 -23.982 -22.727  1.00  0.00    -0.000 C 
BRANCH  14  15
ATOM     15  C   UNL     1     -10.530 -23.780 -23.563  1.00  0.00    -0.000 C 
BRANCH  15  16
ATOM     16  C   UNL     1     -10.187 -23.252 -24.964  1.00  0.00    -0.000 C 
BRANCH  16  17
ATOM     17  C   UNL     1     -10.468 -21.747 -25.122  1.00  0.00    -0.000 C 
BRANCH  17  18
ATOM     18  C   UNL     1      -9.662 -20.829 -24.181  1.00  0.00    -0.000 C 
BRANCH  18  19
ATOM     19  C   UNL     1      -8.814 -19.758 -24.889  1.00  0.00    -0.003 C 
ATOM     20  C   UNL     1      -7.331 -19.837 -24.529  1.00  0.00     0.004 C 
ENDBRANCH  18  19
ENDBRANCH  17  18
ENDBRANCH  16  17
ENDBRANCH  15  16
ENDBRANCH  14  15
ENDBRANCH  13  14
ENDBRANCH  12  13
ENDBRANCH   1  12
TORSDOF 16
ENDMDL
MODEL 2
REMARK VINA RESULT:     6.324      1.785      2.013
REMARK INTER + INTRA:          11.881
REMARK INTER:                  13.221
REMARK INTRA:                  -1.341
REMARK UNBOUND:                -0.359
REMARK SMILES CCCCCCCCCCCCCCCCCC(=O)[O-]
REMARK SMILES IDX 10 1 11 2 12 3 13 4 14 5 15 6 16 7 17 8 18 9 19 10 20 11
REMARK SMILES IDX 9 12 8 13 7 14 6 15 5 16 4 17 3 18 2 19 1 20
REMARK H PARENT
REMARK Flexibility Score: inf
ROOT
ATOM      1  C   UNL     1      -6.829 -23.610 -24.561  1.00  0.00     0.000 C 
ENDROOT
BRANCH   1   2
ATOM      2  C   UNL     1      -5.381 -23.224 -24.893  1.00  0.00     0.000 C 
BRANCH   2   3
ATOM      3  C   UNL     1      -4.371 -23.776 -23.873  1.00  0.00     0.000 C 
BRANCH   3   4
ATOM      4  C   UNL     1      -2.936 -23.811 -24.421  1.00  0.00     0.000 C 
BRANCH   4   5
ATOM      5  C   UNL     1      -2.584 -22.492 -25.120  1.00  0.00     0.000 C 
BRANCH   5   6
ATOM      6  C   UNL     1      -1.487 -21.739 -24.354  1.00  0.00     0.000 C 
BRANCH   6   7
ATOM      7  C   UNL     1      -1.691 -20.213 -24.353  1.00  0.00     0.006 C 
BRANCH   7   8
ATOM      8  C   UNL     1      -2.941 -19.749 -25.119  1.00  0.00     0.053 C 
BRANCH   8   9
ATOM      9  C   UNL     1      -3.288 -18.317 -24.840  1.00  0.00     0.041 C 
ATOM     10  O   UNL     1      -4.458 -18.006 -24.492  1.00  0.00    -0.550 OA
ATOM     11  O   UNL     1      -2.332 -17.322 -25.000  1.00  0.00    -0.550 OA
ENDBRANCH   8   9
ENDBRANCH   7   8
ENDBRANCH   6   7
ENDBRANCH   5   6
ENDBRANCH   4   5
ENDBRANCH   3   4
ENDBRANCH   2   3
ENDBRANCH   1   2
BRANCH   1  12
ATOM     12  C   UNL     1      -6.875 -24.662 -23.446  1.00  0.00     0.000 C 
BRANCH  12  13
ATOM     13  C   UNL     1      -8.313 -25.125 -23.184  1.00  0.00    -0.000 C 
BRANCH  13  14
ATOM     14  C   UNL     1      -9.174 -23.975 -22.648  1.00  0.00    -0.000 C 
BRANCH  14  15
ATOM     15  C   UNL     1     -10.479 -23.847 -23.441  1.00  0.00    -0.000 C 
BRANCH  15  16
ATOM     16  C   UNL     1     -10.204 -23.404 -24.886  1.00  0.00    -0.000 C 
BRANCH  16  17
ATOM     17  C   UNL     1     -10.513 -21.915 -25.123  1.00  0.00    -0.000 C 
BRANCH  17  18
ATOM     18  C   UNL     1      -9.679 -20.932 -24.277  1.00  0.00    -0.000 C 
BRANCH  18  19
ATOM     19  C   UNL     1      -8.588 -20.172 -25.053  1.00  0.00    -0.003 C 
ATOM     20  C   UNL     1      -8.590 -18.671 -24.767  1.00  0.00     0.004 C 
ENDBRANCH  18  19
ENDBRANCH  17  18
ENDBRANCH  16  17
ENDBRANCH  15  16
ENDBRANCH  14  15
ENDBRANCH  13  14
ENDBRANCH  12  13
ENDBRANCH   1  12
TORSDOF 16
ENDMDL
MODEL 3
REMARK VINA RESULT:     6.392     21.690     23.886
REMARK INTER + INTRA:          12.012
REMARK INTER:                   7.737
REMARK INTRA:                   4.275
REMARK UNBOUND:                -0.359
REMARK SMILES CCCCCCCCCCCCCCCCCC(=O)[O-]
REMARK SMILES IDX 10 1 11 2 12 3 13 4 14 5 15 6 16 7 17 8 18 9 19 10 20 11
REMARK SMILES IDX 9 12 8 13 7 14 6 15 5 16 4 17 3 18 2 19 1 20
REMARK H PARENT
REMARK Flexibility Score: inf
ROOT
ATOM      1  C   UNL     1      -3.775  -9.596  -5.455  1.00  0.00     0.000 C 
ENDROOT
BRANCH   1   2
ATOM      2  C   UNL     1      -3.584 -11.029  -4.940  1.00  0.00     0.000 C 
BRANCH   2   3
ATOM      3  C   UNL     1      -4.901 -11.821  -4.888  1.00  0.00     0.000 C 
BRANCH   3   4
ATOM      4  C   UNL     1      -5.989 -11.219  -5.790  1.00  0.00     0.000 C 
BRANCH   4   5
ATOM      5  C   UNL     1      -6.465 -12.242  -6.831  1.00  0.00     0.000 C 
BRANCH   5   6
ATOM      6  C   UNL     1      -5.275 -12.973  -7.469  1.00  0.00     0.000 C 
BRANCH   6   7
ATOM      7  C   UNL     1      -4.133 -12.025  -7.877  1.00  0.00     0.006 C 
BRANCH   7   8
ATOM      8  C   UNL     1      -4.535 -10.980  -8.931  1.00  0.00     0.053 C 
BRANCH   8   9
ATOM      9  C   UNL     1      -4.789  -9.629  -8.334  1.00  0.00     0.041 C 
ATOM     10  O   UNL     1      -5.111  -9.523  -7.121  1.00  0.00    -0.550 OA
ATOM     11  O   UNL     1      -4.707  -8.489  -9.123  1.00  0.00    -0.550 OA
ENDBRANCH   8   9
ENDBRANCH   7   8
ENDBRANCH   6   7
ENDBRANCH   5   6
ENDBRANCH   4   5
ENDBRANCH   3   4
ENDBRANCH   2   3
ENDBRANCH   1   2
BRANCH   1  12
ATOM     12  C   UNL     1      -2.695  -8.662  -4.894  1.00  0.00     0.000 C 
BRANCH  12  13
ATOM     13  C   UNL     1      -3.026  -7.195  -5.191  1.00  0.00    -0.000 C 
BRANCH  13  14
ATOM     14  C   UNL     1      -1.779  -6.312  -5.060  1.00  0.00    -0.000 C 
BRANCH  14  15
ATOM     15  C   UNL     1      -0.512  -7.164  -4.924  1.00  0.00    -0.000 C 
BRANCH  15  16
ATOM     16  C   UNL     1       0.743  -6.280  -4.876  1.00  0.00    -0.000 C 
BRANCH  16  17
ATOM     17  C   UNL     1       2.034  -7.057  -5.189  1.00  0.00    -0.000 C 
BRANCH  17  18
ATOM     18  C   UNL     1       3.205  -6.198  -5.707  1.00  0.00    -0.000 C 
BRANCH  18  19
ATOM     19  C   UNL     1       4.606  -6.723  -5.346  1.00  0.00    -0.003 C 
ATOM     20  C   UNL     1       5.633  -5.606  -5.168  1.00  0.00     0.004 C 
ENDBRANCH  18  19
ENDBRANCH  17  18
ENDBRANCH  16  17
ENDBRANCH  15  16
ENDBRANCH  14  15
ENDBRANCH  13  14
ENDBRANCH  12  13
ENDBRANCH   1  12
TORSDOF 16
ENDMDL
MODEL 4
REMARK VINA RESULT:     7.592     17.543     18.857
REMARK INTER + INTRA:          14.334
REMARK INTER:                  15.028
REMARK INTRA:                  -0.695
REMARK UNBOUND:                -0.359
REMARK SMILES CCCCCCCCCCCCCCCCCC(=O)[O-]
REMARK SMILES IDX 10 1 11 2 12 3 13 4 14 5 15 6 16 7 17 8 18 9 19 10 20 11
REMARK SMILES IDX 9 12 8 13 7 14 6 15 5 16 4 17 3 18 2 19 1 20
REMARK H PARENT
REMARK Flexibility Score: inf
ROOT
ATOM      1  C   UNL     1       4.407  -6.730 -17.977  1.00  0.00     0.000 C 
ENDROOT
BRANCH   1   2
ATOM      2  C   UNL     1       5.765  -7.445 -17.945  1.00  0.00     0.000 C 
BRANCH   2   3
ATOM      3  C   UNL     1       6.036  -8.261 -19.219  1.00  0.00     0.000 C 
BRANCH   3   4
ATOM      4  C   UNL     1       7.416  -8.937 -19.206  1.00  0.00     0.000 C 
BRANCH   4   5
ATOM      5  C   UNL     1       7.927  -9.165 -20.635  1.00  0.00     0.000 C 
BRANCH   5   6
ATOM      6  C   UNL     1       9.105  -8.233 -20.953  1.00  0.00     0.000 C 
BRANCH   6   7
ATOM      7  C   UNL     1       8.755  -7.153 -21.993  1.00  0.00     0.006 C 
BRANCH   7   8
ATOM      8  C   UNL     1       7.261  -7.089 -22.349  1.00  0.00     0.053 C 
BRANCH   8   9
ATOM      9  C   UNL     1       7.001  -6.318 -23.608  1.00  0.00     0.041 C 
ATOM     10  O   UNL     1       7.751  -6.468 -24.608  1.00  0.00    -0.550 OA
ATOM     11  O   UNL     1       5.955  -5.406 -23.666  1.00  0.00    -0.550 OA
ENDBRANCH   8   9
ENDBRANCH   7   8
ENDBRANCH   6   7
ENDBRANCH   5   6
ENDBRANCH   4   5
ENDBRANCH   3   4
ENDBRANCH   2   3
ENDBRANCH   1   2
BRANCH   1  12
ATOM     12  C   UNL     1       4.298  -5.706 -16.841  1.00  0.00     0.000 C 
BRANCH  12  13
ATOM     13  C   UNL     1       2.834  -5.355 -16.553  1.00  0.00    -0.000 C 
BRANCH  13  14
ATOM     14  C   UNL     1       1.915  -6.550 -16.832  1.00  0.00    -0.000 C 
BRANCH  14  15
ATOM     15  C   UNL     1       0.450  -6.197 -16.550  1.00  0.00    -0.000 C 
BRANCH  15  16
ATOM     16  C   UNL     1      -0.431  -7.455 -16.565  1.00  0.00    -0.000 C 
BRANCH  16  17
ATOM     17  C   UNL     1      -1.776  -7.252 -15.843  1.00  0.00    -0.000 C 
BRANCH  17  18
ATOM     18  C   UNL     1      -2.785  -6.351 -16.583  1.00  0.00    -0.000 C 
BRANCH  18  19
ATOM     19  C   UNL     1      -4.244  -6.485 -16.109  1.00  0.00    -0.003 C 
ATOM     20  C   UNL     1      -4.401  -6.287 -14.602  1.00  0.00     0.004 C 
ENDBRANCH  18  19
ENDBRANCH  17  18
ENDBRANCH  16  17
ENDBRANCH  15  16
ENDBRANCH  14  15
ENDBRANCH  13  14
ENDBRANCH  12  13
ENDBRANCH   1  12
TORSDOF 16
ENDMDL
MODEL 5
REMARK VINA RESULT:     7.791     19.772     21.808
REMARK INTER + INTRA:          14.719
REMARK INTER:                  15.386
REMARK INTRA:                  -0.667
REMARK UNBOUND:                -0.359
REMARK SMILES CCCCCCCCCCCCCCCCCC(=O)[O-]
REMARK SMILES IDX 10 1 11 2 12 3 13 4 14 5 15 6 16 7 17 8 18 9 19 10 20 11
REMARK SMILES IDX 9 12 8 13 7 14 6 15 5 16 4 17 3 18 2 19 1 20
REMARK H PARENT
REMARK Flexibility Score: inf
ROOT
ATOM      1  C   UNL     1      -4.508  -8.526  -8.532  1.00  0.00     0.000 C 
ENDROOT
BRANCH   1   2
ATOM      2  C   UNL     1      -5.420  -8.602  -9.764  1.00  0.00     0.000 C 
BRANCH   2   3
ATOM      3  C   UNL     1      -5.728  -7.219 -10.360  1.00  0.00     0.000 C 
BRANCH   3   4
ATOM      4  C   UNL     1      -5.159  -7.045 -11.777  1.00  0.00     0.000 C 
BRANCH   4   5
ATOM      5  C   UNL     1      -5.137  -5.565 -12.181  1.00  0.00     0.000 C 
BRANCH   5   6
ATOM      6  C   UNL     1      -5.113  -5.412 -13.709  1.00  0.00     0.000 C 
BRANCH   6   7
ATOM      7  C   UNL     1      -4.043  -6.287 -14.386  1.00  0.00     0.006 C 
BRANCH   7   8
ATOM      8  C   UNL     1      -4.109  -6.278 -15.922  1.00  0.00     0.053 C 
BRANCH   8   9
ATOM      9  C   UNL     1      -2.835  -6.749 -16.556  1.00  0.00     0.041 C 
ATOM     10  O   UNL     1      -1.724  -6.435 -16.053  1.00  0.00    -0.550 OA
ATOM     11  O   UNL     1      -2.872  -7.503 -17.723  1.00  0.00    -0.550 OA
ENDBRANCH   8   9
ENDBRANCH   7   8
ENDBRANCH   6   7
ENDBRANCH   5   6
ENDBRANCH   4   5
ENDBRANCH   3   4
ENDBRANCH   2   3
ENDBRANCH   1   2
BRANCH   1  12
ATOM     12  C   UNL     1      -4.269  -9.919  -7.938  1.00  0.00     0.000 C 
BRANCH  12  13
ATOM     13  C   UNL     1      -4.544  -9.931  -6.430  1.00  0.00    -0.000 C 
BRANCH  13  14
ATOM     14  C   UNL     1      -3.303  -9.499  -5.640  1.00  0.00    -0.000 C 
BRANCH  14  15
ATOM     15  C   UNL     1      -3.499  -8.112  -5.019  1.00  0.00    -0.000 C 
BRANCH  15  16
ATOM     16  C   UNL     1      -2.263  -7.228  -5.244  1.00  0.00    -0.000 C 
BRANCH  16  17
ATOM     17  C   UNL     1      -0.947  -7.936  -4.875  1.00  0.00    -0.000 C 
BRANCH  17  18
ATOM     18  C   UNL     1       0.303  -7.034  -4.875  1.00  0.00    -0.000 C 
BRANCH  18  19
ATOM     19  C   UNL     1       1.622  -7.751  -5.215  1.00  0.00    -0.003 C 
ATOM     20  C   UNL     1       2.855  -6.891  -4.943  1.00  0.00     0.004 C 
ENDBRANCH  18  19
ENDBRANCH  17  18
ENDBRANCH  16  17
ENDBRANCH  15  16
ENDBRANCH  14  15
ENDBRANCH  13  14
ENDBRANCH  12  13
ENDBRANCH   1  12
TORSDOF 16
ENDMDL
