MODEL 1
REMARK VINA RESULT:    -3.442      0.000      0.000
REMARK INTER + INTRA:         -12.252
REMARK INTER:                  -7.868
REMARK INTRA:                  -4.384
REMARK UNBOUND:                -4.384
REMARK SMILES CCCCCCCCCCCCCCCCCCCCCCCC(=O)[O-]
REMARK SMILES IDX 13 1 14 2 15 3 16 4 17 5 18 6 19 7 20 8 21 9 22 10 23 11
REMARK SMILES IDX 24 12 25 13 26 14 12 15 11 16 10 17 9 18 8 19 7 20 6 21 5 22
REMARK SMILES IDX 4 23 3 24 2 25 1 26
REMARK H PARENT
REMARK Flexibility Score: inf
ROOT
ATOM      1  C   UNL     1      30.180  11.984  24.064  1.00  0.00     0.000 C 
ENDROOT
BRANCH   1   2
ATOM      2  C   UNL     1      30.024  11.349  22.673  1.00  0.00     0.000 C 
BRANCH   2   3
ATOM      3  C   UNL     1      31.036  10.218  22.427  1.00  0.00     0.000 C 
BRANCH   3   4
ATOM      4  C   UNL     1      30.432   8.824  22.659  1.00  0.00     0.000 C 
BRANCH   4   5
ATOM      5  C   UNL     1      30.831   8.227  24.022  1.00  0.00     0.000 C 
BRANCH   5   6
ATOM      6  C   UNL     1      29.614   7.790  24.851  1.00  0.00     0.000 C 
BRANCH   6   7
ATOM      7  C   UNL     1      28.387   8.689  24.622  1.00  0.00     0.000 C 
BRANCH   7   8
ATOM      8  C   UNL     1      27.080   7.883  24.540  1.00  0.00     0.000 C 
BRANCH   8   9
ATOM      9  C   UNL     1      27.103   6.634  25.438  1.00  0.00     0.000 C 
BRANCH   9  10
ATOM     10  C   UNL     1      25.755   6.386  26.136  1.00  0.00     0.006 C 
BRANCH  10  11
ATOM     11  C   UNL     1      25.919   5.687  27.492  1.00  0.00     0.053 C 
BRANCH  11  12
ATOM     12  C   UNL     1      24.756   5.995  28.383  1.00  0.00     0.041 C 
ATOM     13  O   UNL     1      24.948   6.379  29.566  1.00  0.00    -0.550 OA
ATOM     14  O   UNL     1      23.459   5.900  27.891  1.00  0.00    -0.550 OA
ENDBRANCH  11  12
ENDBRANCH  10  11
ENDBRANCH   9  10
ENDBRANCH   8   9
ENDBRANCH   7   8
ENDBRANCH   6   7
ENDBRANCH   5   6
ENDBRANCH   4   5
ENDBRANCH   3   4
ENDBRANCH   2   3
ENDBRANCH   1   2
BRANCH   1  15
ATOM     15  C   UNL     1      31.638  11.990  24.557  1.00  0.00     0.000 C 
BRANCH  15  16
ATOM     16  C   UNL     1      31.829  11.223  25.879  1.00  0.00     0.000 C 
BRANCH  16  17
ATOM     17  C   UNL     1      30.531  10.880  26.633  1.00  0.00     0.000 C 
BRANCH  17  18
ATOM     18  C   UNL     1      30.605  11.193  28.136  1.00  0.00    -0.000 C 
BRANCH  18  19
ATOM     19  C   UNL     1      29.504  10.484  28.946  1.00  0.00    -0.000 C 
BRANCH  19  20
ATOM     20  C   UNL     1      29.390   8.972  28.653  1.00  0.00    -0.000 C 
BRANCH  20  21
ATOM     21  C   UNL     1      27.935   8.546  28.385  1.00  0.00    -0.000 C 
BRANCH  21  22
ATOM     22  C   UNL     1      27.065   9.696  27.853  1.00  0.00    -0.000 C 
BRANCH  22  23
ATOM     23  C   UNL     1      25.588   9.556  28.260  1.00  0.00    -0.000 C 
BRANCH  23  24
ATOM     24  C   UNL     1      24.640  10.395  27.383  1.00  0.00    -0.000 C 
BRANCH  24  25
ATOM     25  C   UNL     1      24.009   9.640  26.199  1.00  0.00    -0.003 C 
ATOM     26  C   UNL     1      24.323  10.276  24.845  1.00  0.00     0.004 C 
ENDBRANCH  24  25
ENDBRANCH  23  24
ENDBRANCH  22  23
ENDBRANCH  21  22
ENDBRANCH  20  21
ENDBRANCH  19  20
ENDBRANCH  18  19
ENDBRANCH  17  18
ENDBRANCH  16  17
ENDBRANCH  15  16
ENDBRANCH   1  15
TORSDOF 22
ENDMDL
MODEL 2
REMARK VINA RESULT:    -3.412      3.034      5.141
REMARK INTER + INTRA:         -12.184
REMARK INTER:                  -7.510
REMARK INTRA:                  -4.674
REMARK UNBOUND:                -4.384
REMARK SMILES CCCCCCCCCCCCCCCCCCCCCCCC(=O)[O-]
REMARK SMILES IDX 13 1 14 2 15 3 16 4 17 5 18 6 19 7 20 8 21 9 22 10 23 11
REMARK SMILES IDX 24 12 25 13 26 14 12 15 11 16 10 17 9 18 8 19 7 20 6 21 5 22
REMARK SMILES IDX 4 23 3 24 2 25 1 26
REMARK H PARENT
REMARK Flexibility Score: inf
ROOT
ATOM      1  C   UNL     1      25.970  10.710  24.878  1.00  0.00     0.000 C 
ENDROOT
BRANCH   1   2
ATOM      2  C   UNL     1      24.521  10.202  24.839  1.00  0.00     0.000 C 
BRANCH   2   3
ATOM      3  C   UNL     1      24.129   9.648  23.459  1.00  0.00     0.000 C 
BRANCH   3   4
ATOM      4  C   UNL     1      25.341   9.464  22.531  1.00  0.00     0.000 C 
BRANCH   4   5
ATOM      5  C   UNL     1      25.524   8.002  22.082  1.00  0.00     0.000 C 
BRANCH   5   6
ATOM      6  C   UNL     1      24.642   7.028  22.876  1.00  0.00     0.000 C 
BRANCH   6   7
ATOM      7  C   UNL     1      25.412   6.311  23.999  1.00  0.00     0.000 C 
BRANCH   7   8
ATOM      8  C   UNL     1      26.901   6.128  23.660  1.00  0.00     0.000 C 
BRANCH   8   9
ATOM      9  C   UNL     1      27.784   6.048  24.917  1.00  0.00     0.000 C 
BRANCH   9  10
ATOM     10  C   UNL     1      29.053   6.909  24.801  1.00  0.00     0.006 C 
BRANCH  10  11
ATOM     11  C   UNL     1      29.047   7.794  23.549  1.00  0.00     0.053 C 
BRANCH  11  12
ATOM     12  C   UNL     1      30.199   8.749  23.576  1.00  0.00     0.041 C 
ATOM     13  O   UNL     1      31.370   8.335  23.373  1.00  0.00    -0.550 OA
ATOM     14  O   UNL     1      29.974  10.105  23.783  1.00  0.00    -0.550 OA
ENDBRANCH  11  12
ENDBRANCH  10  11
ENDBRANCH   9  10
ENDBRANCH   8   9
ENDBRANCH   7   8
ENDBRANCH   6   7
ENDBRANCH   5   6
ENDBRANCH   4   5
ENDBRANCH   3   4
ENDBRANCH   2   3
ENDBRANCH   1   2
BRANCH   1  15
ATOM     15  C   UNL     1      26.887   9.831  25.747  1.00  0.00     0.000 C 
BRANCH  15  16
ATOM     16  C   UNL     1      26.107   8.900  26.694  1.00  0.00     0.000 C 
BRANCH  16  17
ATOM     17  C   UNL     1      26.712   8.739  28.102  1.00  0.00     0.000 C 
BRANCH  17  18
ATOM     18  C   UNL     1      28.006   7.909  28.112  1.00  0.00    -0.000 C 
BRANCH  18  19
ATOM     19  C   UNL     1      29.236   8.731  28.538  1.00  0.00    -0.000 C 
BRANCH  19  20
ATOM     20  C   UNL     1      30.030   9.325  27.354  1.00  0.00    -0.000 C 
BRANCH  20  21
ATOM     21  C   UNL     1      30.028  10.864  27.374  1.00  0.00    -0.000 C 
BRANCH  21  22
ATOM     22  C   UNL     1      30.233  11.442  28.784  1.00  0.00    -0.000 C 
BRANCH  22  23
ATOM     23  C   UNL     1      28.950  12.066  29.358  1.00  0.00    -0.000 C 
BRANCH  23  24
ATOM     24  C   UNL     1      27.852  12.268  28.298  1.00  0.00    -0.000 C 
BRANCH  24  25
ATOM     25  C   UNL     1      26.565  12.939  28.812  1.00  0.00    -0.003 C 
ATOM     26  C   UNL     1      25.291  12.296  28.263  1.00  0.00     0.004 C 
ENDBRANCH  24  25
ENDBRANCH  23  24
ENDBRANCH  22  23
ENDBRANCH  21  22
ENDBRANCH  20  21
ENDBRANCH  19  20
ENDBRANCH  18  19
ENDBRANCH  17  18
ENDBRANCH  16  17
ENDBRANCH  15  16
ENDBRANCH   1  15
TORSDOF 22
ENDMDL
MODEL 3
REMARK VINA RESULT:    -3.407      2.918      5.382
REMARK INTER + INTRA:         -12.173
REMARK INTER:                  -7.674
REMARK INTRA:                  -4.499
REMARK UNBOUND:                -4.384
REMARK SMILES CCCCCCCCCCCCCCCCCCCCCCCC(=O)[O-]
REMARK SMILES IDX 13 1 14 2 15 3 16 4 17 5 18 6 19 7 20 8 21 9 22 10 23 11
REMARK SMILES IDX 24 12 25 13 26 14 12 15 11 16 10 17 9 18 8 19 7 20 6 21 5 22
REMARK SMILES IDX 4 23 3 24 2 25 1 26
REMARK H PARENT
REMARK Flexibility Score: inf
ROOT
ATOM      1  C   UNL     1      28.259   9.805  24.726  1.00  0.00     0.000 C 
ENDROOT
BRANCH   1   2
ATOM      2  C   UNL     1      26.871  10.301  25.160  1.00  0.00     0.000 C 
BRANCH   2   3
ATOM      3  C   UNL     1      26.401  11.520  24.348  1.00  0.00     0.000 C 
BRANCH   3   4
ATOM      4  C   UNL     1      24.966  11.944  24.697  1.00  0.00     0.000 C 
BRANCH   4   5
ATOM      5  C   UNL     1      24.050  10.742  24.994  1.00  0.00     0.000 C 
BRANCH   5   6
ATOM      6  C   UNL     1      22.914  11.095  25.966  1.00  0.00     0.000 C 
BRANCH   6   7
ATOM      7  C   UNL     1      22.998  10.308  27.286  1.00  0.00     0.000 C 
BRANCH   7   8
ATOM      8  C   UNL     1      23.662  11.121  28.409  1.00  0.00     0.000 C 
BRANCH   8   9
ATOM      9  C   UNL     1      25.195  10.992  28.401  1.00  0.00     0.000 C 
BRANCH   9  10
ATOM     10  C   UNL     1      25.902  12.355  28.485  1.00  0.00     0.006 C 
BRANCH  10  11
ATOM     11  C   UNL     1      27.403  12.255  28.187  1.00  0.00     0.053 C 
BRANCH  11  12
ATOM     12  C   UNL     1      28.191  13.021  29.204  1.00  0.00     0.041 C 
ATOM     13  O   UNL     1      27.993  14.254  29.362  1.00  0.00    -0.550 OA
ATOM     14  O   UNL     1      29.112  12.362  30.009  1.00  0.00    -0.550 OA
ENDBRANCH  11  12
ENDBRANCH  10  11
ENDBRANCH   9  10
ENDBRANCH   8   9
ENDBRANCH   7   8
ENDBRANCH   6   7
ENDBRANCH   5   6
ENDBRANCH   4   5
ENDBRANCH   3   4
ENDBRANCH   2   3
ENDBRANCH   1   2
BRANCH   1  15
ATOM     15  C   UNL     1      29.402  10.682  25.269  1.00  0.00     0.000 C 
BRANCH  15  16
ATOM     16  C   UNL     1      29.944  10.193  26.625  1.00  0.00     0.000 C 
BRANCH  16  17
ATOM     17  C   UNL     1      29.765   8.688  26.900  1.00  0.00     0.000 C 
BRANCH  17  18
ATOM     18  C   UNL     1      29.186   8.393  28.292  1.00  0.00    -0.000 C 
BRANCH  18  19
ATOM     19  C   UNL     1      27.648   8.457  28.322  1.00  0.00    -0.000 C 
BRANCH  19  20
ATOM     20  C   UNL     1      26.962   7.126  27.942  1.00  0.00    -0.000 C 
BRANCH  20  21
ATOM     21  C   UNL     1      25.434   7.280  27.827  1.00  0.00    -0.000 C 
BRANCH  21  22
ATOM     22  C   UNL     1      24.948   7.324  26.370  1.00  0.00    -0.000 C 
BRANCH  22  23
ATOM     23  C   UNL     1      26.020   6.847  25.375  1.00  0.00    -0.000 C 
BRANCH  23  24
ATOM     24  C   UNL     1      25.424   6.284  24.072  1.00  0.00    -0.000 C 
BRANCH  24  25
ATOM     25  C   UNL     1      25.741   7.102  22.806  1.00  0.00    -0.003 C 
ATOM     26  C   UNL     1      24.811   8.301  22.618  1.00  0.00     0.004 C 
ENDBRANCH  24  25
ENDBRANCH  23  24
ENDBRANCH  22  23
ENDBRANCH  21  22
ENDBRANCH  20  21
ENDBRANCH  19  20
ENDBRANCH  18  19
ENDBRANCH  17  18
ENDBRANCH  16  17
ENDBRANCH  15  16
ENDBRANCH   1  15
TORSDOF 22
ENDMDL
MODEL 4
REMARK VINA RESULT:    -3.368      2.137      3.177
REMARK INTER + INTRA:         -12.084
REMARK INTER:                  -7.466
REMARK INTRA:                  -4.618
REMARK UNBOUND:                -4.384
REMARK SMILES CCCCCCCCCCCCCCCCCCCCCCCC(=O)[O-]
REMARK SMILES IDX 13 1 14 2 15 3 16 4 17 5 18 6 19 7 20 8 21 9 22 10 23 11
REMARK SMILES IDX 24 12 25 13 26 14 12 15 11 16 10 17 9 18 8 19 7 20 6 21 5 22
REMARK SMILES IDX 4 23 3 24 2 25 1 26
REMARK H PARENT
REMARK Flexibility Score: inf
ROOT
ATOM      1  C   UNL     1      29.689   8.321  24.748  1.00  0.00     0.000 C 
ENDROOT
BRANCH   1   2
ATOM      2  C   UNL     1      29.665   7.990  23.248  1.00  0.00     0.000 C 
BRANCH   2   3
ATOM      3  C   UNL     1      28.973   9.082  22.416  1.00  0.00     0.000 C 
BRANCH   3   4
ATOM      4  C   UNL     1      28.105  10.017  23.274  1.00  0.00     0.000 C 
BRANCH   4   5
ATOM      5  C   UNL     1      26.628  10.020  22.836  1.00  0.00     0.000 C 
BRANCH   5   6
ATOM      6  C   UNL     1      25.684   9.536  23.948  1.00  0.00     0.000 C 
BRANCH   6   7
ATOM      7  C   UNL     1      24.857   8.308  23.529  1.00  0.00     0.000 C 
BRANCH   7   8
ATOM      8  C   UNL     1      25.732   7.066  23.298  1.00  0.00     0.000 C 
BRANCH   8   9
ATOM      9  C   UNL     1      26.489   6.636  24.567  1.00  0.00     0.000 C 
BRANCH   9  10
ATOM     10  C   UNL     1      26.877   5.148  24.545  1.00  0.00     0.006 C 
BRANCH  10  11
ATOM     11  C   UNL     1      28.312   4.910  25.031  1.00  0.00     0.053 C 
BRANCH  11  12
ATOM     12  C   UNL     1      28.324   3.945  26.176  1.00  0.00     0.041 C 
ATOM     13  O   UNL     1      28.042   4.338  27.338  1.00  0.00    -0.550 OA
ATOM     14  O   UNL     1      28.602   2.603  25.950  1.00  0.00    -0.550 OA
ENDBRANCH  11  12
ENDBRANCH  10  11
ENDBRANCH   9  10
ENDBRANCH   8   9
ENDBRANCH   7   8
ENDBRANCH   6   7
ENDBRANCH   5   6
ENDBRANCH   4   5
ENDBRANCH   3   4
ENDBRANCH   2   3
ENDBRANCH   1   2
BRANCH   1  15
ATOM     15  C   UNL     1      31.092   8.703  25.252  1.00  0.00     0.000 C 
BRANCH  15  16
ATOM     16  C   UNL     1      31.226  10.200  25.584  1.00  0.00     0.000 C 
BRANCH  16  17
ATOM     17  C   UNL     1      30.016  10.824  26.305  1.00  0.00     0.000 C 
BRANCH  17  18
ATOM     18  C   UNL     1      30.202  10.915  27.828  1.00  0.00    -0.000 C 
BRANCH  18  19
ATOM     19  C   UNL     1      29.121  10.143  28.605  1.00  0.00    -0.000 C 
BRANCH  19  20
ATOM     20  C   UNL     1      29.261   8.608  28.508  1.00  0.00    -0.000 C 
BRANCH  20  21
ATOM     21  C   UNL     1      28.021   7.956  27.868  1.00  0.00    -0.000 C 
BRANCH  21  22
ATOM     22  C   UNL     1      26.881   8.958  27.625  1.00  0.00    -0.000 C 
BRANCH  22  23
ATOM     23  C   UNL     1      25.563   8.525  28.292  1.00  0.00    -0.000 C 
BRANCH  23  24
ATOM     24  C   UNL     1      24.474   8.135  27.276  1.00  0.00    -0.000 C 
BRANCH  24  25
ATOM     25  C   UNL     1      24.078   6.647  27.287  1.00  0.00    -0.003 C 
ATOM     26  C   UNL     1      24.909   5.812  28.261  1.00  0.00     0.004 C 
ENDBRANCH  24  25
ENDBRANCH  23  24
ENDBRANCH  22  23
ENDBRANCH  21  22
ENDBRANCH  20  21
ENDBRANCH  19  20
ENDBRANCH  18  19
ENDBRANCH  17  18
ENDBRANCH  16  17
ENDBRANCH  15  16
ENDBRANCH   1  15
TORSDOF 22
ENDMDL
MODEL 5
REMARK VINA RESULT:    -3.356      3.445      6.860
REMARK INTER + INTRA:         -12.057
REMARK INTER:                  -8.709
REMARK INTRA:                  -3.347
REMARK UNBOUND:                -4.384
REMARK SMILES CCCCCCCCCCCCCCCCCCCCCCCC(=O)[O-]
REMARK SMILES IDX 13 1 14 2 15 3 16 4 17 5 18 6 19 7 20 8 21 9 22 10 23 11
REMARK SMILES IDX 24 12 25 13 26 14 12 15 11 16 10 17 9 18 8 19 7 20 6 21 5 22
REMARK SMILES IDX 4 23 3 24 2 25 1 26
REMARK H PARENT
REMARK Flexibility Score: inf
ROOT
ATOM      1  C   UNL     1      25.821   2.888  29.023  1.00  0.00     0.000 C 
ENDROOT
BRANCH   1   2
ATOM      2  C   UNL     1      27.233   3.196  28.501  1.00  0.00     0.000 C 
BRANCH   2   3
ATOM      3  C   UNL     1      27.467   2.651  27.082  1.00  0.00     0.000 C 
BRANCH   3   4
ATOM      4  C   UNL     1      28.022   3.718  26.124  1.00  0.00     0.000 C 
BRANCH   4   5
ATOM      5  C   UNL     1      27.779   5.152  26.631  1.00  0.00     0.000 C 
BRANCH   5   6
ATOM      6  C   UNL     1      27.641   6.166  25.486  1.00  0.00     0.000 C 
BRANCH   6   7
ATOM      7  C   UNL     1      28.001   7.598  25.916  1.00  0.00     0.000 C 
BRANCH   7   8
ATOM      8  C   UNL     1      28.813   7.629  27.221  1.00  0.00     0.000 C 
BRANCH   8   9
ATOM      9  C   UNL     1      28.423   8.810  28.127  1.00  0.00     0.000 C 
BRANCH   9  10
ATOM     10  C   UNL     1      29.614   9.348  28.938  1.00  0.00     0.006 C 
BRANCH  10  11
ATOM     11  C   UNL     1      29.962  10.797  28.576  1.00  0.00     0.053 C 
BRANCH  11  12
ATOM     12  C   UNL     1      30.077  11.632  29.813  1.00  0.00     0.041 C 
ATOM     13  O   UNL     1      30.750  11.222  30.795  1.00  0.00    -0.550 OA
ATOM     14  O   UNL     1      29.479  12.885  29.864  1.00  0.00    -0.550 OA
ENDBRANCH  11  12
ENDBRANCH  10  11
ENDBRANCH   9  10
ENDBRANCH   8   9
ENDBRANCH   7   8
ENDBRANCH   6   7
ENDBRANCH   5   6
ENDBRANCH   4   5
ENDBRANCH   3   4
ENDBRANCH   2   3
ENDBRANCH   1   2
BRANCH   1  15
ATOM     15  C   UNL     1      25.213   4.056  29.822  1.00  0.00     0.000 C 
BRANCH  15  16
ATOM     16  C   UNL     1      24.410   5.033  28.943  1.00  0.00     0.000 C 
BRANCH  16  17
ATOM     17  C   UNL     1      25.088   6.390  28.681  1.00  0.00     0.000 C 
BRANCH  17  18
ATOM     18  C   UNL     1      24.574   7.087  27.411  1.00  0.00    -0.000 C 
BRANCH  18  19
ATOM     19  C   UNL     1      24.696   8.620  27.483  1.00  0.00    -0.000 C 
BRANCH  19  20
ATOM     20  C   UNL     1      24.632   9.316  26.106  1.00  0.00    -0.000 C 
BRANCH  20  21
ATOM     21  C   UNL     1      25.728  10.385  25.950  1.00  0.00    -0.000 C 
BRANCH  21  22
ATOM     22  C   UNL     1      26.076  10.672  24.480  1.00  0.00    -0.000 C 
BRANCH  22  23
ATOM     23  C   UNL     1      25.096  10.003  23.501  1.00  0.00    -0.000 C 
BRANCH  23  24
ATOM     24  C   UNL     1      25.612   8.657  22.958  1.00  0.00    -0.000 C 
BRANCH  24  25
ATOM     25  C   UNL     1      24.527   7.588  22.731  1.00  0.00    -0.003 C 
ATOM     26  C   UNL     1      24.804   6.285  23.481  1.00  0.00     0.004 C 
ENDBRANCH  24  25
ENDBRANCH  23  24
ENDBRANCH  22  23
ENDBRANCH  21  22
ENDBRANCH  20  21
ENDBRANCH  19  20
ENDBRANCH  18  19
ENDBRANCH  17  18
ENDBRANCH  16  17
ENDBRANCH  15  16
ENDBRANCH   1  15
TORSDOF 22
ENDMDL
MODEL 6
REMARK VINA RESULT:    -3.350      3.082      6.619
REMARK INTER + INTRA:         -12.043
REMARK INTER:                  -8.318
REMARK INTRA:                  -3.725
REMARK UNBOUND:                -4.384
REMARK SMILES CCCCCCCCCCCCCCCCCCCCCCCC(=O)[O-]
REMARK SMILES IDX 13 1 14 2 15 3 16 4 17 5 18 6 19 7 20 8 21 9 22 10 23 11
REMARK SMILES IDX 24 12 25 13 26 14 12 15 11 16 10 17 9 18 8 19 7 20 6 21 5 22
REMARK SMILES IDX 4 23 3 24 2 25 1 26
REMARK H PARENT
REMARK Flexibility Score: inf
ROOT
ATOM      1  C   UNL     1      25.526   8.842  23.290  1.00  0.00     0.000 C 
ENDROOT
BRANCH   1   2
ATOM      2  C   UNL     1      24.501   9.842  23.847  1.00  0.00     0.000 C 
BRANCH   2   3
ATOM      3  C   UNL     1      24.292   9.689  25.362  1.00  0.00     0.000 C 
BRANCH   3   4
ATOM      4  C   UNL     1      25.599   9.837  26.157  1.00  0.00     0.000 C 
BRANCH   4   5
ATOM      5  C   UNL     1      25.645  11.137  26.982  1.00  0.00     0.000 C 
BRANCH   5   6
ATOM      6  C   UNL     1      26.713  11.096  28.085  1.00  0.00     0.000 C 
BRANCH   6   7
ATOM      7  C   UNL     1      28.093  10.665  27.557  1.00  0.00     0.000 C 
BRANCH   7   8
ATOM      8  C   UNL     1      28.707   9.527  28.389  1.00  0.00     0.000 C 
BRANCH   8   9
ATOM      9  C   UNL     1      29.269   8.395  27.511  1.00  0.00     0.000 C 
BRANCH   9  10
ATOM     10  C   UNL     1      29.457   8.825  26.046  1.00  0.00     0.006 C 
BRANCH  10  11
ATOM     11  C   UNL     1      30.935   8.896  25.643  1.00  0.00     0.053 C 
BRANCH  11  12
ATOM     12  C   UNL     1      31.350  10.318  25.426  1.00  0.00     0.041 C 
ATOM     13  O   UNL     1      31.495  10.765  24.259  1.00  0.00    -0.550 OA
ATOM     14  O   UNL     1      31.533  11.163  26.515  1.00  0.00    -0.550 OA
ENDBRANCH  11  12
ENDBRANCH  10  11
ENDBRANCH   9  10
ENDBRANCH   8   9
ENDBRANCH   7   8
ENDBRANCH   6   7
ENDBRANCH   5   6
ENDBRANCH   4   5
ENDBRANCH   3   4
ENDBRANCH   2   3
ENDBRANCH   1   2
BRANCH   1  15
ATOM     15  C   UNL     1      24.878   7.538  22.793  1.00  0.00     0.000 C 
BRANCH  15  16
ATOM     16  C   UNL     1      24.937   6.402  23.831  1.00  0.00     0.000 C 
BRANCH  16  17
ATOM     17  C   UNL     1      26.352   5.916  24.193  1.00  0.00     0.000 C 
BRANCH  17  18
ATOM     18  C   UNL     1      26.785   6.320  25.611  1.00  0.00    -0.000 C 
BRANCH  18  19
ATOM     19  C   UNL     1      25.611   6.350  26.605  1.00  0.00    -0.000 C 
BRANCH  19  20
ATOM     20  C   UNL     1      26.014   6.777  28.034  1.00  0.00    -0.000 C 
BRANCH  20  21
ATOM     21  C   UNL     1      24.937   6.407  29.070  1.00  0.00    -0.000 C 
BRANCH  21  22
ATOM     22  C   UNL     1      24.685   4.893  29.153  1.00  0.00    -0.000 C 
BRANCH  22  23
ATOM     23  C   UNL     1      25.932   4.112  29.603  1.00  0.00    -0.000 C 
BRANCH  23  24
ATOM     24  C   UNL     1      26.423   3.103  28.549  1.00  0.00    -0.000 C 
BRANCH  24  25
ATOM     25  C   UNL     1      27.703   3.516  27.799  1.00  0.00    -0.003 C 
ATOM     26  C   UNL     1      27.853   2.825  26.443  1.00  0.00     0.004 C 
ENDBRANCH  24  25
ENDBRANCH  23  24
ENDBRANCH  22  23
ENDBRANCH  21  22
ENDBRANCH  20  21
ENDBRANCH  19  20
ENDBRANCH  18  19
ENDBRANCH  17  18
ENDBRANCH  16  17
ENDBRANCH  15  16
ENDBRANCH   1  15
TORSDOF 22
ENDMDL
MODEL 7
REMARK VINA RESULT:    -3.338      2.668      5.973
REMARK INTER + INTRA:         -12.016
REMARK INTER:                  -7.325
REMARK INTRA:                  -4.691
REMARK UNBOUND:                -4.384
REMARK SMILES CCCCCCCCCCCCCCCCCCCCCCCC(=O)[O-]
REMARK SMILES IDX 13 1 14 2 15 3 16 4 17 5 18 6 19 7 20 8 21 9 22 10 23 11
REMARK SMILES IDX 24 12 25 13 26 14 12 15 11 16 10 17 9 18 8 19 7 20 6 21 5 22
REMARK SMILES IDX 4 23 3 24 2 25 1 26
REMARK H PARENT
REMARK Flexibility Score: inf
ROOT
ATOM      1  C   UNL     1      29.456   8.912  28.952  1.00  0.00     0.000 C 
ENDROOT
BRANCH   1   2
ATOM      2  C   UNL     1      29.890  10.375  29.132  1.00  0.00     0.000 C 
BRANCH   2   3
ATOM      3  C   UNL     1      29.162  11.328  28.170  1.00  0.00     0.000 C 
BRANCH   3   4
ATOM      4  C   UNL     1      28.158  12.242  28.891  1.00  0.00     0.000 C 
BRANCH   4   5
ATOM      5  C   UNL     1      26.723  12.081  28.356  1.00  0.00     0.000 C 
BRANCH   5   6
ATOM      6  C   UNL     1      26.554  10.820  27.495  1.00  0.00     0.000 C 
BRANCH   6   7
ATOM      7  C   UNL     1      25.727   9.729  28.198  1.00  0.00     0.000 C 
BRANCH   7   8
ATOM      8  C   UNL     1      24.676   9.102  27.267  1.00  0.00     0.000 C 
BRANCH   8   9
ATOM      9  C   UNL     1      24.922   9.446  25.787  1.00  0.00     0.000 C 
BRANCH   9  10
ATOM     10  C   UNL     1      23.752  10.223  25.161  1.00  0.00     0.006 C 
BRANCH  10  11
ATOM     11  C   UNL     1      22.669  10.576  26.188  1.00  0.00     0.053 C 
BRANCH  11  12
ATOM     12  C   UNL     1      22.584  12.059  26.370  1.00  0.00     0.041 C 
ATOM     13  O   UNL     1      21.609  12.701  25.899  1.00  0.00    -0.550 OA
ATOM     14  O   UNL     1      23.559  12.727  27.102  1.00  0.00    -0.550 OA
ENDBRANCH  11  12
ENDBRANCH  10  11
ENDBRANCH   9  10
ENDBRANCH   8   9
ENDBRANCH   7   8
ENDBRANCH   6   7
ENDBRANCH   5   6
ENDBRANCH   4   5
ENDBRANCH   3   4
ENDBRANCH   2   3
ENDBRANCH   1   2
BRANCH   1  15
ATOM     15  C   UNL     1      29.395   8.486  27.475  1.00  0.00     0.000 C 
BRANCH  15  16
ATOM     16  C   UNL     1      28.345   7.392  27.206  1.00  0.00     0.000 C 
BRANCH  16  17
ATOM     17  C   UNL     1      27.793   7.350  25.769  1.00  0.00     0.000 C 
BRANCH  17  18
ATOM     18  C   UNL     1      26.752   6.240  25.554  1.00  0.00    -0.000 C 
BRANCH  18  19
ATOM     19  C   UNL     1      26.410   6.025  24.068  1.00  0.00    -0.000 C 
BRANCH  19  20
ATOM     20  C   UNL     1      24.919   6.245  23.734  1.00  0.00    -0.000 C 
BRANCH  20  21
ATOM     21  C   UNL     1      24.721   7.366  22.697  1.00  0.00    -0.000 C 
BRANCH  21  22
ATOM     22  C   UNL     1      26.045   7.860  22.093  1.00  0.00    -0.000 C 
BRANCH  22  23
ATOM     23  C   UNL     1      26.280   9.361  22.334  1.00  0.00    -0.000 C 
BRANCH  23  24
ATOM     24  C   UNL     1      27.721   9.683  22.770  1.00  0.00    -0.000 C 
BRANCH  24  25
ATOM     25  C   UNL     1      27.839  10.620  23.987  1.00  0.00    -0.003 C 
ATOM     26  C   UNL     1      29.269  10.735  24.518  1.00  0.00     0.004 C 
ENDBRANCH  24  25
ENDBRANCH  23  24
ENDBRANCH  22  23
ENDBRANCH  21  22
ENDBRANCH  20  21
ENDBRANCH  19  20
ENDBRANCH  18  19
ENDBRANCH  17  18
ENDBRANCH  16  17
ENDBRANCH  15  16
ENDBRANCH   1  15
TORSDOF 22
ENDMDL
MODEL 8
REMARK VINA RESULT:    -3.322      2.754      6.140
REMARK INTER + INTRA:         -11.978
REMARK INTER:                  -7.595
REMARK INTRA:                  -4.383
REMARK UNBOUND:                -4.384
REMARK SMILES CCCCCCCCCCCCCCCCCCCCCCCC(=O)[O-]
REMARK SMILES IDX 13 1 14 2 15 3 16 4 17 5 18 6 19 7 20 8 21 9 22 10 23 11
REMARK SMILES IDX 24 12 25 13 26 14 12 15 11 16 10 17 9 18 8 19 7 20 6 21 5 22
REMARK SMILES IDX 4 23 3 24 2 25 1 26
REMARK H PARENT
REMARK Flexibility Score: inf
ROOT
ATOM      1  C   UNL     1      25.317   5.875  27.687  1.00  0.00     0.000 C 
ENDROOT
BRANCH   1   2
ATOM      2  C   UNL     1      26.569   6.595  28.210  1.00  0.00     0.000 C 
BRANCH   2   3
ATOM      3  C   UNL     1      27.762   6.474  27.248  1.00  0.00     0.000 C 
BRANCH   3   4
ATOM      4  C   UNL     1      28.180   7.828  26.651  1.00  0.00     0.000 C 
BRANCH   4   5
ATOM      5  C   UNL     1      29.484   7.738  25.837  1.00  0.00     0.000 C 
BRANCH   5   6
ATOM      6  C   UNL     1      29.405   8.513  24.513  1.00  0.00     0.000 C 
BRANCH   6   7
ATOM      7  C   UNL     1      30.032   9.915  24.610  1.00  0.00     0.000 C 
BRANCH   7   8
ATOM      8  C   UNL     1      31.137   9.988  25.676  1.00  0.00     0.000 C 
BRANCH   8   9
ATOM      9  C   UNL     1      31.009  11.234  26.569  1.00  0.00     0.000 C 
BRANCH   9  10
ATOM     10  C   UNL     1      29.820  11.143  27.541  1.00  0.00     0.006 C 
BRANCH  10  11
ATOM     11  C   UNL     1      30.165  10.362  28.815  1.00  0.00     0.053 C 
BRANCH  11  12
ATOM     12  C   UNL     1      30.243  11.285  29.991  1.00  0.00     0.041 C 
ATOM     13  O   UNL     1      30.543  10.838  31.129  1.00  0.00    -0.550 OA
ATOM     14  O   UNL     1      30.029  12.647  29.820  1.00  0.00    -0.550 OA
ENDBRANCH  11  12
ENDBRANCH  10  11
ENDBRANCH   9  10
ENDBRANCH   8   9
ENDBRANCH   7   8
ENDBRANCH   6   7
ENDBRANCH   5   6
ENDBRANCH   4   5
ENDBRANCH   3   4
ENDBRANCH   2   3
ENDBRANCH   1   2
BRANCH   1  15
ATOM     15  C   UNL     1      24.108   6.815  27.536  1.00  0.00     0.000 C 
BRANCH  15  16
ATOM     16  C   UNL     1      24.453   8.127  26.807  1.00  0.00     0.000 C 
BRANCH  16  17
ATOM     17  C   UNL     1      24.269   9.410  27.640  1.00  0.00     0.000 C 
BRANCH  17  18
ATOM     18  C   UNL     1      25.547  10.258  27.732  1.00  0.00    -0.000 C 
BRANCH  18  19
ATOM     19  C   UNL     1      25.661  11.288  26.593  1.00  0.00    -0.000 C 
BRANCH  19  20
ATOM     20  C   UNL     1      26.757  10.954  25.558  1.00  0.00    -0.000 C 
BRANCH  20  21
ATOM     21  C   UNL     1      26.238  11.067  24.114  1.00  0.00    -0.000 C 
BRANCH  21  22
ATOM     22  C   UNL     1      25.210   9.980  23.763  1.00  0.00    -0.000 C 
BRANCH  22  23
ATOM     23  C   UNL     1      25.869   8.637  23.405  1.00  0.00    -0.000 C 
BRANCH  23  24
ATOM     24  C   UNL     1      24.862   7.588  22.897  1.00  0.00    -0.000 C 
BRANCH  24  25
ATOM     25  C   UNL     1      24.885   6.246  23.652  1.00  0.00    -0.003 C 
ATOM     26  C   UNL     1      26.296   5.790  24.022  1.00  0.00     0.004 C 
ENDBRANCH  24  25
ENDBRANCH  23  24
ENDBRANCH  22  23
ENDBRANCH  21  22
ENDBRANCH  20  21
ENDBRANCH  19  20
ENDBRANCH  18  19
ENDBRANCH  17  18
ENDBRANCH  16  17
ENDBRANCH  15  16
ENDBRANCH   1  15
TORSDOF 22
ENDMDL
MODEL 9
REMARK VINA RESULT:    -3.314      2.936      6.090
REMARK INTER + INTRA:         -11.960
REMARK INTER:                  -8.094
REMARK INTRA:                  -3.867
REMARK UNBOUND:                -4.384
REMARK SMILES CCCCCCCCCCCCCCCCCCCCCCCC(=O)[O-]
REMARK SMILES IDX 13 1 14 2 15 3 16 4 17 5 18 6 19 7 20 8 21 9 22 10 23 11
REMARK SMILES IDX 24 12 25 13 26 14 12 15 11 16 10 17 9 18 8 19 7 20 6 21 5 22
REMARK SMILES IDX 4 23 3 24 2 25 1 26
REMARK H PARENT
REMARK Flexibility Score: inf
ROOT
ATOM      1  C   UNL     1      27.624   4.274  25.660  1.00  0.00     0.000 C 
ENDROOT
BRANCH   1   2
ATOM      2  C   UNL     1      27.654   2.906  24.961  1.00  0.00     0.000 C 
BRANCH   2   3
ATOM      3  C   UNL     1      29.083   2.443  24.635  1.00  0.00     0.000 C 
BRANCH   3   4
ATOM      4  C   UNL     1      29.783   3.358  23.616  1.00  0.00     0.000 C 
BRANCH   4   5
ATOM      5  C   UNL     1      30.970   4.124  24.228  1.00  0.00     0.000 C 
BRANCH   5   6
ATOM      6  C   UNL     1      30.961   5.615  23.859  1.00  0.00     0.000 C 
BRANCH   6   7
ATOM      7  C   UNL     1      29.735   6.009  23.016  1.00  0.00     0.000 C 
BRANCH   7   8
ATOM      8  C   UNL     1      28.777   6.939  23.778  1.00  0.00     0.000 C 
BRANCH   8   9
ATOM      9  C   UNL     1      29.523   7.962  24.653  1.00  0.00     0.000 C 
BRANCH   9  10
ATOM     10  C   UNL     1      28.705   8.392  25.882  1.00  0.00     0.006 C 
BRANCH  10  11
ATOM     11  C   UNL     1      29.472   8.188  27.195  1.00  0.00     0.053 C 
BRANCH  11  12
ATOM     12  C   UNL     1      29.098   9.243  28.189  1.00  0.00     0.041 C 
ATOM     13  O   UNL     1      28.095   9.976  27.988  1.00  0.00    -0.550 OA
ATOM     14  O   UNL     1      29.833   9.386  29.360  1.00  0.00    -0.550 OA
ENDBRANCH  11  12
ENDBRANCH  10  11
ENDBRANCH   9  10
ENDBRANCH   8   9
ENDBRANCH   7   8
ENDBRANCH   6   7
ENDBRANCH   5   6
ENDBRANCH   4   5
ENDBRANCH   3   4
ENDBRANCH   2   3
ENDBRANCH   1   2
BRANCH   1  15
ATOM     15  C   UNL     1      27.918   4.180  27.168  1.00  0.00     0.000 C 
BRANCH  15  16
ATOM     16  C   UNL     1      27.315   2.922  27.821  1.00  0.00     0.000 C 
BRANCH  16  17
ATOM     17  C   UNL     1      26.959   3.063  29.313  1.00  0.00     0.000 C 
BRANCH  17  18
ATOM     18  C   UNL     1      25.445   3.050  29.577  1.00  0.00    -0.000 C 
BRANCH  18  19
ATOM     19  C   UNL     1      24.906   4.424  30.015  1.00  0.00    -0.000 C 
BRANCH  19  20
ATOM     20  C   UNL     1      24.587   5.372  28.839  1.00  0.00    -0.000 C 
BRANCH  20  21
ATOM     21  C   UNL     1      25.288   6.734  28.991  1.00  0.00    -0.000 C 
BRANCH  21  22
ATOM     22  C   UNL     1      25.544   7.427  27.643  1.00  0.00    -0.000 C 
BRANCH  22  23
ATOM     23  C   UNL     1      25.044   6.596  26.448  1.00  0.00    -0.000 C 
BRANCH  23  24
ATOM     24  C   UNL     1      25.253   7.301  25.095  1.00  0.00    -0.000 C 
BRANCH  24  25
ATOM     25  C   UNL     1      25.005   6.419  23.857  1.00  0.00    -0.003 C 
ATOM     26  C   UNL     1      24.944   7.218  22.555  1.00  0.00     0.004 C 
ENDBRANCH  24  25
ENDBRANCH  23  24
ENDBRANCH  22  23
ENDBRANCH  21  22
ENDBRANCH  20  21
ENDBRANCH  19  20
ENDBRANCH  18  19
ENDBRANCH  17  18
ENDBRANCH  16  17
ENDBRANCH  15  16
ENDBRANCH   1  15
TORSDOF 22
ENDMDL
