MODEL 1
REMARK VINA RESULT:    -4.070      0.000      0.000
REMARK INTER + INTRA:          -6.967
REMARK INTER:                  -6.450
REMARK INTRA:                  -0.517
REMARK UNBOUND:                -0.517
REMARK SMILES CCCCCCCCCCCC(=O)[O-]
REMARK SMILES IDX 7 1 8 2 9 3 10 4 11 5 12 6 13 7 14 8 6 9 5 10 4 11 3 12 2 13
REMARK SMILES IDX 1 14
REMARK H PARENT
REMARK Flexibility Score: inf
ROOT
ATOM      1  C   UNL     1     -31.134 -21.142 -33.539  1.00  0.00     0.000 C 
ENDROOT
BRANCH   1   2
ATOM      2  C   UNL     1     -29.645 -20.776 -33.524  1.00  0.00     0.000 C 
BRANCH   2   3
ATOM      3  C   UNL     1     -29.433 -19.353 -32.989  1.00  0.00     0.000 C 
BRANCH   3   4
ATOM      4  C   UNL     1     -30.594 -18.875 -32.102  1.00  0.00     0.006 C 
BRANCH   4   5
ATOM      5  C   UNL     1     -30.236 -18.875 -30.610  1.00  0.00     0.053 C 
BRANCH   5   6
ATOM      6  C   UNL     1     -31.184 -19.746 -29.846  1.00  0.00     0.041 C 
ATOM      7  O   UNL     1     -30.930 -20.968 -29.683  1.00  0.00    -0.550 OA
ATOM      8  O   UNL     1     -32.325 -19.197 -29.274  1.00  0.00    -0.550 OA
ENDBRANCH   5   6
ENDBRANCH   4   5
ENDBRANCH   3   4
ENDBRANCH   2   3
ENDBRANCH   1   2
BRANCH   1   9
ATOM      9  C   UNL     1     -31.603 -21.489 -34.960  1.00  0.00     0.000 C 
BRANCH   9  10
ATOM     10  C   UNL     1     -32.597 -22.665 -34.993  1.00  0.00    -0.000 C 
BRANCH  10  11
ATOM     11  C   UNL     1     -32.841 -23.271 -36.387  1.00  0.00    -0.000 C 
BRANCH  11  12
ATOM     12  C   UNL     1     -31.569 -23.556 -37.209  1.00  0.00    -0.000 C 
BRANCH  12  13
ATOM     13  C   UNL     1     -31.845 -24.239 -38.565  1.00  0.00    -0.003 C 
ATOM     14  C   UNL     1     -32.371 -25.666 -38.411  1.00  0.00     0.004 C 
ENDBRANCH  12  13
ENDBRANCH  11  12
ENDBRANCH  10  11
ENDBRANCH   9  10
ENDBRANCH   1   9
TORSDOF 10
ENDMDL
MODEL 2
REMARK VINA RESULT:    -3.996      0.823      1.669
REMARK INTER + INTRA:          -6.849
REMARK INTER:                  -6.220
REMARK INTRA:                  -0.629
REMARK UNBOUND:                -0.517
REMARK SMILES CCCCCCCCCCCC(=O)[O-]
REMARK SMILES IDX 7 1 8 2 9 3 10 4 11 5 12 6 13 7 14 8 6 9 5 10 4 11 3 12 2 13
REMARK SMILES IDX 1 14
REMARK H PARENT
REMARK Flexibility Score: inf
ROOT
ATOM      1  C   UNL     1     -31.498 -22.162 -35.066  1.00  0.00     0.000 C 
ENDROOT
BRANCH   1   2
ATOM      2  C   UNL     1     -31.409 -21.206 -33.870  1.00  0.00     0.000 C 
BRANCH   2   3
ATOM      3  C   UNL     1     -29.956 -20.783 -33.610  1.00  0.00     0.000 C 
BRANCH   3   4
ATOM      4  C   UNL     1     -29.788 -20.023 -32.285  1.00  0.00     0.006 C 
BRANCH   4   5
ATOM      5  C   UNL     1     -31.114 -19.464 -31.752  1.00  0.00     0.053 C 
BRANCH   5   6
ATOM      6  C   UNL     1     -31.259 -19.765 -30.294  1.00  0.00     0.041 C 
ATOM      7  O   UNL     1     -31.856 -18.957 -29.536  1.00  0.00    -0.550 OA
ATOM      8  O   UNL     1     -30.776 -20.963 -29.780  1.00  0.00    -0.550 OA
ENDBRANCH   5   6
ENDBRANCH   4   5
ENDBRANCH   3   4
ENDBRANCH   2   3
ENDBRANCH   1   2
BRANCH   1   9
ATOM      9  C   UNL     1     -32.954 -22.561 -35.345  1.00  0.00     0.000 C 
BRANCH   9  10
ATOM     10  C   UNL     1     -33.393 -22.254 -36.790  1.00  0.00    -0.000 C 
BRANCH  10  11
ATOM     11  C   UNL     1     -32.241 -22.067 -37.794  1.00  0.00    -0.000 C 
BRANCH  11  12
ATOM     12  C   UNL     1     -31.987 -23.265 -38.729  1.00  0.00    -0.000 C 
BRANCH  12  13
ATOM     13  C   UNL     1     -31.512 -24.537 -37.995  1.00  0.00    -0.003 C 
ATOM     14  C   UNL     1     -32.334 -25.772 -38.362  1.00  0.00     0.004 C 
ENDBRANCH  12  13
ENDBRANCH  11  12
ENDBRANCH  10  11
ENDBRANCH   9  10
ENDBRANCH   1   9
TORSDOF 10
ENDMDL
MODEL 3
REMARK VINA RESULT:    -3.988      0.772      1.207
REMARK INTER + INTRA:          -6.836
REMARK INTER:                  -6.224
REMARK INTRA:                  -0.612
REMARK UNBOUND:                -0.517
REMARK SMILES CCCCCCCCCCCC(=O)[O-]
REMARK SMILES IDX 7 1 8 2 9 3 10 4 11 5 12 6 13 7 14 8 6 9 5 10 4 11 3 12 2 13
REMARK SMILES IDX 1 14
REMARK H PARENT
REMARK Flexibility Score: inf
ROOT
ATOM      1  C   UNL     1     -31.299 -20.999 -33.569  1.00  0.00     0.000 C 
ENDROOT
BRANCH   1   2
ATOM      2  C   UNL     1     -29.817 -20.750 -33.875  1.00  0.00     0.000 C 
BRANCH   2   3
ATOM      3  C   UNL     1     -29.246 -19.647 -32.973  1.00  0.00     0.000 C 
BRANCH   3   4
ATOM      4  C   UNL     1     -30.338 -18.902 -32.187  1.00  0.00     0.006 C 
BRANCH   4   5
ATOM      5  C   UNL     1     -30.065 -18.876 -30.677  1.00  0.00     0.053 C 
BRANCH   5   6
ATOM      6  C   UNL     1     -31.058 -19.730 -29.954  1.00  0.00     0.041 C 
ATOM      7  O   UNL     1     -32.166 -19.251 -29.599  1.00  0.00    -0.550 OA
ATOM      8  O   UNL     1     -30.777 -21.070 -29.713  1.00  0.00    -0.550 OA
ENDBRANCH   5   6
ENDBRANCH   4   5
ENDBRANCH   3   4
ENDBRANCH   2   3
ENDBRANCH   1   2
BRANCH   1   9
ATOM      9  C   UNL     1     -31.877 -22.083 -34.491  1.00  0.00     0.000 C 
BRANCH   9  10
ATOM     10  C   UNL     1     -33.028 -21.566 -35.376  1.00  0.00    -0.000 C 
BRANCH  10  11
ATOM     11  C   UNL     1     -33.204 -22.310 -36.712  1.00  0.00    -0.000 C 
BRANCH  11  12
ATOM     12  C   UNL     1     -32.098 -22.056 -37.754  1.00  0.00    -0.000 C 
BRANCH  12  13
ATOM     13  C   UNL     1     -31.877 -23.235 -38.725  1.00  0.00    -0.003 C 
ATOM     14  C   UNL     1     -31.530 -24.537 -38.005  1.00  0.00     0.004 C 
ENDBRANCH  12  13
ENDBRANCH  11  12
ENDBRANCH  10  11
ENDBRANCH   9  10
ENDBRANCH   1   9
TORSDOF 10
ENDMDL
MODEL 4
REMARK VINA RESULT:    -3.953      3.726      7.195
REMARK INTER + INTRA:          -6.781
REMARK INTER:                  -5.938
REMARK INTRA:                  -0.843
REMARK UNBOUND:                -0.517
REMARK SMILES CCCCCCCCCCCC(=O)[O-]
REMARK SMILES IDX 7 1 8 2 9 3 10 4 11 5 12 6 13 7 14 8 6 9 5 10 4 11 3 12 2 13
REMARK SMILES IDX 1 14
REMARK H PARENT
REMARK Flexibility Score: inf
ROOT
ATOM      1  C   UNL     1     -29.809 -20.665 -33.817  1.00  0.00     0.000 C 
ENDROOT
BRANCH   1   2
ATOM      2  C   UNL     1     -31.143 -21.261 -33.352  1.00  0.00     0.000 C 
BRANCH   2   3
ATOM      3  C   UNL     1     -32.119 -21.410 -34.529  1.00  0.00     0.000 C 
BRANCH   3   4
ATOM      4  C   UNL     1     -31.503 -22.169 -35.715  1.00  0.00     0.006 C 
BRANCH   4   5
ATOM      5  C   UNL     1     -32.354 -23.367 -36.156  1.00  0.00     0.053 C 
BRANCH   5   6
ATOM      6  C   UNL     1     -32.065 -23.715 -37.583  1.00  0.00     0.041 C 
ATOM      7  O   UNL     1     -31.537 -24.820 -37.871  1.00  0.00    -0.550 OA
ATOM      8  O   UNL     1     -32.425 -22.837 -38.599  1.00  0.00    -0.550 OA
ENDBRANCH   5   6
ENDBRANCH   4   5
ENDBRANCH   3   4
ENDBRANCH   2   3
ENDBRANCH   1   2
BRANCH   1   9
ATOM      9  C   UNL     1     -29.601 -19.258 -33.237  1.00  0.00     0.000 C 
BRANCH   9  10
ATOM     10  C   UNL     1     -28.506 -19.211 -32.155  1.00  0.00    -0.000 C 
BRANCH  10  11
ATOM     11  C   UNL     1     -29.015 -19.340 -30.708  1.00  0.00    -0.000 C 
BRANCH  11  12
ATOM     12  C   UNL     1     -30.468 -18.879 -30.483  1.00  0.00    -0.000 C 
BRANCH  12  13
ATOM     13  C   UNL     1     -31.412 -20.007 -30.014  1.00  0.00    -0.003 C 
ATOM     14  C   UNL     1     -30.678 -21.321 -29.751  1.00  0.00     0.004 C 
ENDBRANCH  12  13
ENDBRANCH  11  12
ENDBRANCH  10  11
ENDBRANCH   9  10
ENDBRANCH   1   9
TORSDOF 10
ENDMDL
MODEL 5
REMARK VINA RESULT:    -3.949      0.853      1.662
REMARK INTER + INTRA:          -6.774
REMARK INTER:                  -6.182
REMARK INTRA:                  -0.592
REMARK UNBOUND:                -0.517
REMARK SMILES CCCCCCCCCCCC(=O)[O-]
REMARK SMILES IDX 7 1 8 2 9 3 10 4 11 5 12 6 13 7 14 8 6 9 5 10 4 11 3 12 2 13
REMARK SMILES IDX 1 14
REMARK H PARENT
REMARK Flexibility Score: inf
ROOT
ATOM      1  C   UNL     1     -29.900 -20.378 -33.833  1.00  0.00     0.000 C 
ENDROOT
BRANCH   1   2
ATOM      2  C   UNL     1     -29.616 -19.030 -33.158  1.00  0.00     0.000 C 
BRANCH   2   3
ATOM      3  C   UNL     1     -28.495 -19.162 -32.117  1.00  0.00     0.000 C 
BRANCH   3   4
ATOM      4  C   UNL     1     -29.017 -19.096 -30.673  1.00  0.00     0.006 C 
BRANCH   4   5
ATOM      5  C   UNL     1     -30.533 -18.875 -30.602  1.00  0.00     0.053 C 
BRANCH   5   6
ATOM      6  C   UNL     1     -31.180 -19.950 -29.786  1.00  0.00     0.041 C 
ATOM      7  O   UNL     1     -32.144 -19.675 -29.026  1.00  0.00    -0.550 OA
ATOM      8  O   UNL     1     -30.747 -21.266 -29.902  1.00  0.00    -0.550 OA
ENDBRANCH   5   6
ENDBRANCH   4   5
ENDBRANCH   3   4
ENDBRANCH   2   3
ENDBRANCH   1   2
BRANCH   1   9
ATOM      9  C   UNL     1     -31.342 -20.836 -33.565  1.00  0.00     0.000 C 
BRANCH   9  10
ATOM     10  C   UNL     1     -31.745 -22.067 -34.398  1.00  0.00    -0.000 C 
BRANCH  10  11
ATOM     11  C   UNL     1     -32.923 -21.842 -35.363  1.00  0.00    -0.000 C 
BRANCH  11  12
ATOM     12  C   UNL     1     -32.679 -22.302 -36.812  1.00  0.00    -0.000 C 
BRANCH  12  13
ATOM     13  C   UNL     1     -32.656 -23.835 -36.983  1.00  0.00    -0.003 C 
ATOM     14  C   UNL     1     -31.492 -24.315 -37.849  1.00  0.00     0.004 C 
ENDBRANCH  12  13
ENDBRANCH  11  12
ENDBRANCH  10  11
ENDBRANCH   9  10
ENDBRANCH   1   9
TORSDOF 10
ENDMDL
MODEL 6
REMARK VINA RESULT:    -3.918      3.986      7.521
REMARK INTER + INTRA:          -6.726
REMARK INTER:                  -6.028
REMARK INTRA:                  -0.698
REMARK UNBOUND:                -0.517
REMARK SMILES CCCCCCCCCCCC(=O)[O-]
REMARK SMILES IDX 7 1 8 2 9 3 10 4 11 5 12 6 13 7 14 8 6 9 5 10 4 11 3 12 2 13
REMARK SMILES IDX 1 14
REMARK H PARENT
REMARK Flexibility Score: inf
ROOT
ATOM      1  C   UNL     1     -31.254 -21.174 -33.383  1.00  0.00     0.000 C 
ENDROOT
BRANCH   1   2
ATOM      2  C   UNL     1     -31.992 -21.969 -34.468  1.00  0.00     0.000 C 
BRANCH   2   3
ATOM      3  C   UNL     1     -31.194 -21.980 -35.780  1.00  0.00     0.000 C 
BRANCH   3   4
ATOM      4  C   UNL     1     -32.070 -22.303 -37.002  1.00  0.00     0.006 C 
BRANCH   4   5
ATOM      5  C   UNL     1     -32.574 -23.752 -37.001  1.00  0.00     0.053 C 
BRANCH   5   6
ATOM      6  C   UNL     1     -32.041 -24.489 -38.190  1.00  0.00     0.041 C 
ATOM      7  O   UNL     1     -31.399 -23.875 -39.081  1.00  0.00    -0.550 OA
ATOM      8  O   UNL     1     -32.214 -25.865 -38.289  1.00  0.00    -0.550 OA
ENDBRANCH   5   6
ENDBRANCH   4   5
ENDBRANCH   3   4
ENDBRANCH   2   3
ENDBRANCH   1   2
BRANCH   1   9
ATOM      9  C   UNL     1     -29.878 -20.707 -33.881  1.00  0.00     0.000 C 
BRANCH   9  10
ATOM     10  C   UNL     1     -29.136 -19.828 -32.857  1.00  0.00    -0.000 C 
BRANCH  10  11
ATOM     11  C   UNL     1     -30.039 -18.906 -32.016  1.00  0.00    -0.000 C 
BRANCH  11  12
ATOM     12  C   UNL     1     -30.054 -19.207 -30.506  1.00  0.00    -0.000 C 
BRANCH  12  13
ATOM     13  C   UNL     1     -31.460 -19.510 -29.946  1.00  0.00    -0.003 C 
ATOM     14  C   UNL     1     -32.576 -18.879 -30.779  1.00  0.00     0.004 C 
ENDBRANCH  12  13
ENDBRANCH  11  12
ENDBRANCH  10  11
ENDBRANCH   9  10
ENDBRANCH   1   9
TORSDOF 10
ENDMDL
MODEL 7
REMARK VINA RESULT:    -3.847      1.268      2.384
REMARK INTER + INTRA:          -6.614
REMARK INTER:                  -6.289
REMARK INTRA:                  -0.324
REMARK UNBOUND:                -0.517
REMARK SMILES CCCCCCCCCCCC(=O)[O-]
REMARK SMILES IDX 7 1 8 2 9 3 10 4 11 5 12 6 13 7 14 8 6 9 5 10 4 11 3 12 2 13
REMARK SMILES IDX 1 14
REMARK H PARENT
REMARK Flexibility Score: inf
ROOT
ATOM      1  C   UNL     1     -32.666 -21.931 -35.595  1.00  0.00     0.000 C 
ENDROOT
BRANCH   1   2
ATOM      2  C   UNL     1     -31.967 -22.106 -34.241  1.00  0.00     0.000 C 
BRANCH   2   3
ATOM      3  C   UNL     1     -30.741 -21.188 -34.132  1.00  0.00     0.000 C 
BRANCH   3   4
ATOM      4  C   UNL     1     -30.849 -20.194 -32.964  1.00  0.00     0.006 C 
BRANCH   4   5
ATOM      5  C   UNL     1     -30.725 -20.874 -31.595  1.00  0.00     0.053 C 
BRANCH   5   6
ATOM      6  C   UNL     1     -30.707 -19.851 -30.503  1.00  0.00     0.041 C 
ATOM      7  O   UNL     1     -31.779 -19.506 -29.941  1.00  0.00    -0.550 OA
ATOM      8  O   UNL     1     -29.500 -19.312 -30.074  1.00  0.00    -0.550 OA
ENDBRANCH   5   6
ENDBRANCH   4   5
ENDBRANCH   3   4
ENDBRANCH   2   3
ENDBRANCH   1   2
BRANCH   1   9
ATOM      9  C   UNL     1     -32.536 -23.199 -36.450  1.00  0.00     0.000 C 
BRANCH   9  10
ATOM     10  C   UNL     1     -32.334 -22.895 -37.947  1.00  0.00    -0.000 C 
BRANCH  10  11
ATOM     11  C   UNL     1     -31.885 -24.095 -38.800  1.00  0.00    -0.000 C 
BRANCH  11  12
ATOM     12  C   UNL     1     -32.083 -25.474 -38.144  1.00  0.00    -0.000 C 
BRANCH  12  13
ATOM     13  C   UNL     1     -32.562 -26.566 -39.124  1.00  0.00    -0.003 C 
ATOM     14  C   UNL     1     -33.413 -27.638 -38.444  1.00  0.00     0.004 C 
ENDBRANCH  12  13
ENDBRANCH  11  12
ENDBRANCH  10  11
ENDBRANCH   9  10
ENDBRANCH   1   9
TORSDOF 10
ENDMDL
MODEL 8
REMARK VINA RESULT:    -3.746      2.045      2.761
REMARK INTER + INTRA:          -6.453
REMARK INTER:                  -5.726
REMARK INTRA:                  -0.726
REMARK UNBOUND:                -0.517
REMARK SMILES CCCCCCCCCCCC(=O)[O-]
REMARK SMILES IDX 7 1 8 2 9 3 10 4 11 5 12 6 13 7 14 8 6 9 5 10 4 11 3 12 2 13
REMARK SMILES IDX 1 14
REMARK H PARENT
REMARK Flexibility Score: inf
ROOT
ATOM      1  C   UNL     1     -32.537 -22.370 -35.049  1.00  0.00     0.000 C 
ENDROOT
BRANCH   1   2
ATOM      2  C   UNL     1     -31.397 -21.696 -34.274  1.00  0.00     0.000 C 
BRANCH   2   3
ATOM      3  C   UNL     1     -31.889 -20.425 -33.567  1.00  0.00     0.000 C 
BRANCH   3   4
ATOM      4  C   UNL     1     -31.121 -20.136 -32.267  1.00  0.00     0.006 C 
BRANCH   4   5
ATOM      5  C   UNL     1     -29.654 -20.581 -32.336  1.00  0.00     0.053 C 
BRANCH   5   6
ATOM      6  C   UNL     1     -28.750 -19.391 -32.401  1.00  0.00     0.041 C 
ATOM      7  O   UNL     1     -28.302 -18.877 -31.344  1.00  0.00    -0.550 OA
ATOM      8  O   UNL     1     -28.364 -18.878 -33.634  1.00  0.00    -0.550 OA
ENDBRANCH   5   6
ENDBRANCH   4   5
ENDBRANCH   3   4
ENDBRANCH   2   3
ENDBRANCH   1   2
BRANCH   1   9
ATOM      9  C   UNL     1     -33.362 -21.335 -35.827  1.00  0.00     0.000 C 
BRANCH   9  10
ATOM     10  C   UNL     1     -33.463 -21.656 -37.330  1.00  0.00    -0.000 C 
BRANCH  10  11
ATOM     11  C   UNL     1     -32.121 -21.949 -38.024  1.00  0.00    -0.000 C 
BRANCH  11  12
ATOM     12  C   UNL     1     -32.063 -23.275 -38.805  1.00  0.00    -0.000 C 
BRANCH  12  13
ATOM     13  C   UNL     1     -31.607 -24.479 -37.953  1.00  0.00    -0.003 C 
ATOM     14  C   UNL     1     -32.250 -25.793 -38.396  1.00  0.00     0.004 C 
ENDBRANCH  12  13
ENDBRANCH  11  12
ENDBRANCH  10  11
ENDBRANCH   9  10
ENDBRANCH   1   9
TORSDOF 10
ENDMDL
MODEL 9
REMARK VINA RESULT:    -3.380      3.755      7.572
REMARK INTER + INTRA:          -5.873
REMARK INTER:                  -5.515
REMARK INTRA:                  -0.358
REMARK UNBOUND:                -0.517
REMARK SMILES CCCCCCCCCCCC(=O)[O-]
REMARK SMILES IDX 7 1 8 2 9 3 10 4 11 5 12 6 13 7 14 8 6 9 5 10 4 11 3 12 2 13
REMARK SMILES IDX 1 14
REMARK H PARENT
REMARK Flexibility Score: inf
ROOT
ATOM      1  C   UNL     1     -31.874 -22.165 -34.736  1.00  0.00     0.000 C 
ENDROOT
BRANCH   1   2
ATOM      2  C   UNL     1     -33.170 -21.878 -35.505  1.00  0.00     0.000 C 
BRANCH   2   3
ATOM      3  C   UNL     1     -33.218 -22.672 -36.818  1.00  0.00     0.000 C 
BRANCH   3   4
ATOM      4  C   UNL     1     -32.397 -22.014 -37.939  1.00  0.00     0.006 C 
BRANCH   4   5
ATOM      5  C   UNL     1     -32.138 -22.962 -39.117  1.00  0.00     0.053 C 
BRANCH   5   6
ATOM      6  C   UNL     1     -31.848 -24.343 -38.621  1.00  0.00     0.041 C 
ATOM      7  O   UNL     1     -32.438 -25.334 -39.125  1.00  0.00    -0.550 OA
ATOM      8  O   UNL     1     -30.891 -24.540 -37.633  1.00  0.00    -0.550 OA
ENDBRANCH   5   6
ENDBRANCH   4   5
ENDBRANCH   3   4
ENDBRANCH   2   3
ENDBRANCH   1   2
BRANCH   1   9
ATOM      9  C   UNL     1     -31.513 -20.996 -33.808  1.00  0.00     0.000 C 
BRANCH   9  10
ATOM     10  C   UNL     1     -29.994 -20.764 -33.701  1.00  0.00    -0.000 C 
BRANCH  10  11
ATOM     11  C   UNL     1     -29.583 -19.357 -33.230  1.00  0.00    -0.000 C 
BRANCH  11  12
ATOM     12  C   UNL     1     -29.165 -19.258 -31.750  1.00  0.00    -0.000 C 
BRANCH  12  13
ATOM     13  C   UNL     1     -30.351 -19.067 -30.781  1.00  0.00    -0.003 C 
ATOM     14  C   UNL     1     -30.779 -20.370 -30.107  1.00  0.00     0.004 C 
ENDBRANCH  12  13
ENDBRANCH  11  12
ENDBRANCH  10  11
ENDBRANCH   9  10
ENDBRANCH   1   9
TORSDOF 10
ENDMDL
