MODEL 1
REMARK VINA RESULT:    -6.660      0.000      0.000
REMARK INTER + INTRA:          -9.770
REMARK INTER:                  -8.801
REMARK INTRA:                  -0.969
REMARK UNBOUND:                -0.969
REMARK SMILES CC[C@H](C=C[C@@H](C)[C@@H]1CC[C@H]2C3=CC[C@@H]4C[C@H](O)CC[C@@]4(C)[C@H]3CC[C@]21C)C(C)C
REMARK SMILES IDX 6 1 7 2 5 3 4 4 3 5 2 6 1 7 28 8 29 9 30 10 8 11 9 12 26 13
REMARK SMILES IDX 10 14 11 15 25 16 27 17 12 18 24 19 23 20 13 21 21 22 14 23
REMARK SMILES IDX 15 24 20 25 22 26 16 27 19 28 17 29 18 30
REMARK H PARENT 18 31
REMARK Flexibility Score: inf
ROOT
ATOM      1  C   UNL     1      42.717  11.143 113.419  1.00  0.00     0.012 C 
ATOM      2  C   UNL     1      42.951   9.929 112.491  1.00  0.00     0.012 C 
ENDROOT
BRANCH   1   3
ATOM      3  C   UNL     1      42.967  10.666 114.837  1.00  0.00    -0.028 C 
ATOM      4  C   UNL     1      44.027   9.895 115.139  1.00  0.00    -0.027 C 
BRANCH   4   5
ATOM      5  C   UNL     1      44.361   9.473 116.558  1.00  0.00     0.014 C 
BRANCH   5   6
ATOM      6  C   UNL     1      43.464  10.255 117.563  1.00  0.00     0.004 C 
ATOM      7  C   UNL     1      43.296   9.517 118.895  1.00  0.00     0.004 C 
ENDBRANCH   5   6
BRANCH   5   8
ATOM      8  C   UNL     1      44.298   7.923 116.750  1.00  0.00    -0.011 C 
ATOM      9  C   UNL     1      43.360   7.273 115.715  1.00  0.00     0.008 C 
ATOM     10  C   UNL     1      45.686   7.273 116.630  1.00  0.00     0.008 C 
ENDBRANCH   5   8
ENDBRANCH   4   5
ENDBRANCH   1   3
BRANCH   1  11
ATOM     11  C   UNL     1      41.269  11.748 113.269  1.00  0.00     0.002 C 
ATOM     12  C   UNL     1      40.545  11.235 112.004  1.00  0.00     0.005 C 
ATOM     13  C   UNL     1      41.169  13.304 113.069  1.00  0.00    -0.023 C 
ATOM     14  C   UNL     1      40.865  12.219 110.878  1.00  0.00     0.009 C 
ATOM     15  C   UNL     1      41.430  13.474 111.551  1.00  0.00     0.021 C 
ATOM     16  C   UNL     1      39.726  13.789 113.509  1.00  0.00     0.008 C 
ATOM     17  C   UNL     1      42.214  14.138 113.851  1.00  0.00     0.012 C 
ATOM     18  C   UNL     1      40.890  14.764 110.953  1.00  0.00    -0.067 C 
ATOM     19  C   UNL     1      38.884  14.448 112.404  1.00  0.00     0.009 C 
ATOM     20  C   UNL     1      39.709  15.476 111.610  1.00  0.00     0.021 C 
ATOM     21  C   UNL     1      41.525  15.308 109.889  1.00  0.00    -0.027 C 
ATOM     22  C   UNL     1      38.874  16.447 110.644  1.00  0.00    -0.023 C 
ATOM     23  C   UNL     1      40.983  16.523 109.192  1.00  0.00     0.031 C 
ATOM     24  C   UNL     1      39.455  16.414 109.191  1.00  0.00     0.002 C 
ATOM     25  C   UNL     1      37.365  16.059 110.501  1.00  0.00     0.010 C 
ATOM     26  C   UNL     1      38.955  17.870 111.277  1.00  0.00     0.012 C 
ATOM     27  C   UNL     1      38.773  17.415 108.242  1.00  0.00     0.036 C 
ATOM     28  C   UNL     1      36.591  16.968 109.520  1.00  0.00     0.032 C 
ATOM     29  C   UNL     1      37.268  17.101 108.140  1.00  0.00     0.114 C 
BRANCH  29  30
ATOM     30  O   UNL     1      36.634  18.123 107.423  1.00  0.00    -0.393 OA
ATOM     31  H   UNL     1      37.344  18.668 106.991  1.00  0.00     0.210 HD
ENDBRANCH  29  30
ENDBRANCH   1  11
TORSDOF 6
ENDMDL
MODEL 2
REMARK VINA RESULT:    -6.572      2.187      3.790
REMARK INTER + INTRA:          -9.654
REMARK INTER:                  -8.584
REMARK INTRA:                  -1.071
REMARK UNBOUND:                -0.969
REMARK SMILES CC[C@H](C=C[C@@H](C)[C@@H]1CC[C@H]2C3=CC[C@@H]4C[C@H](O)CC[C@@]4(C)[C@H]3CC[C@]21C)C(C)C
REMARK SMILES IDX 6 1 7 2 5 3 4 4 3 5 2 6 1 7 28 8 29 9 30 10 8 11 9 12 26 13
REMARK SMILES IDX 10 14 11 15 25 16 27 17 12 18 24 19 23 20 13 21 21 22 14 23
REMARK SMILES IDX 15 24 20 25 22 26 16 27 19 28 17 29 18 30
REMARK H PARENT 18 31
REMARK Flexibility Score: inf
ROOT
ATOM      1  C   UNL     1      41.630  13.113 113.956  1.00  0.00     0.012 C 
ATOM      2  C   UNL     1      41.881  14.394 114.784  1.00  0.00     0.012 C 
ENDROOT
BRANCH   1   3
ATOM      3  C   UNL     1      42.217  11.958 114.745  1.00  0.00    -0.028 C 
ATOM      4  C   UNL     1      42.633  10.834 114.134  1.00  0.00    -0.027 C 
BRANCH   4   5
ATOM      5  C   UNL     1      43.308   9.695 114.876  1.00  0.00     0.014 C 
BRANCH   5   6
ATOM      6  C   UNL     1      44.082   8.797 113.866  1.00  0.00     0.004 C 
ATOM      7  C   UNL     1      43.773   7.307 114.050  1.00  0.00     0.004 C 
ENDBRANCH   5   6
BRANCH   5   8
ATOM      8  C   UNL     1      44.196  10.197 116.062  1.00  0.00    -0.011 C 
ATOM      9  C   UNL     1      43.628   9.731 117.416  1.00  0.00     0.008 C 
ATOM     10  C   UNL     1      45.646   9.702 115.942  1.00  0.00     0.008 C 
ENDBRANCH   5   8
ENDBRANCH   4   5
ENDBRANCH   1   3
BRANCH   1  11
ATOM     11  C   UNL     1      42.260  13.193 112.512  1.00  0.00     0.002 C 
ATOM     12  C   UNL     1      42.805  14.602 112.185  1.00  0.00     0.005 C 
ATOM     13  C   UNL     1      41.287  12.952 111.301  1.00  0.00    -0.023 C 
ATOM     14  C   UNL     1      41.665  15.377 111.524  1.00  0.00     0.009 C 
ATOM     15  C   UNL     1      40.615  14.337 111.118  1.00  0.00     0.021 C 
ATOM     16  C   UNL     1      42.134  12.502 110.040  1.00  0.00     0.008 C 
ATOM     17  C   UNL     1      40.185  11.891 111.541  1.00  0.00     0.012 C 
ATOM     18  C   UNL     1      40.035  14.585 109.734  1.00  0.00    -0.067 C 
ATOM     19  C   UNL     1      42.054  13.435 108.821  1.00  0.00     0.009 C 
ATOM     20  C   UNL     1      40.600  13.843 108.524  1.00  0.00     0.021 C 
ATOM     21  C   UNL     1      38.964  15.402 109.611  1.00  0.00    -0.027 C 
ATOM     22  C   UNL     1      40.349  14.555 107.109  1.00  0.00    -0.023 C 
ATOM     23  C   UNL     1      38.409  15.766 108.263  1.00  0.00     0.031 C 
ATOM     24  C   UNL     1      39.590  15.910 107.299  1.00  0.00     0.002 C 
ATOM     25  C   UNL     1      41.660  14.914 106.335  1.00  0.00     0.010 C 
ATOM     26  C   UNL     1      39.534  13.542 106.247  1.00  0.00     0.012 C 
ATOM     27  C   UNL     1      39.213  16.587 105.969  1.00  0.00     0.036 C 
ATOM     28  C   UNL     1      41.400  15.653 105.002  1.00  0.00     0.032 C 
ATOM     29  C   UNL     1      40.484  16.885 105.151  1.00  0.00     0.114 C 
BRANCH  29  30
ATOM     30  O   UNL     1      40.115  17.329 103.876  1.00  0.00    -0.393 OA
ATOM     31  H   UNL     1      40.500  18.237 103.754  1.00  0.00     0.210 HD
ENDBRANCH  29  30
ENDBRANCH   1  11
TORSDOF 6
ENDMDL
MODEL 3
REMARK VINA RESULT:    -6.562      0.877      1.652
REMARK INTER + INTRA:          -9.641
REMARK INTER:                  -8.640
REMARK INTRA:                  -1.002
REMARK UNBOUND:                -0.969
REMARK SMILES CC[C@H](C=C[C@@H](C)[C@@H]1CC[C@H]2C3=CC[C@@H]4C[C@H](O)CC[C@@]4(C)[C@H]3CC[C@]21C)C(C)C
REMARK SMILES IDX 6 1 7 2 5 3 4 4 3 5 2 6 1 7 28 8 29 9 30 10 8 11 9 12 26 13
REMARK SMILES IDX 10 14 11 15 25 16 27 17 12 18 24 19 23 20 13 21 21 22 14 23
REMARK SMILES IDX 15 24 20 25 22 26 16 27 19 28 17 29 18 30
REMARK H PARENT 18 31
REMARK Flexibility Score: inf
ROOT
ATOM      1  C   UNL     1      42.973  10.786 113.894  1.00  0.00     0.012 C 
ATOM      2  C   UNL     1      43.370   9.596 112.991  1.00  0.00     0.012 C 
ENDROOT
BRANCH   1   3
ATOM      3  C   UNL     1      43.001  10.280 115.324  1.00  0.00    -0.028 C 
ATOM      4  C   UNL     1      43.711   9.189 115.665  1.00  0.00    -0.027 C 
BRANCH   4   5
ATOM      5  C   UNL     1      43.838   8.704 117.097  1.00  0.00     0.014 C 
BRANCH   5   6
ATOM      6  C   UNL     1      44.869   7.539 117.167  1.00  0.00     0.004 C 
ATOM      7  C   UNL     1      45.518   7.248 115.809  1.00  0.00     0.004 C 
ENDBRANCH   5   6
BRANCH   5   8
ATOM      8  C   UNL     1      44.151   9.866 118.096  1.00  0.00    -0.011 C 
ATOM      9  C   UNL     1      43.028  10.015 119.142  1.00  0.00     0.008 C 
ATOM     10  C   UNL     1      45.481   9.645 118.834  1.00  0.00     0.008 C 
ENDBRANCH   5   8
ENDBRANCH   4   5
ENDBRANCH   1   3
BRANCH   1  11
ATOM     11  C   UNL     1      41.557  11.377 113.528  1.00  0.00     0.002 C 
ATOM     12  C   UNL     1      41.089  10.953 112.118  1.00  0.00     0.005 C 
ATOM     13  C   UNL     1      41.448  12.942 113.429  1.00  0.00    -0.023 C 
ATOM     14  C   UNL     1      41.577  12.026 111.145  1.00  0.00     0.009 C 
ATOM     15  C   UNL     1      41.974  13.235 112.001  1.00  0.00     0.021 C 
ATOM     16  C   UNL     1      39.935  13.368 113.633  1.00  0.00     0.008 C 
ATOM     17  C   UNL     1      42.309  13.729 114.447  1.00  0.00     0.012 C 
ATOM     18  C   UNL     1      41.511  14.559 111.411  1.00  0.00    -0.067 C 
ATOM     19  C   UNL     1      39.287  14.097 112.446  1.00  0.00     0.009 C 
ATOM     20  C   UNL     1      40.210  15.197 111.893  1.00  0.00     0.021 C 
ATOM     21  C   UNL     1      42.310  15.194 110.523  1.00  0.00    -0.027 C 
ATOM     22  C   UNL     1      39.534  16.226 110.866  1.00  0.00    -0.023 C 
ATOM     23  C   UNL     1      41.866  16.451 109.831  1.00  0.00     0.031 C 
ATOM     24  C   UNL     1      40.368  16.317 109.544  1.00  0.00     0.002 C 
ATOM     25  C   UNL     1      38.088  15.826 110.421  1.00  0.00     0.010 C 
ATOM     26  C   UNL     1      39.456  17.597 111.606  1.00  0.00     0.012 C 
ATOM     27  C   UNL     1      39.838  17.378 108.563  1.00  0.00     0.036 C 
ATOM     28  C   UNL     1      37.476  16.797 109.386  1.00  0.00     0.032 C 
ATOM     29  C   UNL     1      38.386  17.048 108.165  1.00  0.00     0.114 C 
BRANCH  29  30
ATOM     30  O   UNL     1      37.862  18.113 107.423  1.00  0.00    -0.393 OA
ATOM     31  H   UNL     1      37.097  18.486 107.937  1.00  0.00     0.210 HD
ENDBRANCH  29  30
ENDBRANCH   1  11
TORSDOF 6
ENDMDL
MODEL 4
REMARK VINA RESULT:    -6.422      7.512     10.346
REMARK INTER + INTRA:          -9.456
REMARK INTER:                  -9.267
REMARK INTRA:                  -0.189
REMARK UNBOUND:                -0.969
REMARK SMILES CC[C@H](C=C[C@@H](C)[C@@H]1CC[C@H]2C3=CC[C@@H]4C[C@H](O)CC[C@@]4(C)[C@H]3CC[C@]21C)C(C)C
REMARK SMILES IDX 6 1 7 2 5 3 4 4 3 5 2 6 1 7 28 8 29 9 30 10 8 11 9 12 26 13
REMARK SMILES IDX 10 14 11 15 25 16 27 17 12 18 24 19 23 20 13 21 21 22 14 23
REMARK SMILES IDX 15 24 20 25 22 26 16 27 19 28 17 29 18 30
REMARK H PARENT 18 31
REMARK Flexibility Score: inf
ROOT
ATOM      1  C   UNL     1      44.570   7.533 114.058  1.00  0.00     0.012 C 
ATOM      2  C   UNL     1      44.492   5.999 113.881  1.00  0.00     0.012 C 
ENDROOT
BRANCH   1   3
ATOM      3  C   UNL     1      46.040   7.885 114.185  1.00  0.00    -0.028 C 
ATOM      4  C   UNL     1      46.993   7.119 113.626  1.00  0.00    -0.027 C 
BRANCH   4   5
ATOM      5  C   UNL     1      48.465   7.486 113.653  1.00  0.00     0.014 C 
BRANCH   5   6
ATOM      6  C   UNL     1      49.074   7.110 115.036  1.00  0.00     0.004 C 
ATOM      7  C   UNL     1      49.088   8.292 116.011  1.00  0.00     0.004 C 
ENDBRANCH   5   6
BRANCH   5   8
ATOM      8  C   UNL     1      49.254   6.881 112.446  1.00  0.00    -0.011 C 
ATOM      9  C   UNL     1      50.718   6.590 112.830  1.00  0.00     0.008 C 
ATOM     10  C   UNL     1      48.614   5.579 111.937  1.00  0.00     0.008 C 
ENDBRANCH   5   8
ENDBRANCH   4   5
ENDBRANCH   1   3
BRANCH   1  11
ATOM     11  C   UNL     1      43.754   8.039 115.309  1.00  0.00     0.002 C 
ATOM     12  C   UNL     1      43.476   9.558 115.255  1.00  0.00     0.005 C 
ATOM     13  C   UNL     1      44.453   7.906 116.711  1.00  0.00    -0.023 C 
ATOM     14  C   UNL     1      44.636  10.249 115.971  1.00  0.00     0.009 C 
ATOM     15  C   UNL     1      45.366   9.157 116.761  1.00  0.00     0.021 C 
ATOM     16  C   UNL     1      43.343   7.901 117.842  1.00  0.00     0.008 C 
ATOM     17  C   UNL     1      45.329   6.642 116.894  1.00  0.00     0.012 C 
ATOM     18  C   UNL     1      45.762   9.600 118.162  1.00  0.00    -0.067 C 
ATOM     19  C   UNL     1      43.428   9.051 118.858  1.00  0.00     0.009 C 
ATOM     20  C   UNL     1      44.871   9.255 119.354  1.00  0.00     0.021 C 
ATOM     21  C   UNL     1      46.949  10.224 118.339  1.00  0.00    -0.027 C 
ATOM     22  C   UNL     1      45.043  10.206 120.632  1.00  0.00    -0.023 C 
ATOM     23  C   UNL     1      47.351  10.774 119.677  1.00  0.00     0.031 C 
ATOM     24  C   UNL     1      46.092  11.333 120.347  1.00  0.00     0.002 C 
ATOM     25  C   UNL     1      43.733  10.951 121.054  1.00  0.00     0.010 C 
ATOM     26  C   UNL     1      45.481   9.283 121.811  1.00  0.00     0.012 C 
ATOM     27  C   UNL     1      46.392  12.210 121.575  1.00  0.00     0.036 C 
ATOM     28  C   UNL     1      43.933  11.910 122.250  1.00  0.00     0.032 C 
ATOM     29  C   UNL     1      45.101  12.899 122.057  1.00  0.00     0.114 C 
BRANCH  29  30
ATOM     30  O   UNL     1      45.353  13.542 123.275  1.00  0.00    -0.393 OA
ATOM     31  H   UNL     1      45.333  12.850 123.987  1.00  0.00     0.210 HD
ENDBRANCH  29  30
ENDBRANCH   1  11
TORSDOF 6
ENDMDL
MODEL 5
REMARK VINA RESULT:    -6.383      1.471      2.889
REMARK INTER + INTRA:          -9.404
REMARK INTER:                  -8.392
REMARK INTRA:                  -1.012
REMARK UNBOUND:                -0.969
REMARK SMILES CC[C@H](C=C[C@@H](C)[C@@H]1CC[C@H]2C3=CC[C@@H]4C[C@H](O)CC[C@@]4(C)[C@H]3CC[C@]21C)C(C)C
REMARK SMILES IDX 6 1 7 2 5 3 4 4 3 5 2 6 1 7 28 8 29 9 30 10 8 11 9 12 26 13
REMARK SMILES IDX 10 14 11 15 25 16 27 17 12 18 24 19 23 20 13 21 21 22 14 23
REMARK SMILES IDX 15 24 20 25 22 26 16 27 19 28 17 29 18 30
REMARK H PARENT 18 31
REMARK Flexibility Score: inf
ROOT
ATOM      1  C   UNL     1      41.941  11.746 114.282  1.00  0.00     0.012 C 
ATOM      2  C   UNL     1      42.267  12.583 115.541  1.00  0.00     0.012 C 
ENDROOT
BRANCH   1   3
ATOM      3  C   UNL     1      42.911  10.581 114.267  1.00  0.00    -0.028 C 
ATOM      4  C   UNL     1      43.543  10.182 115.386  1.00  0.00    -0.027 C 
BRANCH   4   5
ATOM      5  C   UNL     1      44.450   8.967 115.431  1.00  0.00     0.014 C 
BRANCH   5   6
ATOM      6  C   UNL     1      44.164   8.147 116.724  1.00  0.00     0.004 C 
ATOM      7  C   UNL     1      43.648   9.022 117.871  1.00  0.00     0.004 C 
ENDBRANCH   5   6
BRANCH   5   8
ATOM      8  C   UNL     1      44.367   8.110 114.126  1.00  0.00    -0.011 C 
ATOM      9  C   UNL     1      45.774   7.774 113.593  1.00  0.00     0.008 C 
ATOM     10  C   UNL     1      43.601   6.797 114.349  1.00  0.00     0.008 C 
ENDBRANCH   5   8
ENDBRANCH   4   5
ENDBRANCH   1   3
BRANCH   1  11
ATOM     11  C   UNL     1      42.043  12.589 112.953  1.00  0.00     0.002 C 
ATOM     12  C   UNL     1      41.955  14.110 113.212  1.00  0.00     0.005 C 
ATOM     13  C   UNL     1      40.892  12.391 111.900  1.00  0.00    -0.023 C 
ATOM     14  C   UNL     1      40.478  14.493 113.117  1.00  0.00     0.009 C 
ATOM     15  C   UNL     1      39.771  13.316 112.437  1.00  0.00     0.021 C 
ATOM     16  C   UNL     1      41.422  12.823 110.470  1.00  0.00     0.008 C 
ATOM     17  C   UNL     1      40.339  10.949 111.791  1.00  0.00     0.012 C 
ATOM     18  C   UNL     1      38.754  13.756 111.394  1.00  0.00    -0.067 C 
ATOM     19  C   UNL     1      40.670  13.989 109.810  1.00  0.00     0.009 C 
ATOM     20  C   UNL     1      39.145  13.805 109.918  1.00  0.00     0.021 C 
ATOM     21  C   UNL     1      37.486  14.016 111.786  1.00  0.00    -0.027 C 
ATOM     22  C   UNL     1      38.257  14.782 109.009  1.00  0.00    -0.023 C 
ATOM     23  C   UNL     1      36.464  14.549 110.823  1.00  0.00     0.031 C 
ATOM     24  C   UNL     1      37.179  15.516 109.875  1.00  0.00     0.002 C 
ATOM     25  C   UNL     1      39.073  15.917 108.307  1.00  0.00     0.010 C 
ATOM     26  C   UNL     1      37.613  13.889 107.905  1.00  0.00     0.012 C 
ATOM     27  C   UNL     1      36.215  16.380 109.042  1.00  0.00     0.036 C 
ATOM     28  C   UNL     1      38.192  16.884 107.484  1.00  0.00     0.032 C 
ATOM     29  C   UNL     1      37.004  17.462 108.280  1.00  0.00     0.114 C 
BRANCH  29  30
ATOM     30  O   UNL     1      36.141  18.117 107.393  1.00  0.00    -0.393 OA
ATOM     31  H   UNL     1      36.519  18.011 106.479  1.00  0.00     0.210 HD
ENDBRANCH  29  30
ENDBRANCH   1  11
TORSDOF 6
ENDMDL
MODEL 6
REMARK VINA RESULT:    -6.252      7.801     10.965
REMARK INTER + INTRA:          -9.231
REMARK INTER:                  -9.117
REMARK INTRA:                  -0.114
REMARK UNBOUND:                -0.969
REMARK SMILES CC[C@H](C=C[C@@H](C)[C@@H]1CC[C@H]2C3=CC[C@@H]4C[C@H](O)CC[C@@]4(C)[C@H]3CC[C@]21C)C(C)C
REMARK SMILES IDX 6 1 7 2 5 3 4 4 3 5 2 6 1 7 28 8 29 9 30 10 8 11 9 12 26 13
REMARK SMILES IDX 10 14 11 15 25 16 27 17 12 18 24 19 23 20 13 21 21 22 14 23
REMARK SMILES IDX 15 24 20 25 22 26 16 27 19 28 17 29 18 30
REMARK H PARENT 18 31
REMARK Flexibility Score: inf
ROOT
ATOM      1  C   UNL     1      43.372   9.029 116.685  1.00  0.00     0.012 C 
ATOM      2  C   UNL     1      44.165  10.309 116.333  1.00  0.00     0.012 C 
ENDROOT
BRANCH   1   3
ATOM      3  C   UNL     1      43.428   8.880 118.194  1.00  0.00    -0.028 C 
ATOM      4  C   UNL     1      43.899   9.867 118.976  1.00  0.00    -0.027 C 
BRANCH   4   5
ATOM      5  C   UNL     1      43.888   9.792 120.492  1.00  0.00     0.014 C 
BRANCH   5   6
ATOM      6  C   UNL     1      45.339   9.956 121.036  1.00  0.00     0.004 C 
ATOM      7  C   UNL     1      46.357  10.219 119.921  1.00  0.00     0.004 C 
ENDBRANCH   5   6
BRANCH   5   8
ATOM      8  C   UNL     1      42.873  10.794 121.133  1.00  0.00    -0.011 C 
ATOM      9  C   UNL     1      42.761  12.082 120.294  1.00  0.00     0.008 C 
ATOM     10  C   UNL     1      41.471  10.178 121.274  1.00  0.00     0.008 C 
ENDBRANCH   5   8
ENDBRANCH   4   5
ENDBRANCH   1   3
BRANCH   1  11
ATOM     11  C   UNL     1      43.942   7.747 115.965  1.00  0.00     0.002 C 
ATOM     12  C   UNL     1      44.910   6.948 116.867  1.00  0.00     0.005 C 
ATOM     13  C   UNL     1      44.836   7.988 114.695  1.00  0.00    -0.023 C 
ATOM     14  C   UNL     1      46.315   7.488 116.601  1.00  0.00     0.009 C 
ATOM     15  C   UNL     1      46.226   8.301 115.305  1.00  0.00     0.021 C 
ATOM     16  C   UNL     1      44.830   6.677 113.804  1.00  0.00     0.008 C 
ATOM     17  C   UNL     1      44.405   9.177 113.801  1.00  0.00     0.012 C 
ATOM     18  C   UNL     1      47.401   8.060 114.369  1.00  0.00    -0.067 C 
ATOM     19  C   UNL     1      46.200   6.013 113.596  1.00  0.00     0.009 C 
ATOM     20  C   UNL     1      47.276   7.051 113.229  1.00  0.00     0.021 C 
ATOM     21  C   UNL     1      48.516   8.812 114.513  1.00  0.00    -0.027 C 
ATOM     22  C   UNL     1      48.664   6.458 112.688  1.00  0.00    -0.023 C 
ATOM     23  C   UNL     1      49.745   8.554 113.688  1.00  0.00     0.031 C 
ATOM     24  C   UNL     1      49.868   7.039 113.501  1.00  0.00     0.002 C 
ATOM     25  C   UNL     1      48.785   4.903 112.812  1.00  0.00     0.010 C 
ATOM     26  C   UNL     1      48.741   6.835 111.176  1.00  0.00     0.012 C 
ATOM     27  C   UNL     1      51.239   6.602 112.953  1.00  0.00     0.036 C 
ATOM     28  C   UNL     1      50.152   4.358 112.342  1.00  0.00     0.032 C 
ATOM     29  C   UNL     1      51.356   5.066 112.996  1.00  0.00     0.114 C 
BRANCH  29  30
ATOM     30  O   UNL     1      52.525   4.678 112.330  1.00  0.00    -0.393 OA
ATOM     31  H   UNL     1      52.287   4.523 111.378  1.00  0.00     0.210 HD
ENDBRANCH  29  30
ENDBRANCH   1  11
TORSDOF 6
ENDMDL
MODEL 7
REMARK VINA RESULT:    -6.238      2.346      3.615
REMARK INTER + INTRA:          -9.212
REMARK INTER:                  -8.054
REMARK INTRA:                  -1.158
REMARK UNBOUND:                -0.969
REMARK SMILES CC[C@H](C=C[C@@H](C)[C@@H]1CC[C@H]2C3=CC[C@@H]4C[C@H](O)CC[C@@]4(C)[C@H]3CC[C@]21C)C(C)C
REMARK SMILES IDX 6 1 7 2 5 3 4 4 3 5 2 6 1 7 28 8 29 9 30 10 8 11 9 12 26 13
REMARK SMILES IDX 10 14 11 15 25 16 27 17 12 18 24 19 23 20 13 21 21 22 14 23
REMARK SMILES IDX 15 24 20 25 22 26 16 27 19 28 17 29 18 30
REMARK H PARENT 18 31
REMARK Flexibility Score: inf
ROOT
ATOM      1  C   UNL     1      41.952  12.147 114.304  1.00  0.00     0.012 C 
ATOM      2  C   UNL     1      41.783  13.381 115.220  1.00  0.00     0.012 C 
ENDROOT
BRANCH   1   3
ATOM      3  C   UNL     1      42.859  11.177 115.037  1.00  0.00    -0.028 C 
ATOM      4  C   UNL     1      43.278  10.038 114.457  1.00  0.00    -0.027 C 
BRANCH   4   5
ATOM      5  C   UNL     1      44.257   9.087 115.122  1.00  0.00     0.014 C 
BRANCH   5   6
ATOM      6  C   UNL     1      44.421   9.468 116.623  1.00  0.00     0.004 C 
ATOM      7  C   UNL     1      43.625   8.546 117.552  1.00  0.00     0.004 C 
ENDBRANCH   5   6
BRANCH   5   8
ATOM      8  C   UNL     1      43.875   7.587 114.903  1.00  0.00    -0.011 C 
ATOM      9  C   UNL     1      42.585   7.459 114.070  1.00  0.00     0.008 C 
ATOM     10  C   UNL     1      44.995   6.807 114.196  1.00  0.00     0.008 C 
ENDBRANCH   5   8
ENDBRANCH   4   5
ENDBRANCH   1   3
BRANCH   1  11
ATOM     11  C   UNL     1      42.542  12.519 112.890  1.00  0.00     0.002 C 
ATOM     12  C   UNL     1      42.533  14.043 112.632  1.00  0.00     0.005 C 
ATOM     13  C   UNL     1      41.757  11.991 111.635  1.00  0.00    -0.023 C 
ATOM     14  C   UNL     1      41.203  14.371 111.952  1.00  0.00     0.009 C 
ATOM     15  C   UNL     1      40.624  13.036 111.471  1.00  0.00     0.021 C 
ATOM     16  C   UNL     1      42.741  11.944 110.394  1.00  0.00     0.008 C 
ATOM     17  C   UNL     1      41.121  10.589 111.796  1.00  0.00     0.012 C 
ATOM     18  C   UNL     1      40.027  13.115 110.074  1.00  0.00    -0.067 C 
ATOM     19  C   UNL     1      42.350  12.835 109.204  1.00  0.00     0.009 C 
ATOM     20  C   UNL     1      40.856  12.690 108.864  1.00  0.00     0.021 C 
ATOM     21  C   UNL     1      38.733  13.483 109.936  1.00  0.00    -0.027 C 
ATOM     22  C   UNL     1      40.393  13.322 107.464  1.00  0.00    -0.023 C 
ATOM     23  C   UNL     1      38.115  13.676 108.581  1.00  0.00     0.031 C 
ATOM     24  C   UNL     1      39.181  14.291 107.669  1.00  0.00     0.002 C 
ATOM     25  C   UNL     1      41.496  14.175 106.754  1.00  0.00     0.010 C 
ATOM     26  C   UNL     1      40.033  12.120 106.538  1.00  0.00     0.012 C 
ATOM     27  C   UNL     1      38.612  14.839 106.348  1.00  0.00     0.036 C 
ATOM     28  C   UNL     1      41.013  14.825 105.438  1.00  0.00     0.032 C 
ATOM     29  C   UNL     1      39.701  15.623 105.591  1.00  0.00     0.114 C 
BRANCH  29  30
ATOM     30  O   UNL     1      39.225  15.956 104.318  1.00  0.00    -0.393 OA
ATOM     31  H   UNL     1      40.004  16.247 103.775  1.00  0.00     0.210 HD
ENDBRANCH  29  30
ENDBRANCH   1  11
TORSDOF 6
ENDMDL
MODEL 8
REMARK VINA RESULT:    -6.186      4.499      7.731
REMARK INTER + INTRA:          -9.143
REMARK INTER:                  -7.928
REMARK INTRA:                  -1.216
REMARK UNBOUND:                -0.969
REMARK SMILES CC[C@H](C=C[C@@H](C)[C@@H]1CC[C@H]2C3=CC[C@@H]4C[C@H](O)CC[C@@]4(C)[C@H]3CC[C@]21C)C(C)C
REMARK SMILES IDX 6 1 7 2 5 3 4 4 3 5 2 6 1 7 28 8 29 9 30 10 8 11 9 12 26 13
REMARK SMILES IDX 10 14 11 15 25 16 27 17 12 18 24 19 23 20 13 21 21 22 14 23
REMARK SMILES IDX 15 24 20 25 22 26 16 27 19 28 17 29 18 30
REMARK H PARENT 18 31
REMARK Flexibility Score: inf
ROOT
ATOM      1  C   UNL     1      36.792  11.524 107.689  1.00  0.00     0.012 C 
ATOM      2  C   UNL     1      35.277  11.630 107.978  1.00  0.00     0.012 C 
ENDROOT
BRANCH   1   3
ATOM      3  C   UNL     1      36.979  10.340 106.759  1.00  0.00    -0.028 C 
ATOM      4  C   UNL     1      38.170   9.727 106.640  1.00  0.00    -0.027 C 
BRANCH   4   5
ATOM      5  C   UNL     1      38.376   8.486 105.791  1.00  0.00     0.014 C 
BRANCH   5   6
ATOM      6  C   UNL     1      39.235   8.842 104.541  1.00  0.00     0.004 C 
ATOM      7  C   UNL     1      39.994  10.163 104.709  1.00  0.00     0.004 C 
ENDBRANCH   5   6
BRANCH   5   8
ATOM      8  C   UNL     1      38.951   7.287 106.613  1.00  0.00    -0.011 C 
ATOM      9  C   UNL     1      38.772   7.517 108.126  1.00  0.00     0.008 C 
ATOM     10  C   UNL     1      38.277   5.958 106.236  1.00  0.00     0.008 C 
ENDBRANCH   5   8
ENDBRANCH   4   5
ENDBRANCH   1   3
BRANCH   1  11
ATOM     11  C   UNL     1      37.647  11.354 109.003  1.00  0.00     0.002 C 
ATOM     12  C   UNL     1      36.840  11.689 110.278  1.00  0.00     0.005 C 
ATOM     13  C   UNL     1      38.887  12.305 109.168  1.00  0.00    -0.023 C 
ATOM     14  C   UNL     1      37.051  13.177 110.561  1.00  0.00     0.009 C 
ATOM     15  C   UNL     1      38.253  13.610 109.713  1.00  0.00     0.021 C 
ATOM     16  C   UNL     1      39.914  11.645 110.179  1.00  0.00     0.008 C 
ATOM     17  C   UNL     1      39.647  12.631 107.858  1.00  0.00     0.012 C 
ATOM     18  C   UNL     1      39.213  14.521 110.463  1.00  0.00    -0.067 C 
ATOM     19  C   UNL     1      40.197  12.453 111.456  1.00  0.00     0.009 C 
ATOM     20  C   UNL     1      40.454  13.936 111.134  1.00  0.00     0.021 C 
ATOM     21  C   UNL     1      38.993  15.855 110.450  1.00  0.00    -0.027 C 
ATOM     22  C   UNL     1      41.061  14.815 112.330  1.00  0.00    -0.023 C 
ATOM     23  C   UNL     1      39.845  16.796 111.253  1.00  0.00     0.031 C 
ATOM     24  C   UNL     1      40.194  16.096 112.570  1.00  0.00     0.002 C 
ATOM     25  C   UNL     1      41.104  14.075 113.708  1.00  0.00     0.010 C 
ATOM     26  C   UNL     1      42.524  15.166 111.917  1.00  0.00     0.012 C 
ATOM     27  C   UNL     1      40.791  17.045 113.625  1.00  0.00     0.036 C 
ATOM     28  C   UNL     1      41.636  14.958 114.859  1.00  0.00     0.032 C 
ATOM     29  C   UNL     1      40.913  16.316 114.977  1.00  0.00     0.114 C 
BRANCH  29  30
ATOM     30  O   UNL     1      41.621  17.127 115.872  1.00  0.00    -0.393 OA
ATOM     31  H   UNL     1      40.966  17.493 116.524  1.00  0.00     0.210 HD
ENDBRANCH  29  30
ENDBRANCH   1  11
TORSDOF 6
ENDMDL
MODEL 9
REMARK VINA RESULT:    -6.103      2.150      3.050
REMARK INTER + INTRA:          -9.034
REMARK INTER:                  -8.068
REMARK INTRA:                  -0.966
REMARK UNBOUND:                -0.969
REMARK SMILES CC[C@H](C=C[C@@H](C)[C@@H]1CC[C@H]2C3=CC[C@@H]4C[C@H](O)CC[C@@]4(C)[C@H]3CC[C@]21C)C(C)C
REMARK SMILES IDX 6 1 7 2 5 3 4 4 3 5 2 6 1 7 28 8 29 9 30 10 8 11 9 12 26 13
REMARK SMILES IDX 10 14 11 15 25 16 27 17 12 18 24 19 23 20 13 21 21 22 14 23
REMARK SMILES IDX 15 24 20 25 22 26 16 27 19 28 17 29 18 30
REMARK H PARENT 18 31
REMARK Flexibility Score: inf
ROOT
ATOM      1  C   UNL     1      41.286  10.685 111.754  1.00  0.00     0.012 C 
ATOM      2  C   UNL     1      40.208   9.590 111.925  1.00  0.00     0.012 C 
ENDROOT
BRANCH   1   3
ATOM      3  C   UNL     1      42.154  10.644 112.997  1.00  0.00    -0.028 C 
ATOM      4  C   UNL     1      42.917   9.573 113.281  1.00  0.00    -0.027 C 
BRANCH   4   5
ATOM      5  C   UNL     1      43.867   9.530 114.464  1.00  0.00     0.014 C 
BRANCH   5   6
ATOM      6  C   UNL     1      43.374  10.512 115.569  1.00  0.00     0.004 C 
ATOM      7  C   UNL     1      43.758  10.050 116.978  1.00  0.00     0.004 C 
ENDBRANCH   5   6
BRANCH   5   8
ATOM      8  C   UNL     1      44.099   8.076 114.990  1.00  0.00    -0.011 C 
ATOM      9  C   UNL     1      42.979   7.129 114.518  1.00  0.00     0.008 C 
ATOM     10  C   UNL     1      45.450   7.507 114.526  1.00  0.00     0.008 C 
ENDBRANCH   5   8
ENDBRANCH   4   5
ENDBRANCH   1   3
BRANCH   1  11
ATOM     11  C   UNL     1      40.664  12.118 111.542  1.00  0.00     0.002 C 
ATOM     12  C   UNL     1      39.262  12.061 110.894  1.00  0.00     0.005 C 
ATOM     13  C   UNL     1      41.419  13.079 110.553  1.00  0.00    -0.023 C 
ATOM     14  C   UNL     1      39.467  12.136 109.381  1.00  0.00     0.009 C 
ATOM     15  C   UNL     1      40.906  12.617 109.165  1.00  0.00     0.021 C 
ATOM     16  C   UNL     1      41.030  14.577 110.891  1.00  0.00     0.008 C 
ATOM     17  C   UNL     1      42.963  12.967 110.575  1.00  0.00     0.012 C 
ATOM     18  C   UNL     1      41.025  13.660 108.063  1.00  0.00    -0.067 C 
ATOM     19  C   UNL     1      40.330  15.350 109.763  1.00  0.00     0.009 C 
ATOM     20  C   UNL     1      41.046  15.146 108.416  1.00  0.00     0.021 C 
ATOM     21  C   UNL     1      41.198  13.245 106.787  1.00  0.00    -0.027 C 
ATOM     22  C   UNL     1      40.605  16.134 107.232  1.00  0.00    -0.023 C 
ATOM     23  C   UNL     1      41.222  14.220 105.645  1.00  0.00     0.031 C 
ATOM     24  C   UNL     1      40.205  15.323 105.955  1.00  0.00     0.002 C 
ATOM     25  C   UNL     1      39.361  17.020 107.572  1.00  0.00     0.010 C 
ATOM     26  C   UNL     1      41.820  17.076 106.972  1.00  0.00     0.012 C 
ATOM     27  C   UNL     1      39.885  16.216 104.743  1.00  0.00     0.036 C 
ATOM     28  C   UNL     1      38.914  17.921 106.398  1.00  0.00     0.032 C 
ATOM     29  C   UNL     1      38.708  17.153 105.076  1.00  0.00     0.114 C 
BRANCH  29  30
ATOM     30  O   UNL     1      38.551  18.078 104.037  1.00  0.00    -0.393 OA
ATOM     31  H   UNL     1      37.963  18.805 104.373  1.00  0.00     0.210 HD
ENDBRANCH  29  30
ENDBRANCH   1  11
TORSDOF 6
ENDMDL
