MODEL 1
REMARK VINA RESULT:    -3.766      0.000      0.000
REMARK INTER + INTRA:          -9.997
REMARK INTER:                  -8.169
REMARK INTRA:                  -1.828
REMARK UNBOUND:                -1.828
REMARK SMILES CCCCCCCCCCCCCCCCCCCCCC(=O)[O-]
REMARK SMILES IDX 12 1 11 2 10 3 9 4 8 5 7 6 6 7 5 8 4 9 3 10 2 11 1 12 13 13
REMARK SMILES IDX 14 14 15 15 16 16 17 17 18 18 19 19 20 20 21 21 22 22 23 23
REMARK SMILES IDX 24 24
REMARK H PARENT
REMARK Flexibility Score: inf
ROOT
ATOM      1  C   UNL     1      23.180  25.635  21.009  1.00  0.00     0.000 C 
ENDROOT
BRANCH   1   2
ATOM      2  C   UNL     1      24.066  26.613  21.800  1.00  0.00     0.000 C 
BRANCH   2   3
ATOM      3  C   UNL     1      25.464  26.041  22.089  1.00  0.00     0.000 C 
BRANCH   3   4
ATOM      4  C   UNL     1      26.316  26.980  22.962  1.00  0.00    -0.000 C 
BRANCH   4   5
ATOM      5  C   UNL     1      26.960  26.254  24.154  1.00  0.00    -0.000 C 
BRANCH   5   6
ATOM      6  C   UNL     1      28.105  27.058  24.791  1.00  0.00    -0.000 C 
BRANCH   6   7
ATOM      7  C   UNL     1      28.115  28.501  24.274  1.00  0.00    -0.000 C 
BRANCH   7   8
ATOM      8  C   UNL     1      28.123  29.503  25.435  1.00  0.00    -0.000 C 
BRANCH   8   9
ATOM      9  C   UNL     1      28.019  30.946  24.918  1.00  0.00    -0.000 C 
BRANCH   9  10
ATOM     10  C   UNL     1      27.548  31.937  25.998  1.00  0.00    -0.000 C 
BRANCH  10  11
ATOM     11  C   UNL     1      26.086  32.398  25.857  1.00  0.00    -0.003 C 
ATOM     12  C   UNL     1      25.212  31.397  25.102  1.00  0.00     0.004 C 
ENDBRANCH  10  11
ENDBRANCH   9  10
ENDBRANCH   8   9
ENDBRANCH   7   8
ENDBRANCH   6   7
ENDBRANCH   5   6
ENDBRANCH   4   5
ENDBRANCH   3   4
ENDBRANCH   2   3
ENDBRANCH   1   2
BRANCH   1  13
ATOM     13  C   UNL     1      23.987  24.490  20.376  1.00  0.00     0.000 C 
BRANCH  13  14
ATOM     14  C   UNL     1      23.731  23.135  21.057  1.00  0.00     0.000 C 
BRANCH  14  15
ATOM     15  C   UNL     1      23.184  23.284  22.488  1.00  0.00     0.000 C 
BRANCH  15  16
ATOM     16  C   UNL     1      23.854  22.372  23.535  1.00  0.00     0.000 C 
BRANCH  16  17
ATOM     17  C   UNL     1      25.282  21.909  23.185  1.00  0.00     0.000 C 
BRANCH  17  18
ATOM     18  C   UNL     1      26.387  22.491  24.084  1.00  0.00     0.000 C 
BRANCH  18  19
ATOM     19  C   UNL     1      27.799  22.100  23.617  1.00  0.00     0.000 C 
BRANCH  19  20
ATOM     20  C   UNL     1      28.003  22.301  22.104  1.00  0.00     0.006 C 
BRANCH  20  21
ATOM     21  C   UNL     1      27.557  23.677  21.586  1.00  0.00     0.053 C 
BRANCH  21  22
ATOM     22  C   UNL     1      27.578  23.750  20.090  1.00  0.00     0.041 C 
ATOM     23  O   UNL     1      27.969  24.797  19.513  1.00  0.00    -0.550 OA
ATOM     24  O   UNL     1      27.194  22.650  19.335  1.00  0.00    -0.550 OA
ENDBRANCH  21  22
ENDBRANCH  20  21
ENDBRANCH  19  20
ENDBRANCH  18  19
ENDBRANCH  17  18
ENDBRANCH  16  17
ENDBRANCH  15  16
ENDBRANCH  14  15
ENDBRANCH  13  14
ENDBRANCH   1  13
TORSDOF 20
ENDMDL
MODEL 2
REMARK VINA RESULT:    -2.873      5.762     10.785
REMARK INTER + INTRA:          -8.059
REMARK INTER:                  -7.678
REMARK INTRA:                  -0.381
REMARK UNBOUND:                -1.828
REMARK SMILES CCCCCCCCCCCCCCCCCCCCCC(=O)[O-]
REMARK SMILES IDX 12 1 11 2 10 3 9 4 8 5 7 6 6 7 5 8 4 9 3 10 2 11 1 12 13 13
REMARK SMILES IDX 14 14 15 15 16 16 17 17 18 18 19 19 20 20 21 21 22 22 23 23
REMARK SMILES IDX 24 24
REMARK H PARENT
REMARK Flexibility Score: inf
ROOT
ATOM      1  C   UNL     1      25.780  30.180  24.293  1.00  0.00     0.000 C 
ENDROOT
BRANCH   1   2
ATOM      2  C   UNL     1      25.467  28.771  23.761  1.00  0.00     0.000 C 
BRANCH   2   3
ATOM      3  C   UNL     1      26.695  28.089  23.135  1.00  0.00     0.000 C 
BRANCH   3   4
ATOM      4  C   UNL     1      27.746  27.687  24.185  1.00  0.00    -0.000 C 
BRANCH   4   5
ATOM      5  C   UNL     1      27.788  26.170  24.429  1.00  0.00    -0.000 C 
BRANCH   5   6
ATOM      6  C   UNL     1      26.978  25.379  23.391  1.00  0.00    -0.000 C 
BRANCH   6   7
ATOM      7  C   UNL     1      27.632  24.022  23.103  1.00  0.00    -0.000 C 
BRANCH   7   8
ATOM      8  C   UNL     1      26.690  23.113  22.305  1.00  0.00    -0.000 C 
BRANCH   8   9
ATOM      9  C   UNL     1      26.692  23.490  20.816  1.00  0.00    -0.000 C 
BRANCH   9  10
ATOM     10  C   UNL     1      25.448  24.295  20.400  1.00  0.00    -0.000 C 
BRANCH  10  11
ATOM     11  C   UNL     1      24.454  24.584  21.540  1.00  0.00    -0.003 C 
ATOM     12  C   UNL     1      23.401  25.626  21.164  1.00  0.00     0.004 C 
ENDBRANCH  10  11
ENDBRANCH   9  10
ENDBRANCH   8   9
ENDBRANCH   7   8
ENDBRANCH   6   7
ENDBRANCH   5   6
ENDBRANCH   4   5
ENDBRANCH   3   4
ENDBRANCH   2   3
ENDBRANCH   1   2
BRANCH   1  13
ATOM     13  C   UNL     1      26.837  30.165  25.410  1.00  0.00     0.000 C 
BRANCH  13  14
ATOM     14  C   UNL     1      27.860  31.306  25.274  1.00  0.00     0.000 C 
BRANCH  14  15
ATOM     15  C   UNL     1      27.202  32.697  25.286  1.00  0.00     0.000 C 
BRANCH  15  16
ATOM     16  C   UNL     1      28.123  33.853  24.846  1.00  0.00     0.000 C 
BRANCH  16  17
ATOM     17  C   UNL     1      27.725  34.545  23.527  1.00  0.00     0.000 C 
BRANCH  17  18
ATOM     18  C   UNL     1      28.114  36.030  23.434  1.00  0.00     0.000 C 
BRANCH  18  19
ATOM     19  C   UNL     1      28.118  36.554  21.987  1.00  0.00     0.000 C 
BRANCH  19  20
ATOM     20  C   UNL     1      27.371  37.892  21.837  1.00  0.00     0.006 C 
BRANCH  20  21
ATOM     21  C   UNL     1      28.125  39.101  22.414  1.00  0.00     0.053 C 
BRANCH  21  22
ATOM     22  C   UNL     1      27.270  39.906  23.344  1.00  0.00     0.041 C 
ATOM     23  O   UNL     1      26.522  39.329  24.176  1.00  0.00    -0.550 OA
ATOM     24  O   UNL     1      27.322  41.293  23.312  1.00  0.00    -0.550 OA
ENDBRANCH  21  22
ENDBRANCH  20  21
ENDBRANCH  19  20
ENDBRANCH  18  19
ENDBRANCH  17  18
ENDBRANCH  16  17
ENDBRANCH  15  16
ENDBRANCH  14  15
ENDBRANCH  13  14
ENDBRANCH   1  13
TORSDOF 20
ENDMDL
MODEL 3
REMARK VINA RESULT:    -2.700      3.337      7.522
REMARK INTER + INTRA:          -7.684
REMARK INTER:                  -5.693
REMARK INTRA:                  -1.991
REMARK UNBOUND:                -1.828
REMARK SMILES CCCCCCCCCCCCCCCCCCCCCC(=O)[O-]
REMARK SMILES IDX 12 1 11 2 10 3 9 4 8 5 7 6 6 7 5 8 4 9 3 10 2 11 1 12 13 13
REMARK SMILES IDX 14 14 15 15 16 16 17 17 18 18 19 19 20 20 21 21 22 22 23 23
REMARK SMILES IDX 24 24
REMARK H PARENT
REMARK Flexibility Score: inf
ROOT
ATOM      1  C   UNL     1      24.744  25.924  21.364  1.00  0.00     0.000 C 
ENDROOT
BRANCH   1   2
ATOM      2  C   UNL     1      23.299  25.458  21.613  1.00  0.00     0.000 C 
BRANCH   2   3
ATOM      3  C   UNL     1      23.066  23.999  21.186  1.00  0.00     0.000 C 
BRANCH   3   4
ATOM      4  C   UNL     1      23.168  23.016  22.366  1.00  0.00    -0.000 C 
BRANCH   4   5
ATOM      5  C   UNL     1      24.435  22.149  22.304  1.00  0.00    -0.000 C 
BRANCH   5   6
ATOM      6  C   UNL     1      25.147  22.040  23.661  1.00  0.00    -0.000 C 
BRANCH   6   7
ATOM      7  C   UNL     1      26.498  22.765  23.632  1.00  0.00    -0.000 C 
BRANCH   7   8
ATOM      8  C   UNL     1      27.587  21.879  23.015  1.00  0.00    -0.000 C 
BRANCH   8   9
ATOM      9  C   UNL     1      28.044  22.432  21.657  1.00  0.00    -0.000 C 
BRANCH   9  10
ATOM     10  C   UNL     1      27.004  22.218  20.543  1.00  0.00    -0.000 C 
BRANCH  10  11
ATOM     11  C   UNL     1      26.804  23.423  19.606  1.00  0.00    -0.003 C 
ATOM     12  C   UNL     1      28.013  24.357  19.566  1.00  0.00     0.004 C 
ENDBRANCH  10  11
ENDBRANCH   9  10
ENDBRANCH   8   9
ENDBRANCH   7   8
ENDBRANCH   6   7
ENDBRANCH   5   6
ENDBRANCH   4   5
ENDBRANCH   3   4
ENDBRANCH   2   3
ENDBRANCH   1   2
BRANCH   1  13
ATOM     13  C   UNL     1      25.610  25.859  22.632  1.00  0.00     0.000 C 
BRANCH  13  14
ATOM     14  C   UNL     1      27.086  26.197  22.361  1.00  0.00     0.000 C 
BRANCH  14  15
ATOM     15  C   UNL     1      28.047  25.456  23.308  1.00  0.00     0.000 C 
BRANCH  15  16
ATOM     16  C   UNL     1      27.901  25.826  24.798  1.00  0.00     0.000 C 
BRANCH  16  17
ATOM     17  C   UNL     1      28.120  27.316  25.129  1.00  0.00     0.000 C 
BRANCH  17  18
ATOM     18  C   UNL     1      26.871  28.201  24.980  1.00  0.00     0.000 C 
BRANCH  18  19
ATOM     19  C   UNL     1      27.125  29.446  24.113  1.00  0.00     0.000 C 
BRANCH  19  20
ATOM     20  C   UNL     1      28.118  30.429  24.761  1.00  0.00     0.006 C 
BRANCH  20  21
ATOM     21  C   UNL     1      27.657  31.895  24.740  1.00  0.00     0.053 C 
BRANCH  21  22
ATOM     22  C   UNL     1      26.864  32.252  25.959  1.00  0.00     0.041 C 
ATOM     23  O   UNL     1      25.617  32.407  25.880  1.00  0.00    -0.550 OA
ATOM     24  O   UNL     1      27.497  32.386  27.187  1.00  0.00    -0.550 OA
ENDBRANCH  21  22
ENDBRANCH  20  21
ENDBRANCH  19  20
ENDBRANCH  18  19
ENDBRANCH  17  18
ENDBRANCH  16  17
ENDBRANCH  15  16
ENDBRANCH  14  15
ENDBRANCH  13  14
ENDBRANCH   1  13
TORSDOF 20
ENDMDL
MODEL 4
REMARK VINA RESULT:    -2.370      1.269      5.418
REMARK INTER + INTRA:          -6.968
REMARK INTER:                  -5.049
REMARK INTRA:                  -1.919
REMARK UNBOUND:                -1.828
REMARK SMILES CCCCCCCCCCCCCCCCCCCCCC(=O)[O-]
REMARK SMILES IDX 12 1 11 2 10 3 9 4 8 5 7 6 6 7 5 8 4 9 3 10 2 11 1 12 13 13
REMARK SMILES IDX 14 14 15 15 16 16 17 17 18 18 19 19 20 20 21 21 22 22 23 23
REMARK SMILES IDX 24 24
REMARK H PARENT
REMARK Flexibility Score: inf
ROOT
ATOM      1  C   UNL     1      27.952  27.788  25.690  1.00  0.00     0.000 C 
ENDROOT
BRANCH   1   2
ATOM      2  C   UNL     1      28.015  29.304  25.948  1.00  0.00     0.000 C 
BRANCH   2   3
ATOM      3  C   UNL     1      27.506  30.128  24.754  1.00  0.00     0.000 C 
BRANCH   3   4
ATOM      4  C   UNL     1      26.109  30.724  25.001  1.00  0.00    -0.000 C 
BRANCH   4   5
ATOM      5  C   UNL     1      25.029  30.085  24.114  1.00  0.00    -0.000 C 
BRANCH   5   6
ATOM      6  C   UNL     1      25.545  28.865  23.334  1.00  0.00    -0.000 C 
BRANCH   6   7
ATOM      7  C   UNL     1      24.401  27.897  23.012  1.00  0.00    -0.000 C 
BRANCH   7   8
ATOM      8  C   UNL     1      24.912  26.678  22.233  1.00  0.00    -0.000 C 
BRANCH   8   9
ATOM      9  C   UNL     1      23.743  25.835  21.702  1.00  0.00    -0.000 C 
BRANCH   9  10
ATOM     10  C   UNL     1      24.103  24.347  21.539  1.00  0.00    -0.000 C 
BRANCH  10  11
ATOM     11  C   UNL     1      23.107  23.366  22.184  1.00  0.00    -0.003 C 
ATOM     12  C   UNL     1      23.695  21.972  22.397  1.00  0.00     0.004 C 
ENDBRANCH  10  11
ENDBRANCH   9  10
ENDBRANCH   8   9
ENDBRANCH   7   8
ENDBRANCH   6   7
ENDBRANCH   5   6
ENDBRANCH   4   5
ENDBRANCH   3   4
ENDBRANCH   2   3
ENDBRANCH   1   2
BRANCH   1  13
ATOM     13  C   UNL     1      28.124  27.437  24.203  1.00  0.00     0.000 C 
BRANCH  13  14
ATOM     14  C   UNL     1      27.761  25.975  23.893  1.00  0.00     0.000 C 
BRANCH  14  15
ATOM     15  C   UNL     1      27.068  25.272  25.074  1.00  0.00     0.000 C 
BRANCH  15  16
ATOM     16  C   UNL     1      27.861  24.098  25.684  1.00  0.00     0.000 C 
BRANCH  16  17
ATOM     17  C   UNL     1      27.212  22.710  25.515  1.00  0.00     0.000 C 
BRANCH  17  18
ATOM     18  C   UNL     1      26.808  22.358  24.073  1.00  0.00     0.000 C 
BRANCH  18  19
ATOM     19  C   UNL     1      28.021  22.155  23.149  1.00  0.00     0.000 C 
BRANCH  19  20
ATOM     20  C   UNL     1      28.113  23.225  22.045  1.00  0.00     0.006 C 
BRANCH  20  21
ATOM     21  C   UNL     1      27.464  22.813  20.713  1.00  0.00     0.053 C 
BRANCH  21  22
ATOM     22  C   UNL     1      26.936  23.992  19.956  1.00  0.00     0.041 C 
ATOM     23  O   UNL     1      26.120  23.825  19.013  1.00  0.00    -0.550 OA
ATOM     24  O   UNL     1      27.321  25.277  20.313  1.00  0.00    -0.550 OA
ENDBRANCH  21  22
ENDBRANCH  20  21
ENDBRANCH  19  20
ENDBRANCH  18  19
ENDBRANCH  17  18
ENDBRANCH  16  17
ENDBRANCH  15  16
ENDBRANCH  14  15
ENDBRANCH  13  14
ENDBRANCH   1  13
TORSDOF 20
ENDMDL
MODEL 5
REMARK VINA RESULT:    -2.358      2.539      5.931
REMARK INTER + INTRA:          -6.943
REMARK INTER:                  -6.373
REMARK INTRA:                  -0.570
REMARK UNBOUND:                -1.828
REMARK SMILES CCCCCCCCCCCCCCCCCCCCCC(=O)[O-]
REMARK SMILES IDX 12 1 11 2 10 3 9 4 8 5 7 6 6 7 5 8 4 9 3 10 2 11 1 12 13 13
REMARK SMILES IDX 14 14 15 15 16 16 17 17 18 18 19 19 20 20 21 21 22 22 23 23
REMARK SMILES IDX 24 24
REMARK H PARENT
REMARK Flexibility Score: inf
ROOT
ATOM      1  C   UNL     1      27.659  27.393  24.826  1.00  0.00     0.000 C 
ENDROOT
BRANCH   1   2
ATOM      2  C   UNL     1      28.083  28.755  25.403  1.00  0.00     0.000 C 
BRANCH   2   3
ATOM      3  C   UNL     1      27.656  29.933  24.511  1.00  0.00     0.000 C 
BRANCH   3   4
ATOM      4  C   UNL     1      26.332  30.570  24.970  1.00  0.00    -0.000 C 
BRANCH   4   5
ATOM      5  C   UNL     1      25.109  29.970  24.257  1.00  0.00    -0.000 C 
BRANCH   5   6
ATOM      6  C   UNL     1      25.458  28.725  23.426  1.00  0.00    -0.000 C 
BRANCH   6   7
ATOM      7  C   UNL     1      24.277  28.308  22.541  1.00  0.00    -0.000 C 
BRANCH   7   8
ATOM      8  C   UNL     1      24.362  26.822  22.170  1.00  0.00    -0.000 C 
BRANCH   8   9
ATOM      9  C   UNL     1      23.055  26.341  21.522  1.00  0.00    -0.000 C 
BRANCH   9  10
ATOM     10  C   UNL     1      23.155  24.912  20.961  1.00  0.00    -0.000 C 
BRANCH  10  11
ATOM     11  C   UNL     1      24.086  23.972  21.749  1.00  0.00    -0.003 C 
ATOM     12  C   UNL     1      23.425  22.643  22.113  1.00  0.00     0.004 C 
ENDBRANCH  10  11
ENDBRANCH   9  10
ENDBRANCH   8   9
ENDBRANCH   7   8
ENDBRANCH   6   7
ENDBRANCH   5   6
ENDBRANCH   4   5
ENDBRANCH   3   4
ENDBRANCH   2   3
ENDBRANCH   1   2
BRANCH   1  13
ATOM     13  C   UNL     1      28.124  27.200  23.373  1.00  0.00     0.000 C 
BRANCH  13  14
ATOM     14  C   UNL     1      27.261  26.186  22.604  1.00  0.00     0.000 C 
BRANCH  14  15
ATOM     15  C   UNL     1      28.096  25.261  21.700  1.00  0.00     0.000 C 
BRANCH  15  16
ATOM     16  C   UNL     1      27.334  24.670  20.497  1.00  0.00     0.000 C 
BRANCH  16  17
ATOM     17  C   UNL     1      27.496  23.150  20.299  1.00  0.00     0.000 C 
BRANCH  17  18
ATOM     18  C   UNL     1      28.055  22.396  21.518  1.00  0.00     0.000 C 
BRANCH  18  19
ATOM     19  C   UNL     1      26.987  22.127  22.591  1.00  0.00     0.000 C 
BRANCH  19  20
ATOM     20  C   UNL     1      27.320  22.789  23.941  1.00  0.00     0.006 C 
BRANCH  20  21
ATOM     21  C   UNL     1      27.101  21.878  25.160  1.00  0.00     0.053 C 
BRANCH  21  22
ATOM     22  C   UNL     1      26.950  22.660  26.428  1.00  0.00     0.041 C 
ATOM     23  O   UNL     1      27.066  23.914  26.415  1.00  0.00    -0.550 OA
ATOM     24  O   UNL     1      26.652  22.008  27.617  1.00  0.00    -0.550 OA
ENDBRANCH  21  22
ENDBRANCH  20  21
ENDBRANCH  19  20
ENDBRANCH  18  19
ENDBRANCH  17  18
ENDBRANCH  16  17
ENDBRANCH  15  16
ENDBRANCH  14  15
ENDBRANCH  13  14
ENDBRANCH   1  13
TORSDOF 20
ENDMDL
MODEL 6
REMARK VINA RESULT:    -2.199      3.395      7.199
REMARK INTER + INTRA:          -6.598
REMARK INTER:                  -4.889
REMARK INTRA:                  -1.708
REMARK UNBOUND:                -1.828
REMARK SMILES CCCCCCCCCCCCCCCCCCCCCC(=O)[O-]
REMARK SMILES IDX 12 1 11 2 10 3 9 4 8 5 7 6 6 7 5 8 4 9 3 10 2 11 1 12 13 13
REMARK SMILES IDX 14 14 15 15 16 16 17 17 18 18 19 19 20 20 21 21 22 22 23 23
REMARK SMILES IDX 24 24
REMARK H PARENT
REMARK Flexibility Score: inf
ROOT
ATOM      1  C   UNL     1      23.889  25.117  21.100  1.00  0.00     0.000 C 
ENDROOT
BRANCH   1   2
ATOM      2  C   UNL     1      23.383  23.710  21.463  1.00  0.00     0.000 C 
BRANCH   2   3
ATOM      3  C   UNL     1      24.530  22.728  21.758  1.00  0.00     0.000 C 
BRANCH   3   4
ATOM      4  C   UNL     1      24.765  22.531  23.266  1.00  0.00    -0.000 C 
BRANCH   4   5
ATOM      5  C   UNL     1      26.125  21.884  23.572  1.00  0.00    -0.000 C 
BRANCH   5   6
ATOM      6  C   UNL     1      26.555  22.070  25.036  1.00  0.00    -0.000 C 
BRANCH   6   7
ATOM      7  C   UNL     1      27.288  23.403  25.226  1.00  0.00    -0.000 C 
BRANCH   7   8
ATOM      8  C   UNL     1      28.054  23.798  23.957  1.00  0.00    -0.000 C 
BRANCH   8   9
ATOM      9  C   UNL     1      27.247  24.797  23.115  1.00  0.00    -0.000 C 
BRANCH   9  10
ATOM     10  C   UNL     1      27.842  25.017  21.712  1.00  0.00    -0.000 C 
BRANCH  10  11
ATOM     11  C   UNL     1      27.658  23.838  20.740  1.00  0.00    -0.003 C 
ATOM     12  C   UNL     1      27.674  24.265  19.272  1.00  0.00     0.004 C 
ENDBRANCH  10  11
ENDBRANCH   9  10
ENDBRANCH   8   9
ENDBRANCH   7   8
ENDBRANCH   6   7
ENDBRANCH   5   6
ENDBRANCH   4   5
ENDBRANCH   3   4
ENDBRANCH   2   3
ENDBRANCH   1   2
BRANCH   1  13
ATOM     13  C   UNL     1      24.076  26.012  22.336  1.00  0.00     0.000 C 
BRANCH  13  14
ATOM     14  C   UNL     1      24.568  27.424  21.977  1.00  0.00     0.000 C 
BRANCH  14  15
ATOM     15  C   UNL     1      25.407  28.063  23.098  1.00  0.00     0.000 C 
BRANCH  15  16
ATOM     16  C   UNL     1      26.693  28.770  22.623  1.00  0.00     0.000 C 
BRANCH  16  17
ATOM     17  C   UNL     1      28.000  28.244  23.249  1.00  0.00     0.000 C 
BRANCH  17  18
ATOM     18  C   UNL     1      28.104  28.423  24.773  1.00  0.00     0.000 C 
BRANCH  18  19
ATOM     19  C   UNL     1      27.936  29.888  25.211  1.00  0.00     0.000 C 
BRANCH  19  20
ATOM     20  C   UNL     1      26.461  30.289  25.398  1.00  0.00     0.006 C 
BRANCH  20  21
ATOM     21  C   UNL     1      26.212  31.805  25.368  1.00  0.00     0.053 C 
BRANCH  21  22
ATOM     22  C   UNL     1      27.378  32.578  25.904  1.00  0.00     0.041 C 
ATOM     23  O   UNL     1      28.125  33.221  25.121  1.00  0.00    -0.550 OA
ATOM     24  O   UNL     1      27.622  32.612  27.270  1.00  0.00    -0.550 OA
ENDBRANCH  21  22
ENDBRANCH  20  21
ENDBRANCH  19  20
ENDBRANCH  18  19
ENDBRANCH  17  18
ENDBRANCH  16  17
ENDBRANCH  15  16
ENDBRANCH  14  15
ENDBRANCH  13  14
ENDBRANCH   1  13
TORSDOF 20
ENDMDL
MODEL 7
REMARK VINA RESULT:    -2.044      5.820     11.596
REMARK INTER + INTRA:          -6.262
REMARK INTER:                  -5.637
REMARK INTRA:                  -0.625
REMARK UNBOUND:                -1.828
REMARK SMILES CCCCCCCCCCCCCCCCCCCCCC(=O)[O-]
REMARK SMILES IDX 12 1 11 2 10 3 9 4 8 5 7 6 6 7 5 8 4 9 3 10 2 11 1 12 13 13
REMARK SMILES IDX 14 14 15 15 16 16 17 17 18 18 19 19 20 20 21 21 22 22 23 23
REMARK SMILES IDX 24 24
REMARK H PARENT
REMARK Flexibility Score: inf
ROOT
ATOM      1  C   UNL     1      27.094  31.550  26.174  1.00  0.00     0.000 C 
ENDROOT
BRANCH   1   2
ATOM      2  C   UNL     1      27.904  30.604  25.270  1.00  0.00     0.000 C 
BRANCH   2   3
ATOM      3  C   UNL     1      28.106  29.216  25.898  1.00  0.00     0.000 C 
BRANCH   3   4
ATOM      4  C   UNL     1      28.039  28.083  24.859  1.00  0.00    -0.000 C 
BRANCH   4   5
ATOM      5  C   UNL     1      26.642  27.933  24.238  1.00  0.00    -0.000 C 
BRANCH   5   6
ATOM      6  C   UNL     1      26.684  27.774  22.710  1.00  0.00    -0.000 C 
BRANCH   6   7
ATOM      7  C   UNL     1      25.786  26.619  22.253  1.00  0.00    -0.000 C 
BRANCH   7   8
ATOM      8  C   UNL     1      26.371  25.265  22.671  1.00  0.00    -0.000 C 
BRANCH   8   9
ATOM      9  C   UNL     1      25.529  24.106  22.117  1.00  0.00    -0.000 C 
BRANCH   9  10
ATOM     10  C   UNL     1      25.192  24.271  20.625  1.00  0.00    -0.000 C 
BRANCH  10  11
ATOM     11  C   UNL     1      26.333  23.901  19.659  1.00  0.00    -0.003 C 
ATOM     12  C   UNL     1      27.445  23.093  20.329  1.00  0.00     0.004 C 
ENDBRANCH  10  11
ENDBRANCH   9  10
ENDBRANCH   8   9
ENDBRANCH   7   8
ENDBRANCH   6   7
ENDBRANCH   5   6
ENDBRANCH   4   5
ENDBRANCH   3   4
ENDBRANCH   2   3
ENDBRANCH   1   2
BRANCH   1  13
ATOM     13  C   UNL     1      27.036  32.984  25.623  1.00  0.00     0.000 C 
BRANCH  13  14
ATOM     14  C   UNL     1      28.125  33.260  24.572  1.00  0.00     0.000 C 
BRANCH  14  15
ATOM     15  C   UNL     1      28.091  34.708  24.049  1.00  0.00     0.000 C 
BRANCH  15  16
ATOM     16  C   UNL     1      27.209  34.926  22.803  1.00  0.00     0.000 C 
BRANCH  16  17
ATOM     17  C   UNL     1      27.704  36.015  21.831  1.00  0.00     0.000 C 
BRANCH  17  18
ATOM     18  C   UNL     1      27.183  37.432  22.130  1.00  0.00     0.000 C 
BRANCH  18  19
ATOM     19  C   UNL     1      27.474  37.879  23.573  1.00  0.00     0.000 C 
BRANCH  19  20
ATOM     20  C   UNL     1      27.407  39.407  23.748  1.00  0.00     0.006 C 
BRANCH  20  21
ATOM     21  C   UNL     1      27.841  39.902  25.137  1.00  0.00     0.053 C 
BRANCH  21  22
ATOM     22  C   UNL     1      27.247  39.079  26.238  1.00  0.00     0.041 C 
ATOM     23  O   UNL     1      26.098  39.345  26.678  1.00  0.00    -0.550 OA
ATOM     24  O   UNL     1      27.950  38.000  26.758  1.00  0.00    -0.550 OA
ENDBRANCH  21  22
ENDBRANCH  20  21
ENDBRANCH  19  20
ENDBRANCH  18  19
ENDBRANCH  17  18
ENDBRANCH  16  17
ENDBRANCH  15  16
ENDBRANCH  14  15
ENDBRANCH  13  14
ENDBRANCH   1  13
TORSDOF 20
ENDMDL
MODEL 8
REMARK VINA RESULT:    -1.914     17.597     21.423
REMARK INTER + INTRA:          -5.980
REMARK INTER:                  -4.336
REMARK INTRA:                  -1.645
REMARK UNBOUND:                -1.828
REMARK SMILES CCCCCCCCCCCCCCCCCCCCCC(=O)[O-]
REMARK SMILES IDX 12 1 11 2 10 3 9 4 8 5 7 6 6 7 5 8 4 9 3 10 2 11 1 12 13 13
REMARK SMILES IDX 14 14 15 15 16 16 17 17 18 18 19 19 20 20 21 21 22 22 23 23
REMARK SMILES IDX 24 24
REMARK H PARENT
REMARK Flexibility Score: inf
ROOT
ATOM      1  C   UNL     1      12.878  38.125  22.876  1.00  0.00     0.000 C 
ENDROOT
BRANCH   1   2
ATOM      2  C   UNL     1      12.749  37.288  21.591  1.00  0.00     0.000 C 
BRANCH   2   3
ATOM      3  C   UNL     1      13.388  35.896  21.726  1.00  0.00     0.000 C 
BRANCH   3   4
ATOM      4  C   UNL     1      12.342  34.782  21.904  1.00  0.00    -0.000 C 
BRANCH   4   5
ATOM      5  C   UNL     1      10.900  35.308  21.829  1.00  0.00    -0.000 C 
BRANCH   5   6
ATOM      6  C   UNL     1      10.050  34.888  23.038  1.00  0.00    -0.000 C 
BRANCH   6   7
ATOM      7  C   UNL     1       9.548  33.447  22.882  1.00  0.00    -0.000 C 
BRANCH   7   8
ATOM      8  C   UNL     1      10.432  32.467  23.663  1.00  0.00    -0.000 C 
BRANCH   8   9
ATOM      9  C   UNL     1      10.815  33.042  25.034  1.00  0.00    -0.000 C 
BRANCH   9  10
ATOM     10  C   UNL     1      12.291  33.473  25.112  1.00  0.00    -0.000 C 
BRANCH  10  11
ATOM     11  C   UNL     1      12.524  34.878  25.697  1.00  0.00    -0.003 C 
ATOM     12  C   UNL     1      11.561  35.221  26.832  1.00  0.00     0.004 C 
ENDBRANCH  10  11
ENDBRANCH   9  10
ENDBRANCH   8   9
ENDBRANCH   7   8
ENDBRANCH   6   7
ENDBRANCH   5   6
ENDBRANCH   4   5
ENDBRANCH   3   4
ENDBRANCH   2   3
ENDBRANCH   1   2
BRANCH   1  13
ATOM     13  C   UNL     1      11.872  37.700  23.958  1.00  0.00     0.000 C 
BRANCH  13  14
ATOM     14  C   UNL     1      10.748  38.731  24.161  1.00  0.00     0.000 C 
BRANCH  14  15
ATOM     15  C   UNL     1       9.402  38.077  24.522  1.00  0.00     0.000 C 
BRANCH  15  16
ATOM     16  C   UNL     1       8.486  38.934  25.418  1.00  0.00     0.000 C 
BRANCH  16  17
ATOM     17  C   UNL     1       9.174  40.127  26.111  1.00  0.00     0.000 C 
BRANCH  17  18
ATOM     18  C   UNL     1       8.454  40.649  27.366  1.00  0.00     0.000 C 
BRANCH  18  19
ATOM     19  C   UNL     1       9.374  41.479  28.277  1.00  0.00     0.000 C 
BRANCH  19  20
ATOM     20  C   UNL     1       8.867  41.550  29.729  1.00  0.00     0.006 C 
BRANCH  20  21
ATOM     21  C   UNL     1       9.980  41.699  30.778  1.00  0.00     0.053 C 
BRANCH  21  22
ATOM     22  C   UNL     1       9.477  41.464  32.170  1.00  0.00     0.041 C 
ATOM     23  O   UNL     1      10.097  40.689  32.944  1.00  0.00    -0.550 OA
ATOM     24  O   UNL     1       8.343  42.125  32.620  1.00  0.00    -0.550 OA
ENDBRANCH  21  22
ENDBRANCH  20  21
ENDBRANCH  19  20
ENDBRANCH  18  19
ENDBRANCH  17  18
ENDBRANCH  16  17
ENDBRANCH  15  16
ENDBRANCH  14  15
ENDBRANCH  13  14
ENDBRANCH   1  13
TORSDOF 20
ENDMDL
