MODEL 1
REMARK VINA RESULT:    -4.251      0.000      0.000
REMARK INTER + INTRA:          -9.368
REMARK INTER:                  -8.227
REMARK INTRA:                  -1.142
REMARK UNBOUND:                -1.142
REMARK SMILES CCCCCCCCCCCCCCCCCC(=O)[O-]
REMARK SMILES IDX 10 1 11 2 12 3 13 4 14 5 15 6 16 7 17 8 18 9 19 10 20 11
REMARK SMILES IDX 9 12 8 13 7 14 6 15 5 16 4 17 3 18 2 19 1 20
REMARK H PARENT
REMARK Flexibility Score: inf
ROOT
ATOM      1  C   UNL     1      74.147 -56.809 201.961  1.00  0.00     0.000 C 
ENDROOT
BRANCH   1   2
ATOM      2  C   UNL     1      74.953 -57.861 201.183  1.00  0.00     0.000 C 
BRANCH   2   3
ATOM      3  C   UNL     1      75.016 -57.567 199.676  1.00  0.00     0.000 C 
BRANCH   3   4
ATOM      4  C   UNL     1      74.892 -56.066 199.360  1.00  0.00     0.000 C 
BRANCH   4   5
ATOM      5  C   UNL     1      75.669 -55.664 198.096  1.00  0.00     0.000 C 
BRANCH   5   6
ATOM      6  C   UNL     1      76.566 -54.433 198.322  1.00  0.00     0.000 C 
BRANCH   6   7
ATOM      7  C   UNL     1      77.769 -54.389 197.361  1.00  0.00     0.006 C 
BRANCH   7   8
ATOM      8  C   UNL     1      77.472 -53.738 196.001  1.00  0.00     0.053 C 
BRANCH   8   9
ATOM      9  C   UNL     1      77.782 -54.656 194.858  1.00  0.00     0.041 C 
ATOM     10  O   UNL     1      78.430 -54.233 193.865  1.00  0.00    -0.550 OA
ATOM     11  O   UNL     1      77.327 -55.968 194.876  1.00  0.00    -0.550 OA
ENDBRANCH   8   9
ENDBRANCH   7   8
ENDBRANCH   6   7
ENDBRANCH   5   6
ENDBRANCH   4   5
ENDBRANCH   3   4
ENDBRANCH   2   3
ENDBRANCH   1   2
BRANCH   1  12
ATOM     12  C   UNL     1      72.898 -57.438 202.599  1.00  0.00     0.000 C 
BRANCH  12  13
ATOM     13  C   UNL     1      71.648 -57.309 201.713  1.00  0.00    -0.000 C 
BRANCH  13  14
ATOM     14  C   UNL     1      71.246 -58.644 201.063  1.00  0.00    -0.000 C 
BRANCH  14  15
ATOM     15  C   UNL     1      71.541 -59.853 201.966  1.00  0.00    -0.000 C 
BRANCH  15  16
ATOM     16  C   UNL     1      70.475 -60.954 201.849  1.00  0.00    -0.000 C 
BRANCH  16  17
ATOM     17  C   UNL     1      69.987 -61.093 200.401  1.00  0.00    -0.000 C 
BRANCH  17  18
ATOM     18  C   UNL     1      68.953 -62.222 200.276  1.00  0.00    -0.000 C 
BRANCH  18  19
ATOM     19  C   UNL     1      69.466 -63.401 199.433  1.00  0.00    -0.003 C 
ATOM     20  C   UNL     1      70.036 -64.533 200.286  1.00  0.00     0.004 C 
ENDBRANCH  18  19
ENDBRANCH  17  18
ENDBRANCH  16  17
ENDBRANCH  15  16
ENDBRANCH  14  15
ENDBRANCH  13  14
ENDBRANCH  12  13
ENDBRANCH   1  12
TORSDOF 16
ENDMDL
MODEL 2
REMARK VINA RESULT:    -4.168      1.368      2.596
REMARK INTER + INTRA:          -9.209
REMARK INTER:                  -7.087
REMARK INTRA:                  -2.122
REMARK UNBOUND:                -1.142
REMARK SMILES CCCCCCCCCCCCCCCCCC(=O)[O-]
REMARK SMILES IDX 10 1 11 2 12 3 13 4 14 5 15 6 16 7 17 8 18 9 19 10 20 11
REMARK SMILES IDX 9 12 8 13 7 14 6 15 5 16 4 17 3 18 2 19 1 20
REMARK H PARENT
REMARK Flexibility Score: inf
ROOT
ATOM      1  C   UNL     1      71.592 -55.943 200.995  1.00  0.00     0.000 C 
ENDROOT
BRANCH   1   2
ATOM      2  C   UNL     1      72.167 -56.394 202.347  1.00  0.00     0.000 C 
BRANCH   2   3
ATOM      3  C   UNL     1      73.701 -56.486 202.341  1.00  0.00     0.000 C 
BRANCH   3   4
ATOM      4  C   UNL     1      74.212 -57.791 201.703  1.00  0.00     0.000 C 
BRANCH   4   5
ATOM      5  C   UNL     1      75.341 -57.548 200.689  1.00  0.00     0.000 C 
BRANCH   5   6
ATOM      6  C   UNL     1      74.811 -57.137 199.304  1.00  0.00     0.000 C 
BRANCH   6   7
ATOM      7  C   UNL     1      74.782 -55.610 199.106  1.00  0.00     0.006 C 
BRANCH   7   8
ATOM      8  C   UNL     1      74.940 -55.155 197.647  1.00  0.00     0.053 C 
BRANCH   8   9
ATOM      9  C   UNL     1      76.371 -55.167 197.205  1.00  0.00     0.041 C 
ATOM     10  O   UNL     1      77.282 -54.806 197.996  1.00  0.00    -0.550 OA
ATOM     11  O   UNL     1      76.696 -55.544 195.908  1.00  0.00    -0.550 OA
ENDBRANCH   8   9
ENDBRANCH   7   8
ENDBRANCH   6   7
ENDBRANCH   5   6
ENDBRANCH   4   5
ENDBRANCH   3   4
ENDBRANCH   2   3
ENDBRANCH   1   2
BRANCH   1  12
ATOM     12  C   UNL     1      70.624 -56.996 200.434  1.00  0.00     0.000 C 
BRANCH  12  13
ATOM     13  C   UNL     1      71.259 -57.863 199.333  1.00  0.00    -0.000 C 
BRANCH  13  14
ATOM     14  C   UNL     1      71.182 -59.366 199.648  1.00  0.00    -0.000 C 
BRANCH  14  15
ATOM     15  C   UNL     1      71.085 -59.649 201.157  1.00  0.00    -0.000 C 
BRANCH  15  16
ATOM     16  C   UNL     1      70.218 -60.878 201.475  1.00  0.00    -0.000 C 
BRANCH  16  17
ATOM     17  C   UNL     1      68.974 -60.919 200.577  1.00  0.00    -0.000 C 
BRANCH  17  18
ATOM     18  C   UNL     1      68.837 -62.285 199.890  1.00  0.00    -0.000 C 
BRANCH  18  19
ATOM     19  C   UNL     1      70.104 -63.145 200.027  1.00  0.00    -0.003 C 
ATOM     20  C   UNL     1      69.795 -64.607 200.344  1.00  0.00     0.004 C 
ENDBRANCH  18  19
ENDBRANCH  17  18
ENDBRANCH  16  17
ENDBRANCH  15  16
ENDBRANCH  14  15
ENDBRANCH  13  14
ENDBRANCH  12  13
ENDBRANCH   1  12
TORSDOF 16
ENDMDL
MODEL 3
REMARK VINA RESULT:    -4.080      3.664      5.881
REMARK INTER + INTRA:          -9.039
REMARK INTER:                  -6.046
REMARK INTRA:                  -2.993
REMARK UNBOUND:                -1.142
REMARK SMILES CCCCCCCCCCCCCCCCCC(=O)[O-]
REMARK SMILES IDX 10 1 11 2 12 3 13 4 14 5 15 6 16 7 17 8 18 9 19 10 20 11
REMARK SMILES IDX 9 12 8 13 7 14 6 15 5 16 4 17 3 18 2 19 1 20
REMARK H PARENT
REMARK Flexibility Score: inf
ROOT
ATOM      1  C   UNL     1      69.961 -59.623 201.774  1.00  0.00     0.000 C 
ENDROOT
BRANCH   1   2
ATOM      2  C   UNL     1      68.577 -59.006 201.521  1.00  0.00     0.000 C 
BRANCH   2   3
ATOM      3  C   UNL     1      68.619 -57.475 201.402  1.00  0.00     0.000 C 
BRANCH   3   4
ATOM      4  C   UNL     1      69.937 -56.878 201.927  1.00  0.00     0.000 C 
BRANCH   4   5
ATOM      5  C   UNL     1      70.711 -56.111 200.843  1.00  0.00     0.000 C 
BRANCH   5   6
ATOM      6  C   UNL     1      72.192 -55.908 201.208  1.00  0.00     0.000 C 
BRANCH   6   7
ATOM      7  C   UNL     1      72.792 -57.112 201.956  1.00  0.00     0.006 C 
BRANCH   7   8
ATOM      8  C   UNL     1      73.416 -58.180 201.045  1.00  0.00     0.053 C 
BRANCH   8   9
ATOM      9  C   UNL     1      74.819 -57.834 200.651  1.00  0.00     0.041 C 
ATOM     10  O   UNL     1      75.046 -57.264 199.551  1.00  0.00    -0.550 OA
ATOM     11  O   UNL     1      75.879 -58.172 201.482  1.00  0.00    -0.550 OA
ENDBRANCH   8   9
ENDBRANCH   7   8
ENDBRANCH   6   7
ENDBRANCH   5   6
ENDBRANCH   4   5
ENDBRANCH   3   4
ENDBRANCH   2   3
ENDBRANCH   1   2
BRANCH   1  12
ATOM     12  C   UNL     1      70.340 -60.598 200.649  1.00  0.00     0.000 C 
BRANCH  12  13
ATOM     13  C   UNL     1      69.976 -62.056 200.977  1.00  0.00    -0.000 C 
BRANCH  13  14
ATOM     14  C   UNL     1      68.730 -62.539 200.215  1.00  0.00    -0.000 C 
BRANCH  14  15
ATOM     15  C   UNL     1      68.519 -61.785 198.892  1.00  0.00    -0.000 C 
BRANCH  15  16
ATOM     16  C   UNL     1      67.138 -61.115 198.804  1.00  0.00    -0.000 C 
BRANCH  16  17
ATOM     17  C   UNL     1      67.233 -59.755 198.100  1.00  0.00    -0.000 C 
BRANCH  17  18
ATOM     18  C   UNL     1      68.624 -59.550 197.484  1.00  0.00    -0.000 C 
BRANCH  18  19
ATOM     19  C   UNL     1      69.261 -58.213 197.893  1.00  0.00    -0.003 C 
ATOM     20  C   UNL     1      70.787 -58.270 197.926  1.00  0.00     0.004 C 
ENDBRANCH  18  19
ENDBRANCH  17  18
ENDBRANCH  16  17
ENDBRANCH  15  16
ENDBRANCH  14  15
ENDBRANCH  13  14
ENDBRANCH  12  13
ENDBRANCH   1  12
TORSDOF 16
ENDMDL
MODEL 4
REMARK VINA RESULT:    -4.080      3.654      6.651
REMARK INTER + INTRA:          -9.037
REMARK INTER:                  -6.259
REMARK INTRA:                  -2.779
REMARK UNBOUND:                -1.142
REMARK SMILES CCCCCCCCCCCCCCCCCC(=O)[O-]
REMARK SMILES IDX 10 1 11 2 12 3 13 4 14 5 15 6 16 7 17 8 18 9 19 10 20 11
REMARK SMILES IDX 9 12 8 13 7 14 6 15 5 16 4 17 3 18 2 19 1 20
REMARK H PARENT
REMARK Flexibility Score: inf
ROOT
ATOM      1  C   UNL     1      68.864 -62.356 199.327  1.00  0.00     0.000 C 
ENDROOT
BRANCH   1   2
ATOM      2  C   UNL     1      69.983 -62.202 200.370  1.00  0.00     0.000 C 
BRANCH   2   3
ATOM      3  C   UNL     1      69.780 -60.986 201.287  1.00  0.00     0.000 C 
BRANCH   3   4
ATOM      4  C   UNL     1      70.876 -60.866 202.361  1.00  0.00     0.000 C 
BRANCH   4   5
ATOM      5  C   UNL     1      71.778 -59.639 202.147  1.00  0.00     0.000 C 
BRANCH   5   6
ATOM      6  C   UNL     1      71.045 -58.484 201.443  1.00  0.00     0.000 C 
BRANCH   6   7
ATOM      7  C   UNL     1      72.004 -57.389 200.940  1.00  0.00     0.006 C 
BRANCH   7   8
ATOM      8  C   UNL     1      73.157 -57.907 200.065  1.00  0.00     0.053 C 
BRANCH   8   9
ATOM      9  C   UNL     1      74.497 -57.562 200.638  1.00  0.00     0.041 C 
ATOM     10  O   UNL     1      75.483 -57.378 199.877  1.00  0.00    -0.550 OA
ATOM     11  O   UNL     1      74.665 -57.476 202.014  1.00  0.00    -0.550 OA
ENDBRANCH   8   9
ENDBRANCH   7   8
ENDBRANCH   6   7
ENDBRANCH   5   6
ENDBRANCH   4   5
ENDBRANCH   3   4
ENDBRANCH   2   3
ENDBRANCH   1   2
BRANCH   1  12
ATOM     12  C   UNL     1      67.623 -61.547 199.735  1.00  0.00     0.000 C 
BRANCH  12  13
ATOM     13  C   UNL     1      66.933 -60.872 198.537  1.00  0.00    -0.000 C 
BRANCH  13  14
ATOM     14  C   UNL     1      66.447 -59.449 198.862  1.00  0.00    -0.000 C 
BRANCH  14  15
ATOM     15  C   UNL     1      67.038 -58.909 200.175  1.00  0.00    -0.000 C 
BRANCH  15  16
ATOM     16  C   UNL     1      67.663 -57.514 200.014  1.00  0.00    -0.000 C 
BRANCH  16  17
ATOM     17  C   UNL     1      67.998 -57.229 198.544  1.00  0.00    -0.000 C 
BRANCH  17  18
ATOM     18  C   UNL     1      69.407 -56.633 198.407  1.00  0.00    -0.000 C 
BRANCH  18  19
ATOM     19  C   UNL     1      70.354 -57.535 197.600  1.00  0.00    -0.003 C 
ATOM     20  C   UNL     1      70.153 -59.020 197.898  1.00  0.00     0.004 C 
ENDBRANCH  18  19
ENDBRANCH  17  18
ENDBRANCH  16  17
ENDBRANCH  15  16
ENDBRANCH  14  15
ENDBRANCH  13  14
ENDBRANCH  12  13
ENDBRANCH   1  12
TORSDOF 16
ENDMDL
MODEL 5
REMARK VINA RESULT:    -4.073      6.246      9.703
REMARK INTER + INTRA:          -9.025
REMARK INTER:                  -5.972
REMARK INTRA:                  -3.053
REMARK UNBOUND:                -1.142
REMARK SMILES CCCCCCCCCCCCCCCCCC(=O)[O-]
REMARK SMILES IDX 10 1 11 2 12 3 13 4 14 5 15 6 16 7 17 8 18 9 19 10 20 11
REMARK SMILES IDX 9 12 8 13 7 14 6 15 5 16 4 17 3 18 2 19 1 20
REMARK H PARENT
REMARK Flexibility Score: inf
ROOT
ATOM      1  C   UNL     1      76.061 -53.565 193.229  1.00  0.00     0.000 C 
ENDROOT
BRANCH   1   2
ATOM      2  C   UNL     1      76.242 -52.243 193.990  1.00  0.00     0.000 C 
BRANCH   2   3
ATOM      3  C   UNL     1      75.019 -51.875 194.845  1.00  0.00     0.000 C 
BRANCH   3   4
ATOM      4  C   UNL     1      73.875 -52.896 194.711  1.00  0.00     0.000 C 
BRANCH   4   5
ATOM      5  C   UNL     1      73.239 -53.250 196.064  1.00  0.00     0.000 C 
BRANCH   5   6
ATOM      6  C   UNL     1      73.000 -54.762 196.226  1.00  0.00     0.000 C 
BRANCH   6   7
ATOM      7  C   UNL     1      73.101 -55.526 194.893  1.00  0.00     0.006 C 
BRANCH   7   8
ATOM      8  C   UNL     1      71.829 -56.296 194.503  1.00  0.00     0.053 C 
BRANCH   8   9
ATOM      9  C   UNL     1      71.086 -55.627 193.388  1.00  0.00     0.041 C 
ATOM     10  O   UNL     1      71.692 -54.862 192.592  1.00  0.00    -0.550 OA
ATOM     11  O   UNL     1      69.718 -55.822 193.248  1.00  0.00    -0.550 OA
ENDBRANCH   8   9
ENDBRANCH   7   8
ENDBRANCH   6   7
ENDBRANCH   5   6
ENDBRANCH   4   5
ENDBRANCH   3   4
ENDBRANCH   2   3
ENDBRANCH   1   2
BRANCH   1  12
ATOM     12  C   UNL     1      77.115 -54.595 193.664  1.00  0.00     0.000 C 
BRANCH  12  13
ATOM     13  C   UNL     1      76.655 -55.453 194.854  1.00  0.00    -0.000 C 
BRANCH  13  14
ATOM     14  C   UNL     1      77.447 -55.154 196.138  1.00  0.00    -0.000 C 
BRANCH  14  15
ATOM     15  C   UNL     1      76.630 -54.350 197.163  1.00  0.00    -0.000 C 
BRANCH  15  16
ATOM     16  C   UNL     1      77.304 -53.025 197.552  1.00  0.00    -0.000 C 
BRANCH  16  17
ATOM     17  C   UNL     1      78.817 -53.211 197.732  1.00  0.00    -0.000 C 
BRANCH  17  18
ATOM     18  C   UNL     1      79.601 -52.245 196.832  1.00  0.00    -0.000 C 
BRANCH  18  19
ATOM     19  C   UNL     1      80.261 -52.954 195.638  1.00  0.00    -0.003 C 
ATOM     20  C   UNL     1      79.973 -52.262 194.307  1.00  0.00     0.004 C 
ENDBRANCH  18  19
ENDBRANCH  17  18
ENDBRANCH  16  17
ENDBRANCH  15  16
ENDBRANCH  14  15
ENDBRANCH  13  14
ENDBRANCH  12  13
ENDBRANCH   1  12
TORSDOF 16
ENDMDL
MODEL 6
REMARK VINA RESULT:    -4.068      1.485      2.122
REMARK INTER + INTRA:          -9.014
REMARK INTER:                  -7.087
REMARK INTRA:                  -1.927
REMARK UNBOUND:                -1.142
REMARK SMILES CCCCCCCCCCCCCCCCCC(=O)[O-]
REMARK SMILES IDX 10 1 11 2 12 3 13 4 14 5 15 6 16 7 17 8 18 9 19 10 20 11
REMARK SMILES IDX 9 12 8 13 7 14 6 15 5 16 4 17 3 18 2 19 1 20
REMARK H PARENT
REMARK Flexibility Score: inf
ROOT
ATOM      1  C   UNL     1      75.246 -58.039 201.116  1.00  0.00     0.000 C 
ENDROOT
BRANCH   1   2
ATOM      2  C   UNL     1      75.259 -57.512 199.673  1.00  0.00     0.000 C 
BRANCH   2   3
ATOM      3  C   UNL     1      74.977 -56.004 199.587  1.00  0.00     0.000 C 
BRANCH   3   4
ATOM      4  C   UNL     1      74.292 -55.605 198.267  1.00  0.00     0.000 C 
BRANCH   4   5
ATOM      5  C   UNL     1      75.294 -55.411 197.118  1.00  0.00     0.000 C 
BRANCH   5   6
ATOM      6  C   UNL     1      76.452 -54.471 197.498  1.00  0.00     0.000 C 
BRANCH   6   7
ATOM      7  C   UNL     1      77.557 -54.425 196.426  1.00  0.00     0.006 C 
BRANCH   7   8
ATOM      8  C   UNL     1      77.270 -53.467 195.259  1.00  0.00     0.053 C 
BRANCH   8   9
ATOM      9  C   UNL     1      76.939 -54.202 193.996  1.00  0.00     0.041 C 
ATOM     10  O   UNL     1      76.592 -53.567 192.966  1.00  0.00    -0.550 OA
ATOM     11  O   UNL     1      76.982 -55.590 193.967  1.00  0.00    -0.550 OA
ENDBRANCH   8   9
ENDBRANCH   7   8
ENDBRANCH   6   7
ENDBRANCH   5   6
ENDBRANCH   4   5
ENDBRANCH   3   4
ENDBRANCH   2   3
ENDBRANCH   1   2
BRANCH   1  12
ATOM     12  C   UNL     1      74.148 -57.349 201.940  1.00  0.00     0.000 C 
BRANCH  12  13
ATOM     13  C   UNL     1      72.800 -58.085 201.870  1.00  0.00    -0.000 C 
BRANCH  13  14
ATOM     14  C   UNL     1      71.655 -57.174 201.396  1.00  0.00    -0.000 C 
BRANCH  14  15
ATOM     15  C   UNL     1      71.455 -57.221 199.872  1.00  0.00    -0.000 C 
BRANCH  15  16
ATOM     16  C   UNL     1      71.576 -58.643 199.301  1.00  0.00    -0.000 C 
BRANCH  16  17
ATOM     17  C   UNL     1      70.237 -59.386 199.392  1.00  0.00    -0.000 C 
BRANCH  17  18
ATOM     18  C   UNL     1      70.411 -60.753 200.069  1.00  0.00    -0.000 C 
BRANCH  18  19
ATOM     19  C   UNL     1      69.758 -60.811 201.459  1.00  0.00    -0.003 C 
ATOM     20  C   UNL     1      70.782 -60.894 202.590  1.00  0.00     0.004 C 
ENDBRANCH  18  19
ENDBRANCH  17  18
ENDBRANCH  16  17
ENDBRANCH  15  16
ENDBRANCH  14  15
ENDBRANCH  13  14
ENDBRANCH  12  13
ENDBRANCH   1  12
TORSDOF 16
ENDMDL
MODEL 7
REMARK VINA RESULT:    -4.065      4.168      7.265
REMARK INTER + INTRA:          -9.010
REMARK INTER:                  -7.143
REMARK INTRA:                  -1.867
REMARK UNBOUND:                -1.142
REMARK SMILES CCCCCCCCCCCCCCCCCC(=O)[O-]
REMARK SMILES IDX 10 1 11 2 12 3 13 4 14 5 15 6 16 7 17 8 18 9 19 10 20 11
REMARK SMILES IDX 9 12 8 13 7 14 6 15 5 16 4 17 3 18 2 19 1 20
REMARK H PARENT
REMARK Flexibility Score: inf
ROOT
ATOM      1  C   UNL     1      79.646 -54.423 196.269  1.00  0.00     0.000 C 
ENDROOT
BRANCH   1   2
ATOM      2  C   UNL     1      79.734 -54.008 194.792  1.00  0.00     0.000 C 
BRANCH   2   3
ATOM      3  C   UNL     1      80.076 -52.520 194.611  1.00  0.00     0.000 C 
BRANCH   3   4
ATOM      4  C   UNL     1      79.351 -51.889 193.409  1.00  0.00     0.000 C 
BRANCH   4   5
ATOM      5  C   UNL     1      78.399 -52.874 192.711  1.00  0.00     0.000 C 
BRANCH   5   6
ATOM      6  C   UNL     1      76.921 -52.472 192.860  1.00  0.00     0.000 C 
BRANCH   6   7
ATOM      7  C   UNL     1      76.147 -53.395 193.818  1.00  0.00     0.006 C 
BRANCH   7   8
ATOM      8  C   UNL     1      75.184 -52.663 194.767  1.00  0.00     0.053 C 
BRANCH   8   9
ATOM      9  C   UNL     1      73.898 -53.409 194.950  1.00  0.00     0.041 C 
ATOM     10  O   UNL     1      73.387 -54.037 193.986  1.00  0.00    -0.550 OA
ATOM     11  O   UNL     1      73.247 -53.383 196.177  1.00  0.00    -0.550 OA
ENDBRANCH   8   9
ENDBRANCH   7   8
ENDBRANCH   6   7
ENDBRANCH   5   6
ENDBRANCH   4   5
ENDBRANCH   3   4
ENDBRANCH   2   3
ENDBRANCH   1   2
BRANCH   1  12
ATOM     12  C   UNL     1      79.222 -53.235 197.146  1.00  0.00     0.000 C 
BRANCH  12  13
ATOM     13  C   UNL     1      77.718 -53.241 197.469  1.00  0.00    -0.000 C 
BRANCH  13  14
ATOM     14  C   UNL     1      77.074 -54.622 197.255  1.00  0.00    -0.000 C 
BRANCH  14  15
ATOM     15  C   UNL     1      76.494 -55.209 198.552  1.00  0.00    -0.000 C 
BRANCH  15  16
ATOM     16  C   UNL     1      75.139 -55.903 198.335  1.00  0.00    -0.000 C 
BRANCH  16  17
ATOM     17  C   UNL     1      74.453 -56.196 199.676  1.00  0.00    -0.000 C 
BRANCH  17  18
ATOM     18  C   UNL     1      74.537 -57.690 200.021  1.00  0.00    -0.000 C 
BRANCH  18  19
ATOM     19  C   UNL     1      75.302 -57.952 201.328  1.00  0.00    -0.003 C 
ATOM     20  C   UNL     1      76.781 -58.252 201.098  1.00  0.00     0.004 C 
ENDBRANCH  18  19
ENDBRANCH  17  18
ENDBRANCH  16  17
ENDBRANCH  15  16
ENDBRANCH  14  15
ENDBRANCH  13  14
ENDBRANCH  12  13
ENDBRANCH   1  12
TORSDOF 16
ENDMDL
MODEL 8
REMARK VINA RESULT:    -4.038      2.184      2.973
REMARK INTER + INTRA:          -8.957
REMARK INTER:                  -7.737
REMARK INTRA:                  -1.220
REMARK UNBOUND:                -1.142
REMARK SMILES CCCCCCCCCCCCCCCCCC(=O)[O-]
REMARK SMILES IDX 10 1 11 2 12 3 13 4 14 5 15 6 16 7 17 8 18 9 19 10 20 11
REMARK SMILES IDX 9 12 8 13 7 14 6 15 5 16 4 17 3 18 2 19 1 20
REMARK H PARENT
REMARK Flexibility Score: inf
ROOT
ATOM      1  C   UNL     1      75.618 -57.364 200.013  1.00  0.00     0.000 C 
ENDROOT
BRANCH   1   2
ATOM      2  C   UNL     1      74.654 -56.452 199.238  1.00  0.00     0.000 C 
BRANCH   2   3
ATOM      3  C   UNL     1      75.167 -55.007 199.119  1.00  0.00     0.000 C 
BRANCH   3   4
ATOM      4  C   UNL     1      76.548 -54.925 198.446  1.00  0.00     0.000 C 
BRANCH   4   5
ATOM      5  C   UNL     1      76.490 -54.265 197.059  1.00  0.00     0.000 C 
BRANCH   5   6
ATOM      6  C   UNL     1      76.745 -55.266 195.919  1.00  0.00     0.000 C 
BRANCH   6   7
ATOM      7  C   UNL     1      75.454 -55.677 195.187  1.00  0.00     0.006 C 
BRANCH   7   8
ATOM      8  C   UNL     1      74.206 -54.883 195.606  1.00  0.00     0.053 C 
BRANCH   8   9
ATOM      9  C   UNL     1      73.013 -55.226 194.768  1.00  0.00     0.041 C 
ATOM     10  O   UNL     1      72.498 -56.372 194.839  1.00  0.00    -0.550 OA
ATOM     11  O   UNL     1      72.491 -54.290 193.883  1.00  0.00    -0.550 OA
ENDBRANCH   8   9
ENDBRANCH   7   8
ENDBRANCH   6   7
ENDBRANCH   5   6
ENDBRANCH   4   5
ENDBRANCH   3   4
ENDBRANCH   2   3
ENDBRANCH   1   2
BRANCH   1  12
ATOM     12  C   UNL     1      74.881 -58.113 201.134  1.00  0.00     0.000 C 
BRANCH  12  13
ATOM     13  C   UNL     1      74.140 -57.167 202.094  1.00  0.00    -0.000 C 
BRANCH  13  14
ATOM     14  C   UNL     1      72.636 -57.477 202.183  1.00  0.00    -0.000 C 
BRANCH  14  15
ATOM     15  C   UNL     1      72.194 -58.551 201.174  1.00  0.00    -0.000 C 
BRANCH  15  16
ATOM     16  C   UNL     1      71.461 -59.726 201.842  1.00  0.00    -0.000 C 
BRANCH  16  17
ATOM     17  C   UNL     1      70.365 -60.281 200.923  1.00  0.00    -0.000 C 
BRANCH  17  18
ATOM     18  C   UNL     1      70.034 -61.737 201.280  1.00  0.00    -0.000 C 
BRANCH  18  19
ATOM     19  C   UNL     1      69.436 -62.514 200.097  1.00  0.00    -0.003 C 
ATOM     20  C   UNL     1      70.004 -63.927 199.969  1.00  0.00     0.004 C 
ENDBRANCH  18  19
ENDBRANCH  17  18
ENDBRANCH  16  17
ENDBRANCH  15  16
ENDBRANCH  14  15
ENDBRANCH  13  14
ENDBRANCH  12  13
ENDBRANCH   1  12
TORSDOF 16
ENDMDL
MODEL 9
REMARK VINA RESULT:    -4.019      2.629      3.425
REMARK INTER + INTRA:          -8.920
REMARK INTER:                  -6.054
REMARK INTRA:                  -2.866
REMARK UNBOUND:                -1.142
REMARK SMILES CCCCCCCCCCCCCCCCCC(=O)[O-]
REMARK SMILES IDX 10 1 11 2 12 3 13 4 14 5 15 6 16 7 17 8 18 9 19 10 20 11
REMARK SMILES IDX 9 12 8 13 7 14 6 15 5 16 4 17 3 18 2 19 1 20
REMARK H PARENT
REMARK Flexibility Score: inf
ROOT
ATOM      1  C   UNL     1      73.601 -56.730 202.859  1.00  0.00     0.000 C 
ENDROOT
BRANCH   1   2
ATOM      2  C   UNL     1      73.757 -57.948 201.935  1.00  0.00     0.000 C 
BRANCH   2   3
ATOM      3  C   UNL     1      75.041 -57.895 201.092  1.00  0.00     0.000 C 
BRANCH   3   4
ATOM      4  C   UNL     1      74.772 -57.502 199.628  1.00  0.00     0.000 C 
BRANCH   4   5
ATOM      5  C   UNL     1      74.892 -55.988 199.393  1.00  0.00     0.000 C 
BRANCH   5   6
ATOM      6  C   UNL     1      74.851 -55.618 197.900  1.00  0.00     0.000 C 
BRANCH   6   7
ATOM      7  C   UNL     1      73.581 -54.837 197.514  1.00  0.00     0.006 C 
BRANCH   7   8
ATOM      8  C   UNL     1      72.606 -55.614 196.616  1.00  0.00     0.053 C 
BRANCH   8   9
ATOM      9  C   UNL     1      72.833 -55.332 195.162  1.00  0.00     0.041 C 
ATOM     10  O   UNL     1      72.092 -55.859 194.291  1.00  0.00    -0.550 OA
ATOM     11  O   UNL     1      73.883 -54.513 194.768  1.00  0.00    -0.550 OA
ENDBRANCH   8   9
ENDBRANCH   7   8
ENDBRANCH   6   7
ENDBRANCH   5   6
ENDBRANCH   4   5
ENDBRANCH   3   4
ENDBRANCH   2   3
ENDBRANCH   1   2
BRANCH   1  12
ATOM     12  C   UNL     1      72.604 -55.720 202.270  1.00  0.00     0.000 C 
BRANCH  12  13
ATOM     13  C   UNL     1      71.363 -56.394 201.660  1.00  0.00    -0.000 C 
BRANCH  13  14
ATOM     14  C   UNL     1      71.210 -56.099 200.158  1.00  0.00    -0.000 C 
BRANCH  14  15
ATOM     15  C   UNL     1      70.456 -57.212 199.411  1.00  0.00    -0.000 C 
BRANCH  15  16
ATOM     16  C   UNL     1      71.379 -58.356 198.964  1.00  0.00    -0.000 C 
BRANCH  16  17
ATOM     17  C   UNL     1      71.089 -59.637 199.758  1.00  0.00    -0.000 C 
BRANCH  17  18
ATOM     18  C   UNL     1      69.724 -59.554 200.456  1.00  0.00    -0.000 C 
BRANCH  18  19
ATOM     19  C   UNL     1      69.805 -59.881 201.955  1.00  0.00    -0.003 C 
ATOM     20  C   UNL     1      71.093 -60.611 202.331  1.00  0.00     0.004 C 
ENDBRANCH  18  19
ENDBRANCH  17  18
ENDBRANCH  16  17
ENDBRANCH  15  16
ENDBRANCH  14  15
ENDBRANCH  13  14
ENDBRANCH  12  13
ENDBRANCH   1  12
TORSDOF 16
ENDMDL
