MODEL 1
REMARK VINA RESULT:    -4.741      0.000      0.000
REMARK INTER + INTRA:          -4.880
REMARK INTER:                  -4.880
REMARK INTRA:                   0.000
REMARK UNBOUND:                 0.000
REMARK SMILES O=c1ccc2ccc(O)cc2o1
REMARK SMILES IDX 6 1 7 2 8 3 10 4 11 5 5 6 4 7 3 8 2 9 1 10 12 11 9 12
REMARK H PARENT 9 13
REMARK Flexibility Score: inf
ROOT
ATOM      1  C   UNL     1      36.497 -29.064  11.026  1.00  0.00     0.016 A 
ATOM      2  C   UNL     1      35.604 -28.322  11.808  1.00  0.00     0.047 A 
ATOM      3  C   UNL     1      34.239 -28.633  11.809  1.00  0.00     0.119 A 
ATOM      4  C   UNL     1      33.762 -29.692  11.024  1.00  0.00     0.094 A 
ATOM      5  C   UNL     1      34.647 -30.440  10.239  1.00  0.00     0.142 A 
ATOM      6  C   UNL     1      36.024 -30.123  10.241  1.00  0.00     0.018 A 
ATOM      7  C   UNL     1      36.885 -30.888   9.446  1.00  0.00     0.019 A 
ATOM      8  C   UNL     1      36.363 -31.931   8.682  1.00  0.00     0.094 A 
ATOM      9  C   UNL     1      34.989 -32.187   8.730  1.00  0.00     0.336 A 
ATOM     10  O   UNL     1      34.500 -33.125   8.049  1.00  0.00    -0.246 OA
ATOM     11  O   UNL     1      34.192 -31.444   9.495  1.00  0.00    -0.423 OA
ENDROOT
BRANCH   3  12
ATOM     12  O   UNL     1      33.366 -27.882  12.594  1.00  0.00    -0.508 OA
ATOM     13  H   UNL     1      33.686 -27.076  13.119  1.00  0.00     0.293 HD
ENDBRANCH   3  12
TORSDOF 1
ENDMDL
MODEL 2
REMARK VINA RESULT:    -4.686      1.576      4.705
REMARK INTER + INTRA:          -4.823
REMARK INTER:                  -4.823
REMARK INTRA:                   0.000
REMARK UNBOUND:                 0.000
REMARK SMILES O=c1ccc2ccc(O)cc2o1
REMARK SMILES IDX 6 1 7 2 8 3 10 4 11 5 5 6 4 7 3 8 2 9 1 10 12 11 9 12
REMARK H PARENT 9 13
REMARK Flexibility Score: inf
ROOT
ATOM      1  C   UNL     1      34.856 -32.870   9.865  1.00  0.00     0.016 A 
ATOM      2  C   UNL     1      35.647 -33.125   8.739  1.00  0.00     0.047 A 
ATOM      3  C   UNL     1      36.425 -32.106   8.177  1.00  0.00     0.119 A 
ATOM      4  C   UNL     1      36.414 -30.823   8.744  1.00  0.00     0.094 A 
ATOM      5  C   UNL     1      35.626 -30.559   9.869  1.00  0.00     0.142 A 
ATOM      6  C   UNL     1      34.842 -31.590  10.433  1.00  0.00     0.018 A 
ATOM      7  C   UNL     1      34.064 -31.295  11.558  1.00  0.00     0.019 A 
ATOM      8  C   UNL     1      34.085 -30.005  12.085  1.00  0.00     0.094 A 
ATOM      9  C   UNL     1      34.886 -29.034  11.474  1.00  0.00     0.336 A 
ATOM     10  O   UNL     1      34.919 -27.864  11.935  1.00  0.00    -0.246 OA
ATOM     11  O   UNL     1      35.616 -29.341  10.404  1.00  0.00    -0.423 OA
ENDROOT
BRANCH   3  12
ATOM     12  O   UNL     1      37.207 -32.380   7.056  1.00  0.00    -0.508 OA
ATOM     13  H   UNL     1      37.403 -31.668   6.361  1.00  0.00     0.293 HD
ENDBRANCH   3  12
TORSDOF 1
ENDMDL
MODEL 3
REMARK VINA RESULT:    -4.606      1.533      2.171
REMARK INTER + INTRA:          -4.740
REMARK INTER:                  -4.740
REMARK INTRA:                   0.000
REMARK UNBOUND:                 0.000
REMARK SMILES O=c1ccc2ccc(O)cc2o1
REMARK SMILES IDX 6 1 7 2 8 3 10 4 11 5 5 6 4 7 3 8 2 9 1 10 12 11 9 12
REMARK H PARENT 9 13
REMARK Flexibility Score: inf
ROOT
ATOM      1  C   UNL     1      34.085 -31.429  11.530  1.00  0.00     0.016 A 
ATOM      2  C   UNL     1      34.093 -30.159  12.118  1.00  0.00     0.047 A 
ATOM      3  C   UNL     1      34.873 -29.133  11.572  1.00  0.00     0.119 A 
ATOM      4  C   UNL     1      35.650 -29.376  10.430  1.00  0.00     0.094 A 
ATOM      5  C   UNL     1      35.649 -30.642   9.836  1.00  0.00     0.142 A 
ATOM      6  C   UNL     1      34.860 -31.676  10.390  1.00  0.00     0.018 A 
ATOM      7  C   UNL     1      34.879 -32.931   9.773  1.00  0.00     0.019 A 
ATOM      8  C   UNL     1      35.668 -33.125   8.640  1.00  0.00     0.094 A 
ATOM      9  C   UNL     1      36.423 -32.055   8.147  1.00  0.00     0.336 A 
ATOM     10  O   UNL     1      37.141 -32.211   7.126  1.00  0.00    -0.246 OA
ATOM     11  O   UNL     1      36.387 -30.871   8.753  1.00  0.00    -0.423 OA
ENDROOT
BRANCH   3  12
ATOM     12  O   UNL     1      34.867 -27.875  12.172  1.00  0.00    -0.508 OA
ATOM     13  H   UNL     1      34.184 -27.629  12.880  1.00  0.00     0.293 HD
ENDBRANCH   3  12
TORSDOF 1
ENDMDL
MODEL 4
REMARK VINA RESULT:    -4.261      2.122      2.817
REMARK INTER + INTRA:          -4.385
REMARK INTER:                  -4.385
REMARK INTRA:                   0.000
REMARK UNBOUND:                 0.000
REMARK SMILES O=c1ccc2ccc(O)cc2o1
REMARK SMILES IDX 6 1 7 2 8 3 10 4 11 5 5 6 4 7 3 8 2 9 1 10 12 11 9 12
REMARK H PARENT 9 13
REMARK Flexibility Score: inf
ROOT
ATOM      1  C   UNL     1      34.129 -31.114   9.901  1.00  0.00     0.016 A 
ATOM      2  C   UNL     1      33.472 -30.082  10.580  1.00  0.00     0.047 A 
ATOM      3  C   UNL     1      34.201 -29.162  11.343  1.00  0.00     0.119 A 
ATOM      4  C   UNL     1      35.597 -29.273  11.427  1.00  0.00     0.094 A 
ATOM      5  C   UNL     1      36.262 -30.302  10.752  1.00  0.00     0.142 A 
ATOM      6  C   UNL     1      35.522 -31.229   9.984  1.00  0.00     0.018 A 
ATOM      7  C   UNL     1      36.215 -32.246   9.320  1.00  0.00     0.019 A 
ATOM      8  C   UNL     1      37.603 -32.316   9.434  1.00  0.00     0.094 A 
ATOM      9  C   UNL     1      38.269 -31.364  10.213  1.00  0.00     0.336 A 
ATOM     10  O   UNL     1      39.521 -31.410  10.328  1.00  0.00    -0.246 OA
ATOM     11  O   UNL     1      37.586 -30.406  10.834  1.00  0.00    -0.423 OA
ENDROOT
BRANCH   3  12
ATOM     12  O   UNL     1      33.529 -28.141  12.012  1.00  0.00    -0.508 OA
ATOM     13  H   UNL     1      32.676 -27.736  11.641  1.00  0.00     0.293 HD
ENDBRANCH   3  12
TORSDOF 1
ENDMDL
MODEL 5
REMARK VINA RESULT:    -4.176      0.899      4.235
REMARK INTER + INTRA:          -4.298
REMARK INTER:                  -4.298
REMARK INTRA:                   0.000
REMARK UNBOUND:                 0.000
REMARK SMILES O=c1ccc2ccc(O)cc2o1
REMARK SMILES IDX 6 1 7 2 8 3 10 4 11 5 5 6 4 7 3 8 2 9 1 10 12 11 9 12
REMARK H PARENT 9 13
REMARK Flexibility Score: inf
ROOT
ATOM      1  C   UNL     1      37.216 -30.801   9.893  1.00  0.00     0.016 A 
ATOM      2  C   UNL     1      36.809 -31.839   9.048  1.00  0.00     0.047 A 
ATOM      3  C   UNL     1      35.447 -32.086   8.838  1.00  0.00     0.119 A 
ATOM      4  C   UNL     1      34.485 -31.288   9.475  1.00  0.00     0.094 A 
ATOM      5  C   UNL     1      34.883 -30.247  10.321  1.00  0.00     0.142 A 
ATOM      6  C   UNL     1      36.258 -30.002  10.531  1.00  0.00     0.018 A 
ATOM      7  C   UNL     1      36.626 -28.955  11.382  1.00  0.00     0.019 A 
ATOM      8  C   UNL     1      35.633 -28.190  11.993  1.00  0.00     0.094 A 
ATOM      9  C   UNL     1      34.291 -28.491  11.739  1.00  0.00     0.336 A 
ATOM     10  O   UNL     1      33.381 -27.811  12.281  1.00  0.00    -0.246 OA
ATOM     11  O   UNL     1      33.968 -29.493  10.925  1.00  0.00    -0.423 OA
ENDROOT
BRANCH   3  12
ATOM     12  O   UNL     1      35.061 -33.125   7.994  1.00  0.00    -0.508 OA
ATOM     13  H   UNL     1      34.124 -33.174   7.609  1.00  0.00     0.293 HD
ENDBRANCH   3  12
TORSDOF 1
ENDMDL
MODEL 6
REMARK VINA RESULT:    -3.727      1.789      2.175
REMARK INTER + INTRA:          -3.836
REMARK INTER:                  -3.836
REMARK INTRA:                   0.000
REMARK UNBOUND:                 0.000
REMARK SMILES O=c1ccc2ccc(O)cc2o1
REMARK SMILES IDX 6 1 7 2 8 3 10 4 11 5 5 6 4 7 3 8 2 9 1 10 12 11 9 12
REMARK H PARENT 9 13
REMARK Flexibility Score: inf
ROOT
ATOM      1  C   UNL     1      35.774 -29.031  11.498  1.00  0.00     0.016 A 
ATOM      2  C   UNL     1      34.380 -28.939  11.429  1.00  0.00     0.047 A 
ATOM      3  C   UNL     1      33.644 -29.884  10.704  1.00  0.00     0.119 A 
ATOM      4  C   UNL     1      34.306 -30.930  10.044  1.00  0.00     0.094 A 
ATOM      5  C   UNL     1      35.701 -31.030  10.107  1.00  0.00     0.142 A 
ATOM      6  C   UNL     1      36.439 -30.074  10.840  1.00  0.00     0.018 A 
ATOM      7  C   UNL     1      37.832 -30.200  10.885  1.00  0.00     0.019 A 
ATOM      8  C   UNL     1      38.445 -31.256  10.212  1.00  0.00     0.094 A 
ATOM      9  C   UNL     1      37.649 -32.165   9.507  1.00  0.00     0.336 A 
ATOM     10  O   UNL     1      38.184 -33.125   8.895  1.00  0.00    -0.246 OA
ATOM     11  O   UNL     1      36.327 -32.022   9.480  1.00  0.00    -0.423 OA
ENDROOT
BRANCH   3  12
ATOM     12  O   UNL     1      32.256 -29.776  10.647  1.00  0.00    -0.508 OA
ATOM     13  H   UNL     1      31.804 -28.926  10.328  1.00  0.00     0.293 HD
ENDBRANCH   3  12
TORSDOF 1
ENDMDL
MODEL 7
REMARK VINA RESULT:    -3.634     18.986     20.586
REMARK INTER + INTRA:          -3.740
REMARK INTER:                  -3.740
REMARK INTRA:                   0.000
REMARK UNBOUND:                 0.000
REMARK SMILES O=c1ccc2ccc(O)cc2o1
REMARK SMILES IDX 6 1 7 2 8 3 10 4 11 5 5 6 4 7 3 8 2 9 1 10 12 11 9 12
REMARK H PARENT 9 13
REMARK Flexibility Score: inf
ROOT
ATOM      1  C   UNL     1      22.862 -13.467   7.061  1.00  0.00     0.016 A 
ATOM      2  C   UNL     1      23.626 -14.169   8.000  1.00  0.00     0.047 A 
ATOM      3  C   UNL     1      23.608 -15.568   8.022  1.00  0.00     0.119 A 
ATOM      4  C   UNL     1      22.821 -16.273   7.099  1.00  0.00     0.094 A 
ATOM      5  C   UNL     1      22.053 -15.580   6.156  1.00  0.00     0.142 A 
ATOM      6  C   UNL     1      22.074 -14.167   6.138  1.00  0.00     0.018 A 
ATOM      7  C   UNL     1      21.297 -13.502   5.184  1.00  0.00     0.019 A 
ATOM      8  C   UNL     1      20.531 -14.246   4.287  1.00  0.00     0.094 A 
ATOM      9  C   UNL     1      20.559 -15.643   4.365  1.00  0.00     0.336 A 
ATOM     10  O   UNL     1      19.875 -16.331   3.564  1.00  0.00    -0.246 OA
ATOM     11  O   UNL     1      21.308 -16.250   5.282  1.00  0.00    -0.423 OA
ENDROOT
BRANCH   3  12
ATOM     12  O   UNL     1      24.376 -16.249   8.965  1.00  0.00    -0.508 OA
ATOM     13  H   UNL     1      24.986 -15.755   9.607  1.00  0.00     0.293 HD
ENDBRANCH   3  12
TORSDOF 1
ENDMDL
MODEL 8
REMARK VINA RESULT:    -3.530     18.922     20.636
REMARK INTER + INTRA:          -3.633
REMARK INTER:                  -3.633
REMARK INTRA:                   0.000
REMARK UNBOUND:                 0.000
REMARK SMILES O=c1ccc2ccc(O)cc2o1
REMARK SMILES IDX 6 1 7 2 8 3 10 4 11 5 5 6 4 7 3 8 2 9 1 10 12 11 9 12
REMARK H PARENT 9 13
REMARK Flexibility Score: inf
ROOT
ATOM      1  C   UNL     1      21.947 -12.944   6.121  1.00  0.00     0.016 A 
ATOM      2  C   UNL     1      21.062 -13.115   5.051  1.00  0.00     0.047 A 
ATOM      3  C   UNL     1      20.759 -14.399   4.582  1.00  0.00     0.119 A 
ATOM      4  C   UNL     1      21.343 -15.521   5.188  1.00  0.00     0.094 A 
ATOM      5  C   UNL     1      22.229 -15.360   6.259  1.00  0.00     0.142 A 
ATOM      6  C   UNL     1      22.533 -14.063   6.728  1.00  0.00     0.018 A 
ATOM      7  C   UNL     1      23.422 -13.934   7.800  1.00  0.00     0.019 A 
ATOM      8  C   UNL     1      23.978 -15.079   8.369  1.00  0.00     0.094 A 
ATOM      9  C   UNL     1      23.631 -16.332   7.852  1.00  0.00     0.336 A 
ATOM     10  O   UNL     1      24.122 -17.376   8.352  1.00  0.00    -0.246 OA
ATOM     11  O   UNL     1      22.783 -16.426   6.831  1.00  0.00    -0.423 OA
ENDROOT
BRANCH   3  12
ATOM     12  O   UNL     1      19.875 -14.548   3.515  1.00  0.00    -0.508 OA
ATOM     13  H   UNL     1      18.911 -14.239   3.578  1.00  0.00     0.293 HD
ENDBRANCH   3  12
TORSDOF 1
ENDMDL
MODEL 9
REMARK VINA RESULT:    -3.042     19.799     21.163
REMARK INTER + INTRA:          -3.131
REMARK INTER:                  -3.131
REMARK INTRA:                   0.000
REMARK UNBOUND:                 0.000
REMARK SMILES O=c1ccc2ccc(O)cc2o1
REMARK SMILES IDX 6 1 7 2 8 3 10 4 11 5 5 6 4 7 3 8 2 9 1 10 12 11 9 12
REMARK H PARENT 9 13
REMARK Flexibility Score: inf
ROOT
ATOM      1  C   UNL     1      22.556 -15.859   7.245  1.00  0.00     0.016 A 
ATOM      2  C   UNL     1      23.474 -15.006   7.868  1.00  0.00     0.047 A 
ATOM      3  C   UNL     1      23.681 -13.712   7.377  1.00  0.00     0.119 A 
ATOM      4  C   UNL     1      22.966 -13.265   6.256  1.00  0.00     0.094 A 
ATOM      5  C   UNL     1      22.047 -14.111   5.625  1.00  0.00     0.142 A 
ATOM      6  C   UNL     1      21.841 -15.417   6.124  1.00  0.00     0.018 A 
ATOM      7  C   UNL     1      20.915 -16.240   5.474  1.00  0.00     0.019 A 
ATOM      8  C   UNL     1      20.229 -15.752   4.362  1.00  0.00     0.094 A 
ATOM      9  C   UNL     1      20.485 -14.448   3.924  1.00  0.00     0.336 A 
ATOM     10  O   UNL     1      19.875 -13.990   2.924  1.00  0.00    -0.246 OA
ATOM     11  O   UNL     1      21.370 -13.686   4.562  1.00  0.00    -0.423 OA
ENDROOT
BRANCH   3  12
ATOM     12  O   UNL     1      24.599 -12.877   8.011  1.00  0.00    -0.508 OA
ATOM     13  H   UNL     1      25.519 -13.208   8.279  1.00  0.00     0.293 HD
ENDBRANCH   3  12
TORSDOF 1
ENDMDL
