MODEL 1
REMARK VINA RESULT:    -3.735      0.000      0.000
REMARK INTER + INTRA:         -11.960
REMARK INTER:                  -8.102
REMARK INTRA:                  -3.858
REMARK UNBOUND:                -3.858
REMARK SMILES CCCCCCCCCCCCCCCCCCCCCC(=O)[O-]
REMARK SMILES IDX 12 1 11 2 10 3 9 4 8 5 7 6 6 7 5 8 4 9 3 10 2 11 1 12 13 13
REMARK SMILES IDX 14 14 15 15 16 16 17 17 18 18 19 19 20 20 21 21 22 22 23 23
REMARK SMILES IDX 24 24
REMARK H PARENT
REMARK Flexibility Score: inf
ROOT
ATOM      1  C   UNL     1      29.317  20.371  56.779  1.00  0.00     0.000 C 
ENDROOT
BRANCH   1   2
ATOM      2  C   UNL     1      30.111  20.289  55.462  1.00  0.00     0.000 C 
BRANCH   2   3
ATOM      3  C   UNL     1      31.345  19.378  55.572  1.00  0.00     0.000 C 
BRANCH   3   4
ATOM      4  C   UNL     1      31.939  19.028  54.197  1.00  0.00    -0.000 C 
BRANCH   4   5
ATOM      5  C   UNL     1      33.477  19.037  54.194  1.00  0.00    -0.000 C 
BRANCH   5   6
ATOM      6  C   UNL     1      34.081  17.668  53.840  1.00  0.00    -0.000 C 
BRANCH   6   7
ATOM      7  C   UNL     1      33.058  16.542  54.057  1.00  0.00    -0.000 C 
BRANCH   7   8
ATOM      8  C   UNL     1      33.223  15.837  55.414  1.00  0.00    -0.000 C 
BRANCH   8   9
ATOM      9  C   UNL     1      31.904  15.498  56.138  1.00  0.00    -0.000 C 
BRANCH   9  10
ATOM     10  C   UNL     1      31.286  14.134  55.765  1.00  0.00    -0.000 C 
BRANCH  10  11
ATOM     11  C   UNL     1      30.579  13.409  56.923  1.00  0.00    -0.003 C 
ATOM     12  C   UNL     1      29.271  12.742  56.497  1.00  0.00     0.004 C 
ENDBRANCH  10  11
ENDBRANCH   9  10
ENDBRANCH   8   9
ENDBRANCH   7   8
ENDBRANCH   6   7
ENDBRANCH   5   6
ENDBRANCH   4   5
ENDBRANCH   3   4
ENDBRANCH   2   3
ENDBRANCH   1   2
BRANCH   1  13
ATOM     13  C   UNL     1      27.804  20.201  56.566  1.00  0.00     0.000 C 
BRANCH  13  14
ATOM     14  C   UNL     1      27.276  18.859  57.102  1.00  0.00     0.000 C 
BRANCH  14  15
ATOM     15  C   UNL     1      28.358  18.076  57.878  1.00  0.00     0.000 C 
BRANCH  15  16
ATOM     16  C   UNL     1      28.707  16.719  57.243  1.00  0.00     0.000 C 
BRANCH  16  17
ATOM     17  C   UNL     1      27.566  16.147  56.388  1.00  0.00     0.000 C 
BRANCH  17  18
ATOM     18  C   UNL     1      28.031  15.898  54.947  1.00  0.00     0.000 C 
BRANCH  18  19
ATOM     19  C   UNL     1      28.876  17.053  54.378  1.00  0.00     0.000 C 
BRANCH  19  20
ATOM     20  C   UNL     1      28.271  17.757  53.149  1.00  0.00     0.006 C 
BRANCH  20  21
ATOM     21  C   UNL     1      26.837  18.252  53.387  1.00  0.00     0.053 C 
BRANCH  21  22
ATOM     22  C   UNL     1      26.676  19.666  52.919  1.00  0.00     0.041 C 
ATOM     23  O   UNL     1      25.567  20.063  52.472  1.00  0.00    -0.550 OA
ATOM     24  O   UNL     1      27.749  20.549  52.984  1.00  0.00    -0.550 OA
ENDBRANCH  21  22
ENDBRANCH  20  21
ENDBRANCH  19  20
ENDBRANCH  18  19
ENDBRANCH  17  18
ENDBRANCH  16  17
ENDBRANCH  15  16
ENDBRANCH  14  15
ENDBRANCH  13  14
ENDBRANCH   1  13
TORSDOF 20
ENDMDL
MODEL 2
REMARK VINA RESULT:    -3.728      1.520      3.263
REMARK INTER + INTRA:         -11.946
REMARK INTER:                  -8.131
REMARK INTRA:                  -3.815
REMARK UNBOUND:                -3.858
REMARK SMILES CCCCCCCCCCCCCCCCCCCCCC(=O)[O-]
REMARK SMILES IDX 12 1 11 2 10 3 9 4 8 5 7 6 6 7 5 8 4 9 3 10 2 11 1 12 13 13
REMARK SMILES IDX 14 14 15 15 16 16 17 17 18 18 19 19 20 20 21 21 22 22 23 23
REMARK SMILES IDX 24 24
REMARK H PARENT
REMARK Flexibility Score: inf
ROOT
ATOM      1  C   UNL     1      29.958  20.696  55.868  1.00  0.00     0.000 C 
ENDROOT
BRANCH   1   2
ATOM      2  C   UNL     1      30.920  19.505  55.705  1.00  0.00     0.000 C 
BRANCH   2   3
ATOM      3  C   UNL     1      30.629  18.680  54.440  1.00  0.00     0.000 C 
BRANCH   3   4
ATOM      4  C   UNL     1      30.890  17.178  54.647  1.00  0.00    -0.000 C 
BRANCH   4   5
ATOM      5  C   UNL     1      31.428  16.856  56.051  1.00  0.00    -0.000 C 
BRANCH   5   6
ATOM      6  C   UNL     1      32.650  15.923  56.021  1.00  0.00    -0.000 C 
BRANCH   6   7
ATOM      7  C   UNL     1      33.323  15.941  54.641  1.00  0.00    -0.000 C 
BRANCH   7   8
ATOM      8  C   UNL     1      34.644  16.731  54.630  1.00  0.00    -0.000 C 
BRANCH   8   9
ATOM      9  C   UNL     1      34.705  17.886  53.611  1.00  0.00    -0.000 C 
BRANCH   9  10
ATOM     10  C   UNL     1      34.265  19.262  54.154  1.00  0.00    -0.000 C 
BRANCH  10  11
ATOM     11  C   UNL     1      35.108  19.791  55.327  1.00  0.00    -0.003 C 
ATOM     12  C   UNL     1      34.346  19.797  56.652  1.00  0.00     0.004 C 
ENDBRANCH  10  11
ENDBRANCH   9  10
ENDBRANCH   8   9
ENDBRANCH   7   8
ENDBRANCH   6   7
ENDBRANCH   5   6
ENDBRANCH   4   5
ENDBRANCH   3   4
ENDBRANCH   2   3
ENDBRANCH   1   2
BRANCH   1  13
ATOM     13  C   UNL     1      29.041  20.549  57.092  1.00  0.00     0.000 C 
BRANCH  13  14
ATOM     14  C   UNL     1      27.975  19.456  56.907  1.00  0.00     0.000 C 
BRANCH  14  15
ATOM     15  C   UNL     1      28.160  18.288  57.899  1.00  0.00     0.000 C 
BRANCH  15  16
ATOM     16  C   UNL     1      28.107  16.902  57.233  1.00  0.00     0.000 C 
BRANCH  16  17
ATOM     17  C   UNL     1      26.677  16.359  57.097  1.00  0.00     0.000 C 
BRANCH  17  18
ATOM     18  C   UNL     1      26.169  16.505  55.656  1.00  0.00     0.000 C 
BRANCH  18  19
ATOM     19  C   UNL     1      27.253  16.214  54.602  1.00  0.00     0.000 C 
BRANCH  19  20
ATOM     20  C   UNL     1      27.337  17.239  53.455  1.00  0.00     0.006 C 
BRANCH  20  21
ATOM     21  C   UNL     1      26.577  18.538  53.755  1.00  0.00     0.053 C 
BRANCH  21  22
ATOM     22  C   UNL     1      27.112  19.671  52.935  1.00  0.00     0.041 C 
ATOM     23  O   UNL     1      27.409  20.766  53.483  1.00  0.00    -0.550 OA
ATOM     24  O   UNL     1      27.293  19.515  51.564  1.00  0.00    -0.550 OA
ENDBRANCH  21  22
ENDBRANCH  20  21
ENDBRANCH  19  20
ENDBRANCH  18  19
ENDBRANCH  17  18
ENDBRANCH  16  17
ENDBRANCH  15  16
ENDBRANCH  14  15
ENDBRANCH  13  14
ENDBRANCH   1  13
TORSDOF 20
ENDMDL
MODEL 3
REMARK VINA RESULT:    -3.701      1.983      3.603
REMARK INTER + INTRA:         -11.886
REMARK INTER:                  -7.884
REMARK INTRA:                  -4.002
REMARK UNBOUND:                -3.858
REMARK SMILES CCCCCCCCCCCCCCCCCCCCCC(=O)[O-]
REMARK SMILES IDX 12 1 11 2 10 3 9 4 8 5 7 6 6 7 5 8 4 9 3 10 2 11 1 12 13 13
REMARK SMILES IDX 14 14 15 15 16 16 17 17 18 18 19 19 20 20 21 21 22 22 23 23
REMARK SMILES IDX 24 24
REMARK H PARENT
REMARK Flexibility Score: inf
ROOT
ATOM      1  C   UNL     1      27.490  19.545  53.012  1.00  0.00     0.000 C 
ENDROOT
BRANCH   1   2
ATOM      2  C   UNL     1      27.714  20.991  53.494  1.00  0.00     0.000 C 
BRANCH   2   3
ATOM      3  C   UNL     1      29.126  21.212  54.062  1.00  0.00     0.000 C 
BRANCH   3   4
ATOM      4  C   UNL     1      29.102  21.655  55.536  1.00  0.00    -0.000 C 
BRANCH   4   5
ATOM      5  C   UNL     1      30.133  20.907  56.397  1.00  0.00    -0.000 C 
BRANCH   5   6
ATOM      6  C   UNL     1      30.461  19.506  55.855  1.00  0.00    -0.000 C 
BRANCH   6   7
ATOM      7  C   UNL     1      31.891  19.454  55.294  1.00  0.00    -0.000 C 
BRANCH   7   8
ATOM      8  C   UNL     1      32.061  18.398  54.187  1.00  0.00    -0.000 C 
BRANCH   8   9
ATOM      9  C   UNL     1      30.970  17.309  54.153  1.00  0.00    -0.000 C 
BRANCH   9  10
ATOM     10  C   UNL     1      31.436  15.934  53.630  1.00  0.00    -0.000 C 
BRANCH  10  11
ATOM     11  C   UNL     1      31.695  14.883  54.724  1.00  0.00    -0.003 C 
ATOM     12  C   UNL     1      32.093  15.504  56.063  1.00  0.00     0.004 C 
ENDBRANCH  10  11
ENDBRANCH   9  10
ENDBRANCH   8   9
ENDBRANCH   7   8
ENDBRANCH   6   7
ENDBRANCH   5   6
ENDBRANCH   4   5
ENDBRANCH   3   4
ENDBRANCH   2   3
ENDBRANCH   1   2
BRANCH   1  13
ATOM     13  C   UNL     1      27.539  18.527  54.162  1.00  0.00     0.000 C 
BRANCH  13  14
ATOM     14  C   UNL     1      26.295  18.593  55.065  1.00  0.00     0.000 C 
BRANCH  14  15
ATOM     15  C   UNL     1      26.623  19.147  56.468  1.00  0.00     0.000 C 
BRANCH  15  16
ATOM     16  C   UNL     1      26.796  18.053  57.536  1.00  0.00     0.000 C 
BRANCH  16  17
ATOM     17  C   UNL     1      28.231  17.970  58.078  1.00  0.00     0.000 C 
BRANCH  17  18
ATOM     18  C   UNL     1      28.978  16.772  57.476  1.00  0.00     0.000 C 
BRANCH  18  19
ATOM     19  C   UNL     1      28.040  15.619  57.070  1.00  0.00     0.000 C 
BRANCH  19  20
ATOM     20  C   UNL     1      28.131  15.198  55.592  1.00  0.00     0.006 C 
BRANCH  20  21
ATOM     21  C   UNL     1      26.763  14.868  54.977  1.00  0.00     0.053 C 
BRANCH  21  22
ATOM     22  C   UNL     1      26.797  15.017  53.488  1.00  0.00     0.041 C 
ATOM     23  O   UNL     1      25.849  15.589  52.886  1.00  0.00    -0.550 OA
ATOM     24  O   UNL     1      27.881  14.533  52.762  1.00  0.00    -0.550 OA
ENDBRANCH  21  22
ENDBRANCH  20  21
ENDBRANCH  19  20
ENDBRANCH  18  19
ENDBRANCH  17  18
ENDBRANCH  16  17
ENDBRANCH  15  16
ENDBRANCH  14  15
ENDBRANCH  13  14
ENDBRANCH   1  13
TORSDOF 20
ENDMDL
MODEL 4
REMARK VINA RESULT:    -3.694      1.559      4.244
REMARK INTER + INTRA:         -11.871
REMARK INTER:                  -7.852
REMARK INTRA:                  -4.019
REMARK UNBOUND:                -3.858
REMARK SMILES CCCCCCCCCCCCCCCCCCCCCC(=O)[O-]
REMARK SMILES IDX 12 1 11 2 10 3 9 4 8 5 7 6 6 7 5 8 4 9 3 10 2 11 1 12 13 13
REMARK SMILES IDX 14 14 15 15 16 16 17 17 18 18 19 19 20 20 21 21 22 22 23 23
REMARK SMILES IDX 24 24
REMARK H PARENT
REMARK Flexibility Score: inf
ROOT
ATOM      1  C   UNL     1      29.243  17.032  56.642  1.00  0.00     0.000 C 
ENDROOT
BRANCH   1   2
ATOM      2  C   UNL     1      28.543  17.659  57.862  1.00  0.00     0.000 C 
BRANCH   2   3
ATOM      3  C   UNL     1      27.145  18.205  57.525  1.00  0.00     0.000 C 
BRANCH   3   4
ATOM      4  C   UNL     1      27.169  19.183  56.338  1.00  0.00    -0.000 C 
BRANCH   4   5
ATOM      5  C   UNL     1      27.836  20.524  56.685  1.00  0.00    -0.000 C 
BRANCH   5   6
ATOM      6  C   UNL     1      28.440  21.226  55.458  1.00  0.00    -0.000 C 
BRANCH   6   7
ATOM      7  C   UNL     1      29.659  20.456  54.927  1.00  0.00    -0.000 C 
BRANCH   7   8
ATOM      8  C   UNL     1      30.766  20.289  55.983  1.00  0.00    -0.000 C 
BRANCH   8   9
ATOM      9  C   UNL     1      31.872  19.279  55.614  1.00  0.00    -0.000 C 
BRANCH   9  10
ATOM     10  C   UNL     1      31.755  18.670  54.201  1.00  0.00    -0.000 C 
BRANCH  10  11
ATOM     11  C   UNL     1      32.427  17.296  54.035  1.00  0.00    -0.003 C 
ATOM     12  C   UNL     1      32.799  16.650  55.369  1.00  0.00     0.004 C 
ENDBRANCH  10  11
ENDBRANCH   9  10
ENDBRANCH   8   9
ENDBRANCH   7   8
ENDBRANCH   6   7
ENDBRANCH   5   6
ENDBRANCH   4   5
ENDBRANCH   3   4
ENDBRANCH   2   3
ENDBRANCH   1   2
BRANCH   1  13
ATOM     13  C   UNL     1      29.511  15.529  56.825  1.00  0.00     0.000 C 
BRANCH  13  14
ATOM     14  C   UNL     1      28.220  14.692  56.827  1.00  0.00     0.000 C 
BRANCH  14  15
ATOM     15  C   UNL     1      27.730  14.373  55.398  1.00  0.00     0.000 C 
BRANCH  15  16
ATOM     16  C   UNL     1      26.416  15.082  55.027  1.00  0.00     0.000 C 
BRANCH  16  17
ATOM     17  C   UNL     1      26.626  16.268  54.073  1.00  0.00     0.000 C 
BRANCH  17  18
ATOM     18  C   UNL     1      27.986  16.171  53.367  1.00  0.00     0.000 C 
BRANCH  18  19
ATOM     19  C   UNL     1      28.509  17.533  52.876  1.00  0.00     0.000 C 
BRANCH  19  20
ATOM     20  C   UNL     1      27.467  18.667  52.872  1.00  0.00     0.006 C 
BRANCH  20  21
ATOM     21  C   UNL     1      27.115  19.154  51.459  1.00  0.00     0.053 C 
BRANCH  21  22
ATOM     22  C   UNL     1      25.695  18.824  51.119  1.00  0.00     0.041 C 
ATOM     23  O   UNL     1      24.842  18.676  52.035  1.00  0.00    -0.550 OA
ATOM     24  O   UNL     1      25.308  18.688  49.789  1.00  0.00    -0.550 OA
ENDBRANCH  21  22
ENDBRANCH  20  21
ENDBRANCH  19  20
ENDBRANCH  18  19
ENDBRANCH  17  18
ENDBRANCH  16  17
ENDBRANCH  15  16
ENDBRANCH  14  15
ENDBRANCH  13  14
ENDBRANCH   1  13
TORSDOF 20
ENDMDL
MODEL 5
REMARK VINA RESULT:    -3.671      1.608      3.541
REMARK INTER + INTRA:         -11.821
REMARK INTER:                  -8.162
REMARK INTRA:                  -3.659
REMARK UNBOUND:                -3.858
REMARK SMILES CCCCCCCCCCCCCCCCCCCCCC(=O)[O-]
REMARK SMILES IDX 12 1 11 2 10 3 9 4 8 5 7 6 6 7 5 8 4 9 3 10 2 11 1 12 13 13
REMARK SMILES IDX 14 14 15 15 16 16 17 17 18 18 19 19 20 20 21 21 22 22 23 23
REMARK SMILES IDX 24 24
REMARK H PARENT
REMARK Flexibility Score: inf
ROOT
ATOM      1  C   UNL     1      28.178  17.940  57.714  1.00  0.00     0.000 C 
ENDROOT
BRANCH   1   2
ATOM      2  C   UNL     1      27.022  18.747  57.096  1.00  0.00     0.000 C 
BRANCH   2   3
ATOM      3  C   UNL     1      27.506  20.019  56.379  1.00  0.00     0.000 C 
BRANCH   3   4
ATOM      4  C   UNL     1      28.814  20.566  56.976  1.00  0.00    -0.000 C 
BRANCH   4   5
ATOM      5  C   UNL     1      29.856  20.919  55.902  1.00  0.00    -0.000 C 
BRANCH   5   6
ATOM      6  C   UNL     1      30.974  19.869  55.787  1.00  0.00    -0.000 C 
BRANCH   6   7
ATOM      7  C   UNL     1      30.759  18.968  54.562  1.00  0.00    -0.000 C 
BRANCH   7   8
ATOM      8  C   UNL     1      30.812  17.468  54.905  1.00  0.00    -0.000 C 
BRANCH   8   9
ATOM      9  C   UNL     1      31.801  17.091  56.026  1.00  0.00    -0.000 C 
BRANCH   9  10
ATOM     10  C   UNL     1      33.046  16.306  55.564  1.00  0.00    -0.000 C 
BRANCH  10  11
ATOM     11  C   UNL     1      33.521  16.633  54.137  1.00  0.00    -0.003 C 
ATOM     12  C   UNL     1      34.416  17.871  54.078  1.00  0.00     0.004 C 
ENDBRANCH  10  11
ENDBRANCH   9  10
ENDBRANCH   8   9
ENDBRANCH   7   8
ENDBRANCH   6   7
ENDBRANCH   5   6
ENDBRANCH   4   5
ENDBRANCH   3   4
ENDBRANCH   2   3
ENDBRANCH   1   2
BRANCH   1  13
ATOM     13  C   UNL     1      28.195  16.478  57.239  1.00  0.00     0.000 C 
BRANCH  13  14
ATOM     14  C   UNL     1      26.857  15.759  57.484  1.00  0.00     0.000 C 
BRANCH  14  15
ATOM     15  C   UNL     1      26.415  14.920  56.266  1.00  0.00     0.000 C 
BRANCH  15  16
ATOM     16  C   UNL     1      27.108  15.328  54.954  1.00  0.00     0.000 C 
BRANCH  16  17
ATOM     17  C   UNL     1      26.119  15.790  53.875  1.00  0.00     0.000 C 
BRANCH  17  18
ATOM     18  C   UNL     1      26.146  17.317  53.722  1.00  0.00     0.000 C 
BRANCH  18  19
ATOM     19  C   UNL     1      27.558  17.872  53.458  1.00  0.00     0.000 C 
BRANCH  19  20
ATOM     20  C   UNL     1      27.656  18.877  52.295  1.00  0.00     0.006 C 
BRANCH  20  21
ATOM     21  C   UNL     1      27.224  20.296  52.691  1.00  0.00     0.053 C 
BRANCH  21  22
ATOM     22  C   UNL     1      26.095  20.770  51.830  1.00  0.00     0.041 C 
ATOM     23  O   UNL     1      25.414  19.943  51.165  1.00  0.00    -0.550 OA
ATOM     24  O   UNL     1      25.785  22.125  51.768  1.00  0.00    -0.550 OA
ENDBRANCH  21  22
ENDBRANCH  20  21
ENDBRANCH  19  20
ENDBRANCH  18  19
ENDBRANCH  17  18
ENDBRANCH  16  17
ENDBRANCH  15  16
ENDBRANCH  14  15
ENDBRANCH  13  14
ENDBRANCH   1  13
TORSDOF 20
ENDMDL
MODEL 6
REMARK VINA RESULT:    -3.665      1.748      3.956
REMARK INTER + INTRA:         -11.809
REMARK INTER:                  -7.887
REMARK INTRA:                  -3.922
REMARK UNBOUND:                -3.858
REMARK SMILES CCCCCCCCCCCCCCCCCCCCCC(=O)[O-]
REMARK SMILES IDX 12 1 11 2 10 3 9 4 8 5 7 6 6 7 5 8 4 9 3 10 2 11 1 12 13 13
REMARK SMILES IDX 14 14 15 15 16 16 17 17 18 18 19 19 20 20 21 21 22 22 23 23
REMARK SMILES IDX 24 24
REMARK H PARENT
REMARK Flexibility Score: inf
ROOT
ATOM      1  C   UNL     1      27.573  17.532  57.787  1.00  0.00     0.000 C 
ENDROOT
BRANCH   1   2
ATOM      2  C   UNL     1      27.579  16.119  57.176  1.00  0.00     0.000 C 
BRANCH   2   3
ATOM      3  C   UNL     1      28.995  15.638  56.814  1.00  0.00     0.000 C 
BRANCH   3   4
ATOM      4  C   UNL     1      30.069  16.695  57.121  1.00  0.00    -0.000 C 
BRANCH   4   5
ATOM      5  C   UNL     1      31.394  16.427  56.387  1.00  0.00    -0.000 C 
BRANCH   5   6
ATOM      6  C   UNL     1      31.504  14.986  55.862  1.00  0.00    -0.000 C 
BRANCH   6   7
ATOM      7  C   UNL     1      31.480  14.957  54.325  1.00  0.00    -0.000 C 
BRANCH   7   8
ATOM      8  C   UNL     1      32.096  16.218  53.694  1.00  0.00    -0.000 C 
BRANCH   8   9
ATOM      9  C   UNL     1      33.635  16.216  53.601  1.00  0.00    -0.000 C 
BRANCH   9  10
ATOM     10  C   UNL     1      34.324  17.490  54.134  1.00  0.00    -0.000 C 
BRANCH  10  11
ATOM     11  C   UNL     1      33.447  18.754  54.112  1.00  0.00    -0.003 C 
ATOM     12  C   UNL     1      33.405  19.472  55.460  1.00  0.00     0.004 C 
ENDBRANCH  10  11
ENDBRANCH   9  10
ENDBRANCH   8   9
ENDBRANCH   7   8
ENDBRANCH   6   7
ENDBRANCH   5   6
ENDBRANCH   4   5
ENDBRANCH   3   4
ENDBRANCH   2   3
ENDBRANCH   1   2
BRANCH   1  13
ATOM     13  C   UNL     1      26.522  18.449  57.139  1.00  0.00     0.000 C 
BRANCH  13  14
ATOM     14  C   UNL     1      27.130  19.749  56.585  1.00  0.00     0.000 C 
BRANCH  14  15
ATOM     15  C   UNL     1      28.613  19.914  56.981  1.00  0.00     0.000 C 
BRANCH  15  16
ATOM     16  C   UNL     1      29.396  20.859  56.054  1.00  0.00     0.000 C 
BRANCH  16  17
ATOM     17  C   UNL     1      29.349  20.425  54.581  1.00  0.00     0.000 C 
BRANCH  17  18
ATOM     18  C   UNL     1      29.808  18.968  54.423  1.00  0.00     0.000 C 
BRANCH  18  19
ATOM     19  C   UNL     1      29.046  18.212  53.319  1.00  0.00     0.000 C 
BRANCH  19  20
ATOM     20  C   UNL     1      27.722  17.567  53.767  1.00  0.00     0.006 C 
BRANCH  20  21
ATOM     21  C   UNL     1      26.485  18.309  53.242  1.00  0.00     0.053 C 
BRANCH  21  22
ATOM     22  C   UNL     1      25.255  17.468  53.393  1.00  0.00     0.041 C 
ATOM     23  O   UNL     1      24.772  17.250  54.537  1.00  0.00    -0.550 OA
ATOM     24  O   UNL     1      24.634  16.931  52.269  1.00  0.00    -0.550 OA
ENDBRANCH  21  22
ENDBRANCH  20  21
ENDBRANCH  19  20
ENDBRANCH  18  19
ENDBRANCH  17  18
ENDBRANCH  16  17
ENDBRANCH  15  16
ENDBRANCH  14  15
ENDBRANCH  13  14
ENDBRANCH   1  13
TORSDOF 20
ENDMDL
MODEL 7
REMARK VINA RESULT:    -3.660      2.980      6.113
REMARK INTER + INTRA:         -11.797
REMARK INTER:                  -8.019
REMARK INTRA:                  -3.778
REMARK UNBOUND:                -3.858
REMARK SMILES CCCCCCCCCCCCCCCCCCCCCC(=O)[O-]
REMARK SMILES IDX 12 1 11 2 10 3 9 4 8 5 7 6 6 7 5 8 4 9 3 10 2 11 1 12 13 13
REMARK SMILES IDX 14 14 15 15 16 16 17 17 18 18 19 19 20 20 21 21 22 22 23 23
REMARK SMILES IDX 24 24
REMARK H PARENT
REMARK Flexibility Score: inf
ROOT
ATOM      1  C   UNL     1      26.167  17.102  56.522  1.00  0.00     0.000 C 
ENDROOT
BRANCH   1   2
ATOM      2  C   UNL     1      25.478  18.003  55.481  1.00  0.00     0.000 C 
BRANCH   2   3
ATOM      3  C   UNL     1      25.120  17.246  54.190  1.00  0.00     0.000 C 
BRANCH   3   4
ATOM      4  C   UNL     1      26.356  16.633  53.508  1.00  0.00    -0.000 C 
BRANCH   4   5
ATOM      5  C   UNL     1      26.709  17.327  52.182  1.00  0.00    -0.000 C 
BRANCH   5   6
ATOM      6  C   UNL     1      27.914  18.273  52.306  1.00  0.00    -0.000 C 
BRANCH   6   7
ATOM      7  C   UNL     1      28.638  18.069  53.646  1.00  0.00    -0.000 C 
BRANCH   7   8
ATOM      8  C   UNL     1      29.114  19.390  54.276  1.00  0.00    -0.000 C 
BRANCH   8   9
ATOM      9  C   UNL     1      27.987  20.363  54.679  1.00  0.00    -0.000 C 
BRANCH   9  10
ATOM     10  C   UNL     1      28.181  21.059  56.042  1.00  0.00    -0.000 C 
BRANCH  10  11
ATOM     11  C   UNL     1      29.443  20.630  56.811  1.00  0.00    -0.003 C 
ATOM     12  C   UNL     1      30.431  21.777  57.020  1.00  0.00     0.004 C 
ENDBRANCH  10  11
ENDBRANCH   9  10
ENDBRANCH   8   9
ENDBRANCH   7   8
ENDBRANCH   6   7
ENDBRANCH   5   6
ENDBRANCH   4   5
ENDBRANCH   3   4
ENDBRANCH   2   3
ENDBRANCH   1   2
BRANCH   1  13
ATOM     13  C   UNL     1      27.022  17.901  57.518  1.00  0.00     0.000 C 
BRANCH  13  14
ATOM     14  C   UNL     1      28.428  17.304  57.706  1.00  0.00     0.000 C 
BRANCH  14  15
ATOM     15  C   UNL     1      28.636  16.028  56.864  1.00  0.00     0.000 C 
BRANCH  15  16
ATOM     16  C   UNL     1      30.083  15.843  56.375  1.00  0.00     0.000 C 
BRANCH  16  17
ATOM     17  C   UNL     1      30.904  17.139  56.438  1.00  0.00     0.000 C 
BRANCH  17  18
ATOM     18  C   UNL     1      32.280  16.950  55.783  1.00  0.00     0.000 C 
BRANCH  18  19
ATOM     19  C   UNL     1      32.303  17.364  54.300  1.00  0.00     0.000 C 
BRANCH  19  20
ATOM     20  C   UNL     1      32.612  18.851  54.045  1.00  0.00     0.006 C 
BRANCH  20  21
ATOM     21  C   UNL     1      33.917  19.315  54.706  1.00  0.00     0.053 C 
BRANCH  21  22
ATOM     22  C   UNL     1      35.106  18.726  54.012  1.00  0.00     0.041 C 
ATOM     23  O   UNL     1      35.398  19.085  52.840  1.00  0.00    -0.550 OA
ATOM     24  O   UNL     1      35.899  17.786  54.663  1.00  0.00    -0.550 OA
ENDBRANCH  21  22
ENDBRANCH  20  21
ENDBRANCH  19  20
ENDBRANCH  18  19
ENDBRANCH  17  18
ENDBRANCH  16  17
ENDBRANCH  15  16
ENDBRANCH  14  15
ENDBRANCH  13  14
ENDBRANCH   1  13
TORSDOF 20
ENDMDL
MODEL 8
REMARK VINA RESULT:    -3.633      1.193      4.040
REMARK INTER + INTRA:         -11.739
REMARK INTER:                  -8.054
REMARK INTRA:                  -3.685
REMARK UNBOUND:                -3.858
REMARK SMILES CCCCCCCCCCCCCCCCCCCCCC(=O)[O-]
REMARK SMILES IDX 12 1 11 2 10 3 9 4 8 5 7 6 6 7 5 8 4 9 3 10 2 11 1 12 13 13
REMARK SMILES IDX 14 14 15 15 16 16 17 17 18 18 19 19 20 20 21 21 22 22 23 23
REMARK SMILES IDX 24 24
REMARK H PARENT
REMARK Flexibility Score: inf
ROOT
ATOM      1  C   UNL     1      32.245  18.867  54.120  1.00  0.00     0.000 C 
ENDROOT
BRANCH   1   2
ATOM      2  C   UNL     1      31.463  19.499  55.287  1.00  0.00     0.000 C 
BRANCH   2   3
ATOM      3  C   UNL     1      30.125  20.111  54.838  1.00  0.00     0.000 C 
BRANCH   3   4
ATOM      4  C   UNL     1      29.608  21.174  55.823  1.00  0.00    -0.000 C 
BRANCH   4   5
ATOM      5  C   UNL     1      29.094  20.565  57.138  1.00  0.00    -0.000 C 
BRANCH   5   6
ATOM      6  C   UNL     1      28.064  19.446  56.915  1.00  0.00    -0.000 C 
BRANCH   6   7
ATOM      7  C   UNL     1      28.278  18.294  57.909  1.00  0.00    -0.000 C 
BRANCH   7   8
ATOM      8  C   UNL     1      27.045  17.383  58.044  1.00  0.00    -0.000 C 
BRANCH   8   9
ATOM      9  C   UNL     1      27.257  15.927  57.583  1.00  0.00    -0.000 C 
BRANCH   9  10
ATOM     10  C   UNL     1      26.312  15.454  56.458  1.00  0.00    -0.000 C 
BRANCH  10  11
ATOM     11  C   UNL     1      26.371  13.947  56.158  1.00  0.00    -0.003 C 
ATOM     12  C   UNL     1      27.693  13.308  56.582  1.00  0.00     0.004 C 
ENDBRANCH  10  11
ENDBRANCH   9  10
ENDBRANCH   8   9
ENDBRANCH   7   8
ENDBRANCH   6   7
ENDBRANCH   5   6
ENDBRANCH   4   5
ENDBRANCH   3   4
ENDBRANCH   2   3
ENDBRANCH   1   2
BRANCH   1  13
ATOM     13  C   UNL     1      33.080  17.654  54.559  1.00  0.00     0.000 C 
BRANCH  13  14
ATOM     14  C   UNL     1      32.778  17.218  56.004  1.00  0.00     0.000 C 
BRANCH  14  15
ATOM     15  C   UNL     1      32.021  15.874  56.060  1.00  0.00     0.000 C 
BRANCH  15  16
ATOM     16  C   UNL     1      30.493  16.025  55.967  1.00  0.00     0.000 C 
BRANCH  16  17
ATOM     17  C   UNL     1      29.917  15.483  54.650  1.00  0.00     0.000 C 
BRANCH  17  18
ATOM     18  C   UNL     1      29.468  16.630  53.734  1.00  0.00     0.000 C 
BRANCH  18  19
ATOM     19  C   UNL     1      28.077  17.181  54.095  1.00  0.00     0.000 C 
BRANCH  19  20
ATOM     20  C   UNL     1      27.361  17.936  52.959  1.00  0.00     0.006 C 
BRANCH  20  21
ATOM     21  C   UNL     1      26.341  18.962  53.470  1.00  0.00     0.053 C 
BRANCH  21  22
ATOM     22  C   UNL     1      26.439  20.242  52.699  1.00  0.00     0.041 C 
ATOM     23  O   UNL     1      25.656  20.463  51.736  1.00  0.00    -0.550 OA
ATOM     24  O   UNL     1      27.389  21.197  53.047  1.00  0.00    -0.550 OA
ENDBRANCH  21  22
ENDBRANCH  20  21
ENDBRANCH  19  20
ENDBRANCH  18  19
ENDBRANCH  17  18
ENDBRANCH  16  17
ENDBRANCH  15  16
ENDBRANCH  14  15
ENDBRANCH  13  14
ENDBRANCH   1  13
TORSDOF 20
ENDMDL
MODEL 9
REMARK VINA RESULT:    -3.633      1.591      4.273
REMARK INTER + INTRA:         -11.738
REMARK INTER:                  -7.903
REMARK INTRA:                  -3.835
REMARK UNBOUND:                -3.858
REMARK SMILES CCCCCCCCCCCCCCCCCCCCCC(=O)[O-]
REMARK SMILES IDX 12 1 11 2 10 3 9 4 8 5 7 6 6 7 5 8 4 9 3 10 2 11 1 12 13 13
REMARK SMILES IDX 14 14 15 15 16 16 17 17 18 18 19 19 20 20 21 21 22 22 23 23
REMARK SMILES IDX 24 24
REMARK H PARENT
REMARK Flexibility Score: inf
ROOT
ATOM      1  C   UNL     1      26.131  16.231  56.422  1.00  0.00     0.000 C 
ENDROOT
BRANCH   1   2
ATOM      2  C   UNL     1      26.626  15.112  55.487  1.00  0.00     0.000 C 
BRANCH   2   3
ATOM      3  C   UNL     1      27.324  15.659  54.230  1.00  0.00     0.000 C 
BRANCH   3   4
ATOM      4  C   UNL     1      28.835  15.372  54.227  1.00  0.00    -0.000 C 
BRANCH   4   5
ATOM      5  C   UNL     1      29.659  16.518  54.838  1.00  0.00    -0.000 C 
BRANCH   5   6
ATOM      6  C   UNL     1      30.240  16.166  56.217  1.00  0.00    -0.000 C 
BRANCH   6   7
ATOM      7  C   UNL     1      31.660  16.733  56.376  1.00  0.00    -0.000 C 
BRANCH   7   8
ATOM      8  C   UNL     1      32.689  16.029  55.474  1.00  0.00    -0.000 C 
BRANCH   8   9
ATOM      9  C   UNL     1      33.380  16.939  54.439  1.00  0.00    -0.000 C 
BRANCH   9  10
ATOM     10  C   UNL     1      32.922  18.413  54.457  1.00  0.00    -0.000 C 
BRANCH  10  11
ATOM     11  C   UNL     1      33.973  19.409  54.976  1.00  0.00    -0.003 C 
ATOM     12  C   UNL     1      33.696  19.873  56.406  1.00  0.00     0.004 C 
ENDBRANCH  10  11
ENDBRANCH   9  10
ENDBRANCH   8   9
ENDBRANCH   7   8
ENDBRANCH   6   7
ENDBRANCH   5   6
ENDBRANCH   4   5
ENDBRANCH   3   4
ENDBRANCH   2   3
ENDBRANCH   1   2
BRANCH   1  13
ATOM     13  C   UNL     1      26.079  17.600  55.726  1.00  0.00     0.000 C 
BRANCH  13  14
ATOM     14  C   UNL     1      26.344  18.768  56.693  1.00  0.00     0.000 C 
BRANCH  14  15
ATOM     15  C   UNL     1      27.808  18.797  57.183  1.00  0.00     0.000 C 
BRANCH  15  16
ATOM     16  C   UNL     1      28.524  20.129  56.899  1.00  0.00     0.000 C 
BRANCH  16  17
ATOM     17  C   UNL     1      29.860  19.945  56.165  1.00  0.00     0.000 C 
BRANCH  17  18
ATOM     18  C   UNL     1      29.742  20.371  54.695  1.00  0.00     0.000 C 
BRANCH  18  19
ATOM     19  C   UNL     1      28.609  21.385  54.450  1.00  0.00     0.000 C 
BRANCH  19  20
ATOM     20  C   UNL     1      27.634  21.009  53.319  1.00  0.00     0.006 C 
BRANCH  20  21
ATOM     21  C   UNL     1      27.632  19.507  53.003  1.00  0.00     0.053 C 
BRANCH  21  22
ATOM     22  C   UNL     1      26.612  19.183  51.957  1.00  0.00     0.041 C 
ATOM     23  O   UNL     1      26.191  20.083  51.180  1.00  0.00    -0.550 OA
ATOM     24  O   UNL     1      26.129  17.884  51.830  1.00  0.00    -0.550 OA
ENDBRANCH  21  22
ENDBRANCH  20  21
ENDBRANCH  19  20
ENDBRANCH  18  19
ENDBRANCH  17  18
ENDBRANCH  16  17
ENDBRANCH  15  16
ENDBRANCH  14  15
ENDBRANCH  13  14
ENDBRANCH   1  13
TORSDOF 20
ENDMDL
