MODEL 1
REMARK VINA RESULT:    22.698      0.000      0.000
REMARK INTER + INTRA:          24.571
REMARK INTER:                  24.688
REMARK INTRA:                  -0.117
REMARK UNBOUND:                -0.117
REMARK SMILES CC1(C)CC[C@]2(C(=O)[O-])CC[C@@]3(C)C(=CC[C@H]4[C@]5(C)CC[C@H](O)C(C)(C)[C@@H]5CC[C@]43C)[C@@H]2C1
REMARK SMILES IDX 6 1 5 2 10 3 32 4 4 5 11 6 14 7 33 8 2 9 12 10 15 11 1 12
REMARK SMILES IDX 3 13 13 14 30 15 16 16 17 17 29 18 31 19 18 20 28 21 27 22
REMARK SMILES IDX 20 23 19 24 24 25 21 26 22 27 25 28 26 29 7 30 8 31 9 32
REMARK SMILES IDX 23 33
REMARK H PARENT 23 34
REMARK Flexibility Score: inf
ROOT
ATOM      1  C   UNL     1      15.518 -15.718  14.949  1.00  0.00     0.017 C 
ATOM      2  C   UNL     1      16.783 -15.382  14.109  1.00  0.00     0.014 C 
ATOM      3  C   UNL     1      15.020 -17.142  14.631  1.00  0.00     0.014 C 
ATOM      4  C   UNL     1      14.363 -14.723  14.637  1.00  0.00     0.028 C 
ATOM      5  C   UNL     1      16.515 -15.218  12.608  1.00  0.00     0.007 C 
ATOM      6  C   UNL     1      13.842 -17.586  15.511  1.00  0.00     0.013 C 
ATOM      7  C   UNL     1      13.035 -15.123  15.291  1.00  0.00    -0.064 C 
ATOM      8  C   UNL     1      14.131 -14.532  13.108  1.00  0.00     0.015 C 
ATOM      9  C   UNL     1      15.409 -14.179  12.308  1.00  0.00    -0.035 C 
ATOM     10  C   UNL     1      12.742 -16.504  15.895  1.00  0.00    -0.006 C 
ATOM     11  C   UNL     1      12.071 -14.189  15.312  1.00  0.00    -0.027 C 
ATOM     12  C   UNL     1      15.888 -12.745  12.638  1.00  0.00     0.011 C 
ATOM     13  C   UNL     1      15.084 -14.233  10.799  1.00  0.00     0.011 C 
ATOM     14  C   UNL     1      12.798 -16.313  17.446  1.00  0.00     0.017 C 
ATOM     15  C   UNL     1      11.265 -16.986  15.469  1.00  0.00    -0.020 C 
ATOM     16  C   UNL     1      10.636 -14.450  15.649  1.00  0.00     0.032 C 
ATOM     17  C   UNL     1      10.172 -15.930  15.926  1.00  0.00     0.006 C 
ATOM     18  C   UNL     1      11.165 -17.091  13.918  1.00  0.00     0.008 C 
ATOM     19  C   UNL     1      10.995 -18.384  16.140  1.00  0.00     0.012 C 
ATOM     20  C   UNL     1       8.666 -16.157  15.392  1.00  0.00    -0.025 C 
ATOM     21  C   UNL     1       9.755 -17.385  13.392  1.00  0.00     0.005 C 
ATOM     22  C   UNL     1       8.664 -16.355  13.820  1.00  0.00     0.003 C 
ATOM     23  C   UNL     1       7.970 -17.393  16.050  1.00  0.00     0.010 C 
ATOM     24  C   UNL     1       7.840 -14.896  15.840  1.00  0.00     0.012 C 
ATOM     25  C   UNL     1       7.236 -16.722  13.202  1.00  0.00    -0.006 C 
ATOM     26  C   UNL     1       6.559 -17.696  15.507  1.00  0.00     0.033 C 
ATOM     27  C   UNL     1       6.544 -17.892  13.981  1.00  0.00     0.120 C 
ATOM     28  C   UNL     1       6.295 -15.481  13.188  1.00  0.00     0.014 C 
ATOM     29  C   UNL     1       7.360 -17.130  11.704  1.00  0.00     0.014 C 
ENDROOT
BRANCH   1  30
ATOM     30  C   UNL     1      15.957 -15.618  16.403  1.00  0.00     0.048 C 
ATOM     31  O   UNL     1      16.710 -16.496  16.904  1.00  0.00    -0.550 OA
ATOM     32  O   UNL     1      15.626 -14.506  17.169  1.00  0.00    -0.550 OA
ENDBRANCH   1  30
BRANCH  27  33
ATOM     33  O   UNL     1       7.149 -19.125  13.675  1.00  0.00    -0.393 OA
ATOM     34  H   UNL     1       6.439 -19.723  13.319  1.00  0.00     0.210 HD
ENDBRANCH  27  33
TORSDOF 2
ENDMDL
