MODEL 1
REMARK VINA RESULT:    -4.484      0.000      0.000
REMARK INTER + INTRA:         -10.117
REMARK INTER:                  -8.679
REMARK INTRA:                  -1.438
REMARK UNBOUND:                -1.438
REMARK SMILES CCCCCCCCCCCCCCCCCC(=O)[O-]
REMARK SMILES IDX 10 1 11 2 12 3 13 4 14 5 15 6 16 7 17 8 18 9 19 10 20 11
REMARK SMILES IDX 9 12 8 13 7 14 6 15 5 16 4 17 3 18 2 19 1 20
REMARK H PARENT
REMARK Flexibility Score: inf
ROOT
ATOM      1  C   UNL     1      -6.243 -39.714 -11.225  1.00  0.00     0.000 C 
ENDROOT
BRANCH   1   2
ATOM      2  C   UNL     1      -7.477 -38.834 -11.485  1.00  0.00     0.000 C 
BRANCH   2   3
ATOM      3  C   UNL     1      -8.219 -39.226 -12.776  1.00  0.00     0.000 C 
BRANCH   3   4
ATOM      4  C   UNL     1      -7.432 -40.242 -13.618  1.00  0.00     0.000 C 
BRANCH   4   5
ATOM      5  C   UNL     1      -7.105 -39.717 -15.026  1.00  0.00     0.000 C 
BRANCH   5   6
ATOM      6  C   UNL     1      -6.554 -40.809 -15.959  1.00  0.00     0.000 C 
BRANCH   6   7
ATOM      7  C   UNL     1      -6.142 -42.119 -15.259  1.00  0.00     0.006 C 
BRANCH   7   8
ATOM      8  C   UNL     1      -4.621 -42.353 -15.207  1.00  0.00     0.053 C 
BRANCH   8   9
ATOM      9  C   UNL     1      -4.132 -43.227 -16.324  1.00  0.00     0.041 C 
ATOM     10  O   UNL     1      -3.578 -44.330 -16.073  1.00  0.00    -0.550 OA
ATOM     11  O   UNL     1      -4.250 -42.805 -17.642  1.00  0.00    -0.550 OA
ENDBRANCH   8   9
ENDBRANCH   7   8
ENDBRANCH   6   7
ENDBRANCH   5   6
ENDBRANCH   4   5
ENDBRANCH   3   4
ENDBRANCH   2   3
ENDBRANCH   1   2
BRANCH   1  12
ATOM     12  C   UNL     1      -5.240 -39.052 -10.266  1.00  0.00     0.000 C 
BRANCH  12  13
ATOM     13  C   UNL     1      -5.809 -37.793  -9.584  1.00  0.00    -0.000 C 
BRANCH  13  14
ATOM     14  C   UNL     1      -4.775 -36.687  -9.289  1.00  0.00    -0.000 C 
BRANCH  14  15
ATOM     15  C   UNL     1      -5.262 -35.574  -8.340  1.00  0.00    -0.000 C 
BRANCH  15  16
ATOM     16  C   UNL     1      -5.574 -34.226  -9.022  1.00  0.00    -0.000 C 
BRANCH  16  17
ATOM     17  C   UNL     1      -7.072 -33.919  -9.192  1.00  0.00    -0.000 C 
BRANCH  17  18
ATOM     18  C   UNL     1      -7.678 -34.583 -10.441  1.00  0.00    -0.000 C 
BRANCH  18  19
ATOM     19  C   UNL     1      -8.805 -35.567 -10.095  1.00  0.00    -0.003 C 
ATOM     20  C   UNL     1      -9.887 -35.626 -11.173  1.00  0.00     0.004 C 
ENDBRANCH  18  19
ENDBRANCH  17  18
ENDBRANCH  16  17
ENDBRANCH  15  16
ENDBRANCH  14  15
ENDBRANCH  13  14
ENDBRANCH  12  13
ENDBRANCH   1  12
TORSDOF 16
ENDMDL
MODEL 2
REMARK VINA RESULT:    -4.460      3.651      5.407
REMARK INTER + INTRA:         -10.070
REMARK INTER:                  -9.068
REMARK INTRA:                  -1.002
REMARK UNBOUND:                -1.438
REMARK SMILES CCCCCCCCCCCCCCCCCC(=O)[O-]
REMARK SMILES IDX 10 1 11 2 12 3 13 4 14 5 15 6 16 7 17 8 18 9 19 10 20 11
REMARK SMILES IDX 9 12 8 13 7 14 6 15 5 16 4 17 3 18 2 19 1 20
REMARK H PARENT
REMARK Flexibility Score: inf
ROOT
ATOM      1  C   UNL     1      -7.404 -39.693 -14.683  1.00  0.00     0.000 C 
ENDROOT
BRANCH   1   2
ATOM      2  C   UNL     1      -6.381 -40.809 -14.955  1.00  0.00     0.000 C 
BRANCH   2   3
ATOM      3  C   UNL     1      -6.210 -41.098 -16.458  1.00  0.00     0.000 C 
BRANCH   3   4
ATOM      4  C   UNL     1      -7.248 -40.361 -17.318  1.00  0.00     0.000 C 
BRANCH   4   5
ATOM      5  C   UNL     1      -6.622 -39.678 -18.546  1.00  0.00     0.000 C 
BRANCH   5   6
ATOM      6  C   UNL     1      -7.066 -38.215 -18.709  1.00  0.00     0.000 C 
BRANCH   6   7
ATOM      7  C   UNL     1      -7.920 -37.658 -17.552  1.00  0.00     0.006 C 
BRANCH   7   8
ATOM      8  C   UNL     1      -9.389 -37.390 -17.927  1.00  0.00     0.053 C 
BRANCH   8   9
ATOM      9  C   UNL     1      -9.560 -36.134 -18.731  1.00  0.00     0.041 C 
ATOM     10  O   UNL     1      -9.729 -36.196 -19.977  1.00  0.00    -0.550 OA
ATOM     11  O   UNL     1      -9.493 -34.894 -18.110  1.00  0.00    -0.550 OA
ENDBRANCH   8   9
ENDBRANCH   7   8
ENDBRANCH   6   7
ENDBRANCH   5   6
ENDBRANCH   4   5
ENDBRANCH   3   4
ENDBRANCH   2   3
ENDBRANCH   1   2
BRANCH   1  12
ATOM     12  C   UNL     1      -7.786 -39.596 -13.197  1.00  0.00     0.000 C 
BRANCH  12  13
ATOM     13  C   UNL     1      -6.632 -39.994 -12.257  1.00  0.00    -0.000 C 
BRANCH  13  14
ATOM     14  C   UNL     1      -6.983 -39.990 -10.755  1.00  0.00    -0.000 C 
BRANCH  14  15
ATOM     15  C   UNL     1      -5.915 -39.366  -9.836  1.00  0.00    -0.000 C 
BRANCH  15  16
ATOM     16  C   UNL     1      -6.169 -37.896  -9.445  1.00  0.00    -0.000 C 
BRANCH  16  17
ATOM     17  C   UNL     1      -4.903 -37.029  -9.328  1.00  0.00    -0.000 C 
BRANCH  17  18
ATOM     18  C   UNL     1      -5.203 -35.522  -9.415  1.00  0.00    -0.000 C 
BRANCH  18  19
ATOM     19  C   UNL     1      -6.288 -35.197 -10.452  1.00  0.00    -0.003 C 
ATOM     20  C   UNL     1      -7.588 -34.710  -9.811  1.00  0.00     0.004 C 
ENDBRANCH  18  19
ENDBRANCH  17  18
ENDBRANCH  16  17
ENDBRANCH  15  16
ENDBRANCH  14  15
ENDBRANCH  13  14
ENDBRANCH  12  13
ENDBRANCH   1  12
TORSDOF 16
ENDMDL
MODEL 3
REMARK VINA RESULT:    -4.416      2.434      3.670
REMARK INTER + INTRA:          -9.985
REMARK INTER:                  -8.071
REMARK INTRA:                  -1.913
REMARK UNBOUND:                -1.438
REMARK SMILES CCCCCCCCCCCCCCCCCC(=O)[O-]
REMARK SMILES IDX 10 1 11 2 12 3 13 4 14 5 15 6 16 7 17 8 18 9 19 10 20 11
REMARK SMILES IDX 9 12 8 13 7 14 6 15 5 16 4 17 3 18 2 19 1 20
REMARK H PARENT
REMARK Flexibility Score: inf
ROOT
ATOM      1  C   UNL     1      -5.790 -39.637 -10.428  1.00  0.00     0.000 C 
ENDROOT
BRANCH   1   2
ATOM      2  C   UNL     1      -6.547 -40.738  -9.665  1.00  0.00     0.000 C 
BRANCH   2   3
ATOM      3  C   UNL     1      -7.587 -41.455 -10.544  1.00  0.00     0.000 C 
BRANCH   3   4
ATOM      4  C   UNL     1      -7.848 -40.715 -11.865  1.00  0.00     0.000 C 
BRANCH   4   5
ATOM      5  C   UNL     1      -7.327 -41.487 -13.089  1.00  0.00     0.000 C 
BRANCH   5   6
ATOM      6  C   UNL     1      -6.583 -40.588 -14.091  1.00  0.00     0.000 C 
BRANCH   6   7
ATOM      7  C   UNL     1      -6.381 -41.199 -15.493  1.00  0.00     0.006 C 
BRANCH   7   8
ATOM      8  C   UNL     1      -6.772 -40.260 -16.650  1.00  0.00     0.053 C 
BRANCH   8   9
ATOM      9  C   UNL     1      -8.079 -39.562 -16.412  1.00  0.00     0.041 C 
ATOM     10  O   UNL     1      -9.157 -40.214 -16.414  1.00  0.00    -0.550 OA
ATOM     11  O   UNL     1      -8.111 -38.186 -16.227  1.00  0.00    -0.550 OA
ENDBRANCH   8   9
ENDBRANCH   7   8
ENDBRANCH   6   7
ENDBRANCH   5   6
ENDBRANCH   4   5
ENDBRANCH   3   4
ENDBRANCH   2   3
ENDBRANCH   1   2
BRANCH   1  12
ATOM     12  C   UNL     1      -5.874 -38.272  -9.726  1.00  0.00     0.000 C 
BRANCH  12  13
ATOM     13  C   UNL     1      -7.054 -38.179  -8.740  1.00  0.00    -0.000 C 
BRANCH  13  14
ATOM     14  C   UNL     1      -8.185 -37.220  -9.164  1.00  0.00    -0.000 C 
BRANCH  14  15
ATOM     15  C   UNL     1      -7.906 -36.406 -10.442  1.00  0.00    -0.000 C 
BRANCH  15  16
ATOM     16  C   UNL     1      -7.904 -34.875 -10.252  1.00  0.00    -0.000 C 
BRANCH  16  17
ATOM     17  C   UNL     1      -7.115 -34.376  -9.029  1.00  0.00    -0.000 C 
BRANCH  17  18
ATOM     18  C   UNL     1      -5.591 -34.455  -9.230  1.00  0.00    -0.000 C 
BRANCH  18  19
ATOM     19  C   UNL     1      -4.881 -35.168  -8.070  1.00  0.00    -0.003 C 
ATOM     20  C   UNL     1      -3.500 -35.694  -8.459  1.00  0.00     0.004 C 
ENDBRANCH  18  19
ENDBRANCH  17  18
ENDBRANCH  16  17
ENDBRANCH  15  16
ENDBRANCH  14  15
ENDBRANCH  13  14
ENDBRANCH  12  13
ENDBRANCH   1  12
TORSDOF 16
ENDMDL
MODEL 4
REMARK VINA RESULT:    -4.342      4.031      8.076
REMARK INTER + INTRA:          -9.841
REMARK INTER:                  -7.807
REMARK INTRA:                  -2.034
REMARK UNBOUND:                -1.438
REMARK SMILES CCCCCCCCCCCCCCCCCC(=O)[O-]
REMARK SMILES IDX 10 1 11 2 12 3 13 4 14 5 15 6 16 7 17 8 18 9 19 10 20 11
REMARK SMILES IDX 9 12 8 13 7 14 6 15 5 16 4 17 3 18 2 19 1 20
REMARK H PARENT
REMARK Flexibility Score: inf
ROOT
ATOM      1  C   UNL     1      -7.617 -39.017 -11.832  1.00  0.00     0.000 C 
ENDROOT
BRANCH   1   2
ATOM      2  C   UNL     1      -6.609 -39.991 -11.200  1.00  0.00     0.000 C 
BRANCH   2   3
ATOM      3  C   UNL     1      -5.483 -39.264 -10.442  1.00  0.00     0.000 C 
BRANCH   3   4
ATOM      4  C   UNL     1      -5.974 -37.980  -9.756  1.00  0.00     0.000 C 
BRANCH   4   5
ATOM      5  C   UNL     1      -4.822 -37.030  -9.383  1.00  0.00     0.000 C 
BRANCH   5   6
ATOM      6  C   UNL     1      -5.239 -35.550  -9.398  1.00  0.00     0.000 C 
BRANCH   6   7
ATOM      7  C   UNL     1      -6.215 -35.156 -10.524  1.00  0.00     0.006 C 
BRANCH   7   8
ATOM      8  C   UNL     1      -7.502 -34.470 -10.030  1.00  0.00     0.053 C 
BRANCH   8   9
ATOM      9  C   UNL     1      -8.706 -35.359 -10.130  1.00  0.00     0.041 C 
ATOM     10  O   UNL     1      -8.951 -36.201  -9.226  1.00  0.00    -0.550 OA
ATOM     11  O   UNL     1      -9.537 -35.286 -11.240  1.00  0.00    -0.550 OA
ENDBRANCH   8   9
ENDBRANCH   7   8
ENDBRANCH   6   7
ENDBRANCH   5   6
ENDBRANCH   4   5
ENDBRANCH   3   4
ENDBRANCH   2   3
ENDBRANCH   1   2
BRANCH   1  12
ATOM     12  C   UNL     1      -8.294 -39.601 -13.083  1.00  0.00     0.000 C 
BRANCH  12  13
ATOM     13  C   UNL     1      -7.442 -39.436 -14.355  1.00  0.00    -0.000 C 
BRANCH  13  14
ATOM     14  C   UNL     1      -7.044 -40.755 -15.050  1.00  0.00    -0.000 C 
BRANCH  14  15
ATOM     15  C   UNL     1      -5.921 -41.547 -14.353  1.00  0.00    -0.000 C 
BRANCH  15  16
ATOM     16  C   UNL     1      -6.213 -43.047 -14.146  1.00  0.00    -0.000 C 
BRANCH  16  17
ATOM     17  C   UNL     1      -6.561 -43.445 -12.701  1.00  0.00    -0.000 C 
BRANCH  17  18
ATOM     18  C   UNL     1      -8.053 -43.258 -12.375  1.00  0.00    -0.000 C 
BRANCH  18  19
ATOM     19  C   UNL     1      -8.334 -43.291 -10.865  1.00  0.00    -0.003 C 
ATOM     20  C   UNL     1      -7.065 -43.482 -10.034  1.00  0.00     0.004 C 
ENDBRANCH  18  19
ENDBRANCH  17  18
ENDBRANCH  16  17
ENDBRANCH  15  16
ENDBRANCH  14  15
ENDBRANCH  13  14
ENDBRANCH  12  13
ENDBRANCH   1  12
TORSDOF 16
ENDMDL
MODEL 5
REMARK VINA RESULT:    -4.339      3.161      4.519
REMARK INTER + INTRA:          -9.836
REMARK INTER:                  -8.322
REMARK INTRA:                  -1.515
REMARK UNBOUND:                -1.438
REMARK SMILES CCCCCCCCCCCCCCCCCC(=O)[O-]
REMARK SMILES IDX 10 1 11 2 12 3 13 4 14 5 15 6 16 7 17 8 18 9 19 10 20 11
REMARK SMILES IDX 9 12 8 13 7 14 6 15 5 16 4 17 3 18 2 19 1 20
REMARK H PARENT
REMARK Flexibility Score: inf
ROOT
ATOM      1  C   UNL     1      -6.941 -40.893 -12.284  1.00  0.00     0.000 C 
ENDROOT
BRANCH   1   2
ATOM      2  C   UNL     1      -7.398 -39.658 -13.078  1.00  0.00     0.000 C 
BRANCH   2   3
ATOM      3  C   UNL     1      -7.609 -39.962 -14.572  1.00  0.00     0.000 C 
BRANCH   3   4
ATOM      4  C   UNL     1      -6.371 -40.602 -15.220  1.00  0.00     0.000 C 
BRANCH   4   5
ATOM      5  C   UNL     1      -6.564 -40.877 -16.721  1.00  0.00     0.000 C 
BRANCH   5   6
ATOM      6  C   UNL     1      -7.726 -40.075 -17.332  1.00  0.00     0.000 C 
BRANCH   6   7
ATOM      7  C   UNL     1      -7.306 -38.846 -18.163  1.00  0.00     0.006 C 
BRANCH   7   8
ATOM      8  C   UNL     1      -7.780 -37.501 -17.581  1.00  0.00     0.053 C 
BRANCH   8   9
ATOM      9  C   UNL     1      -8.929 -36.914 -18.348  1.00  0.00     0.041 C 
ATOM     10  O   UNL     1      -9.420 -37.531 -19.329  1.00  0.00    -0.550 OA
ATOM     11  O   UNL     1      -9.431 -35.666 -18.003  1.00  0.00    -0.550 OA
ENDBRANCH   8   9
ENDBRANCH   7   8
ENDBRANCH   6   7
ENDBRANCH   5   6
ENDBRANCH   4   5
ENDBRANCH   3   4
ENDBRANCH   2   3
ENDBRANCH   1   2
BRANCH   1  12
ATOM     12  C   UNL     1      -6.502 -40.543 -10.852  1.00  0.00     0.000 C 
BRANCH  12  13
ATOM     13  C   UNL     1      -6.374 -39.025 -10.622  1.00  0.00    -0.000 C 
BRANCH  13  14
ATOM     14  C   UNL     1      -6.746 -38.546  -9.204  1.00  0.00    -0.000 C 
BRANCH  14  15
ATOM     15  C   UNL     1      -7.889 -37.515  -9.142  1.00  0.00    -0.000 C 
BRANCH  15  16
ATOM     16  C   UNL     1      -8.055 -36.648 -10.407  1.00  0.00    -0.000 C 
BRANCH  16  17
ATOM     17  C   UNL     1      -7.858 -35.138 -10.187  1.00  0.00    -0.000 C 
BRANCH  17  18
ATOM     18  C   UNL     1      -6.390 -34.702 -10.333  1.00  0.00    -0.000 C 
BRANCH  18  19
ATOM     19  C   UNL     1      -5.698 -34.502  -8.977  1.00  0.00    -0.003 C 
ATOM     20  C   UNL     1      -4.616 -35.549  -8.708  1.00  0.00     0.004 C 
ENDBRANCH  18  19
ENDBRANCH  17  18
ENDBRANCH  16  17
ENDBRANCH  15  16
ENDBRANCH  14  15
ENDBRANCH  13  14
ENDBRANCH  12  13
ENDBRANCH   1  12
TORSDOF 16
ENDMDL
MODEL 6
REMARK VINA RESULT:    -4.336      2.430      4.051
REMARK INTER + INTRA:          -9.830
REMARK INTER:                  -8.880
REMARK INTRA:                  -0.950
REMARK UNBOUND:                -1.438
REMARK SMILES CCCCCCCCCCCCCCCCCC(=O)[O-]
REMARK SMILES IDX 10 1 11 2 12 3 13 4 14 5 15 6 16 7 17 8 18 9 19 10 20 11
REMARK SMILES IDX 9 12 8 13 7 14 6 15 5 16 4 17 3 18 2 19 1 20
REMARK H PARENT
REMARK Flexibility Score: inf
ROOT
ATOM      1  C   UNL     1      -7.649 -39.508 -13.873  1.00  0.00     0.000 C 
ENDROOT
BRANCH   1   2
ATOM      2  C   UNL     1      -7.512 -39.658 -15.398  1.00  0.00     0.000 C 
BRANCH   2   3
ATOM      3  C   UNL     1      -6.397 -40.641 -15.796  1.00  0.00     0.000 C 
BRANCH   3   4
ATOM      4  C   UNL     1      -6.271 -40.798 -17.319  1.00  0.00     0.000 C 
BRANCH   4   5
ATOM      5  C   UNL     1      -7.502 -40.268 -18.073  1.00  0.00     0.000 C 
BRANCH   5   6
ATOM      6  C   UNL     1      -7.144 -39.224 -19.145  1.00  0.00     0.000 C 
BRANCH   6   7
ATOM      7  C   UNL     1      -5.665 -39.213 -19.577  1.00  0.00     0.006 C 
BRANCH   7   8
ATOM      8  C   UNL     1      -5.403 -39.880 -20.941  1.00  0.00     0.053 C 
BRANCH   8   9
ATOM      9  C   UNL     1      -4.715 -41.207 -20.812  1.00  0.00     0.041 C 
ATOM     10  O   UNL     1      -3.462 -41.264 -20.698  1.00  0.00    -0.550 OA
ATOM     11  O   UNL     1      -5.453 -42.382 -20.859  1.00  0.00    -0.550 OA
ENDBRANCH   8   9
ENDBRANCH   7   8
ENDBRANCH   6   7
ENDBRANCH   5   6
ENDBRANCH   4   5
ENDBRANCH   3   4
ENDBRANCH   2   3
ENDBRANCH   1   2
BRANCH   1  12
ATOM     12  C   UNL     1      -7.401 -40.829 -13.128  1.00  0.00     0.000 C 
BRANCH  12  13
ATOM     13  C   UNL     1      -6.562 -40.646 -11.850  1.00  0.00    -0.000 C 
BRANCH  13  14
ATOM     14  C   UNL     1      -6.617 -39.235 -11.229  1.00  0.00    -0.000 C 
BRANCH  14  15
ATOM     15  C   UNL     1      -5.484 -38.913 -10.236  1.00  0.00    -0.000 C 
BRANCH  15  16
ATOM     16  C   UNL     1      -5.736 -37.688  -9.333  1.00  0.00    -0.000 C 
BRANCH  16  17
ATOM     17  C   UNL     1      -4.943 -36.427  -9.716  1.00  0.00    -0.000 C 
BRANCH  17  18
ATOM     18  C   UNL     1      -4.980 -35.345  -8.623  1.00  0.00    -0.000 C 
BRANCH  18  19
ATOM     19  C   UNL     1      -5.960 -34.209  -8.952  1.00  0.00    -0.003 C 
ATOM     20  C   UNL     1      -6.683 -34.422 -10.283  1.00  0.00     0.004 C 
ENDBRANCH  18  19
ENDBRANCH  17  18
ENDBRANCH  16  17
ENDBRANCH  15  16
ENDBRANCH  14  15
ENDBRANCH  13  14
ENDBRANCH  12  13
ENDBRANCH   1  12
TORSDOF 16
ENDMDL
MODEL 7
REMARK VINA RESULT:    -4.302      2.951      3.711
REMARK INTER + INTRA:          -9.763
REMARK INTER:                  -8.376
REMARK INTRA:                  -1.387
REMARK UNBOUND:                -1.438
REMARK SMILES CCCCCCCCCCCCCCCCCC(=O)[O-]
REMARK SMILES IDX 10 1 11 2 12 3 13 4 14 5 15 6 16 7 17 8 18 9 19 10 20 11
REMARK SMILES IDX 9 12 8 13 7 14 6 15 5 16 4 17 3 18 2 19 1 20
REMARK H PARENT
REMARK Flexibility Score: inf
ROOT
ATOM      1  C   UNL     1      -6.398 -40.116 -10.399  1.00  0.00     0.000 C 
ENDROOT
BRANCH   1   2
ATOM      2  C   UNL     1      -7.046 -40.754 -11.640  1.00  0.00     0.000 C 
BRANCH   2   3
ATOM      3  C   UNL     1      -7.015 -39.823 -12.866  1.00  0.00     0.000 C 
BRANCH   3   4
ATOM      4  C   UNL     1      -8.300 -39.913 -13.702  1.00  0.00     0.000 C 
BRANCH   4   5
ATOM      5  C   UNL     1      -8.204 -39.130 -15.022  1.00  0.00     0.000 C 
BRANCH   5   6
ATOM      6  C   UNL     1      -7.137 -39.693 -15.976  1.00  0.00     0.000 C 
BRANCH   6   7
ATOM      7  C   UNL     1      -7.443 -39.516 -17.477  1.00  0.00     0.006 C 
BRANCH   7   8
ATOM      8  C   UNL     1      -8.660 -38.618 -17.769  1.00  0.00     0.053 C 
BRANCH   8   9
ATOM      9  C   UNL     1      -8.281 -37.180 -17.972  1.00  0.00     0.041 C 
ATOM     10  O   UNL     1      -7.103 -36.874 -18.298  1.00  0.00    -0.550 OA
ATOM     11  O   UNL     1      -9.216 -36.176 -17.762  1.00  0.00    -0.550 OA
ENDBRANCH   8   9
ENDBRANCH   7   8
ENDBRANCH   6   7
ENDBRANCH   5   6
ENDBRANCH   4   5
ENDBRANCH   3   4
ENDBRANCH   2   3
ENDBRANCH   1   2
BRANCH   1  12
ATOM     12  C   UNL     1      -7.285 -39.032  -9.765  1.00  0.00     0.000 C 
BRANCH  12  13
ATOM     13  C   UNL     1      -6.474 -37.975  -8.992  1.00  0.00    -0.000 C 
BRANCH  13  14
ATOM     14  C   UNL     1      -5.251 -37.411  -9.744  1.00  0.00    -0.000 C 
BRANCH  14  15
ATOM     15  C   UNL     1      -4.443 -36.349  -8.973  1.00  0.00    -0.000 C 
BRANCH  15  16
ATOM     16  C   UNL     1      -5.289 -35.258  -8.285  1.00  0.00    -0.000 C 
BRANCH  16  17
ATOM     17  C   UNL     1      -5.762 -34.125  -9.212  1.00  0.00    -0.000 C 
BRANCH  17  18
ATOM     18  C   UNL     1      -7.295 -34.005  -9.272  1.00  0.00    -0.000 C 
BRANCH  18  19
ATOM     19  C   UNL     1      -7.906 -34.839 -10.409  1.00  0.00    -0.003 C 
ATOM     20  C   UNL     1      -9.156 -35.603  -9.973  1.00  0.00     0.004 C 
ENDBRANCH  18  19
ENDBRANCH  17  18
ENDBRANCH  16  17
ENDBRANCH  15  16
ENDBRANCH  14  15
ENDBRANCH  13  14
ENDBRANCH  12  13
ENDBRANCH   1  12
TORSDOF 16
ENDMDL
MODEL 8
REMARK VINA RESULT:    -4.279      2.210      3.697
REMARK INTER + INTRA:          -9.719
REMARK INTER:                  -8.652
REMARK INTRA:                  -1.067
REMARK UNBOUND:                -1.438
REMARK SMILES CCCCCCCCCCCCCCCCCC(=O)[O-]
REMARK SMILES IDX 10 1 11 2 12 3 13 4 14 5 15 6 16 7 17 8 18 9 19 10 20 11
REMARK SMILES IDX 9 12 8 13 7 14 6 15 5 16 4 17 3 18 2 19 1 20
REMARK H PARENT
REMARK Flexibility Score: inf
ROOT
ATOM      1  C   UNL     1      -6.499 -39.473 -11.017  1.00  0.00     0.000 C 
ENDROOT
BRANCH   1   2
ATOM      2  C   UNL     1      -6.428 -40.205 -12.367  1.00  0.00     0.000 C 
BRANCH   2   3
ATOM      3  C   UNL     1      -6.866 -41.677 -12.264  1.00  0.00     0.000 C 
BRANCH   3   4
ATOM      4  C   UNL     1      -6.461 -42.497 -13.499  1.00  0.00     0.000 C 
BRANCH   4   5
ATOM      5  C   UNL     1      -5.931 -41.619 -14.645  1.00  0.00     0.000 C 
BRANCH   5   6
ATOM      6  C   UNL     1      -6.931 -41.479 -15.805  1.00  0.00     0.000 C 
BRANCH   6   7
ATOM      7  C   UNL     1      -6.719 -40.247 -16.706  1.00  0.00     0.006 C 
BRANCH   7   8
ATOM      8  C   UNL     1      -6.483 -40.585 -18.190  1.00  0.00     0.053 C 
BRANCH   8   9
ATOM      9  C   UNL     1      -6.257 -39.365 -19.033  1.00  0.00     0.041 C 
ATOM     10  O   UNL     1      -5.399 -39.379 -19.954  1.00  0.00    -0.550 OA
ATOM     11  O   UNL     1      -6.967 -38.199 -18.775  1.00  0.00    -0.550 OA
ENDBRANCH   8   9
ENDBRANCH   7   8
ENDBRANCH   6   7
ENDBRANCH   5   6
ENDBRANCH   4   5
ENDBRANCH   3   4
ENDBRANCH   2   3
ENDBRANCH   1   2
BRANCH   1  12
ATOM     12  C   UNL     1      -7.629 -38.432 -10.971  1.00  0.00     0.000 C 
BRANCH  12  13
ATOM     13  C   UNL     1      -7.589 -37.563  -9.700  1.00  0.00    -0.000 C 
BRANCH  13  14
ATOM     14  C   UNL     1      -8.607 -36.404  -9.670  1.00  0.00    -0.000 C 
BRANCH  14  15
ATOM     15  C   UNL     1      -8.168 -35.129 -10.416  1.00  0.00    -0.000 C 
BRANCH  15  16
ATOM     16  C   UNL     1      -6.655 -34.834 -10.368  1.00  0.00    -0.000 C 
BRANCH  16  17
ATOM     17  C   UNL     1      -6.187 -34.059  -9.124  1.00  0.00    -0.000 C 
BRANCH  17  18
ATOM     18  C   UNL     1      -5.461 -34.953  -8.103  1.00  0.00    -0.000 C 
BRANCH  18  19
ATOM     19  C   UNL     1      -4.459 -35.909  -8.767  1.00  0.00    -0.003 C 
ATOM     20  C   UNL     1      -3.031 -35.713  -8.257  1.00  0.00     0.004 C 
ENDBRANCH  18  19
ENDBRANCH  17  18
ENDBRANCH  16  17
ENDBRANCH  15  16
ENDBRANCH  14  15
ENDBRANCH  13  14
ENDBRANCH  12  13
ENDBRANCH   1  12
TORSDOF 16
ENDMDL
MODEL 9
REMARK VINA RESULT:    -4.266      1.237      2.607
REMARK INTER + INTRA:          -9.695
REMARK INTER:                  -8.031
REMARK INTRA:                  -1.663
REMARK UNBOUND:                -1.438
REMARK SMILES CCCCCCCCCCCCCCCCCC(=O)[O-]
REMARK SMILES IDX 10 1 11 2 12 3 13 4 14 5 15 6 16 7 17 8 18 9 19 10 20 11
REMARK SMILES IDX 9 12 8 13 7 14 6 15 5 16 4 17 3 18 2 19 1 20
REMARK H PARENT
REMARK Flexibility Score: inf
ROOT
ATOM      1  C   UNL     1      -5.927 -39.606 -10.531  1.00  0.00     0.000 C 
ENDROOT
BRANCH   1   2
ATOM      2  C   UNL     1      -7.112 -40.186 -11.322  1.00  0.00     0.000 C 
BRANCH   2   3
ATOM      3  C   UNL     1      -7.617 -39.227 -12.415  1.00  0.00     0.000 C 
BRANCH   3   4
ATOM      4  C   UNL     1      -7.341 -39.755 -13.831  1.00  0.00     0.000 C 
BRANCH   4   5
ATOM      5  C   UNL     1      -6.372 -40.949 -13.839  1.00  0.00     0.000 C 
BRANCH   5   6
ATOM      6  C   UNL     1      -6.088 -41.479 -15.255  1.00  0.00     0.000 C 
BRANCH   6   7
ATOM      7  C   UNL     1      -4.896 -42.451 -15.361  1.00  0.00     0.006 C 
BRANCH   7   8
ATOM      8  C   UNL     1      -5.125 -43.806 -14.666  1.00  0.00     0.053 C 
BRANCH   8   9
ATOM      9  C   UNL     1      -4.917 -44.971 -15.588  1.00  0.00     0.041 C 
ATOM     10  O   UNL     1      -5.309 -46.121 -15.257  1.00  0.00    -0.550 OA
ATOM     11  O   UNL     1      -4.255 -44.795 -16.797  1.00  0.00    -0.550 OA
ENDBRANCH   8   9
ENDBRANCH   7   8
ENDBRANCH   6   7
ENDBRANCH   5   6
ENDBRANCH   4   5
ENDBRANCH   3   4
ENDBRANCH   2   3
ENDBRANCH   1   2
BRANCH   1  12
ATOM     12  C   UNL     1      -6.190 -38.170 -10.048  1.00  0.00     0.000 C 
BRANCH  12  13
ATOM     13  C   UNL     1      -7.108 -38.114  -8.812  1.00  0.00    -0.000 C 
BRANCH  13  14
ATOM     14  C   UNL     1      -8.162 -36.989  -8.833  1.00  0.00    -0.000 C 
BRANCH  14  15
ATOM     15  C   UNL     1      -8.391 -36.332 -10.208  1.00  0.00    -0.000 C 
BRANCH  15  16
ATOM     16  C   UNL     1      -7.873 -34.885 -10.335  1.00  0.00    -0.000 C 
BRANCH  16  17
ATOM     17  C   UNL     1      -7.192 -34.329  -9.072  1.00  0.00    -0.000 C 
BRANCH  17  18
ATOM     18  C   UNL     1      -5.658 -34.307  -9.184  1.00  0.00    -0.000 C 
BRANCH  18  19
ATOM     19  C   UNL     1      -4.977 -35.160  -8.104  1.00  0.00    -0.003 C 
ATOM     20  C   UNL     1      -3.630 -35.722  -8.559  1.00  0.00     0.004 C 
ENDBRANCH  18  19
ENDBRANCH  17  18
ENDBRANCH  16  17
ENDBRANCH  15  16
ENDBRANCH  14  15
ENDBRANCH  13  14
ENDBRANCH  12  13
ENDBRANCH   1  12
TORSDOF 16
ENDMDL
