MODEL 1
REMARK VINA RESULT:    -3.936      0.000      0.000
REMARK INTER + INTRA:          -8.486
REMARK INTER:                  -7.158
REMARK INTRA:                  -1.328
REMARK UNBOUND:                -1.328
REMARK SMILES CCCCCCCCCCCCCCCC(=O)[O-]
REMARK SMILES IDX 9 1 10 2 11 3 12 4 13 5 14 6 15 7 16 8 17 9 18 10 8 11 7 12
REMARK SMILES IDX 6 13 5 14 4 15 3 16 2 17 1 18
REMARK H PARENT
REMARK Flexibility Score: inf
ROOT
ATOM      1  C   UNL     1     -43.688 -27.107  -0.022  1.00  0.00     0.000 C 
ENDROOT
BRANCH   1   2
ATOM      2  C   UNL     1     -43.078 -28.484  -0.325  1.00  0.00     0.000 C 
BRANCH   2   3
ATOM      3  C   UNL     1     -44.106 -29.628  -0.249  1.00  0.00     0.000 C 
BRANCH   3   4
ATOM      4  C   UNL     1     -44.640 -30.121  -1.606  1.00  0.00     0.000 C 
BRANCH   4   5
ATOM      5  C   UNL     1     -46.169 -30.004  -1.726  1.00  0.00     0.000 C 
BRANCH   5   6
ATOM      6  C   UNL     1     -46.613 -28.703  -2.423  1.00  0.00     0.006 C 
BRANCH   6   7
ATOM      7  C   UNL     1     -46.359 -28.678  -3.940  1.00  0.00     0.053 C 
BRANCH   7   8
ATOM      8  C   UNL     1     -45.430 -27.572  -4.337  1.00  0.00     0.041 C 
ATOM      9  O   UNL     1     -45.219 -27.328  -5.555  1.00  0.00    -0.550 OA
ATOM     10  O   UNL     1     -44.822 -26.790  -3.363  1.00  0.00    -0.550 OA
ENDBRANCH   7   8
ENDBRANCH   6   7
ENDBRANCH   5   6
ENDBRANCH   4   5
ENDBRANCH   3   4
ENDBRANCH   2   3
ENDBRANCH   1   2
BRANCH   1  11
ATOM     11  C   UNL     1     -45.068 -27.249   0.631  1.00  0.00     0.000 C 
BRANCH  11  12
ATOM     12  C   UNL     1     -45.371 -26.055   1.544  1.00  0.00    -0.000 C 
BRANCH  12  13
ATOM     13  C   UNL     1     -46.570 -26.347   2.453  1.00  0.00    -0.000 C 
BRANCH  13  14
ATOM     14  C   UNL     1     -46.570 -27.812   2.911  1.00  0.00    -0.000 C 
BRANCH  14  15
ATOM     15  C   UNL     1     -46.403 -27.963   4.434  1.00  0.00    -0.000 C 
BRANCH  15  16
ATOM     16  C   UNL     1     -46.043 -26.664   5.184  1.00  0.00    -0.000 C 
BRANCH  16  17
ATOM     17  C   UNL     1     -45.595 -26.860   6.643  1.00  0.00    -0.003 C 
ATOM     18  C   UNL     1     -45.176 -28.297   6.950  1.00  0.00     0.004 C 
ENDBRANCH  16  17
ENDBRANCH  15  16
ENDBRANCH  14  15
ENDBRANCH  13  14
ENDBRANCH  12  13
ENDBRANCH  11  12
ENDBRANCH   1  11
TORSDOF 14
ENDMDL
MODEL 2
REMARK VINA RESULT:    -3.688      1.996      2.869
REMARK INTER + INTRA:          -8.035
REMARK INTER:                  -7.416
REMARK INTRA:                  -0.619
REMARK UNBOUND:                -1.328
REMARK SMILES CCCCCCCCCCCCCCCC(=O)[O-]
REMARK SMILES IDX 9 1 10 2 11 3 12 4 13 5 14 6 15 7 16 8 17 9 18 10 8 11 7 12
REMARK SMILES IDX 6 13 5 14 4 15 3 16 2 17 1 18
REMARK H PARENT
REMARK Flexibility Score: inf
ROOT
ATOM      1  C   UNL     1     -44.043 -28.127  -0.769  1.00  0.00     0.000 C 
ENDROOT
BRANCH   1   2
ATOM      2  C   UNL     1     -44.649 -27.587  -2.074  1.00  0.00     0.000 C 
BRANCH   2   3
ATOM      3  C   UNL     1     -45.729 -28.512  -2.664  1.00  0.00     0.000 C 
BRANCH   3   4
ATOM      4  C   UNL     1     -45.632 -28.751  -4.181  1.00  0.00     0.000 C 
BRANCH   4   5
ATOM      5  C   UNL     1     -45.560 -27.444  -4.989  1.00  0.00     0.000 C 
BRANCH   5   6
ATOM      6  C   UNL     1     -45.414 -27.689  -6.504  1.00  0.00     0.006 C 
BRANCH   6   7
ATOM      7  C   UNL     1     -44.395 -28.778  -6.876  1.00  0.00     0.053 C 
BRANCH   7   8
ATOM      8  C   UNL     1     -43.342 -28.269  -7.811  1.00  0.00     0.041 C 
ATOM      9  O   UNL     1     -43.665 -27.600  -8.827  1.00  0.00    -0.550 OA
ATOM     10  O   UNL     1     -41.999 -28.506  -7.541  1.00  0.00    -0.550 OA
ENDBRANCH   7   8
ENDBRANCH   6   7
ENDBRANCH   5   6
ENDBRANCH   4   5
ENDBRANCH   3   4
ENDBRANCH   2   3
ENDBRANCH   1   2
BRANCH   1  11
ATOM     11  C   UNL     1     -44.227 -27.126   0.378  1.00  0.00     0.000 C 
BRANCH  11  12
ATOM     12  C   UNL     1     -45.563 -27.350   1.095  1.00  0.00    -0.000 C 
BRANCH  12  13
ATOM     13  C   UNL     1     -45.943 -26.132   1.945  1.00  0.00    -0.000 C 
BRANCH  13  14
ATOM     14  C   UNL     1     -46.881 -26.533   3.092  1.00  0.00    -0.000 C 
BRANCH  14  15
ATOM     15  C   UNL     1     -46.143 -26.734   4.427  1.00  0.00    -0.000 C 
BRANCH  15  16
ATOM     16  C   UNL     1     -46.014 -28.201   4.887  1.00  0.00    -0.000 C 
BRANCH  16  17
ATOM     17  C   UNL     1     -45.418 -28.391   6.293  1.00  0.00    -0.003 C 
ATOM     18  C   UNL     1     -45.267 -27.077   7.059  1.00  0.00     0.004 C 
ENDBRANCH  16  17
ENDBRANCH  15  16
ENDBRANCH  14  15
ENDBRANCH  13  14
ENDBRANCH  12  13
ENDBRANCH  11  12
ENDBRANCH   1  11
TORSDOF 14
ENDMDL
MODEL 3
REMARK VINA RESULT:    -3.672      1.102      2.777
REMARK INTER + INTRA:          -8.005
REMARK INTER:                  -6.541
REMARK INTRA:                  -1.463
REMARK UNBOUND:                -1.328
REMARK SMILES CCCCCCCCCCCCCCCC(=O)[O-]
REMARK SMILES IDX 9 1 10 2 11 3 12 4 13 5 14 6 15 7 16 8 17 9 18 10 8 11 7 12
REMARK SMILES IDX 6 13 5 14 4 15 3 16 2 17 1 18
REMARK H PARENT
REMARK Flexibility Score: inf
ROOT
ATOM      1  C   UNL     1     -46.770 -26.016   2.026  1.00  0.00     0.000 C 
ENDROOT
BRANCH   1   2
ATOM      2  C   UNL     1     -46.086 -26.743   0.859  1.00  0.00     0.000 C 
BRANCH   2   3
ATOM      3  C   UNL     1     -44.552 -26.617   0.888  1.00  0.00     0.000 C 
BRANCH   3   4
ATOM      4  C   UNL     1     -43.796 -27.580  -0.046  1.00  0.00     0.000 C 
BRANCH   4   5
ATOM      5  C   UNL     1     -44.311 -29.027   0.043  1.00  0.00     0.000 C 
BRANCH   5   6
ATOM      6  C   UNL     1     -44.705 -29.603  -1.331  1.00  0.00     0.006 C 
BRANCH   6   7
ATOM      7  C   UNL     1     -45.938 -28.941  -1.966  1.00  0.00     0.053 C 
BRANCH   7   8
ATOM      8  C   UNL     1     -45.598 -28.208  -3.228  1.00  0.00     0.041 C 
ATOM      9  O   UNL     1     -45.075 -27.063  -3.174  1.00  0.00    -0.550 OA
ATOM     10  O   UNL     1     -45.827 -28.803  -4.462  1.00  0.00    -0.550 OA
ENDBRANCH   7   8
ENDBRANCH   6   7
ENDBRANCH   5   6
ENDBRANCH   4   5
ENDBRANCH   3   4
ENDBRANCH   2   3
ENDBRANCH   1   2
BRANCH   1  11
ATOM     11  C   UNL     1     -46.510 -26.739   3.353  1.00  0.00     0.000 C 
BRANCH  11  12
ATOM     12  C   UNL     1     -47.044 -28.176   3.311  1.00  0.00    -0.000 C 
BRANCH  12  13
ATOM     13  C   UNL     1     -45.935 -29.185   3.628  1.00  0.00    -0.000 C 
BRANCH  13  14
ATOM     14  C   UNL     1     -46.185 -29.872   4.978  1.00  0.00    -0.000 C 
BRANCH  14  15
ATOM     15  C   UNL     1     -45.159 -29.472   6.053  1.00  0.00    -0.000 C 
BRANCH  15  16
ATOM     16  C   UNL     1     -45.679 -28.484   7.118  1.00  0.00    -0.000 C 
BRANCH  16  17
ATOM     17  C   UNL     1     -45.465 -26.997   6.785  1.00  0.00    -0.003 C 
ATOM     18  C   UNL     1     -46.494 -26.083   7.449  1.00  0.00     0.004 C 
ENDBRANCH  16  17
ENDBRANCH  15  16
ENDBRANCH  14  15
ENDBRANCH  13  14
ENDBRANCH  12  13
ENDBRANCH  11  12
ENDBRANCH   1  11
TORSDOF 14
ENDMDL
MODEL 4
REMARK VINA RESULT:    -3.561      1.498      1.917
REMARK INTER + INTRA:          -7.803
REMARK INTER:                  -6.921
REMARK INTRA:                  -0.882
REMARK UNBOUND:                -1.328
REMARK SMILES CCCCCCCCCCCCCCCC(=O)[O-]
REMARK SMILES IDX 9 1 10 2 11 3 12 4 13 5 14 6 15 7 16 8 17 9 18 10 8 11 7 12
REMARK SMILES IDX 6 13 5 14 4 15 3 16 2 17 1 18
REMARK H PARENT
REMARK Flexibility Score: inf
ROOT
ATOM      1  C   UNL     1     -43.716 -27.180  -0.142  1.00  0.00     0.000 C 
ENDROOT
BRANCH   1   2
ATOM      2  C   UNL     1     -44.086 -27.507  -1.597  1.00  0.00     0.000 C 
BRANCH   2   3
ATOM      3  C   UNL     1     -45.275 -28.480  -1.711  1.00  0.00     0.000 C 
BRANCH   3   4
ATOM      4  C   UNL     1     -46.163 -28.287  -2.953  1.00  0.00     0.000 C 
BRANCH   4   5
ATOM      5  C   UNL     1     -46.185 -29.522  -3.870  1.00  0.00     0.000 C 
BRANCH   5   6
ATOM      6  C   UNL     1     -45.598 -29.237  -5.266  1.00  0.00     0.006 C 
BRANCH   6   7
ATOM      7  C   UNL     1     -45.245 -27.762  -5.517  1.00  0.00     0.053 C 
BRANCH   7   8
ATOM      8  C   UNL     1     -45.013 -27.477  -6.969  1.00  0.00     0.041 C 
ATOM      9  O   UNL     1     -45.989 -27.321  -7.749  1.00  0.00    -0.550 OA
ATOM     10  O   UNL     1     -43.717 -27.349  -7.454  1.00  0.00    -0.550 OA
ENDBRANCH   7   8
ENDBRANCH   6   7
ENDBRANCH   5   6
ENDBRANCH   4   5
ENDBRANCH   3   4
ENDBRANCH   2   3
ENDBRANCH   1   2
BRANCH   1  11
ATOM     11  C   UNL     1     -44.924 -27.356   0.786  1.00  0.00     0.000 C 
BRANCH  11  12
ATOM     12  C   UNL     1     -45.272 -26.041   1.492  1.00  0.00    -0.000 C 
BRANCH  12  13
ATOM     13  C   UNL     1     -46.306 -26.268   2.601  1.00  0.00    -0.000 C 
BRANCH  13  14
ATOM     14  C   UNL     1     -46.349 -27.745   3.019  1.00  0.00    -0.000 C 
BRANCH  14  15
ATOM     15  C   UNL     1     -46.547 -27.932   4.534  1.00  0.00    -0.000 C 
BRANCH  15  16
ATOM     16  C   UNL     1     -46.018 -26.778   5.411  1.00  0.00    -0.000 C 
BRANCH  16  17
ATOM     17  C   UNL     1     -45.470 -27.204   6.784  1.00  0.00    -0.003 C 
ATOM     18  C   UNL     1     -45.082 -28.681   6.839  1.00  0.00     0.004 C 
ENDBRANCH  16  17
ENDBRANCH  15  16
ENDBRANCH  14  15
ENDBRANCH  13  14
ENDBRANCH  12  13
ENDBRANCH  11  12
ENDBRANCH   1  11
TORSDOF 14
ENDMDL
MODEL 5
REMARK VINA RESULT:    -3.551      4.002      8.896
REMARK INTER + INTRA:          -7.785
REMARK INTER:                  -7.051
REMARK INTRA:                  -0.733
REMARK UNBOUND:                -1.328
REMARK SMILES CCCCCCCCCCCCCCCC(=O)[O-]
REMARK SMILES IDX 9 1 10 2 11 3 12 4 13 5 14 6 15 7 16 8 17 9 18 10 8 11 7 12
REMARK SMILES IDX 6 13 5 14 4 15 3 16 2 17 1 18
REMARK H PARENT
REMARK Flexibility Score: inf
ROOT
ATOM      1  C   UNL     1     -43.749 -27.129  -0.428  1.00  0.00     0.000 C 
ENDROOT
BRANCH   1   2
ATOM      2  C   UNL     1     -44.864 -27.443   0.580  1.00  0.00     0.000 C 
BRANCH   2   3
ATOM      3  C   UNL     1     -45.257 -26.227   1.440  1.00  0.00     0.000 C 
BRANCH   3   4
ATOM      4  C   UNL     1     -46.405 -26.472   2.436  1.00  0.00     0.000 C 
BRANCH   4   5
ATOM      5  C   UNL     1     -46.357 -27.872   3.073  1.00  0.00     0.000 C 
BRANCH   5   6
ATOM      6  C   UNL     1     -46.599 -27.841   4.595  1.00  0.00     0.006 C 
BRANCH   6   7
ATOM      7  C   UNL     1     -46.065 -26.582   5.297  1.00  0.00     0.053 C 
BRANCH   7   8
ATOM      8  C   UNL     1     -45.662 -26.854   6.714  1.00  0.00     0.041 C 
ATOM      9  O   UNL     1     -45.027 -27.902   7.003  1.00  0.00    -0.550 OA
ATOM     10  O   UNL     1     -45.959 -25.932   7.711  1.00  0.00    -0.550 OA
ENDBRANCH   7   8
ENDBRANCH   6   7
ENDBRANCH   5   6
ENDBRANCH   4   5
ENDBRANCH   3   4
ENDBRANCH   2   3
ENDBRANCH   1   2
BRANCH   1  11
ATOM     11  C   UNL     1     -44.149 -27.566  -1.843  1.00  0.00     0.000 C 
BRANCH  11  12
ATOM     12  C   UNL     1     -45.559 -28.166  -1.856  1.00  0.00    -0.000 C 
BRANCH  12  13
ATOM     13  C   UNL     1     -46.050 -28.389  -3.291  1.00  0.00    -0.000 C 
BRANCH  13  14
ATOM     14  C   UNL     1     -45.306 -27.475  -4.275  1.00  0.00    -0.000 C 
BRANCH  14  15
ATOM     15  C   UNL     1     -45.659 -27.765  -5.745  1.00  0.00    -0.000 C 
BRANCH  15  16
ATOM     16  C   UNL     1     -44.534 -27.468  -6.758  1.00  0.00    -0.000 C 
BRANCH  16  17
ATOM     17  C   UNL     1     -43.966 -28.702  -7.479  1.00  0.00    -0.003 C 
ATOM     18  C   UNL     1     -42.520 -28.513  -7.936  1.00  0.00     0.004 C 
ENDBRANCH  16  17
ENDBRANCH  15  16
ENDBRANCH  14  15
ENDBRANCH  13  14
ENDBRANCH  12  13
ENDBRANCH  11  12
ENDBRANCH   1  11
TORSDOF 14
ENDMDL
MODEL 6
REMARK VINA RESULT:    -3.478      3.662      8.482
REMARK INTER + INTRA:          -7.653
REMARK INTER:                  -6.734
REMARK INTRA:                  -0.919
REMARK UNBOUND:                -1.328
REMARK SMILES CCCCCCCCCCCCCCCC(=O)[O-]
REMARK SMILES IDX 9 1 10 2 11 3 12 4 13 5 14 6 15 7 16 8 17 9 18 10 8 11 7 12
REMARK SMILES IDX 6 13 5 14 4 15 3 16 2 17 1 18
REMARK H PARENT
REMARK Flexibility Score: inf
ROOT
ATOM      1  C   UNL     1     -43.963 -28.631  -0.119  1.00  0.00     0.000 C 
ENDROOT
BRANCH   1   2
ATOM      2  C   UNL     1     -44.093 -27.100  -0.112  1.00  0.00     0.000 C 
BRANCH   2   3
ATOM      3  C   UNL     1     -44.839 -26.565   1.124  1.00  0.00     0.000 C 
BRANCH   3   4
ATOM      4  C   UNL     1     -46.373 -26.674   1.064  1.00  0.00     0.000 C 
BRANCH   4   5
ATOM      5  C   UNL     1     -47.045 -26.416   2.423  1.00  0.00     0.000 C 
BRANCH   5   6
ATOM      6  C   UNL     1     -46.290 -27.074   3.594  1.00  0.00     0.006 C 
BRANCH   6   7
ATOM      7  C   UNL     1     -46.608 -26.471   4.972  1.00  0.00     0.053 C 
BRANCH   7   8
ATOM      8  C   UNL     1     -45.702 -27.001   6.041  1.00  0.00     0.041 C 
ATOM      9  O   UNL     1     -45.282 -26.239   6.952  1.00  0.00    -0.550 OA
ATOM     10  O   UNL     1     -45.349 -28.345   6.051  1.00  0.00    -0.550 OA
ENDBRANCH   7   8
ENDBRANCH   6   7
ENDBRANCH   5   6
ENDBRANCH   4   5
ENDBRANCH   3   4
ENDBRANCH   2   3
ENDBRANCH   1   2
BRANCH   1  11
ATOM     11  C   UNL     1     -44.915 -29.259  -1.144  1.00  0.00     0.000 C 
BRANCH  11  12
ATOM     12  C   UNL     1     -45.293 -28.251  -2.234  1.00  0.00    -0.000 C 
BRANCH  12  13
ATOM     13  C   UNL     1     -46.667 -28.574  -2.833  1.00  0.00    -0.000 C 
BRANCH  13  14
ATOM     14  C   UNL     1     -46.730 -28.175  -4.314  1.00  0.00    -0.000 C 
BRANCH  14  15
ATOM     15  C   UNL     1     -45.463 -27.443  -4.791  1.00  0.00    -0.000 C 
BRANCH  15  16
ATOM     16  C   UNL     1     -45.312 -27.331  -6.322  1.00  0.00    -0.000 C 
BRANCH  16  17
ATOM     17  C   UNL     1     -44.437 -28.418  -6.970  1.00  0.00    -0.003 C 
ATOM     18  C   UNL     1     -43.379 -27.848  -7.914  1.00  0.00     0.004 C 
ENDBRANCH  16  17
ENDBRANCH  15  16
ENDBRANCH  14  15
ENDBRANCH  13  14
ENDBRANCH  12  13
ENDBRANCH  11  12
ENDBRANCH   1  11
TORSDOF 14
ENDMDL
MODEL 7
REMARK VINA RESULT:    -3.393      4.370      8.224
REMARK INTER + INTRA:          -7.498
REMARK INTER:                  -6.284
REMARK INTRA:                  -1.214
REMARK UNBOUND:                -1.328
REMARK SMILES CCCCCCCCCCCCCCCC(=O)[O-]
REMARK SMILES IDX 9 1 10 2 11 3 12 4 13 5 14 6 15 7 16 8 17 9 18 10 8 11 7 12
REMARK SMILES IDX 6 13 5 14 4 15 3 16 2 17 1 18
REMARK H PARENT
REMARK Flexibility Score: inf
ROOT
ATOM      1  C   UNL     1     -45.436 -27.142   0.650  1.00  0.00     0.000 C 
ENDROOT
BRANCH   1   2
ATOM      2  C   UNL     1     -45.636 -26.030   1.691  1.00  0.00     0.000 C 
BRANCH   2   3
ATOM      3  C   UNL     1     -46.536 -26.459   2.865  1.00  0.00     0.000 C 
BRANCH   3   4
ATOM      4  C   UNL     1     -46.244 -27.858   3.439  1.00  0.00     0.000 C 
BRANCH   4   5
ATOM      5  C   UNL     1     -46.884 -28.084   4.819  1.00  0.00     0.000 C 
BRANCH   5   6
ATOM      6  C   UNL     1     -45.858 -28.023   5.967  1.00  0.00     0.006 C 
BRANCH   6   7
ATOM      7  C   UNL     1     -45.625 -26.613   6.535  1.00  0.00     0.053 C 
BRANCH   7   8
ATOM      8  C   UNL     1     -46.451 -26.354   7.757  1.00  0.00     0.041 C 
ATOM      9  O   UNL     1     -46.925 -27.315   8.418  1.00  0.00    -0.550 OA
ATOM     10  O   UNL     1     -46.669 -25.050   8.186  1.00  0.00    -0.550 OA
ENDBRANCH   7   8
ENDBRANCH   6   7
ENDBRANCH   5   6
ENDBRANCH   4   5
ENDBRANCH   3   4
ENDBRANCH   2   3
ENDBRANCH   1   2
BRANCH   1  11
ATOM     11  C   UNL     1     -44.012 -27.114   0.084  1.00  0.00     0.000 C 
BRANCH  11  12
ATOM     12  C   UNL     1     -43.584 -28.505  -0.399  1.00  0.00    -0.000 C 
BRANCH  12  13
ATOM     13  C   UNL     1     -44.664 -29.550  -0.095  1.00  0.00    -0.000 C 
BRANCH  13  14
ATOM     14  C   UNL     1     -45.253 -30.125  -1.390  1.00  0.00    -0.000 C 
BRANCH  14  15
ATOM     15  C   UNL     1     -46.695 -29.654  -1.653  1.00  0.00    -0.000 C 
BRANCH  15  16
ATOM     16  C   UNL     1     -46.873 -28.751  -2.891  1.00  0.00    -0.000 C 
BRANCH  16  17
ATOM     17  C   UNL     1     -45.570 -28.396  -3.628  1.00  0.00    -0.003 C 
ATOM     18  C   UNL     1     -45.800 -27.514  -4.854  1.00  0.00     0.004 C 
ENDBRANCH  16  17
ENDBRANCH  15  16
ENDBRANCH  14  15
ENDBRANCH  13  14
ENDBRANCH  12  13
ENDBRANCH  11  12
ENDBRANCH   1  11
TORSDOF 14
ENDMDL
MODEL 8
REMARK VINA RESULT:    -3.281      2.272      3.738
REMARK INTER + INTRA:          -7.295
REMARK INTER:                  -6.486
REMARK INTRA:                  -0.809
REMARK UNBOUND:                -1.328
REMARK SMILES CCCCCCCCCCCCCCCC(=O)[O-]
REMARK SMILES IDX 9 1 10 2 11 3 12 4 13 5 14 6 15 7 16 8 17 9 18 10 8 11 7 12
REMARK SMILES IDX 6 13 5 14 4 15 3 16 2 17 1 18
REMARK H PARENT
REMARK Flexibility Score: inf
ROOT
ATOM      1  C   UNL     1     -45.880 -27.973  -1.615  1.00  0.00     0.000 C 
ENDROOT
BRANCH   1   2
ATOM      2  C   UNL     1     -46.924 -28.575  -2.568  1.00  0.00     0.000 C 
BRANCH   2   3
ATOM      3  C   UNL     1     -46.343 -28.936  -3.948  1.00  0.00     0.000 C 
BRANCH   3   4
ATOM      4  C   UNL     1     -45.558 -27.809  -4.643  1.00  0.00     0.000 C 
BRANCH   4   5
ATOM      5  C   UNL     1     -46.011 -27.570  -6.093  1.00  0.00     0.000 C 
BRANCH   5   6
ATOM      6  C   UNL     1     -45.143 -28.324  -7.119  1.00  0.00     0.006 C 
BRANCH   6   7
ATOM      7  C   UNL     1     -43.930 -27.530  -7.629  1.00  0.00     0.053 C 
BRANCH   7   8
ATOM      8  C   UNL     1     -42.832 -28.427  -8.113  1.00  0.00     0.041 C 
ATOM      9  O   UNL     1     -41.761 -28.529  -7.458  1.00  0.00    -0.550 OA
ATOM     10  O   UNL     1     -43.005 -29.175  -9.271  1.00  0.00    -0.550 OA
ENDBRANCH   7   8
ENDBRANCH   6   7
ENDBRANCH   5   6
ENDBRANCH   4   5
ENDBRANCH   3   4
ENDBRANCH   2   3
ENDBRANCH   1   2
BRANCH   1  11
ATOM     11  C   UNL     1     -45.148 -29.072  -0.836  1.00  0.00     0.000 C 
BRANCH  11  12
ATOM     12  C   UNL     1     -44.795 -28.601   0.580  1.00  0.00    -0.000 C 
BRANCH  12  13
ATOM     13  C   UNL     1     -44.898 -27.076   0.695  1.00  0.00    -0.000 C 
BRANCH  13  14
ATOM     14  C   UNL     1     -45.790 -26.672   1.877  1.00  0.00    -0.000 C 
BRANCH  14  15
ATOM     15  C   UNL     1     -46.517 -27.869   2.515  1.00  0.00    -0.000 C 
BRANCH  15  16
ATOM     16  C   UNL     1     -46.361 -27.990   4.045  1.00  0.00    -0.000 C 
BRANCH  16  17
ATOM     17  C   UNL     1     -46.124 -26.659   4.780  1.00  0.00    -0.003 C 
ATOM     18  C   UNL     1     -45.762 -26.848   6.253  1.00  0.00     0.004 C 
ENDBRANCH  16  17
ENDBRANCH  15  16
ENDBRANCH  14  15
ENDBRANCH  13  14
ENDBRANCH  12  13
ENDBRANCH  11  12
ENDBRANCH   1  11
TORSDOF 14
ENDMDL
MODEL 9
REMARK VINA RESULT:    -2.732      3.962      9.426
REMARK INTER + INTRA:          -6.296
REMARK INTER:                  -4.829
REMARK INTRA:                  -1.467
REMARK UNBOUND:                -1.328
REMARK SMILES CCCCCCCCCCCCCCCC(=O)[O-]
REMARK SMILES IDX 9 1 10 2 11 3 12 4 13 5 14 6 15 7 16 8 17 9 18 10 8 11 7 12
REMARK SMILES IDX 6 13 5 14 4 15 3 16 2 17 1 18
REMARK H PARENT
REMARK Flexibility Score: inf
ROOT
ATOM      1  C   UNL     1     -45.977 -27.391  -6.203  1.00  0.00     0.000 C 
ENDROOT
BRANCH   1   2
ATOM      2  C   UNL     1     -45.429 -27.628  -4.788  1.00  0.00     0.000 C 
BRANCH   2   3
ATOM      3  C   UNL     1     -45.824 -29.000  -4.211  1.00  0.00     0.000 C 
BRANCH   3   4
ATOM      4  C   UNL     1     -45.700 -29.130  -2.683  1.00  0.00     0.000 C 
BRANCH   4   5
ATOM      5  C   UNL     1     -45.128 -27.865  -2.019  1.00  0.00     0.000 C 
BRANCH   5   6
ATOM      6  C   UNL     1     -44.746 -28.090  -0.543  1.00  0.00     0.006 C 
BRANCH   6   7
ATOM      7  C   UNL     1     -43.418 -27.438  -0.126  1.00  0.00     0.053 C 
BRANCH   7   8
ATOM      8  C   UNL     1     -42.250 -28.352  -0.335  1.00  0.00     0.041 C 
ATOM      9  O   UNL     1     -41.081 -27.886  -0.392  1.00  0.00    -0.550 OA
ATOM     10  O   UNL     1     -42.449 -29.724  -0.434  1.00  0.00    -0.550 OA
ENDBRANCH   7   8
ENDBRANCH   6   7
ENDBRANCH   5   6
ENDBRANCH   4   5
ENDBRANCH   3   4
ENDBRANCH   2   3
ENDBRANCH   1   2
BRANCH   1  11
ATOM     11  C   UNL     1     -46.735 -28.623  -6.713  1.00  0.00     0.000 C 
BRANCH  11  12
ATOM     12  C   UNL     1     -46.405 -28.903  -8.183  1.00  0.00    -0.000 C 
BRANCH  12  13
ATOM     13  C   UNL     1     -46.010 -27.615  -8.915  1.00  0.00    -0.000 C 
BRANCH  13  14
ATOM     14  C   UNL     1     -45.117 -27.922 -10.125  1.00  0.00    -0.000 C 
BRANCH  14  15
ATOM     15  C   UNL     1     -44.522 -29.341 -10.087  1.00  0.00    -0.000 C 
BRANCH  15  16
ATOM     16  C   UNL     1     -43.017 -29.411  -9.758  1.00  0.00    -0.000 C 
BRANCH  16  17
ATOM     17  C   UNL     1     -42.686 -29.594  -8.266  1.00  0.00    -0.003 C 
ATOM     18  C   UNL     1     -42.609 -28.271  -7.506  1.00  0.00     0.004 C 
ENDBRANCH  16  17
ENDBRANCH  15  16
ENDBRANCH  14  15
ENDBRANCH  13  14
ENDBRANCH  12  13
ENDBRANCH  11  12
ENDBRANCH   1  11
TORSDOF 14
ENDMDL
