MODEL 1
REMARK VINA RESULT:    -7.995      0.000      0.000
REMARK INTER + INTRA:          -9.709
REMARK INTER:                  -9.398
REMARK INTRA:                  -0.311
REMARK UNBOUND:                -0.311
REMARK SMILES O=c1cc(-c2ccc(O)c(O)c2)oc2cc(O)cc(O)c12
REMARK SMILES IDX 4 1 3 2 2 3 1 4 21 5 19 6 18 7 16 8 15 9 14 10 13 11 5 12
REMARK SMILES IDX 6 13 7 14 8 15 12 16 10 17 9 18 11 20 20 22 17 24
REMARK H PARENT 9 19 11 21 20 23 17 25
REMARK Flexibility Score: inf
ROOT
ATOM      1  C   UNL     1      38.935 -12.700   8.715  1.00  0.00     0.138 A 
ATOM      2  C   UNL     1      39.021 -11.393   9.212  1.00  0.00     0.100 A 
ATOM      3  C   UNL     1      40.092 -11.035  10.033  1.00  0.00     0.197 A 
ATOM      4  O   UNL     1      40.110  -9.873  10.514  1.00  0.00    -0.289 OA
ATOM      5  C   UNL     1      41.097 -11.985  10.330  1.00  0.00     0.107 A 
ATOM      6  C   UNL     1      42.255 -11.722  11.122  1.00  0.00     0.134 A 
ATOM      7  C   UNL     1      43.124 -12.773  11.446  1.00  0.00     0.093 A 
ATOM      8  C   UNL     1      42.907 -14.064  10.955  1.00  0.00     0.123 A 
ATOM      9  C   UNL     1      41.809 -14.318  10.139  1.00  0.00     0.094 A 
ATOM     10  C   UNL     1      40.906 -13.299   9.826  1.00  0.00     0.146 A 
ATOM     11  O   UNL     1      39.864 -13.588   9.054  1.00  0.00    -0.456 OA
ENDROOT
BRANCH   1  12
ATOM     12  C   UNL     1      37.818 -13.133   7.838  1.00  0.00     0.021 A 
ATOM     13  C   UNL     1      36.608 -12.420   7.855  1.00  0.00     0.016 A 
ATOM     14  C   UNL     1      35.539 -12.812   7.045  1.00  0.00     0.051 A 
ATOM     15  C   UNL     1      35.656 -13.928   6.213  1.00  0.00     0.157 A 
ATOM     16  C   UNL     1      37.926 -14.266   7.008  1.00  0.00     0.062 A 
ATOM     17  C   UNL     1      36.853 -14.662   6.195  1.00  0.00     0.158 A 
BRANCH  15  18
ATOM     18  O   UNL     1      34.573 -14.294   5.415  1.00  0.00    -0.504 OA
ATOM     19  H   UNL     1      33.749 -13.710   5.324  1.00  0.00     0.293 HD
ENDBRANCH  15  18
BRANCH  17  20
ATOM     20  O   UNL     1      36.972 -15.783   5.375  1.00  0.00    -0.504 OA
ATOM     21  H   UNL     1      36.835 -15.726   4.373  1.00  0.00     0.293 HD
ENDBRANCH  17  20
ENDBRANCH   1  12
BRANCH   6  22
ATOM     22  O   UNL     1      42.610 -10.453  11.590  1.00  0.00    -0.507 OA
ATOM     23  H   UNL     1      43.541 -10.067  11.559  1.00  0.00     0.293 HD
ENDBRANCH   6  22
BRANCH   8  24
ATOM     24  O   UNL     1      43.785 -15.099  11.271  1.00  0.00    -0.508 OA
ATOM     25  H   UNL     1      43.973 -15.852  10.621  1.00  0.00     0.293 HD
ENDBRANCH   8  24
TORSDOF 5
ENDMDL
MODEL 2
REMARK VINA RESULT:    -7.610      7.512     10.662
REMARK INTER + INTRA:          -9.256
REMARK INTER:                  -8.992
REMARK INTRA:                  -0.265
REMARK UNBOUND:                -0.311
REMARK SMILES O=c1cc(-c2ccc(O)c(O)c2)oc2cc(O)cc(O)c12
REMARK SMILES IDX 4 1 3 2 2 3 1 4 21 5 19 6 18 7 16 8 15 9 14 10 13 11 5 12
REMARK SMILES IDX 6 13 7 14 8 15 12 16 10 17 9 18 11 20 20 22 17 24
REMARK H PARENT 9 19 11 21 20 23 17 25
REMARK Flexibility Score: inf
ROOT
ATOM      1  C   UNL     1      32.126 -14.574   1.552  1.00  0.00     0.138 A 
ATOM      2  C   UNL     1      32.833 -15.380   2.454  1.00  0.00     0.100 A 
ATOM      3  C   UNL     1      34.047 -14.931   2.975  1.00  0.00     0.197 A 
ATOM      4  O   UNL     1      34.689 -15.702   3.735  1.00  0.00    -0.289 OA
ATOM      5  C   UNL     1      34.539 -13.655   2.614  1.00  0.00     0.107 A 
ATOM      6  C   UNL     1      35.744 -13.077   3.114  1.00  0.00     0.134 A 
ATOM      7  C   UNL     1      36.191 -11.855   2.594  1.00  0.00     0.093 A 
ATOM      8  C   UNL     1      35.444 -11.162   1.638  1.00  0.00     0.123 A 
ATOM      9  C   UNL     1      34.240 -11.693   1.183  1.00  0.00     0.094 A 
ATOM     10  C   UNL     1      33.785 -12.926   1.656  1.00  0.00     0.146 A 
ATOM     11  O   UNL     1      32.637 -13.403   1.185  1.00  0.00    -0.456 OA
ENDROOT
BRANCH   1  12
ATOM     12  C   UNL     1      30.830 -15.003   0.967  1.00  0.00     0.021 A 
ATOM     13  C   UNL     1      30.766 -15.352  -0.393  1.00  0.00     0.016 A 
ATOM     14  C   UNL     1      29.557 -15.750  -0.969  1.00  0.00     0.051 A 
ATOM     15  C   UNL     1      28.390 -15.797  -0.201  1.00  0.00     0.157 A 
ATOM     16  C   UNL     1      29.649 -15.038   1.733  1.00  0.00     0.062 A 
ATOM     17  C   UNL     1      28.433 -15.436   1.155  1.00  0.00     0.158 A 
BRANCH  15  18
ATOM     18  O   UNL     1      27.199 -16.200  -0.804  1.00  0.00    -0.504 OA
ATOM     19  H   UNL     1      26.989 -17.176  -0.980  1.00  0.00     0.293 HD
ENDBRANCH  15  18
BRANCH  17  20
ATOM     20  O   UNL     1      27.271 -15.470   1.924  1.00  0.00    -0.504 OA
ATOM     21  H   UNL     1      26.609 -14.703   1.920  1.00  0.00     0.293 HD
ENDBRANCH  17  20
ENDBRANCH   1  12
BRANCH   6  22
ATOM     22  O   UNL     1      36.520 -13.644   4.129  1.00  0.00    -0.507 OA
ATOM     23  H   UNL     1      36.973 -14.543   4.074  1.00  0.00     0.293 HD
ENDBRANCH   6  22
BRANCH   8  24
ATOM     24  O   UNL     1      35.889  -9.940   1.138  1.00  0.00    -0.508 OA
ATOM     25  H   UNL     1      35.866  -9.732   0.147  1.00  0.00     0.293 HD
ENDBRANCH   8  24
TORSDOF 5
ENDMDL
MODEL 3
REMARK VINA RESULT:    -7.486      6.762     10.392
REMARK INTER + INTRA:          -9.110
REMARK INTER:                  -8.817
REMARK INTRA:                  -0.293
REMARK UNBOUND:                -0.311
REMARK SMILES O=c1cc(-c2ccc(O)c(O)c2)oc2cc(O)cc(O)c12
REMARK SMILES IDX 4 1 3 2 2 3 1 4 21 5 19 6 18 7 16 8 15 9 14 10 13 11 5 12
REMARK SMILES IDX 6 13 7 14 8 15 12 16 10 17 9 18 11 20 20 22 17 24
REMARK H PARENT 9 19 11 21 20 23 17 25
REMARK Flexibility Score: inf
ROOT
ATOM      1  C   UNL     1      31.827 -14.345   1.450  1.00  0.00     0.138 A 
ATOM      2  C   UNL     1      32.556 -13.443   0.664  1.00  0.00     0.100 A 
ATOM      3  C   UNL     1      33.772 -12.943   1.134  1.00  0.00     0.197 A 
ATOM      4  O   UNL     1      34.374 -12.088   0.435  1.00  0.00    -0.289 OA
ATOM      5  C   UNL     1      34.272 -13.375   2.385  1.00  0.00     0.107 A 
ATOM      6  C   UNL     1      35.518 -12.965   2.947  1.00  0.00     0.134 A 
ATOM      7  C   UNL     1      35.856 -13.367   4.246  1.00  0.00     0.093 A 
ATOM      8  C   UNL     1      35.020 -14.215   4.978  1.00  0.00     0.123 A 
ATOM      9  C   UNL     1      33.827 -14.663   4.417  1.00  0.00     0.094 A 
ATOM     10  C   UNL     1      33.446 -14.252   3.137  1.00  0.00     0.146 A 
ATOM     11  O   UNL     1      32.293 -14.692   2.645  1.00  0.00    -0.456 OA
ENDROOT
BRANCH   1  12
ATOM     12  C   UNL     1      30.529 -14.907   0.998  1.00  0.00     0.021 A 
ATOM     13  C   UNL     1      30.399 -15.376  -0.321  1.00  0.00     0.016 A 
ATOM     14  C   UNL     1      29.187 -15.902  -0.772  1.00  0.00     0.051 A 
ATOM     15  C   UNL     1      28.081 -15.961   0.080  1.00  0.00     0.157 A 
ATOM     16  C   UNL     1      29.408 -14.955   1.849  1.00  0.00     0.062 A 
ATOM     17  C   UNL     1      28.189 -15.482   1.396  1.00  0.00     0.158 A 
BRANCH  15  18
ATOM     18  O   UNL     1      26.885 -16.494  -0.399  1.00  0.00    -0.504 OA
ATOM     19  H   UNL     1      26.498 -16.227  -1.298  1.00  0.00     0.293 HD
ENDBRANCH  15  18
BRANCH  17  20
ATOM     20  O   UNL     1      27.086 -15.528   2.247  1.00  0.00    -0.504 OA
ATOM     21  H   UNL     1      26.511 -16.358   2.328  1.00  0.00     0.293 HD
ENDBRANCH  17  20
ENDBRANCH   1  12
BRANCH   6  22
ATOM     22  O   UNL     1      36.464 -12.190   2.269  1.00  0.00    -0.507 OA
ATOM     23  H   UNL     1      36.436 -11.185   2.190  1.00  0.00     0.293 HD
ENDBRANCH   6  22
BRANCH   8  24
ATOM     24  O   UNL     1      35.371 -14.621   6.264  1.00  0.00    -0.508 OA
ATOM     25  H   UNL     1      36.259 -15.071   6.454  1.00  0.00     0.293 HD
ENDBRANCH   8  24
TORSDOF 5
ENDMDL
MODEL 4
REMARK VINA RESULT:    -7.455      5.651     11.744
REMARK INTER + INTRA:          -9.074
REMARK INTER:                  -8.789
REMARK INTRA:                  -0.285
REMARK UNBOUND:                -0.311
REMARK SMILES O=c1cc(-c2ccc(O)c(O)c2)oc2cc(O)cc(O)c12
REMARK SMILES IDX 4 1 3 2 2 3 1 4 21 5 19 6 18 7 16 8 15 9 14 10 13 11 5 12
REMARK SMILES IDX 6 13 7 14 8 15 12 16 10 17 9 18 11 20 20 22 17 24
REMARK H PARENT 9 19 11 21 20 23 17 25
REMARK Flexibility Score: inf
ROOT
ATOM      1  C   UNL     1      33.229 -14.510   2.763  1.00  0.00     0.138 A 
ATOM      2  C   UNL     1      33.513 -15.020   1.489  1.00  0.00     0.100 A 
ATOM      3  C   UNL     1      32.464 -15.345   0.626  1.00  0.00     0.197 A 
ATOM      4  O   UNL     1      32.748 -15.858  -0.487  1.00  0.00    -0.289 OA
ATOM      5  C   UNL     1      31.127 -15.127   1.032  1.00  0.00     0.107 A 
ATOM      6  C   UNL     1      29.980 -15.381   0.222  1.00  0.00     0.134 A 
ATOM      7  C   UNL     1      28.700 -15.238   0.773  1.00  0.00     0.093 A 
ATOM      8  C   UNL     1      28.526 -14.789   2.085  1.00  0.00     0.123 A 
ATOM      9  C   UNL     1      29.638 -14.487   2.866  1.00  0.00     0.094 A 
ATOM     10  C   UNL     1      30.929 -14.653   2.357  1.00  0.00     0.146 A 
ATOM     11  O   UNL     1      31.963 -14.366   3.140  1.00  0.00    -0.456 OA
ENDROOT
BRANCH   1  12
ATOM     12  C   UNL     1      34.305 -14.148   3.720  1.00  0.00     0.021 A 
ATOM     13  C   UNL     1      34.101 -14.343   5.097  1.00  0.00     0.016 A 
ATOM     14  C   UNL     1      35.095 -14.003   6.018  1.00  0.00     0.051 A 
ATOM     15  C   UNL     1      36.304 -13.454   5.583  1.00  0.00     0.157 A 
ATOM     16  C   UNL     1      35.520 -13.581   3.288  1.00  0.00     0.062 A 
ATOM     17  C   UNL     1      36.518 -13.237   4.212  1.00  0.00     0.158 A 
BRANCH  15  18
ATOM     18  O   UNL     1      37.277 -13.127   6.526  1.00  0.00    -0.504 OA
ATOM     19  H   UNL     1      38.240 -13.430   6.434  1.00  0.00     0.293 HD
ENDBRANCH  15  18
BRANCH  17  20
ATOM     20  O   UNL     1      37.717 -12.679   3.773  1.00  0.00    -0.504 OA
ATOM     21  H   UNL     1      38.026 -12.771   2.812  1.00  0.00     0.293 HD
ENDBRANCH  17  20
ENDBRANCH   1  12
BRANCH   6  22
ATOM     22  O   UNL     1      30.041 -15.751  -1.125  1.00  0.00    -0.507 OA
ATOM     23  H   UNL     1      30.258 -16.677  -1.459  1.00  0.00     0.293 HD
ENDBRANCH   6  22
BRANCH   8  24
ATOM     24  O   UNL     1      27.248 -14.636   2.619  1.00  0.00    -0.508 OA
ATOM     25  H   UNL     1      27.105 -14.325   3.573  1.00  0.00     0.293 HD
ENDBRANCH   8  24
TORSDOF 5
ENDMDL
MODEL 5
REMARK VINA RESULT:    -7.314      1.158      2.680
REMARK INTER + INTRA:          -8.908
REMARK INTER:                  -8.618
REMARK INTRA:                  -0.290
REMARK UNBOUND:                -0.311
REMARK SMILES O=c1cc(-c2ccc(O)c(O)c2)oc2cc(O)cc(O)c12
REMARK SMILES IDX 4 1 3 2 2 3 1 4 21 5 19 6 18 7 16 8 15 9 14 10 13 11 5 12
REMARK SMILES IDX 6 13 7 14 8 15 12 16 10 17 9 18 11 20 20 22 17 24
REMARK H PARENT 9 19 11 21 20 23 17 25
REMARK Flexibility Score: inf
ROOT
ATOM      1  C   UNL     1      38.796 -13.233   8.453  1.00  0.00     0.138 A 
ATOM      2  C   UNL     1      39.734 -14.256   8.650  1.00  0.00     0.100 A 
ATOM      3  C   UNL     1      40.854 -14.020   9.449  1.00  0.00     0.197 A 
ATOM      4  O   UNL     1      41.709 -14.936   9.558  1.00  0.00    -0.289 OA
ATOM      5  C   UNL     1      41.017 -12.763  10.078  1.00  0.00     0.107 A 
ATOM      6  C   UNL     1      42.097 -12.424  10.946  1.00  0.00     0.134 A 
ATOM      7  C   UNL     1      42.217 -11.110  11.418  1.00  0.00     0.093 A 
ATOM      8  C   UNL     1      41.261 -10.141  11.102  1.00  0.00     0.123 A 
ATOM      9  C   UNL     1      40.175 -10.477  10.298  1.00  0.00     0.094 A 
ATOM     10  C   UNL     1      40.046 -11.769   9.784  1.00  0.00     0.146 A 
ATOM     11  O   UNL     1      39.001 -12.044   9.010  1.00  0.00    -0.456 OA
ENDROOT
BRANCH   1  12
ATOM     12  C   UNL     1      37.587 -13.429   7.613  1.00  0.00     0.021 A 
ATOM     13  C   UNL     1      36.455 -12.626   7.832  1.00  0.00     0.016 A 
ATOM     14  C   UNL     1      35.302 -12.796   7.061  1.00  0.00     0.051 A 
ATOM     15  C   UNL     1      35.256 -13.776   6.066  1.00  0.00     0.157 A 
ATOM     16  C   UNL     1      37.530 -14.426   6.619  1.00  0.00     0.062 A 
ATOM     17  C   UNL     1      36.373 -14.599   5.845  1.00  0.00     0.158 A 
BRANCH  15  18
ATOM     18  O   UNL     1      34.092 -13.921   5.312  1.00  0.00    -0.504 OA
ATOM     19  H   UNL     1      34.088 -14.388   4.412  1.00  0.00     0.293 HD
ENDBRANCH  15  18
BRANCH  17  20
ATOM     20  O   UNL     1      36.329 -15.585   4.862  1.00  0.00    -0.504 OA
ATOM     21  H   UNL     1      35.564 -16.248   4.808  1.00  0.00     0.293 HD
ENDBRANCH  17  20
ENDBRANCH   1  12
BRANCH   6  22
ATOM     22  O   UNL     1      43.058 -13.337  11.393  1.00  0.00    -0.507 OA
ATOM     23  H   UNL     1      42.854 -14.186  11.897  1.00  0.00     0.293 HD
ENDBRANCH   6  22
BRANCH   8  24
ATOM     24  O   UNL     1      41.382  -8.840  11.588  1.00  0.00    -0.508 OA
ATOM     25  H   UNL     1      41.580  -8.655  12.564  1.00  0.00     0.293 HD
ENDBRANCH   8  24
TORSDOF 5
ENDMDL
MODEL 6
REMARK VINA RESULT:    -7.297      2.128      7.074
REMARK INTER + INTRA:          -8.888
REMARK INTER:                  -8.604
REMARK INTRA:                  -0.283
REMARK UNBOUND:                -0.311
REMARK SMILES O=c1cc(-c2ccc(O)c(O)c2)oc2cc(O)cc(O)c12
REMARK SMILES IDX 4 1 3 2 2 3 1 4 21 5 19 6 18 7 16 8 15 9 14 10 13 11 5 12
REMARK SMILES IDX 6 13 7 14 8 15 12 16 10 17 9 18 11 20 20 22 17 24
REMARK H PARENT 9 19 11 21 20 23 17 25
REMARK Flexibility Score: inf
ROOT
ATOM      1  C   UNL     1      40.075 -12.042   8.281  1.00  0.00     0.138 A 
ATOM      2  C   UNL     1      40.313 -11.048   7.324  1.00  0.00     0.100 A 
ATOM      3  C   UNL     1      39.379 -10.827   6.311  1.00  0.00     0.197 A 
ATOM      4  O   UNL     1      39.648  -9.969   5.430  1.00  0.00    -0.289 OA
ATOM      5  C   UNL     1      38.185 -11.586   6.277  1.00  0.00     0.107 A 
ATOM      6  C   UNL     1      37.143 -11.419   5.316  1.00  0.00     0.134 A 
ATOM      7  C   UNL     1      36.060 -12.308   5.312  1.00  0.00     0.093 A 
ATOM      8  C   UNL     1      35.953 -13.318   6.271  1.00  0.00     0.123 A 
ATOM      9  C   UNL     1      36.938 -13.454   7.245  1.00  0.00     0.094 A 
ATOM     10  C   UNL     1      38.048 -12.606   7.256  1.00  0.00     0.146 A 
ATOM     11  O   UNL     1      38.972 -12.779   8.195  1.00  0.00    -0.456 OA
ENDROOT
BRANCH   1  12
ATOM     12  C   UNL     1      41.035 -12.320   9.380  1.00  0.00     0.021 A 
ATOM     13  C   UNL     1      41.241 -13.644   9.801  1.00  0.00     0.016 A 
ATOM     14  C   UNL     1      42.132 -13.930  10.838  1.00  0.00     0.051 A 
ATOM     15  C   UNL     1      42.825 -12.900  11.478  1.00  0.00     0.157 A 
ATOM     16  C   UNL     1      41.725 -11.283  10.038  1.00  0.00     0.062 A 
ATOM     17  C   UNL     1      42.619 -11.569  11.081  1.00  0.00     0.158 A 
BRANCH  15  18
ATOM     18  O   UNL     1      43.710 -13.217  12.508  1.00  0.00    -0.504 OA
ATOM     19  H   UNL     1      44.008 -12.531  13.192  1.00  0.00     0.293 HD
ENDBRANCH  15  18
BRANCH  17  20
ATOM     20  O   UNL     1      43.299 -10.536  11.723  1.00  0.00    -0.504 OA
ATOM     21  H   UNL     1      42.807  -9.772  12.170  1.00  0.00     0.293 HD
ENDBRANCH  17  20
ENDBRANCH   1  12
BRANCH   6  22
ATOM     22  O   UNL     1      37.111 -10.391   4.369  1.00  0.00    -0.507 OA
ATOM     23  H   UNL     1      36.625  -9.516   4.485  1.00  0.00     0.293 HD
ENDBRANCH   6  22
BRANCH   8  24
ATOM     24  O   UNL     1      34.864 -14.188   6.267  1.00  0.00    -0.508 OA
ATOM     25  H   UNL     1      34.164 -14.165   6.999  1.00  0.00     0.293 HD
ENDBRANCH   8  24
TORSDOF 5
ENDMDL
MODEL 7
REMARK VINA RESULT:    -7.294      2.620      7.152
REMARK INTER + INTRA:          -8.885
REMARK INTER:                  -8.620
REMARK INTRA:                  -0.265
REMARK UNBOUND:                -0.311
REMARK SMILES O=c1cc(-c2ccc(O)c(O)c2)oc2cc(O)cc(O)c12
REMARK SMILES IDX 4 1 3 2 2 3 1 4 21 5 19 6 18 7 16 8 15 9 14 10 13 11 5 12
REMARK SMILES IDX 6 13 7 14 8 15 12 16 10 17 9 18 11 20 20 22 17 24
REMARK H PARENT 9 19 11 21 20 23 17 25
REMARK Flexibility Score: inf
ROOT
ATOM      1  C   UNL     1      39.875 -11.771   8.752  1.00  0.00     0.138 A 
ATOM      2  C   UNL     1      38.618 -12.310   9.054  1.00  0.00     0.100 A 
ATOM      3  C   UNL     1      37.613 -12.302   8.085  1.00  0.00     0.197 A 
ATOM      4  O   UNL     1      36.476 -12.737   8.405  1.00  0.00    -0.289 OA
ATOM      5  C   UNL     1      37.881 -11.779   6.798  1.00  0.00     0.107 A 
ATOM      6  C   UNL     1      36.947 -11.756   5.720  1.00  0.00     0.134 A 
ATOM      7  C   UNL     1      37.286 -11.107   4.526  1.00  0.00     0.093 A 
ATOM      8  C   UNL     1      38.549 -10.534   4.351  1.00  0.00     0.123 A 
ATOM      9  C   UNL     1      39.486 -10.598   5.379  1.00  0.00     0.094 A 
ATOM     10  C   UNL     1      39.165 -11.209   6.594  1.00  0.00     0.146 A 
ATOM     11  O   UNL     1      40.085 -11.236   7.553  1.00  0.00    -0.456 OA
ENDROOT
BRANCH   1  12
ATOM     12  C   UNL     1      40.981 -11.755   9.744  1.00  0.00     0.021 A 
ATOM     13  C   UNL     1      41.394 -10.531  10.299  1.00  0.00     0.016 A 
ATOM     14  C   UNL     1      42.436 -10.488  11.228  1.00  0.00     0.051 A 
ATOM     15  C   UNL     1      43.090 -11.662  11.612  1.00  0.00     0.157 A 
ATOM     16  C   UNL     1      41.652 -12.933  10.123  1.00  0.00     0.062 A 
ATOM     17  C   UNL     1      42.700 -12.890  11.055  1.00  0.00     0.158 A 
BRANCH  15  18
ATOM     18  O   UNL     1      44.125 -11.586  12.543  1.00  0.00    -0.504 OA
ATOM     19  H   UNL     1      43.964 -11.319  13.507  1.00  0.00     0.293 HD
ENDBRANCH  15  18
BRANCH  17  20
ATOM     20  O   UNL     1      43.356 -14.063  11.426  1.00  0.00    -0.504 OA
ATOM     21  H   UNL     1      44.280 -14.047  11.841  1.00  0.00     0.293 HD
ENDBRANCH  17  20
ENDBRANCH   1  12
BRANCH   6  22
ATOM     22  O   UNL     1      35.692 -12.372   5.760  1.00  0.00    -0.507 OA
ATOM     23  H   UNL     1      35.419 -13.080   6.423  1.00  0.00     0.293 HD
ENDBRANCH   6  22
BRANCH   8  24
ATOM     24  O   UNL     1      38.882  -9.903   3.154  1.00  0.00    -0.508 OA
ATOM     25  H   UNL     1      38.402  -9.067   2.844  1.00  0.00     0.293 HD
ENDBRANCH   8  24
TORSDOF 5
ENDMDL
MODEL 8
REMARK VINA RESULT:    -7.166      2.534      7.853
REMARK INTER + INTRA:          -8.734
REMARK INTER:                  -8.416
REMARK INTRA:                  -0.318
REMARK UNBOUND:                -0.311
REMARK SMILES O=c1cc(-c2ccc(O)c(O)c2)oc2cc(O)cc(O)c12
REMARK SMILES IDX 4 1 3 2 2 3 1 4 21 5 19 6 18 7 16 8 15 9 14 10 13 11 5 12
REMARK SMILES IDX 6 13 7 14 8 15 12 16 10 17 9 18 11 20 20 22 17 24
REMARK H PARENT 9 19 11 21 20 23 17 25
REMARK Flexibility Score: inf
ROOT
ATOM      1  C   UNL     1      38.107 -11.806   7.255  1.00  0.00     0.138 A 
ATOM      2  C   UNL     1      37.744 -13.158   7.309  1.00  0.00     0.100 A 
ATOM      3  C   UNL     1      37.000 -13.715   6.267  1.00  0.00     0.197 A 
ATOM      4  O   UNL     1      36.636 -14.915   6.372  1.00  0.00    -0.289 OA
ATOM      5  C   UNL     1      36.645 -12.919   5.153  1.00  0.00     0.107 A 
ATOM      6  C   UNL     1      35.925 -13.389   4.014  1.00  0.00     0.134 A 
ATOM      7  C   UNL     1      35.529 -12.481   3.024  1.00  0.00     0.093 A 
ATOM      8  C   UNL     1      35.882 -11.131   3.101  1.00  0.00     0.123 A 
ATOM      9  C   UNL     1      36.632 -10.673   4.182  1.00  0.00     0.094 A 
ATOM     10  C   UNL     1      37.012 -11.548   5.203  1.00  0.00     0.146 A 
ATOM     11  O   UNL     1      37.715 -11.066   6.223  1.00  0.00    -0.456 OA
ENDROOT
BRANCH   1  12
ATOM     12  C   UNL     1      38.899 -11.163   8.335  1.00  0.00     0.021 A 
ATOM     13  C   UNL     1      39.261 -11.912   9.467  1.00  0.00     0.016 A 
ATOM     14  C   UNL     1      39.998 -11.328  10.500  1.00  0.00     0.051 A 
ATOM     15  C   UNL     1      40.377  -9.985  10.426  1.00  0.00     0.157 A 
ATOM     16  C   UNL     1      39.271  -9.806   8.271  1.00  0.00     0.062 A 
ATOM     17  C   UNL     1      40.010  -9.218   9.308  1.00  0.00     0.158 A 
BRANCH  15  18
ATOM     18  O   UNL     1      41.114  -9.431  11.472  1.00  0.00    -0.504 OA
ATOM     19  H   UNL     1      41.767  -8.669  11.326  1.00  0.00     0.293 HD
ENDBRANCH  15  18
BRANCH  17  20
ATOM     20  O   UNL     1      40.376  -7.875   9.233  1.00  0.00    -0.504 OA
ATOM     21  H   UNL     1      40.450  -7.297  10.062  1.00  0.00     0.293 HD
ENDBRANCH  17  20
ENDBRANCH   1  12
BRANCH   6  22
ATOM     22  O   UNL     1      35.596 -14.731   3.798  1.00  0.00    -0.507 OA
ATOM     23  H   UNL     1      35.205 -15.098   2.944  1.00  0.00     0.293 HD
ENDBRANCH   6  22
BRANCH   8  24
ATOM     24  O   UNL     1      35.496 -10.238   2.104  1.00  0.00    -0.508 OA
ATOM     25  H   UNL     1      36.177  -9.694   1.586  1.00  0.00     0.293 HD
ENDBRANCH   8  24
TORSDOF 5
ENDMDL
MODEL 9
REMARK VINA RESULT:    -7.024      5.507      8.555
REMARK INTER + INTRA:          -8.567
REMARK INTER:                  -8.283
REMARK INTRA:                  -0.284
REMARK UNBOUND:                -0.311
REMARK SMILES O=c1cc(-c2ccc(O)c(O)c2)oc2cc(O)cc(O)c12
REMARK SMILES IDX 4 1 3 2 2 3 1 4 21 5 19 6 18 7 16 8 15 9 14 10 13 11 5 12
REMARK SMILES IDX 6 13 7 14 8 15 12 16 10 17 9 18 11 20 20 22 17 24
REMARK H PARENT 9 19 11 21 20 23 17 25
REMARK Flexibility Score: inf
ROOT
ATOM      1  C   UNL     1      33.622 -14.177   2.779  1.00  0.00     0.138 A 
ATOM      2  C   UNL     1      33.529 -14.537   4.130  1.00  0.00     0.100 A 
ATOM      3  C   UNL     1      34.516 -14.120   5.025  1.00  0.00     0.197 A 
ATOM      4  O   UNL     1      34.439 -14.510   6.218  1.00  0.00    -0.289 OA
ATOM      5  C   UNL     1      35.584 -13.313   4.567  1.00  0.00     0.107 A 
ATOM      6  C   UNL     1      36.625 -12.796   5.396  1.00  0.00     0.134 A 
ATOM      7  C   UNL     1      37.694 -12.106   4.811  1.00  0.00     0.093 A 
ATOM      8  C   UNL     1      37.728 -11.861   3.436  1.00  0.00     0.123 A 
ATOM      9  C   UNL     1      36.691 -12.316   2.627  1.00  0.00     0.094 A 
ATOM     10  C   UNL     1      35.627 -13.037   3.175  1.00  0.00     0.146 A 
ATOM     11  O   UNL     1      34.664 -13.464   2.364  1.00  0.00    -0.456 OA
ENDROOT
BRANCH   1  12
ATOM     12  C   UNL     1      32.600 -14.592   1.784  1.00  0.00     0.021 A 
ATOM     13  C   UNL     1      33.000 -14.926   0.480  1.00  0.00     0.016 A 
ATOM     14  C   UNL     1      32.057 -15.312  -0.476  1.00  0.00     0.051 A 
ATOM     15  C   UNL     1      30.699 -15.362  -0.150  1.00  0.00     0.157 A 
ATOM     16  C   UNL     1      31.229 -14.630   2.105  1.00  0.00     0.062 A 
ATOM     17  C   UNL     1      30.281 -15.016   1.145  1.00  0.00     0.158 A 
BRANCH  15  18
ATOM     18  O   UNL     1      29.783 -15.753  -1.125  1.00  0.00    -0.504 OA
ATOM     19  H   UNL     1      29.172 -16.552  -1.001  1.00  0.00     0.293 HD
ENDBRANCH  15  18
BRANCH  17  20
ATOM     20  O   UNL     1      28.927 -15.052   1.474  1.00  0.00    -0.504 OA
ATOM     21  H   UNL     1      28.611 -15.000   2.435  1.00  0.00     0.293 HD
ENDBRANCH  17  20
ENDBRANCH   1  12
BRANCH   6  22
ATOM     22  O   UNL     1      36.643 -12.911   6.789  1.00  0.00    -0.507 OA
ATOM     23  H   UNL     1      37.456 -12.770   7.369  1.00  0.00     0.293 HD
ENDBRANCH   6  22
BRANCH   8  24
ATOM     24  O   UNL     1      38.790 -11.161   2.866  1.00  0.00    -0.508 OA
ATOM     25  H   UNL     1      38.810 -10.148   2.853  1.00  0.00     0.293 HD
ENDBRANCH   8  24
TORSDOF 5
ENDMDL
