MODEL 1
REMARK VINA RESULT:    -7.460      0.000      0.000
REMARK INTER + INTRA:          -7.921
REMARK INTER:                  -8.114
REMARK INTRA:                   0.193
REMARK UNBOUND:                 0.193
REMARK SMILES C[C@@H]1[C@H](C)CC[C@]2(C(=O)[O-])CC[C@]3(C)C(=CC[C@H]4[C@@]5(C)CC[C@@H](O)C(C)(C)[C@H]5CC[C@]43C)[C@@H]12
REMARK SMILES IDX 7 1 6 2 11 3 33 4 5 5 12 6 15 7 2 8 3 9 13 10 16 11 1 12
REMARK SMILES IDX 4 13 14 14 31 15 17 16 18 17 30 18 32 19 19 20 29 21 28 22
REMARK SMILES IDX 21 23 20 24 25 25 22 26 23 27 26 28 27 29 8 30 9 31 10 32
REMARK SMILES IDX 24 33
REMARK H PARENT 24 34
REMARK Flexibility Score: inf
ROOT
ATOM      1  C   UNL     1       8.514 -33.587  37.858  1.00  0.00     0.017 C 
ATOM      2  C   UNL     1       9.887 -33.509  37.109  1.00  0.00     0.014 C 
ATOM      3  C   UNL     1       8.808 -33.558  39.373  1.00  0.00     0.014 C 
ATOM      4  C   UNL     1       7.806 -34.937  37.518  1.00  0.00     0.030 C 
ATOM      5  C   UNL     1       9.891 -34.085  35.679  1.00  0.00     0.004 C 
ATOM      6  C   UNL     1       7.528 -33.624  40.206  1.00  0.00     0.013 C 
ATOM      7  C   UNL     1       6.577 -35.208  38.433  1.00  0.00    -0.063 C 
ATOM      8  C   UNL     1       7.577 -35.130  35.964  1.00  0.00    -0.003 C 
ATOM      9  C   UNL     1       8.482 -34.203  35.087  1.00  0.00    -0.011 C 
ATOM     10  C   UNL     1       6.646 -34.907  39.954  1.00  0.00    -0.006 C 
ATOM     11  C   UNL     1       5.541 -35.952  37.981  1.00  0.00    -0.027 C 
ATOM     12  C   UNL     1       7.752 -36.623  35.589  1.00  0.00     0.008 C 
ATOM     13  C   UNL     1       8.542 -34.610  33.605  1.00  0.00     0.008 C 
ATOM     14  C   UNL     1       7.385 -36.083  40.649  1.00  0.00     0.017 C 
ATOM     15  C   UNL     1       5.140 -34.720  40.539  1.00  0.00    -0.020 C 
ATOM     16  C   UNL     1       4.687 -36.748  38.913  1.00  0.00     0.032 C 
ATOM     17  C   UNL     1       4.157 -35.934  40.124  1.00  0.00     0.006 C 
ATOM     18  C   UNL     1       5.146 -34.455  42.077  1.00  0.00     0.008 C 
ATOM     19  C   UNL     1       4.518 -33.414  39.916  1.00  0.00     0.012 C 
ATOM     20  C   UNL     1       3.428 -36.867  41.240  1.00  0.00    -0.025 C 
ATOM     21  C   UNL     1       4.880 -35.669  42.939  1.00  0.00     0.005 C 
ATOM     22  C   UNL     1       3.455 -36.210  42.679  1.00  0.00     0.003 C 
ATOM     23  C   UNL     1       4.062 -38.299  41.327  1.00  0.00     0.010 C 
ATOM     24  C   UNL     1       1.952 -37.037  40.750  1.00  0.00     0.012 C 
ATOM     25  C   UNL     1       2.929 -37.135  43.875  1.00  0.00    -0.006 C 
ATOM     26  C   UNL     1       3.515 -39.195  42.450  1.00  0.00     0.033 C 
ATOM     27  C   UNL     1       3.608 -38.539  43.834  1.00  0.00     0.120 C 
ATOM     28  C   UNL     1       3.210 -36.489  45.268  1.00  0.00     0.014 C 
ATOM     29  C   UNL     1       1.373 -37.292  43.825  1.00  0.00     0.014 C 
ENDROOT
BRANCH   1  30
ATOM     30  C   UNL     1       7.666 -32.369  37.498  1.00  0.00     0.048 C 
ATOM     31  O   UNL     1       8.158 -31.209  37.490  1.00  0.00    -0.550 OA
ATOM     32  O   UNL     1       6.337 -32.535  37.121  1.00  0.00    -0.550 OA
ENDBRANCH   1  30
BRANCH  27  33
ATOM     33  O   UNL     1       4.963 -38.445  44.205  1.00  0.00    -0.393 OA
ATOM     34  H   UNL     1       5.346 -39.360  44.151  1.00  0.00     0.210 HD
ENDBRANCH  27  33
TORSDOF 2
ENDMDL
MODEL 2
REMARK VINA RESULT:    -7.410      1.451      8.011
REMARK INTER + INTRA:          -7.867
REMARK INTER:                  -8.138
REMARK INTRA:                   0.271
REMARK UNBOUND:                 0.193
REMARK SMILES C[C@@H]1[C@H](C)CC[C@]2(C(=O)[O-])CC[C@]3(C)C(=CC[C@H]4[C@@]5(C)CC[C@@H](O)C(C)(C)[C@H]5CC[C@]43C)[C@@H]12
REMARK SMILES IDX 7 1 6 2 11 3 33 4 5 5 12 6 15 7 2 8 3 9 13 10 16 11 1 12
REMARK SMILES IDX 4 13 14 14 31 15 17 16 18 17 30 18 32 19 19 20 29 21 28 22
REMARK SMILES IDX 21 23 20 24 25 25 22 26 23 27 26 28 27 29 8 30 9 31 10 32
REMARK SMILES IDX 24 33
REMARK H PARENT 24 34
REMARK Flexibility Score: inf
ROOT
ATOM      1  C   UNL     1       3.241 -37.019  43.186  1.00  0.00     0.017 C 
ATOM      2  C   UNL     1       2.119 -36.585  44.188  1.00  0.00     0.014 C 
ATOM      3  C   UNL     1       4.459 -36.102  43.427  1.00  0.00     0.014 C 
ATOM      4  C   UNL     1       2.746 -36.808  41.720  1.00  0.00     0.030 C 
ATOM      5  C   UNL     1       0.681 -36.943  43.762  1.00  0.00     0.004 C 
ATOM      6  C   UNL     1       5.625 -36.443  42.498  1.00  0.00     0.013 C 
ATOM      7  C   UNL     1       3.895 -36.953  40.680  1.00  0.00    -0.063 C 
ATOM      8  C   UNL     1       1.415 -37.604  41.405  1.00  0.00    -0.003 C 
ATOM      9  C   UNL     1       0.639 -38.040  42.692  1.00  0.00    -0.011 C 
ATOM     10  C   UNL     1       5.292 -36.338  40.960  1.00  0.00    -0.006 C 
ATOM     11  C   UNL     1       3.627 -37.369  39.420  1.00  0.00    -0.027 C 
ATOM     12  C   UNL     1       0.520 -36.776  40.450  1.00  0.00     0.008 C 
ATOM     13  C   UNL     1      -0.807 -38.492  42.426  1.00  0.00     0.008 C 
ATOM     14  C   UNL     1       5.230 -34.820  40.634  1.00  0.00     0.017 C 
ATOM     15  C   UNL     1       6.411 -37.095  40.054  1.00  0.00    -0.020 C 
ATOM     16  C   UNL     1       4.476 -36.953  38.264  1.00  0.00     0.032 C 
ATOM     17  C   UNL     1       5.996 -37.175  38.493  1.00  0.00     0.006 C 
ATOM     18  C   UNL     1       7.833 -36.490  40.264  1.00  0.00     0.008 C 
ATOM     19  C   UNL     1       6.537 -38.584  40.555  1.00  0.00     0.012 C 
ATOM     20  C   UNL     1       6.914 -36.509  37.328  1.00  0.00    -0.025 C 
ATOM     21  C   UNL     1       8.267 -35.490  39.215  1.00  0.00     0.005 C 
ATOM     22  C   UNL     1       8.376 -36.176  37.833  1.00  0.00     0.003 C 
ATOM     23  C   UNL     1       6.274 -35.203  36.738  1.00  0.00     0.010 C 
ATOM     24  C   UNL     1       6.967 -37.565  36.175  1.00  0.00     0.012 C 
ATOM     25  C   UNL     1       9.291 -35.348  36.814  1.00  0.00    -0.006 C 
ATOM     26  C   UNL     1       7.144 -34.441  35.726  1.00  0.00     0.033 C 
ATOM     27  C   UNL     1       8.535 -34.095  36.276  1.00  0.00     0.120 C 
ATOM     28  C   UNL     1      10.617 -34.874  37.489  1.00  0.00     0.014 C 
ATOM     29  C   UNL     1       9.760 -36.243  35.620  1.00  0.00     0.014 C 
ENDROOT
BRANCH   1  30
ATOM     30  C   UNL     1       3.649 -38.463  43.469  1.00  0.00     0.048 C 
ATOM     31  O   UNL     1       3.590 -39.347  42.573  1.00  0.00    -0.550 OA
ATOM     32  O   UNL     1       4.146 -38.811  44.721  1.00  0.00    -0.550 OA
ENDBRANCH   1  30
BRANCH  27  33
ATOM     33  O   UNL     1       8.397 -33.126  37.289  1.00  0.00    -0.393 OA
ATOM     34  H   UNL     1       9.247 -33.115  37.802  1.00  0.00     0.210 HD
ENDBRANCH  27  33
TORSDOF 2
ENDMDL
MODEL 3
REMARK VINA RESULT:    -7.229      3.785      8.114
REMARK INTER + INTRA:          -7.670
REMARK INTER:                  -8.022
REMARK INTRA:                   0.352
REMARK UNBOUND:                 0.193
REMARK SMILES C[C@@H]1[C@H](C)CC[C@]2(C(=O)[O-])CC[C@]3(C)C(=CC[C@H]4[C@@]5(C)CC[C@@H](O)C(C)(C)[C@H]5CC[C@]43C)[C@@H]12
REMARK SMILES IDX 7 1 6 2 11 3 33 4 5 5 12 6 15 7 2 8 3 9 13 10 16 11 1 12
REMARK SMILES IDX 4 13 14 14 31 15 17 16 18 17 30 18 32 19 19 20 29 21 28 22
REMARK SMILES IDX 21 23 20 24 25 25 22 26 23 27 26 28 27 29 8 30 9 31 10 32
REMARK SMILES IDX 24 33
REMARK H PARENT 24 34
REMARK Flexibility Score: inf
ROOT
ATOM      1  C   UNL     1       4.654 -37.434  43.969  1.00  0.00     0.017 C 
ATOM      2  C   UNL     1       3.350 -38.245  43.665  1.00  0.00     0.014 C 
ATOM      3  C   UNL     1       4.254 -36.218  44.832  1.00  0.00     0.014 C 
ATOM      4  C   UNL     1       5.271 -36.910  42.634  1.00  0.00     0.030 C 
ATOM      5  C   UNL     1       3.402 -39.126  42.400  1.00  0.00     0.004 C 
ATOM      6  C   UNL     1       5.461 -35.352  45.196  1.00  0.00     0.013 C 
ATOM      7  C   UNL     1       6.405 -35.871  42.872  1.00  0.00    -0.063 C 
ATOM      8  C   UNL     1       5.596 -38.077  41.614  1.00  0.00    -0.003 C 
ATOM      9  C   UNL     1       4.836 -39.406  41.936  1.00  0.00    -0.011 C 
ATOM     10  C   UNL     1       6.251 -34.774  43.959  1.00  0.00    -0.006 C 
ATOM     11  C   UNL     1       7.406 -35.734  41.972  1.00  0.00    -0.027 C 
ATOM     12  C   UNL     1       5.326 -37.599  40.166  1.00  0.00     0.008 C 
ATOM     13  C   UNL     1       4.850 -40.427  40.786  1.00  0.00     0.008 C 
ATOM     14  C   UNL     1       5.369 -33.634  43.378  1.00  0.00     0.017 C 
ATOM     15  C   UNL     1       7.720 -34.228  44.392  1.00  0.00    -0.020 C 
ATOM     16  C   UNL     1       8.121 -34.436  41.792  1.00  0.00     0.032 C 
ATOM     17  C   UNL     1       8.628 -33.812  43.120  1.00  0.00     0.006 C 
ATOM     18  C   UNL     1       7.625 -33.091  45.456  1.00  0.00     0.008 C 
ATOM     19  C   UNL     1       8.491 -35.390  45.124  1.00  0.00     0.012 C 
ATOM     20  C   UNL     1       9.195 -32.299  42.930  1.00  0.00    -0.025 C 
ATOM     21  C   UNL     1       7.727 -31.686  44.904  1.00  0.00     0.005 C 
ATOM     22  C   UNL     1       9.118 -31.458  44.268  1.00  0.00     0.003 C 
ATOM     23  C   UNL     1       8.441 -31.517  41.798  1.00  0.00     0.010 C 
ATOM     24  C   UNL     1      10.683 -32.459  42.477  1.00  0.00     0.012 C 
ATOM     25  C   UNL     1       9.478 -29.905  44.134  1.00  0.00    -0.006 C 
ATOM     26  C   UNL     1       8.829 -30.037  41.648  1.00  0.00     0.033 C 
ATOM     27  C   UNL     1       8.690 -29.249  42.958  1.00  0.00     0.120 C 
ATOM     28  C   UNL     1       9.150 -29.123  45.445  1.00  0.00     0.014 C 
ATOM     29  C   UNL     1      11.015 -29.696  43.930  1.00  0.00     0.014 C 
ENDROOT
BRANCH   1  30
ATOM     30  C   UNL     1       5.623 -38.304  44.766  1.00  0.00     0.048 C 
ATOM     31  O   UNL     1       5.207 -39.220  45.525  1.00  0.00    -0.550 OA
ATOM     32  O   UNL     1       6.995 -38.127  44.622  1.00  0.00    -0.550 OA
ENDBRANCH   1  30
BRANCH  27  33
ATOM     33  O   UNL     1       7.324 -29.134  43.279  1.00  0.00    -0.393 OA
ATOM     34  H   UNL     1       7.021 -28.244  42.957  1.00  0.00     0.210 HD
ENDBRANCH  27  33
TORSDOF 2
ENDMDL
MODEL 4
REMARK VINA RESULT:    -7.214      2.188      4.338
REMARK INTER + INTRA:          -7.653
REMARK INTER:                  -7.851
REMARK INTRA:                   0.197
REMARK UNBOUND:                 0.193
REMARK SMILES C[C@@H]1[C@H](C)CC[C@]2(C(=O)[O-])CC[C@]3(C)C(=CC[C@H]4[C@@]5(C)CC[C@@H](O)C(C)(C)[C@H]5CC[C@]43C)[C@@H]12
REMARK SMILES IDX 7 1 6 2 11 3 33 4 5 5 12 6 15 7 2 8 3 9 13 10 16 11 1 12
REMARK SMILES IDX 4 13 14 14 31 15 17 16 18 17 30 18 32 19 19 20 29 21 28 22
REMARK SMILES IDX 21 23 20 24 25 25 22 26 23 27 26 28 27 29 8 30 9 31 10 32
REMARK SMILES IDX 24 33
REMARK H PARENT 24 34
REMARK Flexibility Score: inf
ROOT
ATOM      1  C   UNL     1       7.525 -31.723  38.344  1.00  0.00     0.017 C 
ATOM      2  C   UNL     1       7.452 -30.419  37.481  1.00  0.00     0.014 C 
ATOM      3  C   UNL     1       6.378 -32.649  37.886  1.00  0.00     0.014 C 
ATOM      4  C   UNL     1       7.304 -31.370  39.849  1.00  0.00     0.030 C 
ATOM      5  C   UNL     1       8.092 -29.170  38.119  1.00  0.00     0.004 C 
ATOM      6  C   UNL     1       6.358 -33.964  38.665  1.00  0.00     0.013 C 
ATOM      7  C   UNL     1       7.089 -32.636  40.729  1.00  0.00    -0.063 C 
ATOM      8  C   UNL     1       8.355 -30.316  40.388  1.00  0.00    -0.003 C 
ATOM      9  C   UNL     1       9.070 -29.520  39.247  1.00  0.00    -0.011 C 
ATOM     10  C   UNL     1       6.196 -33.801  40.225  1.00  0.00    -0.006 C 
ATOM     11  C   UNL     1       7.441 -32.627  42.035  1.00  0.00    -0.027 C 
ATOM     12  C   UNL     1       7.673 -29.369  41.407  1.00  0.00     0.008 C 
ATOM     13  C   UNL     1       9.817 -28.266  39.734  1.00  0.00     0.008 C 
ATOM     14  C   UNL     1       4.710 -33.416  40.468  1.00  0.00     0.017 C 
ATOM     15  C   UNL     1       6.592 -35.168  41.012  1.00  0.00    -0.020 C 
ATOM     16  C   UNL     1       6.741 -33.484  43.038  1.00  0.00     0.032 C 
ATOM     17  C   UNL     1       6.626 -34.974  42.617  1.00  0.00     0.006 C 
ATOM     18  C   UNL     1       5.697 -36.368  40.575  1.00  0.00     0.008 C 
ATOM     19  C   UNL     1       8.050 -35.587  40.587  1.00  0.00     0.012 C 
ATOM     20  C   UNL     1       5.665 -35.837  43.606  1.00  0.00    -0.025 C 
ATOM     21  C   UNL     1       4.535 -36.672  41.495  1.00  0.00     0.005 C 
ATOM     22  C   UNL     1       5.051 -37.105  42.887  1.00  0.00     0.003 C 
ATOM     23  C   UNL     1       4.495 -34.978  44.200  1.00  0.00     0.010 C 
ATOM     24  C   UNL     1       6.575 -36.279  44.800  1.00  0.00     0.012 C 
ATOM     25  C   UNL     1       3.948 -37.911  43.721  1.00  0.00    -0.006 C 
ATOM     26  C   UNL     1       3.467 -35.754  45.038  1.00  0.00     0.033 C 
ATOM     27  C   UNL     1       2.860 -36.945  44.283  1.00  0.00     0.120 C 
ATOM     28  C   UNL     1       3.243 -38.994  42.845  1.00  0.00     0.014 C 
ATOM     29  C   UNL     1       4.602 -38.719  44.890  1.00  0.00     0.014 C 
ENDROOT
BRANCH   1  30
ATOM     30  C   UNL     1       8.856 -32.429  38.092  1.00  0.00     0.048 C 
ATOM     31  O   UNL     1       9.541 -32.891  39.043  1.00  0.00    -0.550 OA
ATOM     32  O   UNL     1       9.306 -32.617  36.789  1.00  0.00    -0.550 OA
ENDBRANCH   1  30
BRANCH  27  33
ATOM     33  O   UNL     1       2.043 -36.459  43.244  1.00  0.00    -0.393 OA
ATOM     34  H   UNL     1       1.125 -36.800  43.410  1.00  0.00     0.210 HD
ENDBRANCH  27  33
TORSDOF 2
ENDMDL
MODEL 5
REMARK VINA RESULT:    -7.095      4.574      6.860
REMARK INTER + INTRA:          -7.524
REMARK INTER:                  -7.734
REMARK INTRA:                   0.210
REMARK UNBOUND:                 0.193
REMARK SMILES C[C@@H]1[C@H](C)CC[C@]2(C(=O)[O-])CC[C@]3(C)C(=CC[C@H]4[C@@]5(C)CC[C@@H](O)C(C)(C)[C@H]5CC[C@]43C)[C@@H]12
REMARK SMILES IDX 7 1 6 2 11 3 33 4 5 5 12 6 15 7 2 8 3 9 13 10 16 11 1 12
REMARK SMILES IDX 4 13 14 14 31 15 17 16 18 17 30 18 32 19 19 20 29 21 28 22
REMARK SMILES IDX 21 23 20 24 25 25 22 26 23 27 26 28 27 29 8 30 9 31 10 32
REMARK SMILES IDX 24 33
REMARK H PARENT 24 34
REMARK Flexibility Score: inf
ROOT
ATOM      1  C   UNL     1       9.306 -28.469  40.095  1.00  0.00     0.017 C 
ATOM      2  C   UNL     1       9.037 -27.074  39.438  1.00  0.00     0.014 C 
ATOM      3  C   UNL     1       8.551 -29.528  39.263  1.00  0.00     0.014 C 
ATOM      4  C   UNL     1       8.738 -28.485  41.549  1.00  0.00     0.030 C 
ATOM      5  C   UNL     1       9.194 -25.862  40.380  1.00  0.00     0.004 C 
ATOM      6  C   UNL     1       8.750 -30.939  39.816  1.00  0.00     0.013 C 
ATOM      7  C   UNL     1       8.720 -29.915  42.163  1.00  0.00    -0.063 C 
ATOM      8  C   UNL     1       9.353 -27.343  42.456  1.00  0.00    -0.003 C 
ATOM      9  C   UNL     1      10.016 -26.190  41.631  1.00  0.00    -0.011 C 
ATOM     10  C   UNL     1       8.278 -31.133  41.309  1.00  0.00    -0.006 C 
ATOM     11  C   UNL     1       8.822 -30.084  43.502  1.00  0.00    -0.027 C 
ATOM     12  C   UNL     1       8.273 -26.804  43.427  1.00  0.00     0.008 C 
ATOM     13  C   UNL     1      10.299 -24.920  42.450  1.00  0.00     0.008 C 
ATOM     14  C   UNL     1       6.725 -31.162  41.271  1.00  0.00     0.017 C 
ATOM     15  C   UNL     1       8.883 -32.497  41.954  1.00  0.00    -0.020 C 
ATOM     16  C   UNL     1       8.214 -31.263  44.188  1.00  0.00     0.032 C 
ATOM     17  C   UNL     1       8.582 -32.624  43.537  1.00  0.00     0.006 C 
ATOM     18  C   UNL     1       8.437 -33.762  41.157  1.00  0.00     0.008 C 
ATOM     19  C   UNL     1      10.451 -32.470  41.804  1.00  0.00     0.012 C 
ATOM     20  C   UNL     1       7.731 -33.867  44.151  1.00  0.00    -0.025 C 
ATOM     21  C   UNL     1       7.257 -34.506  41.743  1.00  0.00     0.005 C 
ATOM     22  C   UNL     1       7.618 -35.075  43.135  1.00  0.00     0.003 C 
ATOM     23  C   UNL     1       6.286 -33.442  44.591  1.00  0.00     0.010 C 
ATOM     24  C   UNL     1       8.501 -34.312  45.438  1.00  0.00     0.012 C 
ATOM     25  C   UNL     1       6.644 -36.265  43.577  1.00  0.00    -0.006 C 
ATOM     26  C   UNL     1       5.375 -34.588  45.058  1.00  0.00     0.033 C 
ATOM     27  C   UNL     1       5.255 -35.714  44.021  1.00  0.00     0.120 C 
ATOM     28  C   UNL     1       6.423 -37.287  42.417  1.00  0.00     0.014 C 
ATOM     29  C   UNL     1       7.276 -37.114  44.729  1.00  0.00     0.014 C 
ENDROOT
BRANCH   1  30
ATOM     30  C   UNL     1      10.801 -28.779  40.042  1.00  0.00     0.048 C 
ATOM     31  O   UNL     1      11.428 -29.156  41.069  1.00  0.00    -0.550 OA
ATOM     32  O   UNL     1      11.485 -28.699  38.833  1.00  0.00    -0.550 OA
ENDBRANCH   1  30
BRANCH  27  33
ATOM     33  O   UNL     1       4.533 -35.236  42.910  1.00  0.00    -0.393 OA
ATOM     34  H   UNL     1       4.753 -35.825  42.141  1.00  0.00     0.210 HD
ENDBRANCH  27  33
TORSDOF 2
ENDMDL
MODEL 6
REMARK VINA RESULT:    -7.011      3.767      9.049
REMARK INTER + INTRA:          -7.433
REMARK INTER:                  -7.677
REMARK INTRA:                   0.243
REMARK UNBOUND:                 0.193
REMARK SMILES C[C@@H]1[C@H](C)CC[C@]2(C(=O)[O-])CC[C@]3(C)C(=CC[C@H]4[C@@]5(C)CC[C@@H](O)C(C)(C)[C@H]5CC[C@]43C)[C@@H]12
REMARK SMILES IDX 7 1 6 2 11 3 33 4 5 5 12 6 15 7 2 8 3 9 13 10 16 11 1 12
REMARK SMILES IDX 4 13 14 14 31 15 17 16 18 17 30 18 32 19 19 20 29 21 28 22
REMARK SMILES IDX 21 23 20 24 25 25 22 26 23 27 26 28 27 29 8 30 9 31 10 32
REMARK SMILES IDX 24 33
REMARK H PARENT 24 34
REMARK Flexibility Score: inf
ROOT
ATOM      1  C   UNL     1       7.410 -33.201  44.222  1.00  0.00     0.017 C 
ATOM      2  C   UNL     1       6.446 -33.655  45.369  1.00  0.00     0.014 C 
ATOM      3  C   UNL     1       7.768 -31.721  44.475  1.00  0.00     0.014 C 
ATOM      4  C   UNL     1       6.678 -33.305  42.847  1.00  0.00     0.030 C 
ATOM      5  C   UNL     1       5.535 -34.852  45.028  1.00  0.00     0.004 C 
ATOM      6  C   UNL     1       8.717 -31.171  43.409  1.00  0.00     0.013 C 
ATOM      7  C   UNL     1       7.471 -32.615  41.700  1.00  0.00    -0.063 C 
ATOM      8  C   UNL     1       6.148 -34.767  42.548  1.00  0.00    -0.003 C 
ATOM      9  C   UNL     1       6.047 -35.660  43.829  1.00  0.00    -0.011 C 
ATOM     10  C   UNL     1       8.163 -31.246  41.934  1.00  0.00    -0.006 C 
ATOM     11  C   UNL     1       7.345 -33.050  40.425  1.00  0.00    -0.027 C 
ATOM     12  C   UNL     1       4.796 -34.691  41.795  1.00  0.00     0.008 C 
ATOM     13  C   UNL     1       5.216 -36.939  43.635  1.00  0.00     0.008 C 
ATOM     14  C   UNL     1       7.087 -30.131  41.820  1.00  0.00     0.017 C 
ATOM     15  C   UNL     1       9.349 -31.042  40.840  1.00  0.00    -0.020 C 
ATOM     16  C   UNL     1       7.534 -32.130  39.264  1.00  0.00     0.032 C 
ATOM     17  C   UNL     1       8.850 -31.308  39.326  1.00  0.00     0.006 C 
ATOM     18  C   UNL     1      10.055 -29.660  41.003  1.00  0.00     0.008 C 
ATOM     19  C   UNL     1      10.481 -32.099  41.125  1.00  0.00     0.012 C 
ATOM     20  C   UNL     1       8.927 -30.153  38.183  1.00  0.00    -0.025 C 
ATOM     21  C   UNL     1       9.573 -28.578  40.062  1.00  0.00     0.005 C 
ATOM     22  C   UNL     1       9.883 -28.963  38.597  1.00  0.00     0.003 C 
ATOM     23  C   UNL     1       7.515 -29.566  37.832  1.00  0.00     0.010 C 
ATOM     24  C   UNL     1       9.470 -30.864  36.900  1.00  0.00     0.012 C 
ATOM     25  C   UNL     1       9.878 -27.695  37.620  1.00  0.00    -0.006 C 
ATOM     26  C   UNL     1       7.518 -28.379  36.856  1.00  0.00     0.033 C 
ATOM     27  C   UNL     1       8.420 -27.227  37.323  1.00  0.00     0.120 C 
ATOM     28  C   UNL     1      10.668 -26.495  38.232  1.00  0.00     0.014 C 
ATOM     29  C   UNL     1      10.622 -28.009  36.281  1.00  0.00     0.014 C 
ENDROOT
BRANCH   1  30
ATOM     30  C   UNL     1       8.692 -34.031  44.273  1.00  0.00     0.048 C 
ATOM     31  O   UNL     1       9.294 -34.370  43.220  1.00  0.00    -0.550 OA
ATOM     32  O   UNL     1       9.243 -34.382  45.502  1.00  0.00    -0.550 OA
ENDBRANCH   1  30
BRANCH  27  33
ATOM     33  O   UNL     1       7.848 -26.632  38.464  1.00  0.00    -0.393 OA
ATOM     34  H   UNL     1       7.480 -27.366  39.024  1.00  0.00     0.210 HD
ENDBRANCH  27  33
TORSDOF 2
ENDMDL
MODEL 7
REMARK VINA RESULT:    -6.962      6.222      8.581
REMARK INTER + INTRA:          -7.380
REMARK INTER:                  -7.573
REMARK INTRA:                   0.192
REMARK UNBOUND:                 0.193
REMARK SMILES C[C@@H]1[C@H](C)CC[C@]2(C(=O)[O-])CC[C@]3(C)C(=CC[C@H]4[C@@]5(C)CC[C@@H](O)C(C)(C)[C@H]5CC[C@]43C)[C@@H]12
REMARK SMILES IDX 7 1 6 2 11 3 33 4 5 5 12 6 15 7 2 8 3 9 13 10 16 11 1 12
REMARK SMILES IDX 4 13 14 14 31 15 17 16 18 17 30 18 32 19 19 20 29 21 28 22
REMARK SMILES IDX 21 23 20 24 25 25 22 26 23 27 26 28 27 29 8 30 9 31 10 32
REMARK SMILES IDX 24 33
REMARK H PARENT 24 34
REMARK Flexibility Score: inf
ROOT
ATOM      1  C   UNL     1       9.676 -28.434  39.320  1.00  0.00     0.017 C 
ATOM      2  C   UNL     1      10.806 -28.688  40.374  1.00  0.00     0.014 C 
ATOM      3  C   UNL     1       8.943 -27.138  39.727  1.00  0.00     0.014 C 
ATOM      4  C   UNL     1       8.652 -29.612  39.352  1.00  0.00     0.030 C 
ATOM      5  C   UNL     1      11.266 -30.154  40.505  1.00  0.00     0.004 C 
ATOM      6  C   UNL     1       7.815 -26.789  38.756  1.00  0.00     0.013 C 
ATOM      7  C   UNL     1       7.364 -29.300  38.536  1.00  0.00    -0.063 C 
ATOM      8  C   UNL     1       9.330 -31.016  39.078  1.00  0.00    -0.003 C 
ATOM      9  C   UNL     1      10.880 -31.004  39.290  1.00  0.00    -0.011 C 
ATOM     10  C   UNL     1       6.702 -27.898  38.615  1.00  0.00    -0.006 C 
ATOM     11  C   UNL     1       6.654 -30.304  37.971  1.00  0.00    -0.027 C 
ATOM     12  C   UNL     1       8.642 -32.108  39.936  1.00  0.00     0.008 C 
ATOM     13  C   UNL     1      11.508 -32.405  39.379  1.00  0.00     0.008 C 
ATOM     14  C   UNL     1       5.858 -27.832  39.918  1.00  0.00     0.017 C 
ATOM     15  C   UNL     1       5.782 -27.657  37.296  1.00  0.00    -0.020 C 
ATOM     16  C   UNL     1       5.183 -30.188  37.744  1.00  0.00     0.032 C 
ATOM     17  C   UNL     1       4.764 -28.881  37.016  1.00  0.00     0.006 C 
ATOM     18  C   UNL     1       5.058 -26.276  37.341  1.00  0.00     0.008 C 
ATOM     19  C   UNL     1       6.724 -27.568  36.037  1.00  0.00     0.012 C 
ATOM     20  C   UNL     1       3.152 -28.665  36.984  1.00  0.00    -0.025 C 
ATOM     21  C   UNL     1       3.624 -26.318  37.819  1.00  0.00     0.005 C 
ATOM     22  C   UNL     1       2.755 -27.141  36.840  1.00  0.00     0.003 C 
ATOM     23  C   UNL     1       2.447 -29.252  38.257  1.00  0.00     0.010 C 
ATOM     24  C   UNL     1       2.641 -29.478  35.749  1.00  0.00     0.012 C 
ATOM     25  C   UNL     1       1.196 -26.813  36.987  1.00  0.00    -0.006 C 
ATOM     26  C   UNL     1       0.940 -28.971  38.364  1.00  0.00     0.033 C 
ATOM     27  C   UNL     1       0.605 -27.475  38.270  1.00  0.00     0.120 C 
ATOM     28  C   UNL     1       0.937 -25.275  37.060  1.00  0.00     0.014 C 
ATOM     29  C   UNL     1       0.397 -27.282  35.726  1.00  0.00     0.014 C 
ENDROOT
BRANCH   1  30
ATOM     30  C   UNL     1      10.300 -28.232  37.940  1.00  0.00     0.048 C 
ATOM     31  O   UNL     1      11.303 -27.486  37.779  1.00  0.00    -0.550 OA
ATOM     32  O   UNL     1       9.793 -28.919  36.842  1.00  0.00    -0.550 OA
ENDBRANCH   1  30
BRANCH  27  33
ATOM     33  O   UNL     1       1.079 -26.827  39.426  1.00  0.00    -0.393 OA
ATOM     34  H   UNL     1       0.285 -26.511  39.932  1.00  0.00     0.210 HD
ENDBRANCH  27  33
TORSDOF 2
ENDMDL
MODEL 8
REMARK VINA RESULT:    -6.944      2.483      7.730
REMARK INTER + INTRA:          -7.360
REMARK INTER:                  -7.569
REMARK INTRA:                   0.209
REMARK UNBOUND:                 0.193
REMARK SMILES C[C@@H]1[C@H](C)CC[C@]2(C(=O)[O-])CC[C@]3(C)C(=CC[C@H]4[C@@]5(C)CC[C@@H](O)C(C)(C)[C@H]5CC[C@]43C)[C@@H]12
REMARK SMILES IDX 7 1 6 2 11 3 33 4 5 5 12 6 15 7 2 8 3 9 13 10 16 11 1 12
REMARK SMILES IDX 4 13 14 14 31 15 17 16 18 17 30 18 32 19 19 20 29 21 28 22
REMARK SMILES IDX 21 23 20 24 25 25 22 26 23 27 26 28 27 29 8 30 9 31 10 32
REMARK SMILES IDX 24 33
REMARK H PARENT 24 34
REMARK Flexibility Score: inf
ROOT
ATOM      1  C   UNL     1       3.964 -37.090  38.963  1.00  0.00     0.017 C 
ATOM      2  C   UNL     1       3.688 -38.596  39.290  1.00  0.00     0.014 C 
ATOM      3  C   UNL     1       5.120 -37.041  37.940  1.00  0.00     0.014 C 
ATOM      4  C   UNL     1       4.419 -36.345  40.257  1.00  0.00     0.030 C 
ATOM      5  C   UNL     1       3.015 -38.861  40.652  1.00  0.00     0.004 C 
ATOM      6  C   UNL     1       5.471 -35.608  37.542  1.00  0.00     0.013 C 
ATOM      7  C   UNL     1       4.973 -34.922  39.958  1.00  0.00    -0.063 C 
ATOM      8  C   UNL     1       3.355 -36.449  41.425  1.00  0.00    -0.003 C 
ATOM      9  C   UNL     1       2.330 -37.614  41.224  1.00  0.00    -0.011 C 
ATOM     10  C   UNL     1       5.906 -34.680  38.741  1.00  0.00    -0.006 C 
ATOM     11  C   UNL     1       4.880 -33.944  40.889  1.00  0.00    -0.027 C 
ATOM     12  C   UNL     1       4.081 -36.554  42.790  1.00  0.00     0.008 C 
ATOM     13  C   UNL     1       1.524 -37.961  42.486  1.00  0.00     0.008 C 
ATOM     14  C   UNL     1       7.342 -35.125  39.133  1.00  0.00     0.017 C 
ATOM     15  C   UNL     1       5.862 -33.109  38.327  1.00  0.00    -0.020 C 
ATOM     16  C   UNL     1       5.872 -32.829  40.951  1.00  0.00     0.032 C 
ATOM     17  C   UNL     1       6.110 -32.126  39.587  1.00  0.00     0.006 C 
ATOM     18  C   UNL     1       6.814 -32.798  37.131  1.00  0.00     0.008 C 
ATOM     19  C   UNL     1       4.422 -32.774  37.782  1.00  0.00     0.012 C 
ATOM     20  C   UNL     1       7.353 -31.078  39.625  1.00  0.00    -0.025 C 
ATOM     21  C   UNL     1       8.162 -32.228  37.515  1.00  0.00     0.005 C 
ATOM     22  C   UNL     1       7.988 -30.850  38.194  1.00  0.00     0.003 C 
ATOM     23  C   UNL     1       8.485 -31.531  40.613  1.00  0.00     0.010 C 
ATOM     24  C   UNL     1       6.760 -29.739  40.175  1.00  0.00     0.012 C 
ATOM     25  C   UNL     1       9.331 -29.981  38.161  1.00  0.00    -0.006 C 
ATOM     26  C   UNL     1       9.752 -30.662  40.606  1.00  0.00     0.033 C 
ATOM     27  C   UNL     1      10.363 -30.509  39.206  1.00  0.00     0.120 C 
ATOM     28  C   UNL     1       9.999 -30.009  36.750  1.00  0.00     0.014 C 
ATOM     29  C   UNL     1       9.033 -28.468  38.422  1.00  0.00     0.014 C 
ENDROOT
BRANCH   1  30
ATOM     30  C   UNL     1       2.721 -36.469  38.329  1.00  0.00     0.048 C 
ATOM     31  O   UNL     1       2.020 -37.108  37.500  1.00  0.00    -0.550 OA
ATOM     32  O   UNL     1       2.315 -35.192  38.705  1.00  0.00    -0.550 OA
ENDBRANCH   1  30
BRANCH  27  33
ATOM     33  O   UNL     1      10.889 -31.750  38.799  1.00  0.00    -0.393 OA
ATOM     34  H   UNL     1      11.828 -31.592  38.516  1.00  0.00     0.210 HD
ENDBRANCH  27  33
TORSDOF 2
ENDMDL
MODEL 9
REMARK VINA RESULT:    -6.831      7.747     11.594
REMARK INTER + INTRA:          -7.237
REMARK INTER:                  -7.456
REMARK INTRA:                   0.219
REMARK UNBOUND:                 0.193
REMARK SMILES C[C@@H]1[C@H](C)CC[C@]2(C(=O)[O-])CC[C@]3(C)C(=CC[C@H]4[C@@]5(C)CC[C@@H](O)C(C)(C)[C@H]5CC[C@]43C)[C@@H]12
REMARK SMILES IDX 7 1 6 2 11 3 33 4 5 5 12 6 15 7 2 8 3 9 13 10 16 11 1 12
REMARK SMILES IDX 4 13 14 14 31 15 17 16 18 17 30 18 32 19 19 20 29 21 28 22
REMARK SMILES IDX 21 23 20 24 25 25 22 26 23 27 26 28 27 29 8 30 9 31 10 32
REMARK SMILES IDX 24 33
REMARK H PARENT 24 34
REMARK Flexibility Score: inf
ROOT
ATOM      1  C   UNL     1       8.869 -28.862  44.623  1.00  0.00     0.017 C 
ATOM      2  C   UNL     1       8.481 -29.959  45.671  1.00  0.00     0.014 C 
ATOM      3  C   UNL     1       8.258 -27.527  45.100  1.00  0.00     0.014 C 
ATOM      4  C   UNL     1       8.253 -29.219  43.234  1.00  0.00     0.030 C 
ATOM      5  C   UNL     1       8.476 -31.406  45.138  1.00  0.00     0.004 C 
ATOM      6  C   UNL     1       8.583 -26.376  44.147  1.00  0.00     0.013 C 
ATOM      7  C   UNL     1       8.362 -28.046  42.218  1.00  0.00    -0.063 C 
ATOM      8  C   UNL     1       8.712 -30.641  42.711  1.00  0.00    -0.003 C 
ATOM      9  C   UNL     1       9.282 -31.560  43.843  1.00  0.00    -0.011 C 
ATOM     10  C   UNL     1       8.080 -26.587  42.667  1.00  0.00    -0.006 C 
ATOM     11  C   UNL     1       8.431 -28.297  40.890  1.00  0.00    -0.027 C 
ATOM     12  C   UNL     1       7.547 -31.323  41.951  1.00  0.00     0.008 C 
ATOM     13  C   UNL     1       9.401 -33.040  43.444  1.00  0.00     0.008 C 
ATOM     14  C   UNL     1       6.541 -26.377  42.699  1.00  0.00     0.017 C 
ATOM     15  C   UNL     1       8.800 -25.553  41.639  1.00  0.00    -0.020 C 
ATOM     16  C   UNL     1       7.924 -27.318  39.883  1.00  0.00     0.032 C 
ATOM     17  C   UNL     1       8.455 -25.874  40.092  1.00  0.00     0.006 C 
ATOM     18  C   UNL     1       8.516 -24.067  42.019  1.00  0.00     0.008 C 
ATOM     19  C   UNL     1      10.361 -25.707  41.784  1.00  0.00     0.012 C 
ATOM     20  C   UNL     1       7.716 -24.785  39.135  1.00  0.00    -0.025 C 
ATOM     21  C   UNL     1       7.400 -23.407  41.240  1.00  0.00     0.005 C 
ATOM     22  C   UNL     1       7.767 -23.324  39.740  1.00  0.00     0.003 C 
ATOM     23  C   UNL     1       6.220 -25.161  38.848  1.00  0.00     0.010 C 
ATOM     24  C   UNL     1       8.481 -24.833  37.771  1.00  0.00     0.012 C 
ATOM     25  C   UNL     1       6.907 -22.221  38.964  1.00  0.00    -0.006 C 
ATOM     26  C   UNL     1       5.417 -24.114  38.061  1.00  0.00     0.033 C 
ATOM     27  C   UNL     1       5.452 -22.723  38.711  1.00  0.00     0.120 C 
ATOM     28  C   UNL     1       6.836 -20.881  39.762  1.00  0.00     0.014 C 
ATOM     29  C   UNL     1       7.581 -21.830  37.607  1.00  0.00     0.014 C 
ENDROOT
BRANCH   1  30
ATOM     30  C   UNL     1      10.389 -28.717  44.575  1.00  0.00     0.048 C 
ATOM     31  O   UNL     1      11.016 -28.759  43.483  1.00  0.00    -0.550 OA
ATOM     32  O   UNL     1      11.102 -28.481  45.746  1.00  0.00    -0.550 OA
ENDBRANCH   1  30
BRANCH  27  33
ATOM     33  O   UNL     1       4.726 -22.765  39.917  1.00  0.00    -0.393 OA
ATOM     34  H   UNL     1       3.951 -22.151  39.814  1.00  0.00     0.210 HD
ENDBRANCH  27  33
TORSDOF 2
ENDMDL
