MODEL 1
REMARK VINA RESULT:    -4.785      0.000      0.000
REMARK INTER + INTRA:         -14.213
REMARK INTER:                 -10.938
REMARK INTRA:                  -3.274
REMARK UNBOUND:                -3.274
REMARK SMILES CCCCCCCCCCCCCCCCCCCCCCCC(=O)[O-]
REMARK SMILES IDX 13 1 14 2 15 3 16 4 17 5 18 6 19 7 20 8 21 9 22 10 23 11
REMARK SMILES IDX 24 12 25 13 26 14 12 15 11 16 10 17 9 18 8 19 7 20 6 21 5 22
REMARK SMILES IDX 4 23 3 24 2 25 1 26
REMARK H PARENT
REMARK Flexibility Score: inf
ROOT
ATOM      1  C   UNL     1      61.925  32.691  12.854  1.00  0.00     0.000 C 
ENDROOT
BRANCH   1   2
ATOM      2  C   UNL     1      63.466  32.605  12.838  1.00  0.00     0.000 C 
BRANCH   2   3
ATOM      3  C   UNL     1      64.020  31.324  13.487  1.00  0.00     0.000 C 
BRANCH   3   4
ATOM      4  C   UNL     1      64.352  30.232  12.462  1.00  0.00     0.000 C 
BRANCH   4   5
ATOM      5  C   UNL     1      64.400  30.802  11.040  1.00  0.00     0.000 C 
BRANCH   5   6
ATOM      6  C   UNL     1      64.666  29.694  10.015  1.00  0.00     0.000 C 
BRANCH   6   7
ATOM      7  C   UNL     1      63.388  29.333   9.244  1.00  0.00     0.000 C 
BRANCH   7   8
ATOM      8  C   UNL     1      62.327  30.445   9.310  1.00  0.00     0.000 C 
BRANCH   8   9
ATOM      9  C   UNL     1      60.896  29.907   9.132  1.00  0.00     0.000 C 
BRANCH   9  10
ATOM     10  C   UNL     1      60.371  29.168  10.377  1.00  0.00     0.006 C 
BRANCH  10  11
ATOM     11  C   UNL     1      60.677  29.888  11.702  1.00  0.00     0.053 C 
BRANCH  11  12
ATOM     12  C   UNL     1      60.475  29.009  12.899  1.00  0.00     0.041 C 
ATOM     13  O   UNL     1      61.332  28.987  13.821  1.00  0.00    -0.550 OA
ATOM     14  O   UNL     1      59.325  28.238  13.011  1.00  0.00    -0.550 OA
ENDBRANCH  11  12
ENDBRANCH  10  11
ENDBRANCH   9  10
ENDBRANCH   8   9
ENDBRANCH   7   8
ENDBRANCH   6   7
ENDBRANCH   5   6
ENDBRANCH   4   5
ENDBRANCH   3   4
ENDBRANCH   2   3
ENDBRANCH   1   2
BRANCH   1  15
ATOM     15  C   UNL     1      61.400  33.540  14.026  1.00  0.00     0.000 C 
BRANCH  15  16
ATOM     16  C   UNL     1      61.045  32.692  15.258  1.00  0.00     0.000 C 
BRANCH  16  17
ATOM     17  C   UNL     1      62.074  32.836  16.389  1.00  0.00     0.000 C 
BRANCH  17  18
ATOM     18  C   UNL     1      62.399  34.315  16.650  1.00  0.00    -0.000 C 
BRANCH  18  19
ATOM     19  C   UNL     1      63.902  34.570  16.862  1.00  0.00    -0.000 C 
BRANCH  19  20
ATOM     20  C   UNL     1      64.793  34.296  15.633  1.00  0.00    -0.000 C 
BRANCH  20  21
ATOM     21  C   UNL     1      66.131  35.060  15.611  1.00  0.00    -0.000 C 
BRANCH  21  22
ATOM     22  C   UNL     1      66.657  35.304  14.185  1.00  0.00    -0.000 C 
BRANCH  22  23
ATOM     23  C   UNL     1      66.920  33.986  13.423  1.00  0.00    -0.000 C 
BRANCH  23  24
ATOM     24  C   UNL     1      66.520  34.039  11.939  1.00  0.00    -0.000 C 
BRANCH  24  25
ATOM     25  C   UNL     1      67.705  33.811  10.993  1.00  0.00    -0.003 C 
ATOM     26  C   UNL     1      67.366  32.775   9.924  1.00  0.00     0.004 C 
ENDBRANCH  24  25
ENDBRANCH  23  24
ENDBRANCH  22  23
ENDBRANCH  21  22
ENDBRANCH  20  21
ENDBRANCH  19  20
ENDBRANCH  18  19
ENDBRANCH  17  18
ENDBRANCH  16  17
ENDBRANCH  15  16
ENDBRANCH   1  15
TORSDOF 22
ENDMDL
MODEL 2
REMARK VINA RESULT:    -4.760      2.990      6.753
REMARK INTER + INTRA:         -14.156
REMARK INTER:                 -10.638
REMARK INTRA:                  -3.518
REMARK UNBOUND:                -3.274
REMARK SMILES CCCCCCCCCCCCCCCCCCCCCCCC(=O)[O-]
REMARK SMILES IDX 13 1 14 2 15 3 16 4 17 5 18 6 19 7 20 8 21 9 22 10 23 11
REMARK SMILES IDX 24 12 25 13 26 14 12 15 11 16 10 17 9 18 8 19 7 20 6 21 5 22
REMARK SMILES IDX 4 23 3 24 2 25 1 26
REMARK H PARENT
REMARK Flexibility Score: inf
ROOT
ATOM      1  C   UNL     1      61.427  28.754  13.589  1.00  0.00     0.000 C 
ENDROOT
BRANCH   1   2
ATOM      2  C   UNL     1      60.399  29.672  12.895  1.00  0.00     0.000 C 
BRANCH   2   3
ATOM      3  C   UNL     1      61.039  30.821  12.095  1.00  0.00     0.000 C 
BRANCH   3   4
ATOM      4  C   UNL     1      60.974  32.167  12.828  1.00  0.00     0.000 C 
BRANCH   4   5
ATOM      5  C   UNL     1      60.110  32.069  14.090  1.00  0.00     0.000 C 
BRANCH   5   6
ATOM      6  C   UNL     1      60.900  32.508  15.328  1.00  0.00     0.000 C 
BRANCH   6   7
ATOM      7  C   UNL     1      61.787  33.723  15.018  1.00  0.00     0.000 C 
BRANCH   7   8
ATOM      8  C   UNL     1      61.806  34.746  16.165  1.00  0.00     0.000 C 
BRANCH   8   9
ATOM      9  C   UNL     1      62.650  34.274  17.363  1.00  0.00     0.000 C 
BRANCH   9  10
ATOM     10  C   UNL     1      64.021  34.970  17.445  1.00  0.00     0.006 C 
BRANCH  10  11
ATOM     11  C   UNL     1      64.909  34.742  16.210  1.00  0.00     0.053 C 
BRANCH  11  12
ATOM     12  C   UNL     1      66.324  34.403  16.568  1.00  0.00     0.041 C 
ATOM     13  O   UNL     1      67.234  34.479  15.701  1.00  0.00    -0.550 OA
ATOM     14  O   UNL     1      66.643  34.034  17.869  1.00  0.00    -0.550 OA
ENDBRANCH  11  12
ENDBRANCH  10  11
ENDBRANCH   9  10
ENDBRANCH   8   9
ENDBRANCH   7   8
ENDBRANCH   6   7
ENDBRANCH   5   6
ENDBRANCH   4   5
ENDBRANCH   3   4
ENDBRANCH   2   3
ENDBRANCH   1   2
BRANCH   1  15
ATOM     15  C   UNL     1      62.878  29.189  13.312  1.00  0.00     0.000 C 
BRANCH  15  16
ATOM     16  C   UNL     1      63.452  30.074  14.430  1.00  0.00     0.000 C 
BRANCH  16  17
ATOM     17  C   UNL     1      64.924  30.442  14.193  1.00  0.00     0.000 C 
BRANCH  17  18
ATOM     18  C   UNL     1      65.080  31.950  13.946  1.00  0.00    -0.000 C 
BRANCH  18  19
ATOM     19  C   UNL     1      64.346  32.429  12.681  1.00  0.00    -0.000 C 
BRANCH  19  20
ATOM     20  C   UNL     1      65.223  32.533  11.415  1.00  0.00    -0.000 C 
BRANCH  20  21
ATOM     21  C   UNL     1      64.810  31.608  10.255  1.00  0.00    -0.000 C 
BRANCH  21  22
ATOM     22  C   UNL     1      64.931  30.115  10.609  1.00  0.00    -0.000 C 
BRANCH  22  23
ATOM     23  C   UNL     1      64.229  29.208   9.574  1.00  0.00    -0.000 C 
BRANCH  23  24
ATOM     24  C   UNL     1      62.770  29.605   9.291  1.00  0.00    -0.000 C 
BRANCH  24  25
ATOM     25  C   UNL     1      61.820  28.402   9.252  1.00  0.00    -0.003 C 
ATOM     26  C   UNL     1      60.372  28.849   9.073  1.00  0.00     0.004 C 
ENDBRANCH  24  25
ENDBRANCH  23  24
ENDBRANCH  22  23
ENDBRANCH  21  22
ENDBRANCH  20  21
ENDBRANCH  19  20
ENDBRANCH  18  19
ENDBRANCH  17  18
ENDBRANCH  16  17
ENDBRANCH  15  16
ENDBRANCH   1  15
TORSDOF 22
ENDMDL
MODEL 3
REMARK VINA RESULT:    -4.658     10.553     13.888
REMARK INTER + INTRA:         -13.922
REMARK INTER:                 -10.448
REMARK INTRA:                  -3.474
REMARK UNBOUND:                -3.274
REMARK SMILES CCCCCCCCCCCCCCCCCCCCCCCC(=O)[O-]
REMARK SMILES IDX 13 1 14 2 15 3 16 4 17 5 18 6 19 7 20 8 21 9 22 10 23 11
REMARK SMILES IDX 24 12 25 13 26 14 12 15 11 16 10 17 9 18 8 19 7 20 6 21 5 22
REMARK SMILES IDX 4 23 3 24 2 25 1 26
REMARK H PARENT
REMARK Flexibility Score: inf
ROOT
ATOM      1  C   UNL     1      61.456  27.765  28.176  1.00  0.00     0.000 C 
ENDROOT
BRANCH   1   2
ATOM      2  C   UNL     1      62.713  27.509  29.035  1.00  0.00     0.000 C 
BRANCH   2   3
ATOM      3  C   UNL     1      63.692  28.695  29.066  1.00  0.00     0.000 C 
BRANCH   3   4
ATOM      4  C   UNL     1      63.023  30.031  28.718  1.00  0.00     0.000 C 
BRANCH   4   5
ATOM      5  C   UNL     1      64.067  31.107  28.399  1.00  0.00     0.000 C 
BRANCH   5   6
ATOM      6  C   UNL     1      65.462  30.490  28.254  1.00  0.00     0.000 C 
BRANCH   6   7
ATOM      7  C   UNL     1      65.862  30.364  26.776  1.00  0.00     0.000 C 
BRANCH   7   8
ATOM      8  C   UNL     1      66.877  29.236  26.535  1.00  0.00     0.000 C 
BRANCH   8   9
ATOM      9  C   UNL     1      67.546  29.329  25.152  1.00  0.00     0.000 C 
BRANCH   9  10
ATOM     10  C   UNL     1      66.776  30.231  24.170  1.00  0.00     0.006 C 
BRANCH  10  11
ATOM     11  C   UNL     1      67.638  31.334  23.532  1.00  0.00     0.053 C 
BRANCH  11  12
ATOM     12  C   UNL     1      66.825  32.335  22.769  1.00  0.00     0.041 C 
ATOM     13  O   UNL     1      65.569  32.337  22.861  1.00  0.00    -0.550 OA
ATOM     14  O   UNL     1      67.457  33.289  21.980  1.00  0.00    -0.550 OA
ENDBRANCH  11  12
ENDBRANCH  10  11
ENDBRANCH   9  10
ENDBRANCH   8   9
ENDBRANCH   7   8
ENDBRANCH   6   7
ENDBRANCH   5   6
ENDBRANCH   4   5
ENDBRANCH   3   4
ENDBRANCH   2   3
ENDBRANCH   1   2
BRANCH   1  15
ATOM     15  C   UNL     1      61.684  27.422  26.693  1.00  0.00     0.000 C 
BRANCH  15  16
ATOM     16  C   UNL     1      61.128  28.497  25.746  1.00  0.00     0.000 C 
BRANCH  16  17
ATOM     17  C   UNL     1      62.231  29.378  25.142  1.00  0.00     0.000 C 
BRANCH  17  18
ATOM     18  C   UNL     1      63.513  28.566  24.905  1.00  0.00    -0.000 C 
BRANCH  18  19
ATOM     19  C   UNL     1      63.820  28.351  23.413  1.00  0.00    -0.000 C 
BRANCH  19  20
ATOM     20  C   UNL     1      64.396  26.965  23.056  1.00  0.00    -0.000 C 
BRANCH  20  21
ATOM     21  C   UNL     1      65.537  26.475  23.967  1.00  0.00    -0.000 C 
BRANCH  21  22
ATOM     22  C   UNL     1      66.772  26.003  23.178  1.00  0.00    -0.000 C 
BRANCH  22  23
ATOM     23  C   UNL     1      67.333  27.105  22.252  1.00  0.00    -0.000 C 
BRANCH  23  24
ATOM     24  C   UNL     1      67.669  26.610  20.835  1.00  0.00    -0.000 C 
BRANCH  24  25
ATOM     25  C   UNL     1      66.717  27.165  19.768  1.00  0.00    -0.003 C 
ATOM     26  C   UNL     1      66.304  26.078  18.779  1.00  0.00     0.004 C 
ENDBRANCH  24  25
ENDBRANCH  23  24
ENDBRANCH  22  23
ENDBRANCH  21  22
ENDBRANCH  20  21
ENDBRANCH  19  20
ENDBRANCH  18  19
ENDBRANCH  17  18
ENDBRANCH  16  17
ENDBRANCH  15  16
ENDBRANCH   1  15
TORSDOF 22
ENDMDL
MODEL 4
REMARK VINA RESULT:    -4.588      1.673      7.112
REMARK INTER + INTRA:         -13.764
REMARK INTER:                 -10.423
REMARK INTRA:                  -3.341
REMARK UNBOUND:                -3.274
REMARK SMILES CCCCCCCCCCCCCCCCCCCCCCCC(=O)[O-]
REMARK SMILES IDX 13 1 14 2 15 3 16 4 17 5 18 6 19 7 20 8 21 9 22 10 23 11
REMARK SMILES IDX 24 12 25 13 26 14 12 15 11 16 10 17 9 18 8 19 7 20 6 21 5 22
REMARK SMILES IDX 4 23 3 24 2 25 1 26
REMARK H PARENT
REMARK Flexibility Score: inf
ROOT
ATOM      1  C   UNL     1      65.205  32.806  11.788  1.00  0.00     0.000 C 
ENDROOT
BRANCH   1   2
ATOM      2  C   UNL     1      66.205  33.787  12.435  1.00  0.00     0.000 C 
BRANCH   2   3
ATOM      3  C   UNL     1      65.801  34.239  13.849  1.00  0.00     0.000 C 
BRANCH   3   4
ATOM      4  C   UNL     1      66.604  33.538  14.953  1.00  0.00     0.000 C 
BRANCH   4   5
ATOM      5  C   UNL     1      67.345  34.554  15.829  1.00  0.00     0.000 C 
BRANCH   5   6
ATOM      6  C   UNL     1      66.357  35.494  16.529  1.00  0.00     0.000 C 
BRANCH   6   7
ATOM      7  C   UNL     1      65.454  34.723  17.504  1.00  0.00     0.000 C 
BRANCH   7   8
ATOM      8  C   UNL     1      64.029  35.296  17.565  1.00  0.00     0.000 C 
BRANCH   8   9
ATOM      9  C   UNL     1      62.949  34.204  17.469  1.00  0.00     0.000 C 
BRANCH   9  10
ATOM     10  C   UNL     1      63.044  33.375  16.175  1.00  0.00     0.006 C 
BRANCH  10  11
ATOM     11  C   UNL     1      61.837  32.450  15.939  1.00  0.00     0.053 C 
BRANCH  11  12
ATOM     12  C   UNL     1      61.088  32.785  14.685  1.00  0.00     0.041 C 
ATOM     13  O   UNL     1      61.630  33.485  13.789  1.00  0.00    -0.550 OA
ATOM     14  O   UNL     1      59.802  32.296  14.491  1.00  0.00    -0.550 OA
ENDBRANCH  11  12
ENDBRANCH  10  11
ENDBRANCH   9  10
ENDBRANCH   8   9
ENDBRANCH   7   8
ENDBRANCH   6   7
ENDBRANCH   5   6
ENDBRANCH   4   5
ENDBRANCH   3   4
ENDBRANCH   2   3
ENDBRANCH   1   2
BRANCH   1  15
ATOM     15  C   UNL     1      65.580  32.464  10.335  1.00  0.00     0.000 C 
BRANCH  15  16
ATOM     16  C   UNL     1      65.621  30.949  10.077  1.00  0.00     0.000 C 
BRANCH  16  17
ATOM     17  C   UNL     1      64.515  30.485   9.117  1.00  0.00     0.000 C 
BRANCH  17  18
ATOM     18  C   UNL     1      64.132  29.022   9.389  1.00  0.00    -0.000 C 
BRANCH  18  19
ATOM     19  C   UNL     1      62.612  28.782   9.350  1.00  0.00    -0.000 C 
BRANCH  19  20
ATOM     20  C   UNL     1      61.753  30.054   9.192  1.00  0.00    -0.000 C 
BRANCH  20  21
ATOM     21  C   UNL     1      60.701  30.273  10.295  1.00  0.00    -0.000 C 
BRANCH  21  22
ATOM     22  C   UNL     1      61.328  30.579  11.667  1.00  0.00    -0.000 C 
BRANCH  22  23
ATOM     23  C   UNL     1      60.933  29.538  12.738  1.00  0.00    -0.000 C 
BRANCH  23  24
ATOM     24  C   UNL     1      62.125  29.001  13.549  1.00  0.00    -0.000 C 
BRANCH  24  25
ATOM     25  C   UNL     1      63.478  29.480  13.009  1.00  0.00    -0.003 C 
ATOM     26  C   UNL     1      64.197  30.360  14.028  1.00  0.00     0.004 C 
ENDBRANCH  24  25
ENDBRANCH  23  24
ENDBRANCH  22  23
ENDBRANCH  21  22
ENDBRANCH  20  21
ENDBRANCH  19  20
ENDBRANCH  18  19
ENDBRANCH  17  18
ENDBRANCH  16  17
ENDBRANCH  15  16
ENDBRANCH   1  15
TORSDOF 22
ENDMDL
MODEL 5
REMARK VINA RESULT:    -4.549      3.506      7.663
REMARK INTER + INTRA:         -13.674
REMARK INTER:                 -10.403
REMARK INTRA:                  -3.271
REMARK UNBOUND:                -3.274
REMARK SMILES CCCCCCCCCCCCCCCCCCCCCCCC(=O)[O-]
REMARK SMILES IDX 13 1 14 2 15 3 16 4 17 5 18 6 19 7 20 8 21 9 22 10 23 11
REMARK SMILES IDX 24 12 25 13 26 14 12 15 11 16 10 17 9 18 8 19 7 20 6 21 5 22
REMARK SMILES IDX 4 23 3 24 2 25 1 26
REMARK H PARENT
REMARK Flexibility Score: inf
ROOT
ATOM      1  C   UNL     1      61.011  28.839  13.496  1.00  0.00     0.000 C 
ENDROOT
BRANCH   1   2
ATOM      2  C   UNL     1      62.241  29.746  13.712  1.00  0.00     0.000 C 
BRANCH   2   3
ATOM      3  C   UNL     1      62.042  30.804  14.811  1.00  0.00     0.000 C 
BRANCH   3   4
ATOM      4  C   UNL     1      61.248  32.025  14.327  1.00  0.00     0.000 C 
BRANCH   4   5
ATOM      5  C   UNL     1      61.666  33.292  15.081  1.00  0.00     0.000 C 
BRANCH   5   6
ATOM      6  C   UNL     1      61.946  32.983  16.556  1.00  0.00     0.000 C 
BRANCH   6   7
ATOM      7  C   UNL     1      62.549  34.200  17.273  1.00  0.00     0.000 C 
BRANCH   7   8
ATOM      8  C   UNL     1      63.905  34.619  16.682  1.00  0.00     0.000 C 
BRANCH   8   9
ATOM      9  C   UNL     1      64.671  35.594  17.595  1.00  0.00     0.000 C 
BRANCH   9  10
ATOM     10  C   UNL     1      65.974  34.995  18.157  1.00  0.00     0.006 C 
BRANCH  10  11
ATOM     11  C   UNL     1      66.576  35.800  19.321  1.00  0.00     0.053 C 
BRANCH  11  12
ATOM     12  C   UNL     1      66.330  35.162  20.655  1.00  0.00     0.041 C 
ATOM     13  O   UNL     1      67.267  34.577  21.261  1.00  0.00    -0.550 OA
ATOM     14  O   UNL     1      65.074  35.240  21.243  1.00  0.00    -0.550 OA
ENDBRANCH  11  12
ENDBRANCH  10  11
ENDBRANCH   9  10
ENDBRANCH   8   9
ENDBRANCH   7   8
ENDBRANCH   6   7
ENDBRANCH   5   6
ENDBRANCH   4   5
ENDBRANCH   3   4
ENDBRANCH   2   3
ENDBRANCH   1   2
BRANCH   1  15
ATOM     15  C   UNL     1      60.381  29.033  12.104  1.00  0.00     0.000 C 
BRANCH  15  16
ATOM     16  C   UNL     1      61.067  30.146  11.296  1.00  0.00     0.000 C 
BRANCH  16  17
ATOM     17  C   UNL     1      61.077  29.858   9.787  1.00  0.00     0.000 C 
BRANCH  17  18
ATOM     18  C   UNL     1      62.179  28.849   9.429  1.00  0.00    -0.000 C 
BRANCH  18  19
ATOM     19  C   UNL     1      63.574  29.290   9.905  1.00  0.00    -0.000 C 
BRANCH  19  20
ATOM     20  C   UNL     1      64.097  30.599   9.276  1.00  0.00    -0.000 C 
BRANCH  20  21
ATOM     21  C   UNL     1      65.046  31.421  10.169  1.00  0.00    -0.000 C 
BRANCH  21  22
ATOM     22  C   UNL     1      64.739  31.266  11.669  1.00  0.00    -0.000 C 
BRANCH  22  23
ATOM     23  C   UNL     1      64.192  32.568  12.295  1.00  0.00    -0.000 C 
BRANCH  23  24
ATOM     24  C   UNL     1      65.144  33.211  13.318  1.00  0.00    -0.000 C 
BRANCH  24  25
ATOM     25  C   UNL     1      65.488  32.274  14.483  1.00  0.00    -0.003 C 
ATOM     26  C   UNL     1      66.670  32.808  15.288  1.00  0.00     0.004 C 
ENDBRANCH  24  25
ENDBRANCH  23  24
ENDBRANCH  22  23
ENDBRANCH  21  22
ENDBRANCH  20  21
ENDBRANCH  19  20
ENDBRANCH  18  19
ENDBRANCH  17  18
ENDBRANCH  16  17
ENDBRANCH  15  16
ENDBRANCH   1  15
TORSDOF 22
ENDMDL
MODEL 6
REMARK VINA RESULT:    -4.512     10.466     13.223
REMARK INTER + INTRA:         -13.590
REMARK INTER:                 -10.556
REMARK INTRA:                  -3.035
REMARK UNBOUND:                -3.274
REMARK SMILES CCCCCCCCCCCCCCCCCCCCCCCC(=O)[O-]
REMARK SMILES IDX 13 1 14 2 15 3 16 4 17 5 18 6 19 7 20 8 21 9 22 10 23 11
REMARK SMILES IDX 24 12 25 13 26 14 12 15 11 16 10 17 9 18 8 19 7 20 6 21 5 22
REMARK SMILES IDX 4 23 3 24 2 25 1 26
REMARK H PARENT
REMARK Flexibility Score: inf
ROOT
ATOM      1  C   UNL     1      61.393  27.816  28.770  1.00  0.00     0.000 C 
ENDROOT
BRANCH   1   2
ATOM      2  C   UNL     1      61.891  27.399  27.370  1.00  0.00     0.000 C 
BRANCH   2   3
ATOM      3  C   UNL     1      61.045  27.970  26.218  1.00  0.00     0.000 C 
BRANCH   3   4
ATOM      4  C   UNL     1      61.891  28.661  25.141  1.00  0.00     0.000 C 
BRANCH   4   5
ATOM      5  C   UNL     1      63.386  28.410  25.366  1.00  0.00     0.000 C 
BRANCH   5   6
ATOM      6  C   UNL     1      63.988  27.614  24.202  1.00  0.00     0.000 C 
BRANCH   6   7
ATOM      7  C   UNL     1      64.761  26.388  24.711  1.00  0.00     0.000 C 
BRANCH   7   8
ATOM      8  C   UNL     1      66.278  26.632  24.770  1.00  0.00     0.000 C 
BRANCH   8   9
ATOM      9  C   UNL     1      66.855  27.091  23.419  1.00  0.00     0.000 C 
BRANCH   9  10
ATOM     10  C   UNL     1      66.569  26.102  22.274  1.00  0.00     0.006 C 
BRANCH  10  11
ATOM     11  C   UNL     1      67.483  26.287  21.050  1.00  0.00     0.053 C 
BRANCH  11  12
ATOM     12  C   UNL     1      66.759  26.853  19.867  1.00  0.00     0.041 C 
ATOM     13  O   UNL     1      65.505  26.760  19.786  1.00  0.00    -0.550 OA
ATOM     14  O   UNL     1      67.464  27.513  18.869  1.00  0.00    -0.550 OA
ENDBRANCH  11  12
ENDBRANCH  10  11
ENDBRANCH   9  10
ENDBRANCH   8   9
ENDBRANCH   7   8
ENDBRANCH   6   7
ENDBRANCH   5   6
ENDBRANCH   4   5
ENDBRANCH   3   4
ENDBRANCH   2   3
ENDBRANCH   1   2
BRANCH   1  15
ATOM     15  C   UNL     1      61.617  29.314  29.045  1.00  0.00     0.000 C 
BRANCH  15  16
ATOM     16  C   UNL     1      63.106  29.684  29.125  1.00  0.00     0.000 C 
BRANCH  16  17
ATOM     17  C   UNL     1      63.487  30.811  28.153  1.00  0.00     0.000 C 
BRANCH  17  18
ATOM     18  C   UNL     1      64.948  31.240  28.356  1.00  0.00    -0.000 C 
BRANCH  18  19
ATOM     19  C   UNL     1      65.953  30.122  28.022  1.00  0.00    -0.000 C 
BRANCH  19  20
ATOM     20  C   UNL     1      67.282  30.601  27.401  1.00  0.00    -0.000 C 
BRANCH  20  21
ATOM     21  C   UNL     1      67.889  29.656  26.347  1.00  0.00    -0.000 C 
BRANCH  21  22
ATOM     22  C   UNL     1      67.687  30.158  24.906  1.00  0.00    -0.000 C 
BRANCH  22  23
ATOM     23  C   UNL     1      66.210  30.495  24.604  1.00  0.00    -0.000 C 
BRANCH  23  24
ATOM     24  C   UNL     1      65.946  30.859  23.132  1.00  0.00    -0.000 C 
BRANCH  24  25
ATOM     25  C   UNL     1      66.240  32.331  22.820  1.00  0.00    -0.003 C 
ATOM     26  C   UNL     1      67.435  32.467  21.880  1.00  0.00     0.004 C 
ENDBRANCH  24  25
ENDBRANCH  23  24
ENDBRANCH  22  23
ENDBRANCH  21  22
ENDBRANCH  20  21
ENDBRANCH  19  20
ENDBRANCH  18  19
ENDBRANCH  17  18
ENDBRANCH  16  17
ENDBRANCH  15  16
ENDBRANCH   1  15
TORSDOF 22
ENDMDL
MODEL 7
REMARK VINA RESULT:    -4.483      2.553      7.548
REMARK INTER + INTRA:         -13.523
REMARK INTER:                  -9.992
REMARK INTRA:                  -3.530
REMARK UNBOUND:                -3.274
REMARK SMILES CCCCCCCCCCCCCCCCCCCCCCCC(=O)[O-]
REMARK SMILES IDX 13 1 14 2 15 3 16 4 17 5 18 6 19 7 20 8 21 9 22 10 23 11
REMARK SMILES IDX 24 12 25 13 26 14 12 15 11 16 10 17 9 18 8 19 7 20 6 21 5 22
REMARK SMILES IDX 4 23 3 24 2 25 1 26
REMARK H PARENT
REMARK Flexibility Score: inf
ROOT
ATOM      1  C   UNL     1      64.860  32.396  11.919  1.00  0.00     0.000 C 
ENDROOT
BRANCH   1   2
ATOM      2  C   UNL     1      65.868  33.519  12.241  1.00  0.00     0.000 C 
BRANCH   2   3
ATOM      3  C   UNL     1      65.844  33.967  13.714  1.00  0.00     0.000 C 
BRANCH   3   4
ATOM      4  C   UNL     1      65.680  32.795  14.691  1.00  0.00     0.000 C 
BRANCH   4   5
ATOM      5  C   UNL     1      66.954  32.579  15.516  1.00  0.00     0.000 C 
BRANCH   5   6
ATOM      6  C   UNL     1      67.722  33.894  15.689  1.00  0.00     0.000 C 
BRANCH   6   7
ATOM      7  C   UNL     1      67.961  34.204  17.174  1.00  0.00     0.000 C 
BRANCH   7   8
ATOM      8  C   UNL     1      67.291  35.514  17.618  1.00  0.00     0.000 C 
BRANCH   8   9
ATOM      9  C   UNL     1      65.936  35.279  18.311  1.00  0.00     0.000 C 
BRANCH   9  10
ATOM     10  C   UNL     1      64.733  35.537  17.385  1.00  0.00     0.006 C 
BRANCH  10  11
ATOM     11  C   UNL     1      63.745  34.361  17.309  1.00  0.00     0.053 C 
BRANCH  11  12
ATOM     12  C   UNL     1      62.396  34.700  17.868  1.00  0.00     0.041 C 
ATOM     13  O   UNL     1      62.108  34.399  19.056  1.00  0.00    -0.550 OA
ATOM     14  O   UNL     1      61.469  35.378  17.086  1.00  0.00    -0.550 OA
ENDBRANCH  11  12
ENDBRANCH  10  11
ENDBRANCH   9  10
ENDBRANCH   8   9
ENDBRANCH   7   8
ENDBRANCH   6   7
ENDBRANCH   5   6
ENDBRANCH   4   5
ENDBRANCH   3   4
ENDBRANCH   2   3
ENDBRANCH   1   2
BRANCH   1  15
ATOM     15  C   UNL     1      65.133  31.742  10.553  1.00  0.00     0.000 C 
BRANCH  15  16
ATOM     16  C   UNL     1      64.527  30.334  10.440  1.00  0.00     0.000 C 
BRANCH  16  17
ATOM     17  C   UNL     1      63.124  30.345   9.814  1.00  0.00     0.000 C 
BRANCH  17  18
ATOM     18  C   UNL     1      62.481  28.951   9.885  1.00  0.00    -0.000 C 
BRANCH  18  19
ATOM     19  C   UNL     1      61.029  28.987  10.393  1.00  0.00    -0.000 C 
BRANCH  19  20
ATOM     20  C   UNL     1      60.776  29.926  11.590  1.00  0.00    -0.000 C 
BRANCH  20  21
ATOM     21  C   UNL     1      60.816  29.250  12.973  1.00  0.00    -0.000 C 
BRANCH  21  22
ATOM     22  C   UNL     1      62.242  29.134  13.540  1.00  0.00    -0.000 C 
BRANCH  22  23
ATOM     23  C   UNL     1      62.802  30.496  14.005  1.00  0.00    -0.000 C 
BRANCH  23  24
ATOM     24  C   UNL     1      62.138  31.035  15.283  1.00  0.00    -0.000 C 
BRANCH  24  25
ATOM     25  C   UNL     1      61.497  32.415  15.086  1.00  0.00    -0.003 C 
ATOM     26  C   UNL     1      61.715  32.925  13.663  1.00  0.00     0.004 C 
ENDBRANCH  24  25
ENDBRANCH  23  24
ENDBRANCH  22  23
ENDBRANCH  21  22
ENDBRANCH  20  21
ENDBRANCH  19  20
ENDBRANCH  18  19
ENDBRANCH  17  18
ENDBRANCH  16  17
ENDBRANCH  15  16
ENDBRANCH   1  15
TORSDOF 22
ENDMDL
MODEL 8
REMARK VINA RESULT:    -4.458      2.978      7.331
REMARK INTER + INTRA:         -13.466
REMARK INTER:                  -9.962
REMARK INTRA:                  -3.504
REMARK UNBOUND:                -3.274
REMARK SMILES CCCCCCCCCCCCCCCCCCCCCCCC(=O)[O-]
REMARK SMILES IDX 13 1 14 2 15 3 16 4 17 5 18 6 19 7 20 8 21 9 22 10 23 11
REMARK SMILES IDX 24 12 25 13 26 14 12 15 11 16 10 17 9 18 8 19 7 20 6 21 5 22
REMARK SMILES IDX 4 23 3 24 2 25 1 26
REMARK H PARENT
REMARK Flexibility Score: inf
ROOT
ATOM      1  C   UNL     1      61.412  29.297  12.982  1.00  0.00     0.000 C 
ENDROOT
BRANCH   1   2
ATOM      2  C   UNL     1      61.094  30.804  13.089  1.00  0.00     0.000 C 
BRANCH   2   3
ATOM      3  C   UNL     1      61.354  31.391  14.488  1.00  0.00     0.000 C 
BRANCH   3   4
ATOM      4  C   UNL     1      60.622  32.719  14.724  1.00  0.00     0.000 C 
BRANCH   4   5
ATOM      5  C   UNL     1      61.597  33.901  14.695  1.00  0.00     0.000 C 
BRANCH   5   6
ATOM      6  C   UNL     1      61.743  34.523  16.088  1.00  0.00     0.000 C 
BRANCH   6   7
ATOM      7  C   UNL     1      62.976  33.968  16.816  1.00  0.00     0.000 C 
BRANCH   7   8
ATOM      8  C   UNL     1      63.573  34.974  17.813  1.00  0.00     0.000 C 
BRANCH   8   9
ATOM      9  C   UNL     1      65.066  35.247  17.555  1.00  0.00     0.000 C 
BRANCH   9  10
ATOM     10  C   UNL     1      65.478  35.002  16.091  1.00  0.00     0.006 C 
BRANCH  10  11
ATOM     11  C   UNL     1      66.818  35.652  15.706  1.00  0.00     0.053 C 
BRANCH  11  12
ATOM     12  C   UNL     1      67.482  34.968  14.550  1.00  0.00     0.041 C 
ATOM     13  O   UNL     1      68.058  33.860  14.714  1.00  0.00    -0.550 OA
ATOM     14  O   UNL     1      67.436  35.538  13.284  1.00  0.00    -0.550 OA
ENDBRANCH  11  12
ENDBRANCH  10  11
ENDBRANCH   9  10
ENDBRANCH   8   9
ENDBRANCH   7   8
ENDBRANCH   6   7
ENDBRANCH   5   6
ENDBRANCH   4   5
ENDBRANCH   3   4
ENDBRANCH   2   3
ENDBRANCH   1   2
BRANCH   1  15
ATOM     15  C   UNL     1      60.670  28.627  11.811  1.00  0.00     0.000 C 
BRANCH  15  16
ATOM     16  C   UNL     1      60.296  29.623  10.702  1.00  0.00     0.000 C 
BRANCH  16  17
ATOM     17  C   UNL     1      60.699  29.129   9.305  1.00  0.00     0.000 C 
BRANCH  17  18
ATOM     18  C   UNL     1      62.065  28.427   9.345  1.00  0.00    -0.000 C 
BRANCH  18  19
ATOM     19  C   UNL     1      63.241  29.386   9.089  1.00  0.00    -0.000 C 
BRANCH  19  20
ATOM     20  C   UNL     1      64.042  29.789  10.344  1.00  0.00    -0.000 C 
BRANCH  20  21
ATOM     21  C   UNL     1      65.293  30.648  10.074  1.00  0.00    -0.000 C 
BRANCH  21  22
ATOM     22  C   UNL     1      65.275  31.986  10.835  1.00  0.00    -0.000 C 
BRANCH  22  23
ATOM     23  C   UNL     1      64.253  31.989  11.993  1.00  0.00    -0.000 C 
BRANCH  23  24
ATOM     24  C   UNL     1      64.718  32.782  13.227  1.00  0.00    -0.000 C 
BRANCH  24  25
ATOM     25  C   UNL     1      65.088  31.880  14.411  1.00  0.00    -0.003 C 
ATOM     26  C   UNL     1      64.767  30.418  14.111  1.00  0.00     0.004 C 
ENDBRANCH  24  25
ENDBRANCH  23  24
ENDBRANCH  22  23
ENDBRANCH  21  22
ENDBRANCH  20  21
ENDBRANCH  19  20
ENDBRANCH  18  19
ENDBRANCH  17  18
ENDBRANCH  16  17
ENDBRANCH  15  16
ENDBRANCH   1  15
TORSDOF 22
ENDMDL
MODEL 9
REMARK VINA RESULT:    -4.373      1.636      5.763
REMARK INTER + INTRA:         -13.271
REMARK INTER:                  -9.969
REMARK INTRA:                  -3.302
REMARK UNBOUND:                -3.274
REMARK SMILES CCCCCCCCCCCCCCCCCCCCCCCC(=O)[O-]
REMARK SMILES IDX 13 1 14 2 15 3 16 4 17 5 18 6 19 7 20 8 21 9 22 10 23 11
REMARK SMILES IDX 24 12 25 13 26 14 12 15 11 16 10 17 9 18 8 19 7 20 6 21 5 22
REMARK SMILES IDX 4 23 3 24 2 25 1 26
REMARK H PARENT
REMARK Flexibility Score: inf
ROOT
ATOM      1  C   UNL     1      62.246  29.791  13.981  1.00  0.00     0.000 C 
ENDROOT
BRANCH   1   2
ATOM      2  C   UNL     1      63.713  29.495  13.606  1.00  0.00     0.000 C 
BRANCH   2   3
ATOM      3  C   UNL     1      64.568  30.760  13.413  1.00  0.00     0.000 C 
BRANCH   3   4
ATOM      4  C   UNL     1      63.894  31.806  12.516  1.00  0.00     0.000 C 
BRANCH   4   5
ATOM      5  C   UNL     1      64.609  33.158  12.608  1.00  0.00     0.000 C 
BRANCH   5   6
ATOM      6  C   UNL     1      65.647  33.152  13.735  1.00  0.00     0.000 C 
BRANCH   6   7
ATOM      7  C   UNL     1      65.259  34.134  14.851  1.00  0.00     0.000 C 
BRANCH   7   8
ATOM      8  C   UNL     1      64.328  33.499  15.896  1.00  0.00     0.000 C 
BRANCH   8   9
ATOM      9  C   UNL     1      63.718  34.538  16.853  1.00  0.00     0.000 C 
BRANCH   9  10
ATOM     10  C   UNL     1      62.187  34.648  16.727  1.00  0.00     0.006 C 
BRANCH  10  11
ATOM     11  C   UNL     1      61.501  33.332  16.319  1.00  0.00     0.053 C 
BRANCH  11  12
ATOM     12  C   UNL     1      61.061  33.329  14.887  1.00  0.00     0.041 C 
ATOM     13  O   UNL     1      61.426  34.250  14.109  1.00  0.00    -0.550 OA
ATOM     14  O   UNL     1      60.273  32.293  14.403  1.00  0.00    -0.550 OA
ENDBRANCH  11  12
ENDBRANCH  10  11
ENDBRANCH   9  10
ENDBRANCH   8   9
ENDBRANCH   7   8
ENDBRANCH   6   7
ENDBRANCH   5   6
ENDBRANCH   4   5
ENDBRANCH   3   4
ENDBRANCH   2   3
ENDBRANCH   1   2
BRANCH   1  15
ATOM     15  C   UNL     1      61.262  28.829  13.292  1.00  0.00     0.000 C 
BRANCH  15  16
ATOM     16  C   UNL     1      60.347  29.542  12.283  1.00  0.00     0.000 C 
BRANCH  16  17
ATOM     17  C   UNL     1      60.656  29.155  10.830  1.00  0.00     0.000 C 
BRANCH  17  18
ATOM     18  C   UNL     1      61.704  30.100  10.222  1.00  0.00    -0.000 C 
BRANCH  18  19
ATOM     19  C   UNL     1      63.029  29.392   9.889  1.00  0.00    -0.000 C 
BRANCH  19  20
ATOM     20  C   UNL     1      63.974  30.175   8.954  1.00  0.00    -0.000 C 
BRANCH  20  21
ATOM     21  C   UNL     1      65.416  30.339   9.469  1.00  0.00    -0.000 C 
BRANCH  21  22
ATOM     22  C   UNL     1      65.933  31.784   9.349  1.00  0.00    -0.000 C 
BRANCH  22  23
ATOM     23  C   UNL     1      67.441  31.842   9.018  1.00  0.00    -0.000 C 
BRANCH  23  24
ATOM     24  C   UNL     1      68.112  33.167   9.419  1.00  0.00    -0.000 C 
BRANCH  24  25
ATOM     25  C   UNL     1      68.002  33.462  10.919  1.00  0.00    -0.003 C 
ATOM     26  C   UNL     1      67.759  34.948  11.172  1.00  0.00     0.004 C 
ENDBRANCH  24  25
ENDBRANCH  23  24
ENDBRANCH  22  23
ENDBRANCH  21  22
ENDBRANCH  20  21
ENDBRANCH  19  20
ENDBRANCH  18  19
ENDBRANCH  17  18
ENDBRANCH  16  17
ENDBRANCH  15  16
ENDBRANCH   1  15
TORSDOF 22
ENDMDL
