MODEL 1
REMARK VINA RESULT:    -5.672      0.000      0.000
REMARK INTER + INTRA:         -16.110
REMARK INTER:                 -12.966
REMARK INTRA:                  -3.144
REMARK UNBOUND:                -3.144
REMARK SMILES CCCCCCCCCCCCCCCCCCCCCCCC(=O)[O-]
REMARK SMILES IDX 13 1 14 2 15 3 16 4 17 5 18 6 19 7 20 8 21 9 22 10 23 11
REMARK SMILES IDX 24 12 25 13 26 14 12 15 11 16 10 17 9 18 8 19 7 20 6 21 5 22
REMARK SMILES IDX 4 23 3 24 2 25 1 26
REMARK H PARENT
REMARK Flexibility Score: inf
ROOT
ATOM      1  C   UNL     1      -0.458 -27.134   7.304  1.00  0.00     0.000 C 
ENDROOT
BRANCH   1   2
ATOM      2  C   UNL     1      -0.382 -27.382   5.785  1.00  0.00     0.000 C 
BRANCH   2   3
ATOM      3  C   UNL     1      -0.251 -28.862   5.374  1.00  0.00     0.000 C 
BRANCH   3   4
ATOM      4  C   UNL     1       1.175 -29.307   4.988  1.00  0.00     0.000 C 
BRANCH   4   5
ATOM      5  C   UNL     1       1.561 -29.039   3.522  1.00  0.00     0.000 C 
BRANCH   5   6
ATOM      6  C   UNL     1       1.140 -30.180   2.578  1.00  0.00     0.000 C 
BRANCH   6   7
ATOM      7  C   UNL     1      -0.134 -29.850   1.783  1.00  0.00     0.000 C 
BRANCH   7   8
ATOM      8  C   UNL     1      -0.303 -28.340   1.541  1.00  0.00     0.000 C 
BRANCH   8   9
ATOM      9  C   UNL     1      -1.717 -27.841   1.882  1.00  0.00     0.000 C 
BRANCH   9  10
ATOM     10  C   UNL     1      -1.709 -26.479   2.597  1.00  0.00     0.006 C 
BRANCH  10  11
ATOM     11  C   UNL     1      -0.561 -25.580   2.118  1.00  0.00     0.053 C 
BRANCH  11  12
ATOM     12  C   UNL     1      -0.970 -24.723   0.960  1.00  0.00     0.041 C 
ATOM     13  O   UNL     1      -1.374 -23.546   1.155  1.00  0.00    -0.550 OA
ATOM     14  O   UNL     1      -0.880 -25.212  -0.337  1.00  0.00    -0.550 OA
ENDBRANCH  11  12
ENDBRANCH  10  11
ENDBRANCH   9  10
ENDBRANCH   8   9
ENDBRANCH   7   8
ENDBRANCH   6   7
ENDBRANCH   5   6
ENDBRANCH   4   5
ENDBRANCH   3   4
ENDBRANCH   2   3
ENDBRANCH   1   2
BRANCH   1  15
ATOM     15  C   UNL     1       0.899 -27.139   8.036  1.00  0.00     0.000 C 
BRANCH  15  16
ATOM     16  C   UNL     1       1.273 -28.474   8.703  1.00  0.00     0.000 C 
BRANCH  16  17
ATOM     17  C   UNL     1       0.050 -29.345   9.025  1.00  0.00     0.000 C 
BRANCH  17  18
ATOM     18  C   UNL     1      -0.089 -29.559  10.539  1.00  0.00    -0.000 C 
BRANCH  18  19
ATOM     19  C   UNL     1       1.026 -28.872  11.348  1.00  0.00    -0.000 C 
BRANCH  19  20
ATOM     20  C   UNL     1       0.547 -27.765  12.305  1.00  0.00    -0.000 C 
BRANCH  20  21
ATOM     21  C   UNL     1       0.202 -26.456  11.580  1.00  0.00    -0.000 C 
BRANCH  21  22
ATOM     22  C   UNL     1      -1.292 -26.127  11.722  1.00  0.00    -0.000 C 
BRANCH  22  23
ATOM     23  C   UNL     1      -2.004 -25.984  10.366  1.00  0.00    -0.000 C 
BRANCH  23  24
ATOM     24  C   UNL     1      -3.495 -26.382  10.365  1.00  0.00    -0.000 C 
BRANCH  24  25
ATOM     25  C   UNL     1      -4.476 -25.219  10.141  1.00  0.00    -0.003 C 
ATOM     26  C   UNL     1      -4.249 -24.053  11.104  1.00  0.00     0.004 C 
ENDBRANCH  24  25
ENDBRANCH  23  24
ENDBRANCH  22  23
ENDBRANCH  21  22
ENDBRANCH  20  21
ENDBRANCH  19  20
ENDBRANCH  18  19
ENDBRANCH  17  18
ENDBRANCH  16  17
ENDBRANCH  15  16
ENDBRANCH   1  15
TORSDOF 22
ENDMDL
MODEL 2
REMARK VINA RESULT:    -5.500      0.982      1.364
REMARK INTER + INTRA:         -15.718
REMARK INTER:                 -12.937
REMARK INTRA:                  -2.780
REMARK UNBOUND:                -3.144
REMARK SMILES CCCCCCCCCCCCCCCCCCCCCCCC(=O)[O-]
REMARK SMILES IDX 13 1 14 2 15 3 16 4 17 5 18 6 19 7 20 8 21 9 22 10 23 11
REMARK SMILES IDX 24 12 25 13 26 14 12 15 11 16 10 17 9 18 8 19 7 20 6 21 5 22
REMARK SMILES IDX 4 23 3 24 2 25 1 26
REMARK H PARENT
REMARK Flexibility Score: inf
ROOT
ATOM      1  C   UNL     1       0.849 -27.128   8.002  1.00  0.00     0.000 C 
ENDROOT
BRANCH   1   2
ATOM      2  C   UNL     1      -0.456 -27.105   7.183  1.00  0.00     0.000 C 
BRANCH   2   3
ATOM      3  C   UNL     1      -0.289 -27.432   5.686  1.00  0.00     0.000 C 
BRANCH   3   4
ATOM      4  C   UNL     1      -0.272 -28.936   5.345  1.00  0.00     0.000 C 
BRANCH   4   5
ATOM      5  C   UNL     1       1.090 -29.477   4.873  1.00  0.00     0.000 C 
BRANCH   5   6
ATOM      6  C   UNL     1       1.024 -30.114   3.474  1.00  0.00     0.000 C 
BRANCH   6   7
ATOM      7  C   UNL     1       0.999 -29.069   2.347  1.00  0.00     0.000 C 
BRANCH   7   8
ATOM      8  C   UNL     1      -0.338 -29.054   1.587  1.00  0.00     0.000 C 
BRANCH   8   9
ATOM      9  C   UNL     1      -1.212 -27.843   1.952  1.00  0.00     0.000 C 
BRANCH   9  10
ATOM     10  C   UNL     1      -1.176 -26.741   0.880  1.00  0.00     0.006 C 
BRANCH  10  11
ATOM     11  C   UNL     1      -2.449 -25.883   0.889  1.00  0.00     0.053 C 
BRANCH  11  12
ATOM     12  C   UNL     1      -2.527 -24.989  -0.311  1.00  0.00     0.041 C 
ATOM     13  O   UNL     1      -1.868 -23.917  -0.346  1.00  0.00    -0.550 OA
ATOM     14  O   UNL     1      -3.304 -25.354  -1.403  1.00  0.00    -0.550 OA
ENDBRANCH  11  12
ENDBRANCH  10  11
ENDBRANCH   9  10
ENDBRANCH   8   9
ENDBRANCH   7   8
ENDBRANCH   6   7
ENDBRANCH   5   6
ENDBRANCH   4   5
ENDBRANCH   3   4
ENDBRANCH   2   3
ENDBRANCH   1   2
BRANCH   1  15
ATOM     15  C   UNL     1       1.173 -28.475   8.680  1.00  0.00     0.000 C 
BRANCH  15  16
ATOM     16  C   UNL     1      -0.037 -29.402   8.893  1.00  0.00     0.000 C 
BRANCH  16  17
ATOM     17  C   UNL     1      -0.239 -29.792  10.364  1.00  0.00     0.000 C 
BRANCH  17  18
ATOM     18  C   UNL     1       0.969 -29.372  11.214  1.00  0.00    -0.000 C 
BRANCH  18  19
ATOM     19  C   UNL     1       0.582 -28.481  12.408  1.00  0.00    -0.000 C 
BRANCH  19  20
ATOM     20  C   UNL     1       1.183 -27.064  12.384  1.00  0.00    -0.000 C 
BRANCH  20  21
ATOM     21  C   UNL     1       0.428 -26.111  11.445  1.00  0.00    -0.000 C 
BRANCH  21  22
ATOM     22  C   UNL     1      -1.088 -26.208  11.667  1.00  0.00    -0.000 C 
BRANCH  22  23
ATOM     23  C   UNL     1      -1.886 -26.215  10.351  1.00  0.00    -0.000 C 
BRANCH  23  24
ATOM     24  C   UNL     1      -3.412 -26.378  10.513  1.00  0.00    -0.000 C 
BRANCH  24  25
ATOM     25  C   UNL     1      -4.240 -25.139  10.132  1.00  0.00    -0.003 C 
ATOM     26  C   UNL     1      -4.186 -24.038  11.191  1.00  0.00     0.004 C 
ENDBRANCH  24  25
ENDBRANCH  23  24
ENDBRANCH  22  23
ENDBRANCH  21  22
ENDBRANCH  20  21
ENDBRANCH  19  20
ENDBRANCH  18  19
ENDBRANCH  17  18
ENDBRANCH  16  17
ENDBRANCH  15  16
ENDBRANCH   1  15
TORSDOF 22
ENDMDL
MODEL 3
REMARK VINA RESULT:    -5.366      3.266      8.437
REMARK INTER + INTRA:         -15.412
REMARK INTER:                 -12.380
REMARK INTRA:                  -3.032
REMARK UNBOUND:                -3.144
REMARK SMILES CCCCCCCCCCCCCCCCCCCCCCCC(=O)[O-]
REMARK SMILES IDX 13 1 14 2 15 3 16 4 17 5 18 6 19 7 20 8 21 9 22 10 23 11
REMARK SMILES IDX 24 12 25 13 26 14 12 15 11 16 10 17 9 18 8 19 7 20 6 21 5 22
REMARK SMILES IDX 4 23 3 24 2 25 1 26
REMARK H PARENT
REMARK Flexibility Score: inf
ROOT
ATOM      1  C   UNL     1      -0.210 -27.451   6.458  1.00  0.00     0.000 C 
ENDROOT
BRANCH   1   2
ATOM      2  C   UNL     1       1.005 -26.949   7.264  1.00  0.00     0.000 C 
BRANCH   2   3
ATOM      3  C   UNL     1       0.701 -26.564   8.725  1.00  0.00     0.000 C 
BRANCH   3   4
ATOM      4  C   UNL     1       1.837 -26.857   9.727  1.00  0.00     0.000 C 
BRANCH   4   5
ATOM      5  C   UNL     1       1.605 -28.084  10.628  1.00  0.00     0.000 C 
BRANCH   5   6
ATOM      6  C   UNL     1       1.794 -27.768  12.122  1.00  0.00     0.000 C 
BRANCH   6   7
ATOM      7  C   UNL     1       1.234 -26.390  12.511  1.00  0.00     0.000 C 
BRANCH   7   8
ATOM      8  C   UNL     1      -0.266 -26.438  12.847  1.00  0.00     0.000 C 
BRANCH   8   9
ATOM      9  C   UNL     1      -1.125 -25.671  11.829  1.00  0.00     0.000 C 
BRANCH   9  10
ATOM     10  C   UNL     1      -2.056 -26.594  11.023  1.00  0.00     0.006 C 
BRANCH  10  11
ATOM     11  C   UNL     1      -2.886 -25.821   9.990  1.00  0.00     0.053 C 
BRANCH  11  12
ATOM     12  C   UNL     1      -4.293 -25.601  10.457  1.00  0.00     0.041 C 
ATOM     13  O   UNL     1      -4.609 -24.528  11.034  1.00  0.00    -0.550 OA
ATOM     14  O   UNL     1      -5.262 -26.570  10.228  1.00  0.00    -0.550 OA
ENDBRANCH  11  12
ENDBRANCH  10  11
ENDBRANCH   9  10
ENDBRANCH   8   9
ENDBRANCH   7   8
ENDBRANCH   6   7
ENDBRANCH   5   6
ENDBRANCH   4   5
ENDBRANCH   3   4
ENDBRANCH   2   3
ENDBRANCH   1   2
BRANCH   1  15
ATOM     15  C   UNL     1      -0.281 -28.980   6.268  1.00  0.00     0.000 C 
BRANCH  15  16
ATOM     16  C   UNL     1      -0.032 -29.468   4.830  1.00  0.00     0.000 C 
BRANCH  16  17
ATOM     17  C   UNL     1       1.460 -29.556   4.478  1.00  0.00     0.000 C 
BRANCH  17  18
ATOM     18  C   UNL     1       1.679 -29.380   2.969  1.00  0.00    -0.000 C 
BRANCH  18  19
ATOM     19  C   UNL     1       0.424 -29.703   2.137  1.00  0.00    -0.000 C 
BRANCH  19  20
ATOM     20  C   UNL     1      -0.195 -28.500   1.403  1.00  0.00    -0.000 C 
BRANCH  20  21
ATOM     21  C   UNL     1      -1.660 -28.252   1.791  1.00  0.00    -0.000 C 
BRANCH  21  22
ATOM     22  C   UNL     1      -1.957 -26.747   1.879  1.00  0.00    -0.000 C 
BRANCH  22  23
ATOM     23  C   UNL     1      -1.609 -26.148   3.253  1.00  0.00    -0.000 C 
BRANCH  23  24
ATOM     24  C   UNL     1      -0.799 -24.835   3.207  1.00  0.00    -0.000 C 
BRANCH  24  25
ATOM     25  C   UNL     1       0.617 -24.966   2.618  1.00  0.00    -0.003 C 
ATOM     26  C   UNL     1       1.547 -25.812   3.488  1.00  0.00     0.004 C 
ENDBRANCH  24  25
ENDBRANCH  23  24
ENDBRANCH  22  23
ENDBRANCH  21  22
ENDBRANCH  20  21
ENDBRANCH  19  20
ENDBRANCH  18  19
ENDBRANCH  17  18
ENDBRANCH  16  17
ENDBRANCH  15  16
ENDBRANCH   1  15
TORSDOF 22
ENDMDL
MODEL 4
REMARK VINA RESULT:    -5.315      3.176      8.394
REMARK INTER + INTRA:         -15.295
REMARK INTER:                 -12.502
REMARK INTRA:                  -2.792
REMARK UNBOUND:                -3.144
REMARK SMILES CCCCCCCCCCCCCCCCCCCCCCCC(=O)[O-]
REMARK SMILES IDX 13 1 14 2 15 3 16 4 17 5 18 6 19 7 20 8 21 9 22 10 23 11
REMARK SMILES IDX 24 12 25 13 26 14 12 15 11 16 10 17 9 18 8 19 7 20 6 21 5 22
REMARK SMILES IDX 4 23 3 24 2 25 1 26
REMARK H PARENT
REMARK Flexibility Score: inf
ROOT
ATOM      1  C   UNL     1      -0.178 -27.314   5.092  1.00  0.00     0.000 C 
ENDROOT
BRANCH   1   2
ATOM      2  C   UNL     1      -0.429 -27.671   6.570  1.00  0.00     0.000 C 
BRANCH   2   3
ATOM      3  C   UNL     1      -0.041 -29.110   6.966  1.00  0.00     0.000 C 
BRANCH   3   4
ATOM      4  C   UNL     1       1.364 -29.259   7.587  1.00  0.00     0.000 C 
BRANCH   4   5
ATOM      5  C   UNL     1       1.375 -29.680   9.067  1.00  0.00     0.000 C 
BRANCH   5   6
ATOM      6  C   UNL     1       1.885 -28.566   9.999  1.00  0.00     0.000 C 
BRANCH   6   7
ATOM      7  C   UNL     1       1.602 -27.159   9.448  1.00  0.00     0.000 C 
BRANCH   7   8
ATOM      8  C   UNL     1       0.473 -26.444  10.210  1.00  0.00     0.000 C 
BRANCH   8   9
ATOM      9  C   UNL     1      -0.838 -27.246  10.214  1.00  0.00     0.000 C 
BRANCH   9  10
ATOM     10  C   UNL     1      -2.037 -26.427   9.708  1.00  0.00     0.006 C 
BRANCH  10  11
ATOM     11  C   UNL     1      -2.776 -25.716  10.850  1.00  0.00     0.053 C 
BRANCH  11  12
ATOM     12  C   UNL     1      -4.183 -25.367  10.472  1.00  0.00     0.041 C 
ATOM     13  O   UNL     1      -4.581 -24.174  10.546  1.00  0.00    -0.550 OA
ATOM     14  O   UNL     1      -5.046 -26.352  10.010  1.00  0.00    -0.550 OA
ENDBRANCH  11  12
ENDBRANCH  10  11
ENDBRANCH   9  10
ENDBRANCH   8   9
ENDBRANCH   7   8
ENDBRANCH   6   7
ENDBRANCH   5   6
ENDBRANCH   4   5
ENDBRANCH   3   4
ENDBRANCH   2   3
ENDBRANCH   1   2
BRANCH   1  15
ATOM     15  C   UNL     1       1.298 -27.366   4.648  1.00  0.00     0.000 C 
BRANCH  15  16
ATOM     16  C   UNL     1       1.563 -28.174   3.366  1.00  0.00     0.000 C 
BRANCH  16  17
ATOM     17  C   UNL     1       0.831 -29.524   3.349  1.00  0.00     0.000 C 
BRANCH  17  18
ATOM     18  C   UNL     1      -0.013 -29.674   2.075  1.00  0.00    -0.000 C 
BRANCH  18  19
ATOM     19  C   UNL     1      -0.357 -28.324   1.420  1.00  0.00    -0.000 C 
BRANCH  19  20
ATOM     20  C   UNL     1      -1.796 -27.833   1.659  1.00  0.00    -0.000 C 
BRANCH  20  21
ATOM     21  C   UNL     1      -1.857 -26.392   2.185  1.00  0.00    -0.000 C 
BRANCH  21  22
ATOM     22  C   UNL     1      -0.541 -25.651   1.908  1.00  0.00    -0.000 C 
BRANCH  22  23
ATOM     23  C   UNL     1      -0.755 -24.274   1.255  1.00  0.00    -0.000 C 
BRANCH  23  24
ATOM     24  C   UNL     1      -0.934 -24.298  -0.277  1.00  0.00    -0.000 C 
BRANCH  24  25
ATOM     25  C   UNL     1      -2.385 -24.139  -0.764  1.00  0.00    -0.003 C 
ATOM     26  C   UNL     1      -2.934 -25.404  -1.424  1.00  0.00     0.004 C 
ENDBRANCH  24  25
ENDBRANCH  23  24
ENDBRANCH  22  23
ENDBRANCH  21  22
ENDBRANCH  20  21
ENDBRANCH  19  20
ENDBRANCH  18  19
ENDBRANCH  17  18
ENDBRANCH  16  17
ENDBRANCH  15  16
ENDBRANCH   1  15
TORSDOF 22
ENDMDL
MODEL 5
REMARK VINA RESULT:    -5.270      1.550      2.590
REMARK INTER + INTRA:         -15.192
REMARK INTER:                 -13.379
REMARK INTRA:                  -1.813
REMARK UNBOUND:                -3.144
REMARK SMILES CCCCCCCCCCCCCCCCCCCCCCCC(=O)[O-]
REMARK SMILES IDX 13 1 14 2 15 3 16 4 17 5 18 6 19 7 20 8 21 9 22 10 23 11
REMARK SMILES IDX 24 12 25 13 26 14 12 15 11 16 10 17 9 18 8 19 7 20 6 21 5 22
REMARK SMILES IDX 4 23 3 24 2 25 1 26
REMARK H PARENT
REMARK Flexibility Score: inf
ROOT
ATOM      1  C   UNL     1      -1.097 -26.876   8.753  1.00  0.00     0.000 C 
ENDROOT
BRANCH   1   2
ATOM      2  C   UNL     1       0.059 -27.027   7.745  1.00  0.00     0.000 C 
BRANCH   2   3
ATOM      3  C   UNL     1      -0.377 -27.329   6.297  1.00  0.00     0.000 C 
BRANCH   3   4
ATOM      4  C   UNL     1      -0.194 -28.795   5.853  1.00  0.00     0.000 C 
BRANCH   4   5
ATOM      5  C   UNL     1       1.222 -29.150   5.365  1.00  0.00     0.000 C 
BRANCH   5   6
ATOM      6  C   UNL     1       1.225 -29.783   3.962  1.00  0.00     0.000 C 
BRANCH   6   7
ATOM      7  C   UNL     1       0.914 -28.765   2.853  1.00  0.00     0.000 C 
BRANCH   7   8
ATOM      8  C   UNL     1      -0.141 -29.281   1.859  1.00  0.00     0.000 C 
BRANCH   8   9
ATOM      9  C   UNL     1      -1.383 -28.378   1.793  1.00  0.00     0.000 C 
BRANCH   9  10
ATOM     10  C   UNL     1      -1.027 -26.889   1.635  1.00  0.00     0.006 C 
BRANCH  10  11
ATOM     11  C   UNL     1      -2.231 -26.050   1.187  1.00  0.00     0.053 C 
BRANCH  11  12
ATOM     12  C   UNL     1      -2.052 -25.514  -0.200  1.00  0.00     0.041 C 
ATOM     13  O   UNL     1      -0.918 -25.129  -0.589  1.00  0.00    -0.550 OA
ATOM     14  O   UNL     1      -3.131 -25.467  -1.074  1.00  0.00    -0.550 OA
ENDBRANCH  11  12
ENDBRANCH  10  11
ENDBRANCH   9  10
ENDBRANCH   8   9
ENDBRANCH   7   8
ENDBRANCH   6   7
ENDBRANCH   5   6
ENDBRANCH   4   5
ENDBRANCH   3   4
ENDBRANCH   2   3
ENDBRANCH   1   2
BRANCH   1  15
ATOM     15  C   UNL     1      -0.672 -26.849  10.235  1.00  0.00     0.000 C 
BRANCH  15  16
ATOM     16  C   UNL     1       0.819 -26.556  10.478  1.00  0.00     0.000 C 
BRANCH  16  17
ATOM     17  C   UNL     1       1.073 -25.791  11.785  1.00  0.00     0.000 C 
BRANCH  17  18
ATOM     18  C   UNL     1       0.699 -26.647  13.004  1.00  0.00    -0.000 C 
BRANCH  18  19
ATOM     19  C   UNL     1      -0.433 -26.032  13.846  1.00  0.00    -0.000 C 
BRANCH  19  20
ATOM     20  C   UNL     1      -0.623 -24.514  13.670  1.00  0.00    -0.000 C 
BRANCH  20  21
ATOM     21  C   UNL     1      -1.865 -23.978  14.397  1.00  0.00    -0.000 C 
BRANCH  21  22
ATOM     22  C   UNL     1      -2.917 -23.484  13.393  1.00  0.00    -0.000 C 
BRANCH  22  23
ATOM     23  C   UNL     1      -2.801 -24.167  12.019  1.00  0.00    -0.000 C 
BRANCH  23  24
ATOM     24  C   UNL     1      -4.118 -24.258  11.221  1.00  0.00    -0.000 C 
BRANCH  24  25
ATOM     25  C   UNL     1      -4.077 -25.201  10.006  1.00  0.00    -0.003 C 
ATOM     26  C   UNL     1      -5.271 -26.155   9.952  1.00  0.00     0.004 C 
ENDBRANCH  24  25
ENDBRANCH  23  24
ENDBRANCH  22  23
ENDBRANCH  21  22
ENDBRANCH  20  21
ENDBRANCH  19  20
ENDBRANCH  18  19
ENDBRANCH  17  18
ENDBRANCH  16  17
ENDBRANCH  15  16
ENDBRANCH   1  15
TORSDOF 22
ENDMDL
MODEL 6
REMARK VINA RESULT:    -5.270      3.267      8.083
REMARK INTER + INTRA:         -15.191
REMARK INTER:                 -11.524
REMARK INTRA:                  -3.667
REMARK UNBOUND:                -3.144
REMARK SMILES CCCCCCCCCCCCCCCCCCCCCCCC(=O)[O-]
REMARK SMILES IDX 13 1 14 2 15 3 16 4 17 5 18 6 19 7 20 8 21 9 22 10 23 11
REMARK SMILES IDX 24 12 25 13 26 14 12 15 11 16 10 17 9 18 8 19 7 20 6 21 5 22
REMARK SMILES IDX 4 23 3 24 2 25 1 26
REMARK H PARENT
REMARK Flexibility Score: inf
ROOT
ATOM      1  C   UNL     1      -0.330 -27.283   7.022  1.00  0.00     0.000 C 
ENDROOT
BRANCH   1   2
ATOM      2  C   UNL     1      -0.869 -28.466   7.850  1.00  0.00     0.000 C 
BRANCH   2   3
ATOM      3  C   UNL     1       0.212 -29.350   8.502  1.00  0.00     0.000 C 
BRANCH   3   4
ATOM      4  C   UNL     1      -0.153 -29.909   9.892  1.00  0.00     0.000 C 
BRANCH   4   5
ATOM      5  C   UNL     1       0.869 -29.601  11.002  1.00  0.00     0.000 C 
BRANCH   5   6
ATOM      6  C   UNL     1       1.767 -28.398  10.665  1.00  0.00     0.000 C 
BRANCH   6   7
ATOM      7  C   UNL     1       1.466 -27.170  11.539  1.00  0.00     0.000 C 
BRANCH   7   8
ATOM      8  C   UNL     1       0.494 -26.189  10.860  1.00  0.00     0.000 C 
BRANCH   8   9
ATOM      9  C   UNL     1      -0.885 -26.159  11.538  1.00  0.00     0.000 C 
BRANCH   9  10
ATOM     10  C   UNL     1      -1.985 -26.799  10.674  1.00  0.00     0.006 C 
BRANCH  10  11
ATOM     11  C   UNL     1      -2.798 -25.751   9.901  1.00  0.00     0.053 C 
BRANCH  11  12
ATOM     12  C   UNL     1      -3.871 -25.141  10.749  1.00  0.00     0.041 C 
ATOM     13  O   UNL     1      -5.014 -25.668  10.799  1.00  0.00    -0.550 OA
ATOM     14  O   UNL     1      -3.603 -24.008  11.506  1.00  0.00    -0.550 OA
ENDBRANCH  11  12
ENDBRANCH  10  11
ENDBRANCH   9  10
ENDBRANCH   8   9
ENDBRANCH   7   8
ENDBRANCH   6   7
ENDBRANCH   5   6
ENDBRANCH   4   5
ENDBRANCH   3   4
ENDBRANCH   2   3
ENDBRANCH   1   2
BRANCH   1  15
ATOM     15  C   UNL     1       1.154 -26.939   7.264  1.00  0.00     0.000 C 
BRANCH  15  16
ATOM     16  C   UNL     1       2.105 -27.322   6.117  1.00  0.00     0.000 C 
BRANCH  16  17
ATOM     17  C   UNL     1       1.815 -26.555   4.819  1.00  0.00     0.000 C 
BRANCH  17  18
ATOM     18  C   UNL     1       1.891 -27.488   3.601  1.00  0.00    -0.000 C 
BRANCH  18  19
ATOM     19  C   UNL     1       1.210 -28.847   3.843  1.00  0.00    -0.000 C 
BRANCH  19  20
ATOM     20  C   UNL     1       0.396 -29.387   2.653  1.00  0.00    -0.000 C 
BRANCH  20  21
ATOM     21  C   UNL     1      -0.050 -28.282   1.683  1.00  0.00    -0.000 C 
BRANCH  21  22
ATOM     22  C   UNL     1      -1.581 -28.169   1.646  1.00  0.00    -0.000 C 
BRANCH  22  23
ATOM     23  C   UNL     1      -2.084 -26.751   1.968  1.00  0.00    -0.000 C 
BRANCH  23  24
ATOM     24  C   UNL     1      -1.573 -26.163   3.300  1.00  0.00    -0.000 C 
BRANCH  24  25
ATOM     25  C   UNL     1      -0.908 -24.781   3.186  1.00  0.00    -0.003 C 
ATOM     26  C   UNL     1       0.027 -24.668   1.982  1.00  0.00     0.004 C 
ENDBRANCH  24  25
ENDBRANCH  23  24
ENDBRANCH  22  23
ENDBRANCH  21  22
ENDBRANCH  20  21
ENDBRANCH  19  20
ENDBRANCH  18  19
ENDBRANCH  17  18
ENDBRANCH  16  17
ENDBRANCH  15  16
ENDBRANCH   1  15
TORSDOF 22
ENDMDL
MODEL 7
REMARK VINA RESULT:    -5.235      1.385      1.989
REMARK INTER + INTRA:         -15.112
REMARK INTER:                 -12.357
REMARK INTRA:                  -2.755
REMARK UNBOUND:                -3.144
REMARK SMILES CCCCCCCCCCCCCCCCCCCCCCCC(=O)[O-]
REMARK SMILES IDX 13 1 14 2 15 3 16 4 17 5 18 6 19 7 20 8 21 9 22 10 23 11
REMARK SMILES IDX 24 12 25 13 26 14 12 15 11 16 10 17 9 18 8 19 7 20 6 21 5 22
REMARK SMILES IDX 4 23 3 24 2 25 1 26
REMARK H PARENT
REMARK Flexibility Score: inf
ROOT
ATOM      1  C   UNL     1      -0.395 -26.976   5.675  1.00  0.00     0.000 C 
ENDROOT
BRANCH   1   2
ATOM      2  C   UNL     1       0.397 -26.388   4.491  1.00  0.00     0.000 C 
BRANCH   2   3
ATOM      3  C   UNL     1       1.740 -27.086   4.197  1.00  0.00     0.000 C 
BRANCH   3   4
ATOM      4  C   UNL     1       1.843 -27.739   2.803  1.00  0.00     0.000 C 
BRANCH   4   5
ATOM      5  C   UNL     1       1.342 -29.193   2.730  1.00  0.00     0.000 C 
BRANCH   5   6
ATOM      6  C   UNL     1       0.225 -29.386   1.690  1.00  0.00     0.000 C 
BRANCH   6   7
ATOM      7  C   UNL     1      -1.072 -28.653   2.071  1.00  0.00     0.000 C 
BRANCH   7   8
ATOM      8  C   UNL     1      -1.347 -27.436   1.170  1.00  0.00     0.000 C 
BRANCH   8   9
ATOM      9  C   UNL     1      -2.170 -26.349   1.880  1.00  0.00     0.000 C 
BRANCH   9  10
ATOM     10  C   UNL     1      -1.831 -24.931   1.387  1.00  0.00     0.006 C 
BRANCH  10  11
ATOM     11  C   UNL     1      -0.967 -24.951   0.118  1.00  0.00     0.053 C 
BRANCH  11  12
ATOM     12  C   UNL     1      -1.741 -24.517  -1.089  1.00  0.00     0.041 C 
ATOM     13  O   UNL     1      -2.869 -25.021  -1.334  1.00  0.00    -0.550 OA
ATOM     14  O   UNL     1      -1.232 -23.534  -1.929  1.00  0.00    -0.550 OA
ENDBRANCH  11  12
ENDBRANCH  10  11
ENDBRANCH   9  10
ENDBRANCH   8   9
ENDBRANCH   7   8
ENDBRANCH   6   7
ENDBRANCH   5   6
ENDBRANCH   4   5
ENDBRANCH   3   4
ENDBRANCH   2   3
ENDBRANCH   1   2
BRANCH   1  15
ATOM     15  C   UNL     1      -0.487 -28.515   5.699  1.00  0.00     0.000 C 
BRANCH  15  16
ATOM     16  C   UNL     1      -0.228 -29.160   7.072  1.00  0.00     0.000 C 
BRANCH  16  17
ATOM     17  C   UNL     1       1.265 -29.383   7.355  1.00  0.00     0.000 C 
BRANCH  17  18
ATOM     18  C   UNL     1       1.584 -29.146   8.838  1.00  0.00    -0.000 C 
BRANCH  18  19
ATOM     19  C   UNL     1       0.453 -29.603   9.777  1.00  0.00    -0.000 C 
BRANCH  19  20
ATOM     20  C   UNL     1      -0.191 -28.482  10.613  1.00  0.00    -0.000 C 
BRANCH  20  21
ATOM     21  C   UNL     1       0.077 -27.081  10.042  1.00  0.00    -0.000 C 
BRANCH  21  22
ATOM     22  C   UNL     1      -1.213 -26.459   9.487  1.00  0.00    -0.000 C 
BRANCH  22  23
ATOM     23  C   UNL     1      -2.393 -26.550  10.471  1.00  0.00    -0.000 C 
BRANCH  23  24
ATOM     24  C   UNL     1      -3.738 -26.026   9.928  1.00  0.00    -0.000 C 
BRANCH  24  25
ATOM     25  C   UNL     1      -4.600 -25.266  10.951  1.00  0.00    -0.003 C 
ATOM     26  C   UNL     1      -4.227 -23.787  11.062  1.00  0.00     0.004 C 
ENDBRANCH  24  25
ENDBRANCH  23  24
ENDBRANCH  22  23
ENDBRANCH  21  22
ENDBRANCH  20  21
ENDBRANCH  19  20
ENDBRANCH  18  19
ENDBRANCH  17  18
ENDBRANCH  16  17
ENDBRANCH  15  16
ENDBRANCH   1  15
TORSDOF 22
ENDMDL
MODEL 8
REMARK VINA RESULT:    -5.223      3.058      8.815
REMARK INTER + INTRA:         -15.084
REMARK INTER:                 -12.539
REMARK INTRA:                  -2.545
REMARK UNBOUND:                -3.144
REMARK SMILES CCCCCCCCCCCCCCCCCCCCCCCC(=O)[O-]
REMARK SMILES IDX 13 1 14 2 15 3 16 4 17 5 18 6 19 7 20 8 21 9 22 10 23 11
REMARK SMILES IDX 24 12 25 13 26 14 12 15 11 16 10 17 9 18 8 19 7 20 6 21 5 22
REMARK SMILES IDX 4 23 3 24 2 25 1 26
REMARK H PARENT
REMARK Flexibility Score: inf
ROOT
ATOM      1  C   UNL     1      -0.773 -28.415   8.676  1.00  0.00     0.000 C 
ENDROOT
BRANCH   1   2
ATOM      2  C   UNL     1      -0.533 -28.478  10.197  1.00  0.00     0.000 C 
BRANCH   2   3
ATOM      3  C   UNL     1       0.540 -27.506  10.726  1.00  0.00     0.000 C 
BRANCH   3   4
ATOM      4  C   UNL     1      -0.007 -26.283  11.489  1.00  0.00     0.000 C 
BRANCH   4   5
ATOM      5  C   UNL     1       1.023 -25.558  12.375  1.00  0.00     0.000 C 
BRANCH   5   6
ATOM      6  C   UNL     1       0.366 -24.672  13.447  1.00  0.00     0.000 C 
BRANCH   6   7
ATOM      7  C   UNL     1      -1.121 -25.001  13.659  1.00  0.00     0.000 C 
BRANCH   7   8
ATOM      8  C   UNL     1      -1.937 -23.777  14.108  1.00  0.00     0.000 C 
BRANCH   8   9
ATOM      9  C   UNL     1      -3.058 -23.418  13.119  1.00  0.00     0.000 C 
BRANCH   9  10
ATOM     10  C   UNL     1      -2.930 -24.165  11.780  1.00  0.00     0.006 C 
BRANCH  10  11
ATOM     11  C   UNL     1      -4.271 -24.262  11.041  1.00  0.00     0.053 C 
BRANCH  11  12
ATOM     12  C   UNL     1      -4.387 -25.536  10.261  1.00  0.00     0.041 C 
ATOM     13  O   UNL     1      -5.461 -25.820   9.668  1.00  0.00    -0.550 OA
ATOM     14  O   UNL     1      -3.300 -26.395  10.164  1.00  0.00    -0.550 OA
ENDBRANCH  11  12
ENDBRANCH  10  11
ENDBRANCH   9  10
ENDBRANCH   8   9
ENDBRANCH   7   8
ENDBRANCH   6   7
ENDBRANCH   5   6
ENDBRANCH   4   5
ENDBRANCH   3   4
ENDBRANCH   2   3
ENDBRANCH   1   2
BRANCH   1  15
ATOM     15  C   UNL     1      -0.388 -27.079   8.008  1.00  0.00     0.000 C 
BRANCH  15  16
ATOM     16  C   UNL     1       0.213 -27.208   6.597  1.00  0.00     0.000 C 
BRANCH  16  17
ATOM     17  C   UNL     1      -0.543 -28.213   5.715  1.00  0.00     0.000 C 
BRANCH  17  18
ATOM     18  C   UNL     1       0.325 -29.445   5.419  1.00  0.00    -0.000 C 
BRANCH  18  19
ATOM     19  C   UNL     1       1.704 -29.083   4.841  1.00  0.00    -0.000 C 
BRANCH  19  20
ATOM     20  C   UNL     1       1.773 -29.036   3.304  1.00  0.00    -0.000 C 
BRANCH  20  21
ATOM     21  C   UNL     1       0.894 -30.101   2.633  1.00  0.00    -0.000 C 
BRANCH  21  22
ATOM     22  C   UNL     1      -0.042 -29.466   1.594  1.00  0.00    -0.000 C 
BRANCH  22  23
ATOM     23  C   UNL     1      -0.169 -27.941   1.757  1.00  0.00    -0.000 C 
BRANCH  23  24
ATOM     24  C   UNL     1      -1.563 -27.444   2.196  1.00  0.00    -0.000 C 
BRANCH  24  25
ATOM     25  C   UNL     1      -1.604 -25.993   2.704  1.00  0.00    -0.003 C 
ATOM     26  C   UNL     1      -0.258 -25.515   3.251  1.00  0.00     0.004 C 
ENDBRANCH  24  25
ENDBRANCH  23  24
ENDBRANCH  22  23
ENDBRANCH  21  22
ENDBRANCH  20  21
ENDBRANCH  19  20
ENDBRANCH  18  19
ENDBRANCH  17  18
ENDBRANCH  16  17
ENDBRANCH  15  16
ENDBRANCH   1  15
TORSDOF 22
ENDMDL
MODEL 9
REMARK VINA RESULT:    -5.220      4.147      9.400
REMARK INTER + INTRA:         -15.077
REMARK INTER:                 -12.829
REMARK INTRA:                  -2.248
REMARK UNBOUND:                -3.144
REMARK SMILES CCCCCCCCCCCCCCCCCCCCCCCC(=O)[O-]
REMARK SMILES IDX 13 1 14 2 15 3 16 4 17 5 18 6 19 7 20 8 21 9 22 10 23 11
REMARK SMILES IDX 24 12 25 13 26 14 12 15 11 16 10 17 9 18 8 19 7 20 6 21 5 22
REMARK SMILES IDX 4 23 3 24 2 25 1 26
REMARK H PARENT
REMARK Flexibility Score: inf
ROOT
ATOM      1  C   UNL     1      -0.475 -27.443   7.079  1.00  0.00     0.000 C 
ENDROOT
BRANCH   1   2
ATOM      2  C   UNL     1       0.061 -26.810   8.378  1.00  0.00     0.000 C 
BRANCH   2   3
ATOM      3  C   UNL     1      -0.611 -27.313   9.671  1.00  0.00     0.000 C 
BRANCH   3   4
ATOM      4  C   UNL     1      -1.515 -26.284  10.380  1.00  0.00     0.000 C 
BRANCH   4   5
ATOM      5  C   UNL     1      -3.026 -26.521  10.205  1.00  0.00     0.000 C 
BRANCH   5   6
ATOM      6  C   UNL     1      -3.799 -25.226   9.899  1.00  0.00     0.000 C 
BRANCH   6   7
ATOM      7  C   UNL     1      -4.510 -24.655  11.137  1.00  0.00     0.000 C 
BRANCH   7   8
ATOM      8  C   UNL     1      -4.053 -23.225  11.472  1.00  0.00     0.000 C 
BRANCH   8   9
ATOM      9  C   UNL     1      -3.458 -23.110  12.884  1.00  0.00     0.000 C 
BRANCH   9  10
ATOM     10  C   UNL     1      -2.448 -24.227  13.196  1.00  0.00     0.006 C 
BRANCH  10  11
ATOM     11  C   UNL     1      -1.494 -23.845  14.336  1.00  0.00     0.053 C 
BRANCH  11  12
ATOM     12  C   UNL     1      -0.561 -24.964  14.682  1.00  0.00     0.041 C 
ATOM     13  O   UNL     1      -0.738 -25.634  15.734  1.00  0.00    -0.550 OA
ATOM     14  O   UNL     1       0.486 -25.288  13.829  1.00  0.00    -0.550 OA
ENDBRANCH  11  12
ENDBRANCH  10  11
ENDBRANCH   9  10
ENDBRANCH   8   9
ENDBRANCH   7   8
ENDBRANCH   6   7
ENDBRANCH   5   6
ENDBRANCH   4   5
ENDBRANCH   3   4
ENDBRANCH   2   3
ENDBRANCH   1   2
BRANCH   1  15
ATOM     15  C   UNL     1      -0.195 -28.951   6.923  1.00  0.00     0.000 C 
BRANCH  15  16
ATOM     16  C   UNL     1      -0.131 -29.453   5.470  1.00  0.00     0.000 C 
BRANCH  16  17
ATOM     17  C   UNL     1       1.303 -29.521   4.924  1.00  0.00     0.000 C 
BRANCH  17  18
ATOM     18  C   UNL     1       1.318 -30.070   3.490  1.00  0.00    -0.000 C 
BRANCH  18  19
ATOM     19  C   UNL     1       0.957 -29.008   2.436  1.00  0.00    -0.000 C 
BRANCH  19  20
ATOM     20  C   UNL     1      -0.328 -29.295   1.638  1.00  0.00    -0.000 C 
BRANCH  20  21
ATOM     21  C   UNL     1      -1.318 -28.120   1.655  1.00  0.00    -0.000 C 
BRANCH  21  22
ATOM     22  C   UNL     1      -1.276 -27.387   3.005  1.00  0.00    -0.000 C 
BRANCH  22  23
ATOM     23  C   UNL     1      -1.709 -25.914   2.899  1.00  0.00    -0.000 C 
BRANCH  23  24
ATOM     24  C   UNL     1      -0.590 -24.884   3.159  1.00  0.00    -0.000 C 
BRANCH  24  25
ATOM     25  C   UNL     1       0.837 -25.399   2.905  1.00  0.00    -0.003 C 
ATOM     26  C   UNL     1       1.578 -25.759   4.193  1.00  0.00     0.004 C 
ENDBRANCH  24  25
ENDBRANCH  23  24
ENDBRANCH  22  23
ENDBRANCH  21  22
ENDBRANCH  20  21
ENDBRANCH  19  20
ENDBRANCH  18  19
ENDBRANCH  17  18
ENDBRANCH  16  17
ENDBRANCH  15  16
ENDBRANCH   1  15
TORSDOF 22
ENDMDL
