MODEL 1
REMARK VINA RESULT:    -7.194      0.000      0.000
REMARK INTER + INTRA:         -12.937
REMARK INTER:                 -11.819
REMARK INTRA:                  -1.117
REMARK UNBOUND:                -1.117
REMARK SMILES C[C@H]1O[C@@H](OC[C@H]2O[C@@H](Oc3c(-c4ccc(O)c(O)c4)oc4cc(O)cc(O)c4c3=O)[C@H](O)[C@H](O)[C@@H]2O)[C@H](O)[C@H](O)[C@H]1O
REMARK SMILES IDX 7 1 36 2 34 3 32 4 9 5 8 6 6 7 5 8 4 9 1 10 2 11 42 12 3 13
REMARK SMILES IDX 40 14 38 15 43 16 41 18 39 20 37 22 35 24 10 26 11 27 12 28
REMARK SMILES IDX 30 29 21 30 29 31 31 32 22 33 27 34 23 35 26 36 24 37 13 38
REMARK SMILES IDX 20 39 14 40 18 41 15 42 16 43 19 44 17 46 28 48 25 50 33 52
REMARK H PARENT 43 17 41 19 39 21 37 23 35 25 19 45 17 47 28 49 25 51 33 53
REMARK Flexibility Score: inf
ROOT
ATOM      1  C   UNL     1      79.683 -29.158  84.061  1.00  0.00     0.180 C 
ATOM      2  C   UNL     1      79.202 -29.819  82.746  1.00  0.00     0.177 C 
ATOM      3  C   UNL     1      78.600 -28.757  81.821  1.00  0.00     0.180 C 
ATOM      4  C   UNL     1      77.491 -27.986  82.550  1.00  0.00     0.214 C 
ATOM      5  C   UNL     1      78.012 -27.423  83.885  1.00  0.00     0.339 C 
ATOM      6  O   UNL     1      78.670 -28.389  84.705  1.00  0.00    -0.332 OA
ENDROOT
BRANCH   1   7
ATOM      7  C   UNL     1      81.039 -28.409  83.902  1.00  0.00     0.198 C 
BRANCH   7   8
ATOM      8  O   UNL     1      82.107 -29.085  84.548  1.00  0.00    -0.347 OA
BRANCH   8   9
ATOM      9  C   UNL     1      82.418 -28.493  85.803  1.00  0.00     0.281 C 
ATOM     10  C   UNL     1      80.211 -26.698  88.093  1.00  0.00     0.041 C 
ATOM     11  C   UNL     1      81.449 -27.478  87.655  1.00  0.00     0.150 C 
ATOM     12  C   UNL     1      82.796 -26.719  87.920  1.00  0.00     0.174 C 
ATOM     13  O   UNL     1      81.278 -27.811  86.290  1.00  0.00    -0.344 OA
ATOM     14  C   UNL     1      83.433 -26.276  86.585  1.00  0.00     0.179 C 
ATOM     15  C   UNL     1      83.578 -27.481  85.614  1.00  0.00     0.202 C 
BRANCH  12  16
ATOM     16  O   UNL     1      82.600 -25.597  88.748  1.00  0.00    -0.388 OA
ATOM     17  H   UNL     1      83.354 -25.572  89.390  1.00  0.00     0.211 HD
ENDBRANCH  12  16
BRANCH  14  18
ATOM     18  O   UNL     1      84.686 -25.697  86.836  1.00  0.00    -0.387 OA
ATOM     19  H   UNL     1      84.796 -25.650  87.823  1.00  0.00     0.211 HD
ENDBRANCH  14  18
BRANCH  15  20
ATOM     20  O   UNL     1      84.810 -28.124  85.811  1.00  0.00    -0.385 OA
ATOM     21  H   UNL     1      85.172 -28.321  84.907  1.00  0.00     0.211 HD
ENDBRANCH  15  20
ENDBRANCH   8   9
ENDBRANCH   7   8
ENDBRANCH   1   7
BRANCH   2  22
ATOM     22  O   UNL     1      78.232 -30.804  83.026  1.00  0.00    -0.387 OA
ATOM     23  H   UNL     1      77.365 -30.444  82.715  1.00  0.00     0.211 HD
ENDBRANCH   2  22
BRANCH   3  24
ATOM     24  O   UNL     1      78.073 -29.322  80.644  1.00  0.00    -0.387 OA
ATOM     25  H   UNL     1      78.114 -30.307  80.732  1.00  0.00     0.211 HD
ENDBRANCH   3  24
BRANCH   5  26
ATOM     26  O   UNL     1      78.844 -26.282  83.689  1.00  0.00    -0.454 OA
BRANCH  26  27
ATOM     27  C   UNL     1      79.128 -25.358  84.690  1.00  0.00     0.214 A 
ATOM     28  C   UNL     1      78.141 -24.866  85.576  1.00  0.00     0.180 A 
ATOM     29  C   UNL     1      80.451 -24.927  84.839  1.00  0.00     0.239 A 
ATOM     30  O   UNL     1      78.490 -23.982  86.508  1.00  0.00    -0.452 OA
ATOM     31  C   UNL     1      80.773 -23.976  85.823  1.00  0.00     0.111 A 
ATOM     32  O   UNL     1      81.328 -25.383  84.056  1.00  0.00    -0.285 OA
ATOM     33  C   UNL     1      79.729 -23.526  86.664  1.00  0.00     0.146 A 
ATOM     34  C   UNL     1      82.072 -23.444  85.991  1.00  0.00     0.134 A 
ATOM     35  C   UNL     1      79.990 -22.599  87.674  1.00  0.00     0.094 A 
ATOM     36  C   UNL     1      82.310 -22.498  87.004  1.00  0.00     0.093 A 
ATOM     37  C   UNL     1      81.278 -22.088  87.850  1.00  0.00     0.123 A 
BRANCH  28  38
ATOM     38  C   UNL     1      76.707 -25.272  85.518  1.00  0.00     0.025 A 
ATOM     39  C   UNL     1      75.997 -25.101  84.310  1.00  0.00     0.062 A 
ATOM     40  C   UNL     1      76.011 -25.760  86.647  1.00  0.00     0.016 A 
ATOM     41  C   UNL     1      74.649 -25.448  84.206  1.00  0.00     0.158 A 
ATOM     42  C   UNL     1      74.672 -26.132  86.537  1.00  0.00     0.051 A 
ATOM     43  C   UNL     1      73.983 -25.993  85.321  1.00  0.00     0.157 A 
BRANCH  41  44
ATOM     44  O   UNL     1      73.991 -25.244  82.987  1.00  0.00    -0.504 OA
ATOM     45  H   UNL     1      73.977 -24.319  82.555  1.00  0.00     0.293 HD
ENDBRANCH  41  44
BRANCH  43  46
ATOM     46  O   UNL     1      72.644 -26.367  85.216  1.00  0.00    -0.504 OA
ATOM     47  H   UNL     1      72.058 -26.012  84.459  1.00  0.00     0.293 HD
ENDBRANCH  43  46
ENDBRANCH  28  38
BRANCH  34  48
ATOM     48  O   UNL     1      83.126 -23.845  85.163  1.00  0.00    -0.507 OA
ATOM     49  H   UNL     1      83.395 -23.310  84.360  1.00  0.00     0.293 HD
ENDBRANCH  34  48
BRANCH  37  50
ATOM     50  O   UNL     1      81.547 -21.171  88.856  1.00  0.00    -0.508 OA
ATOM     51  H   UNL     1      80.870 -20.982  89.586  1.00  0.00     0.293 HD
ENDBRANCH  37  50
ENDBRANCH  26  27
ENDBRANCH   5  26
BRANCH   4  52
ATOM     52  O   UNL     1      76.367 -28.801  82.802  1.00  0.00    -0.384 OA
ATOM     53  H   UNL     1      75.636 -28.503  82.195  1.00  0.00     0.211 HD
ENDBRANCH   4  52
TORSDOF 16
ENDMDL
MODEL 2
REMARK VINA RESULT:    -6.733      1.517      5.433
REMARK INTER + INTRA:         -12.179
REMARK INTER:                 -10.694
REMARK INTRA:                  -1.486
REMARK UNBOUND:                -1.117
REMARK SMILES C[C@H]1O[C@@H](OC[C@H]2O[C@@H](Oc3c(-c4ccc(O)c(O)c4)oc4cc(O)cc(O)c4c3=O)[C@H](O)[C@H](O)[C@@H]2O)[C@H](O)[C@H](O)[C@H]1O
REMARK SMILES IDX 7 1 36 2 34 3 32 4 9 5 8 6 6 7 5 8 4 9 1 10 2 11 42 12 3 13
REMARK SMILES IDX 40 14 38 15 43 16 41 18 39 20 37 22 35 24 10 26 11 27 12 28
REMARK SMILES IDX 30 29 21 30 29 31 31 32 22 33 27 34 23 35 26 36 24 37 13 38
REMARK SMILES IDX 20 39 14 40 18 41 15 42 16 43 19 44 17 46 28 48 25 50 33 52
REMARK H PARENT 43 17 41 19 39 21 37 23 35 25 19 45 17 47 28 49 25 51 33 53
REMARK Flexibility Score: inf
ROOT
ATOM      1  C   UNL     1      77.545 -23.872  85.506  1.00  0.00     0.180 C 
ATOM      2  C   UNL     1      76.004 -23.821  85.647  1.00  0.00     0.177 C 
ATOM      3  C   UNL     1      75.458 -25.228  85.909  1.00  0.00     0.180 C 
ATOM      4  C   UNL     1      75.932 -26.193  84.815  1.00  0.00     0.214 C 
ATOM      5  C   UNL     1      77.464 -26.138  84.671  1.00  0.00     0.339 C 
ATOM      6  O   UNL     1      77.987 -24.817  84.534  1.00  0.00    -0.332 OA
ENDROOT
BRANCH   1   7
ATOM      7  C   UNL     1      78.275 -23.991  86.878  1.00  0.00     0.198 C 
BRANCH   7   8
ATOM      8  O   UNL     1      78.927 -22.784  87.245  1.00  0.00    -0.347 OA
BRANCH   8   9
ATOM      9  C   UNL     1      80.329 -22.855  87.011  1.00  0.00     0.281 C 
ATOM     10  C   UNL     1      82.130 -24.771  84.477  1.00  0.00     0.041 C 
ATOM     11  C   UNL     1      81.912 -23.682  85.525  1.00  0.00     0.150 C 
ATOM     12  C   UNL     1      82.962 -23.713  86.691  1.00  0.00     0.174 C 
ATOM     13  O   UNL     1      80.582 -23.806  85.995  1.00  0.00    -0.344 OA
ATOM     14  C   UNL     1      82.290 -24.168  88.004  1.00  0.00     0.179 C 
ATOM     15  C   UNL     1      81.039 -23.299  88.317  1.00  0.00     0.202 C 
BRANCH  12  16
ATOM     16  O   UNL     1      84.041 -24.566  86.389  1.00  0.00    -0.388 OA
ATOM     17  H   UNL     1      84.824 -24.236  86.897  1.00  0.00     0.211 HD
ENDBRANCH  12  16
BRANCH  14  18
ATOM     18  O   UNL     1      83.217 -24.084  89.055  1.00  0.00    -0.387 OA
ATOM     19  H   UNL     1      82.700 -24.117  89.904  1.00  0.00     0.211 HD
ENDBRANCH  14  18
BRANCH  15  20
ATOM     20  O   UNL     1      81.400 -22.173  89.072  1.00  0.00    -0.385 OA
ATOM     21  H   UNL     1      80.552 -21.725  89.332  1.00  0.00     0.211 HD
ENDBRANCH  15  20
ENDBRANCH   8   9
ENDBRANCH   7   8
ENDBRANCH   1   7
BRANCH   2  22
ATOM     22  O   UNL     1      75.427 -23.304  84.468  1.00  0.00    -0.387 OA
ATOM     23  H   UNL     1      75.185 -24.082  83.908  1.00  0.00     0.211 HD
ENDBRANCH   2  22
BRANCH   3  24
ATOM     24  O   UNL     1      74.052 -25.244  85.964  1.00  0.00    -0.387 OA
ATOM     25  H   UNL     1      73.782 -25.393  86.904  1.00  0.00     0.211 HD
ENDBRANCH   3  24
BRANCH   5  26
ATOM     26  O   UNL     1      78.119 -26.828  85.733  1.00  0.00    -0.454 OA
BRANCH  26  27
ATOM     27  C   UNL     1      79.419 -27.316  85.644  1.00  0.00     0.214 A 
ATOM     28  C   UNL     1      79.908 -27.981  84.495  1.00  0.00     0.180 A 
ATOM     29  C   UNL     1      80.281 -27.108  86.727  1.00  0.00     0.239 A 
ATOM     30  O   UNL     1      81.165 -28.420  84.486  1.00  0.00    -0.452 OA
ATOM     31  C   UNL     1      81.595 -27.606  86.685  1.00  0.00     0.111 A 
ATOM     32  O   UNL     1      79.843 -26.499  87.741  1.00  0.00    -0.285 OA
ATOM     33  C   UNL     1      82.006 -28.268  85.504  1.00  0.00     0.146 A 
ATOM     34  C   UNL     1      82.502 -27.494  87.764  1.00  0.00     0.134 A 
ATOM     35  C   UNL     1      83.305 -28.766  85.394  1.00  0.00     0.094 A 
ATOM     36  C   UNL     1      83.801 -28.017  87.637  1.00  0.00     0.093 A 
ATOM     37  C   UNL     1      84.205 -28.637  86.454  1.00  0.00     0.123 A 
BRANCH  28  38
ATOM     38  C   UNL     1      79.082 -28.239  83.280  1.00  0.00     0.025 A 
ATOM     39  C   UNL     1      77.915 -29.023  83.402  1.00  0.00     0.062 A 
ATOM     40  C   UNL     1      79.460 -27.784  81.996  1.00  0.00     0.016 A 
ATOM     41  C   UNL     1      77.115 -29.310  82.293  1.00  0.00     0.158 A 
ATOM     42  C   UNL     1      78.648 -28.047  80.894  1.00  0.00     0.051 A 
ATOM     43  C   UNL     1      77.468 -28.797  81.030  1.00  0.00     0.157 A 
BRANCH  41  44
ATOM     44  O   UNL     1      75.976 -30.103  82.470  1.00  0.00    -0.504 OA
ATOM     45  H   UNL     1      76.046 -31.121  82.452  1.00  0.00     0.293 HD
ENDBRANCH  41  44
BRANCH  43  46
ATOM     46  O   UNL     1      76.659 -29.056  79.924  1.00  0.00    -0.504 OA
ATOM     47  H   UNL     1      75.648 -28.923  79.972  1.00  0.00     0.293 HD
ENDBRANCH  43  46
ENDBRANCH  28  38
BRANCH  34  48
ATOM     48  O   UNL     1      82.125 -26.868  88.956  1.00  0.00    -0.507 OA
ATOM     49  H   UNL     1      82.149 -25.871  89.057  1.00  0.00     0.293 HD
ENDBRANCH  34  48
BRANCH  37  50
ATOM     50  O   UNL     1      85.500 -29.124  86.348  1.00  0.00    -0.508 OA
ATOM     51  H   UNL     1      85.745 -30.040  86.702  1.00  0.00     0.293 HD
ENDBRANCH  37  50
ENDBRANCH  26  27
ENDBRANCH   5  26
BRANCH   4  52
ATOM     52  O   UNL     1      75.342 -25.897  83.566  1.00  0.00    -0.384 OA
ATOM     53  H   UNL     1      76.071 -25.620  82.947  1.00  0.00     0.211 HD
ENDBRANCH   4  52
TORSDOF 16
ENDMDL
MODEL 3
REMARK VINA RESULT:    -5.934      1.867      5.814
REMARK INTER + INTRA:         -10.867
REMARK INTER:                  -9.599
REMARK INTRA:                  -1.268
REMARK UNBOUND:                -1.117
REMARK SMILES C[C@H]1O[C@@H](OC[C@H]2O[C@@H](Oc3c(-c4ccc(O)c(O)c4)oc4cc(O)cc(O)c4c3=O)[C@H](O)[C@H](O)[C@@H]2O)[C@H](O)[C@H](O)[C@H]1O
REMARK SMILES IDX 7 1 36 2 34 3 32 4 9 5 8 6 6 7 5 8 4 9 1 10 2 11 42 12 3 13
REMARK SMILES IDX 40 14 38 15 43 16 41 18 39 20 37 22 35 24 10 26 11 27 12 28
REMARK SMILES IDX 30 29 21 30 29 31 31 32 22 33 27 34 23 35 26 36 24 37 13 38
REMARK SMILES IDX 20 39 14 40 18 41 15 42 16 43 19 44 17 46 28 48 25 50 33 52
REMARK H PARENT 43 17 41 19 39 21 37 23 35 25 19 45 17 47 28 49 25 51 33 53
REMARK Flexibility Score: inf
ROOT
ATOM      1  C   UNL     1      81.572 -28.409  86.981  1.00  0.00     0.180 C 
ATOM      2  C   UNL     1      83.089 -28.289  86.693  1.00  0.00     0.177 C 
ATOM      3  C   UNL     1      83.317 -27.395  85.470  1.00  0.00     0.180 C 
ATOM      4  C   UNL     1      82.516 -27.922  84.272  1.00  0.00     0.214 C 
ATOM      5  C   UNL     1      81.032 -28.095  84.647  1.00  0.00     0.339 C 
ATOM      6  O   UNL     1      80.820 -28.837  85.848  1.00  0.00    -0.332 OA
ENDROOT
BRANCH   1   7
ATOM      7  C   UNL     1      80.987 -27.150  87.687  1.00  0.00     0.198 C 
BRANCH   7   8
ATOM      8  O   UNL     1      81.887 -26.601  88.639  1.00  0.00    -0.347 OA
BRANCH   8   9
ATOM      9  C   UNL     1      82.252 -25.268  88.305  1.00  0.00     0.281 C 
ATOM     10  C   UNL     1      81.326 -23.312  85.362  1.00  0.00     0.041 C 
ATOM     11  C   UNL     1      81.826 -23.563  86.784  1.00  0.00     0.150 C 
ATOM     12  C   UNL     1      83.259 -22.987  87.057  1.00  0.00     0.174 C 
ATOM     13  O   UNL     1      81.752 -24.958  87.019  1.00  0.00    -0.344 OA
ATOM     14  C   UNL     1      84.276 -24.137  87.220  1.00  0.00     0.179 C 
ATOM     15  C   UNL     1      83.798 -25.152  88.296  1.00  0.00     0.202 C 
BRANCH  12  16
ATOM     16  O   UNL     1      83.674 -22.128  86.022  1.00  0.00    -0.388 OA
ATOM     17  H   UNL     1      82.949 -22.110  85.348  1.00  0.00     0.211 HD
ENDBRANCH  12  16
BRANCH  14  18
ATOM     18  O   UNL     1      85.527 -23.607  87.571  1.00  0.00    -0.387 OA
ATOM     19  H   UNL     1      85.739 -23.936  88.485  1.00  0.00     0.211 HD
ENDBRANCH  14  18
BRANCH  15  20
ATOM     20  O   UNL     1      84.258 -24.773  89.566  1.00  0.00    -0.385 OA
ATOM     21  H   UNL     1      84.556 -23.828  89.487  1.00  0.00     0.211 HD
ENDBRANCH  15  20
ENDBRANCH   8   9
ENDBRANCH   7   8
ENDBRANCH   1   7
BRANCH   2  22
ATOM     22  O   UNL     1      83.639 -29.566  86.453  1.00  0.00    -0.387 OA
ATOM     23  H   UNL     1      83.021 -30.220  86.861  1.00  0.00     0.211 HD
ENDBRANCH   2  22
BRANCH   3  24
ATOM     24  O   UNL     1      84.678 -27.322  85.120  1.00  0.00    -0.387 OA
ATOM     25  H   UNL     1      84.745 -26.887  84.234  1.00  0.00     0.211 HD
ENDBRANCH   3  24
BRANCH   5  26
ATOM     26  O   UNL     1      80.354 -26.842  84.705  1.00  0.00    -0.454 OA
BRANCH  26  27
ATOM     27  C   UNL     1      78.975 -26.709  84.568  1.00  0.00     0.214 A 
ATOM     28  C   UNL     1      78.314 -26.863  83.326  1.00  0.00     0.180 A 
ATOM     29  C   UNL     1      78.217 -26.443  85.713  1.00  0.00     0.239 A 
ATOM     30  O   UNL     1      76.992 -26.720  83.274  1.00  0.00    -0.452 OA
ATOM     31  C   UNL     1      76.824 -26.279  85.611  1.00  0.00     0.111 A 
ATOM     32  O   UNL     1      78.812 -26.324  86.819  1.00  0.00    -0.285 OA
ATOM     33  C   UNL     1      76.239 -26.440  84.333  1.00  0.00     0.146 A 
ATOM     34  C   UNL     1      76.000 -25.944  86.710  1.00  0.00     0.134 A 
ATOM     35  C   UNL     1      74.859 -26.309  84.171  1.00  0.00     0.094 A 
ATOM     36  C   UNL     1      74.614 -25.802  86.521  1.00  0.00     0.093 A 
ATOM     37  C   UNL     1      74.045 -25.997  85.262  1.00  0.00     0.123 A 
BRANCH  28  38
ATOM     38  C   UNL     1      79.023 -27.165  82.049  1.00  0.00     0.025 A 
ATOM     39  C   UNL     1      79.852 -26.177  81.478  1.00  0.00     0.062 A 
ATOM     40  C   UNL     1      78.842 -28.382  81.352  1.00  0.00     0.016 A 
ATOM     41  C   UNL     1      80.524 -26.401  80.274  1.00  0.00     0.158 A 
ATOM     42  C   UNL     1      79.535 -28.617  80.165  1.00  0.00     0.051 A 
ATOM     43  C   UNL     1      80.387 -27.641  79.622  1.00  0.00     0.157 A 
BRANCH  41  44
ATOM     44  O   UNL     1      81.323 -25.380  79.747  1.00  0.00    -0.504 OA
ATOM     45  H   UNL     1      82.125 -25.027  80.272  1.00  0.00     0.293 HD
ENDBRANCH  41  44
BRANCH  43  46
ATOM     46  O   UNL     1      81.077 -27.882  78.434  1.00  0.00    -0.504 OA
ATOM     47  H   UNL     1      81.225 -27.136  77.754  1.00  0.00     0.293 HD
ENDBRANCH  43  46
ENDBRANCH  28  38
BRANCH  34  48
ATOM     48  O   UNL     1      76.545 -25.752  87.984  1.00  0.00    -0.507 OA
ATOM     49  H   UNL     1      77.513 -25.930  88.173  1.00  0.00     0.293 HD
ENDBRANCH  34  48
BRANCH  37  50
ATOM     50  O   UNL     1      72.671 -25.873  85.109  1.00  0.00    -0.508 OA
ATOM     51  H   UNL     1      72.053 -25.872  85.912  1.00  0.00     0.293 HD
ENDBRANCH  37  50
ENDBRANCH  26  27
ENDBRANCH   5  26
BRANCH   4  52
ATOM     52  O   UNL     1      83.020 -29.157  83.809  1.00  0.00    -0.384 OA
ATOM     53  H   UNL     1      83.931 -29.275  84.194  1.00  0.00     0.211 HD
ENDBRANCH   4  52
TORSDOF 16
ENDMDL
MODEL 4
REMARK VINA RESULT:    -5.718      1.880      6.180
REMARK INTER + INTRA:         -10.513
REMARK INTER:                 -10.348
REMARK INTRA:                  -0.165
REMARK UNBOUND:                -1.117
REMARK SMILES C[C@H]1O[C@@H](OC[C@H]2O[C@@H](Oc3c(-c4ccc(O)c(O)c4)oc4cc(O)cc(O)c4c3=O)[C@H](O)[C@H](O)[C@@H]2O)[C@H](O)[C@H](O)[C@H]1O
REMARK SMILES IDX 7 1 36 2 34 3 32 4 9 5 8 6 6 7 5 8 4 9 1 10 2 11 42 12 3 13
REMARK SMILES IDX 40 14 38 15 43 16 41 18 39 20 37 22 35 24 10 26 11 27 12 28
REMARK SMILES IDX 30 29 21 30 29 31 31 32 22 33 27 34 23 35 26 36 24 37 13 38
REMARK SMILES IDX 20 39 14 40 18 41 15 42 16 43 19 44 17 46 28 48 25 50 33 52
REMARK H PARENT 43 17 41 19 39 21 37 23 35 25 19 45 17 47 28 49 25 51 33 53
REMARK Flexibility Score: inf
ROOT
ATOM      1  C   UNL     1      82.577 -25.910  86.055  1.00  0.00     0.180 C 
ATOM      2  C   UNL     1      83.688 -26.978  85.909  1.00  0.00     0.177 C 
ATOM      3  C   UNL     1      83.166 -28.162  85.088  1.00  0.00     0.180 C 
ATOM      4  C   UNL     1      81.878 -28.713  85.713  1.00  0.00     0.214 C 
ATOM      5  C   UNL     1      80.846 -27.587  85.905  1.00  0.00     0.339 C 
ATOM      6  O   UNL     1      81.359 -26.437  86.576  1.00  0.00    -0.332 OA
ENDROOT
BRANCH   1   7
ATOM      7  C   UNL     1      82.393 -25.047  84.771  1.00  0.00     0.198 C 
BRANCH   7   8
ATOM      8  O   UNL     1      82.793 -23.699  84.968  1.00  0.00    -0.347 OA
BRANCH   8   9
ATOM      9  C   UNL     1      81.963 -23.040  85.916  1.00  0.00     0.281 C 
ATOM     10  C   UNL     1      82.015 -23.285  89.560  1.00  0.00     0.041 C 
ATOM     11  C   UNL     1      81.693 -22.678  88.196  1.00  0.00     0.150 C 
ATOM     12  C   UNL     1      80.160 -22.445  87.958  1.00  0.00     0.174 C 
ATOM     13  O   UNL     1      82.269 -23.518  87.212  1.00  0.00    -0.344 OA
ATOM     14  C   UNL     1      79.628 -23.428  86.892  1.00  0.00     0.179 C 
ATOM     15  C   UNL     1      80.478 -23.351  85.593  1.00  0.00     0.202 C 
BRANCH  12  16
ATOM     16  O   UNL     1      79.425 -22.594  89.150  1.00  0.00    -0.388 OA
ATOM     17  H   UNL     1      79.778 -21.930  89.795  1.00  0.00     0.211 HD
ENDBRANCH  12  16
BRANCH  14  18
ATOM     18  O   UNL     1      78.284 -23.132  86.614  1.00  0.00    -0.387 OA
ATOM     19  H   UNL     1      77.892 -23.934  86.177  1.00  0.00     0.211 HD
ENDBRANCH  14  18
BRANCH  15  20
ATOM     20  O   UNL     1      79.963 -22.374  84.727  1.00  0.00    -0.385 OA
ATOM     21  H   UNL     1      80.446 -22.479  83.865  1.00  0.00     0.211 HD
ENDBRANCH  15  20
ENDBRANCH   8   9
ENDBRANCH   7   8
ENDBRANCH   1   7
BRANCH   2  22
ATOM     22  O   UNL     1      84.096 -27.430  87.181  1.00  0.00    -0.387 OA
ATOM     23  H   UNL     1      84.139 -26.634  87.764  1.00  0.00     0.211 HD
ENDBRANCH   2  22
BRANCH   3  24
ATOM     24  O   UNL     1      84.116 -29.197  84.997  1.00  0.00    -0.387 OA
ATOM     25  H   UNL     1      84.964 -28.871  85.389  1.00  0.00     0.211 HD
ENDBRANCH   3  24
BRANCH   5  26
ATOM     26  O   UNL     1      80.233 -27.217  84.672  1.00  0.00    -0.454 OA
BRANCH  26  27
ATOM     27  C   UNL     1      78.871 -26.963  84.538  1.00  0.00     0.214 A 
ATOM     28  C   UNL     1      78.213 -26.972  83.284  1.00  0.00     0.180 A 
ATOM     29  C   UNL     1      78.124 -26.720  85.696  1.00  0.00     0.239 A 
ATOM     30  O   UNL     1      76.907 -26.719  83.237  1.00  0.00    -0.452 OA
ATOM     31  C   UNL     1      76.751 -26.436  85.599  1.00  0.00     0.111 A 
ATOM     32  O   UNL     1      78.715 -26.731  86.810  1.00  0.00    -0.285 OA
ATOM     33  C   UNL     1      76.168 -26.456  84.310  1.00  0.00     0.146 A 
ATOM     34  C   UNL     1      75.945 -26.116  86.715  1.00  0.00     0.134 A 
ATOM     35  C   UNL     1      74.805 -26.202  84.152  1.00  0.00     0.094 A 
ATOM     36  C   UNL     1      74.576 -25.848  86.531  1.00  0.00     0.093 A 
ATOM     37  C   UNL     1      74.007 -25.905  85.258  1.00  0.00     0.123 A 
BRANCH  28  38
ATOM     38  C   UNL     1      78.909 -27.238  81.992  1.00  0.00     0.025 A 
ATOM     39  C   UNL     1      79.772 -26.253  81.467  1.00  0.00     0.062 A 
ATOM     40  C   UNL     1      78.684 -28.412  81.238  1.00  0.00     0.016 A 
ATOM     41  C   UNL     1      80.435 -26.443  80.252  1.00  0.00     0.158 A 
ATOM     42  C   UNL     1      79.366 -28.614  80.039  1.00  0.00     0.051 A 
ATOM     43  C   UNL     1      80.252 -27.644  79.541  1.00  0.00     0.157 A 
BRANCH  41  44
ATOM     44  O   UNL     1      81.269 -25.426  79.772  1.00  0.00    -0.504 OA
ATOM     45  H   UNL     1      81.876 -25.591  78.968  1.00  0.00     0.293 HD
ENDBRANCH  41  44
BRANCH  43  46
ATOM     46  O   UNL     1      80.931 -27.852  78.341  1.00  0.00    -0.504 OA
ATOM     47  H   UNL     1      81.603 -28.614  78.245  1.00  0.00     0.293 HD
ENDBRANCH  43  46
ENDBRANCH  28  38
BRANCH  34  48
ATOM     48  O   UNL     1      76.489 -26.063  88.003  1.00  0.00    -0.507 OA
ATOM     49  H   UNL     1      76.359 -26.809  88.659  1.00  0.00     0.293 HD
ENDBRANCH  34  48
BRANCH  37  50
ATOM     50  O   UNL     1      72.649 -25.659  85.108  1.00  0.00    -0.508 OA
ATOM     51  H   UNL     1      72.054 -26.303  84.603  1.00  0.00     0.293 HD
ENDBRANCH  37  50
ENDBRANCH  26  27
ENDBRANCH   5  26
BRANCH   4  52
ATOM     52  O   UNL     1      82.124 -29.329  86.960  1.00  0.00    -0.384 OA
ATOM     53  H   UNL     1      82.757 -28.748  87.464  1.00  0.00     0.211 HD
ENDBRANCH   4  52
TORSDOF 16
ENDMDL
MODEL 5
REMARK VINA RESULT:    -5.133      2.997      7.358
REMARK INTER + INTRA:          -9.551
REMARK INTER:                  -8.955
REMARK INTRA:                  -0.595
REMARK UNBOUND:                -1.117
REMARK SMILES C[C@H]1O[C@@H](OC[C@H]2O[C@@H](Oc3c(-c4ccc(O)c(O)c4)oc4cc(O)cc(O)c4c3=O)[C@H](O)[C@H](O)[C@@H]2O)[C@H](O)[C@H](O)[C@H]1O
REMARK SMILES IDX 7 1 36 2 34 3 32 4 9 5 8 6 6 7 5 8 4 9 1 10 2 11 42 12 3 13
REMARK SMILES IDX 40 14 38 15 43 16 41 18 39 20 37 22 35 24 10 26 11 27 12 28
REMARK SMILES IDX 30 29 21 30 29 31 31 32 22 33 27 34 23 35 26 36 24 37 13 38
REMARK SMILES IDX 20 39 14 40 18 41 15 42 16 43 19 44 17 46 28 48 25 50 33 52
REMARK H PARENT 43 17 41 19 39 21 37 23 35 25 19 45 17 47 28 49 25 51 33 53
REMARK Flexibility Score: inf
ROOT
ATOM      1  C   UNL     1      74.832 -24.845  84.202  1.00  0.00     0.180 C 
ATOM      2  C   UNL     1      73.995 -25.113  85.477  1.00  0.00     0.177 C 
ATOM      3  C   UNL     1      74.914 -25.169  86.701  1.00  0.00     0.180 C 
ATOM      4  C   UNL     1      76.026 -26.203  86.482  1.00  0.00     0.214 C 
ATOM      5  C   UNL     1      76.767 -25.928  85.160  1.00  0.00     0.339 C 
ATOM      6  O   UNL     1      75.906 -25.768  84.034  1.00  0.00    -0.332 OA
ENDROOT
BRANCH   1   7
ATOM      7  C   UNL     1      75.255 -23.353  84.057  1.00  0.00     0.198 C 
BRANCH   7   8
ATOM      8  O   UNL     1      76.161 -23.153  82.981  1.00  0.00    -0.347 OA
BRANCH   8   9
ATOM      9  C   UNL     1      75.509 -22.597  81.846  1.00  0.00     0.281 C 
ATOM     10  C   UNL     1      76.992 -21.219  78.806  1.00  0.00     0.041 C 
ATOM     11  C   UNL     1      75.900 -21.813  79.693  1.00  0.00     0.150 C 
ATOM     12  C   UNL     1      74.625 -20.908  79.812  1.00  0.00     0.174 C 
ATOM     13  O   UNL     1      76.483 -22.090  80.954  1.00  0.00    -0.344 OA
ATOM     14  C   UNL     1      74.518 -20.317  81.234  1.00  0.00     0.179 C 
ATOM     15  C   UNL     1      74.586 -21.439  82.307  1.00  0.00     0.202 C 
BRANCH  12  16
ATOM     16  O   UNL     1      74.643 -19.867  78.864  1.00  0.00    -0.388 OA
ATOM     17  H   UNL     1      75.106 -20.212  78.060  1.00  0.00     0.211 HD
ENDBRANCH  12  16
BRANCH  14  18
ATOM     18  O   UNL     1      73.316 -19.601  81.352  1.00  0.00    -0.387 OA
ATOM     19  H   UNL     1      72.942 -19.804  82.251  1.00  0.00     0.211 HD
ENDBRANCH  14  18
BRANCH  15  20
ATOM     20  O   UNL     1      73.301 -21.933  82.583  1.00  0.00    -0.385 OA
ATOM     21  H   UNL     1      73.274 -22.118  83.559  1.00  0.00     0.211 HD
ENDBRANCH  15  20
ENDBRANCH   8   9
ENDBRANCH   7   8
ENDBRANCH   1   7
BRANCH   2  22
ATOM     22  O   UNL     1      73.301 -26.335  85.353  1.00  0.00    -0.387 OA
ATOM     23  H   UNL     1      72.338 -26.116  85.363  1.00  0.00     0.211 HD
ENDBRANCH   2  22
BRANCH   3  24
ATOM     24  O   UNL     1      74.207 -25.491  87.874  1.00  0.00    -0.387 OA
ATOM     25  H   UNL     1      74.229 -26.474  87.986  1.00  0.00     0.211 HD
ENDBRANCH   3  24
BRANCH   5  26
ATOM     26  O   UNL     1      77.655 -24.818  85.274  1.00  0.00    -0.454 OA
BRANCH  26  27
ATOM     27  C   UNL     1      78.992 -24.939  85.642  1.00  0.00     0.214 A 
ATOM     28  C   UNL     1      79.886 -25.821  84.989  1.00  0.00     0.180 A 
ATOM     29  C   UNL     1      79.470 -24.131  86.679  1.00  0.00     0.239 A 
ATOM     30  O   UNL     1      81.151 -25.881  85.399  1.00  0.00    -0.452 OA
ATOM     31  C   UNL     1      80.808 -24.241  87.096  1.00  0.00     0.111 A 
ATOM     32  O   UNL     1      78.671 -23.336  87.245  1.00  0.00    -0.285 OA
ATOM     33  C   UNL     1      81.637 -25.152  86.399  1.00  0.00     0.146 A 
ATOM     34  C   UNL     1      81.347 -23.508  88.178  1.00  0.00     0.134 A 
ATOM     35  C   UNL     1      82.980 -25.291  86.751  1.00  0.00     0.094 A 
ATOM     36  C   UNL     1      82.699 -23.675  88.527  1.00  0.00     0.093 A 
ATOM     37  C   UNL     1      83.514 -24.551  87.809  1.00  0.00     0.123 A 
BRANCH  28  38
ATOM     38  C   UNL     1      79.486 -26.712  83.862  1.00  0.00     0.025 A 
ATOM     39  C   UNL     1      78.746 -27.879  84.144  1.00  0.00     0.062 A 
ATOM     40  C   UNL     1      79.879 -26.466  82.526  1.00  0.00     0.016 A 
ATOM     41  C   UNL     1      78.362 -28.757  83.128  1.00  0.00     0.158 A 
ATOM     42  C   UNL     1      79.473 -27.327  81.508  1.00  0.00     0.051 A 
ATOM     43  C   UNL     1      78.705 -28.468  81.793  1.00  0.00     0.157 A 
BRANCH  41  44
ATOM     44  O   UNL     1      77.639 -29.907  83.467  1.00  0.00    -0.504 OA
ATOM     45  H   UNL     1      76.750 -30.113  83.010  1.00  0.00     0.293 HD
ENDBRANCH  41  44
BRANCH  43  46
ATOM     46  O   UNL     1      78.300 -29.326  80.770  1.00  0.00    -0.504 OA
ATOM     47  H   UNL     1      78.579 -30.308  80.769  1.00  0.00     0.293 HD
ENDBRANCH  43  46
ENDBRANCH  28  38
BRANCH  34  48
ATOM     48  O   UNL     1      80.553 -22.617  88.907  1.00  0.00    -0.507 OA
ATOM     49  H   UNL     1      79.667 -22.892  89.286  1.00  0.00     0.293 HD
ENDBRANCH  34  48
BRANCH  37  50
ATOM     50  O   UNL     1      84.851 -24.679  88.160  1.00  0.00    -0.508 OA
ATOM     51  H   UNL     1      85.126 -25.166  89.005  1.00  0.00     0.293 HD
ENDBRANCH  37  50
ENDBRANCH  26  27
ENDBRANCH   5  26
BRANCH   4  52
ATOM     52  O   UNL     1      75.517 -27.520  86.459  1.00  0.00    -0.384 OA
ATOM     53  H   UNL     1      76.224 -28.109  86.077  1.00  0.00     0.211 HD
ENDBRANCH   4  52
TORSDOF 16
ENDMDL
MODEL 6
REMARK VINA RESULT:    -5.004      1.962      5.830
REMARK INTER + INTRA:          -9.339
REMARK INTER:                  -8.488
REMARK INTRA:                  -0.851
REMARK UNBOUND:                -1.117
REMARK SMILES C[C@H]1O[C@@H](OC[C@H]2O[C@@H](Oc3c(-c4ccc(O)c(O)c4)oc4cc(O)cc(O)c4c3=O)[C@H](O)[C@H](O)[C@@H]2O)[C@H](O)[C@H](O)[C@H]1O
REMARK SMILES IDX 7 1 36 2 34 3 32 4 9 5 8 6 6 7 5 8 4 9 1 10 2 11 42 12 3 13
REMARK SMILES IDX 40 14 38 15 43 16 41 18 39 20 37 22 35 24 10 26 11 27 12 28
REMARK SMILES IDX 30 29 21 30 29 31 31 32 22 33 27 34 23 35 26 36 24 37 13 38
REMARK SMILES IDX 20 39 14 40 18 41 15 42 16 43 19 44 17 46 28 48 25 50 33 52
REMARK H PARENT 43 17 41 19 39 21 37 23 35 25 19 45 17 47 28 49 25 51 33 53
REMARK Flexibility Score: inf
ROOT
ATOM      1  C   UNL     1      80.600 -22.924  85.642  1.00  0.00     0.180 C 
ATOM      2  C   UNL     1      81.030 -22.411  87.039  1.00  0.00     0.177 C 
ATOM      3  C   UNL     1      80.560 -23.389  88.120  1.00  0.00     0.180 C 
ATOM      4  C   UNL     1      79.048 -23.623  88.002  1.00  0.00     0.214 C 
ATOM      5  C   UNL     1      78.677 -24.054  86.571  1.00  0.00     0.339 C 
ATOM      6  O   UNL     1      79.205 -23.203  85.554  1.00  0.00    -0.332 OA
ENDROOT
BRANCH   1   7
ATOM      7  C   UNL     1      81.508 -24.075  85.114  1.00  0.00     0.198 C 
BRANCH   7   8
ATOM      8  O   UNL     1      82.874 -23.878  85.448  1.00  0.00    -0.347 OA
BRANCH   8   9
ATOM      9  C   UNL     1      83.367 -24.929  86.270  1.00  0.00     0.281 C 
ATOM     10  C   UNL     1      81.577 -27.817  87.610  1.00  0.00     0.041 C 
ATOM     11  C   UNL     1      82.785 -26.983  87.187  1.00  0.00     0.150 C 
ATOM     12  C   UNL     1      83.813 -26.736  88.345  1.00  0.00     0.174 C 
ATOM     13  O   UNL     1      82.294 -25.775  86.636  1.00  0.00    -0.344 OA
ATOM     14  C   UNL     1      83.791 -25.253  88.774  1.00  0.00     0.179 C 
ATOM     15  C   UNL     1      83.997 -24.319  87.549  1.00  0.00     0.202 C 
BRANCH  12  16
ATOM     16  O   UNL     1      83.543 -27.556  89.458  1.00  0.00    -0.388 OA
ATOM     17  H   UNL     1      84.006 -27.155  90.236  1.00  0.00     0.211 HD
ENDBRANCH  12  16
BRANCH  14  18
ATOM     18  O   UNL     1      84.792 -25.030  89.732  1.00  0.00    -0.387 OA
ATOM     19  H   UNL     1      85.367 -24.294  89.390  1.00  0.00     0.211 HD
ENDBRANCH  14  18
BRANCH  15  20
ATOM     20  O   UNL     1      85.364 -24.078  87.341  1.00  0.00    -0.385 OA
ATOM     21  H   UNL     1      85.671 -24.753  86.679  1.00  0.00     0.211 HD
ENDBRANCH  15  20
ENDBRANCH   8   9
ENDBRANCH   7   8
ENDBRANCH   1   7
BRANCH   2  22
ATOM     22  O   UNL     1      80.470 -21.138  87.280  1.00  0.00    -0.387 OA
ATOM     23  H   UNL     1      81.202 -20.567  87.618  1.00  0.00     0.211 HD
ENDBRANCH   2  22
BRANCH   3  24
ATOM     24  O   UNL     1      80.857 -22.923  89.414  1.00  0.00    -0.387 OA
ATOM     25  H   UNL     1      81.322 -23.647  89.902  1.00  0.00     0.211 HD
ENDBRANCH   3  24
BRANCH   5  26
ATOM     26  O   UNL     1      79.030 -25.412  86.321  1.00  0.00    -0.454 OA
BRANCH  26  27
ATOM     27  C   UNL     1      78.484 -26.169  85.288  1.00  0.00     0.214 A 
ATOM     28  C   UNL     1      77.167 -26.684  85.333  1.00  0.00     0.180 A 
ATOM     29  C   UNL     1      79.266 -26.398  84.150  1.00  0.00     0.239 A 
ATOM     30  O   UNL     1      76.717 -27.400  84.305  1.00  0.00    -0.452 OA
ATOM     31  C   UNL     1      78.759 -27.177  83.095  1.00  0.00     0.111 A 
ATOM     32  O   UNL     1      80.432 -25.921  84.111  1.00  0.00    -0.285 OA
ATOM     33  C   UNL     1      77.436 -27.664  83.218  1.00  0.00     0.146 A 
ATOM     34  C   UNL     1      79.510 -27.507  81.944  1.00  0.00     0.134 A 
ATOM     35  C   UNL     1      76.870 -28.426  82.196  1.00  0.00     0.094 A 
ATOM     36  C   UNL     1      78.925 -28.289  80.932  1.00  0.00     0.093 A 
ATOM     37  C   UNL     1      77.608 -28.734  81.051  1.00  0.00     0.123 A 
BRANCH  28  38
ATOM     38  C   UNL     1      76.245 -26.484  86.487  1.00  0.00     0.025 A 
ATOM     39  C   UNL     1      76.582 -27.047  87.736  1.00  0.00     0.062 A 
ATOM     40  C   UNL     1      75.009 -25.809  86.361  1.00  0.00     0.016 A 
ATOM     41  C   UNL     1      75.745 -26.905  88.845  1.00  0.00     0.158 A 
ATOM     42  C   UNL     1      74.186 -25.643  87.474  1.00  0.00     0.051 A 
ATOM     43  C   UNL     1      74.547 -26.175  88.723  1.00  0.00     0.157 A 
BRANCH  41  44
ATOM     44  O   UNL     1      76.124 -27.495  90.057  1.00  0.00    -0.504 OA
ATOM     45  H   UNL     1      76.475 -28.453  90.078  1.00  0.00     0.293 HD
ENDBRANCH  41  44
BRANCH  43  46
ATOM     46  O   UNL     1      73.720 -26.006  89.833  1.00  0.00    -0.504 OA
ATOM     47  H   UNL     1      73.942 -26.451  90.725  1.00  0.00     0.293 HD
ENDBRANCH  43  46
ENDBRANCH  28  38
BRANCH  34  48
ATOM     48  O   UNL     1      80.829 -27.065  81.796  1.00  0.00    -0.507 OA
ATOM     49  H   UNL     1      81.366 -26.745  82.579  1.00  0.00     0.293 HD
ENDBRANCH  34  48
BRANCH  37  50
ATOM     50  O   UNL     1      77.048 -29.485  80.027  1.00  0.00    -0.508 OA
ATOM     51  H   UNL     1      77.276 -29.300  79.058  1.00  0.00     0.293 HD
ENDBRANCH  37  50
ENDBRANCH  26  27
ENDBRANCH   5  26
BRANCH   4  52
ATOM     52  O   UNL     1      78.313 -22.465  88.339  1.00  0.00    -0.384 OA
ATOM     53  H   UNL     1      77.850 -22.152  87.515  1.00  0.00     0.211 HD
ENDBRANCH   4  52
TORSDOF 16
ENDMDL
MODEL 7
REMARK VINA RESULT:    -4.815      1.856      5.912
REMARK INTER + INTRA:          -9.029
REMARK INTER:                  -8.799
REMARK INTRA:                  -0.230
REMARK UNBOUND:                -1.117
REMARK SMILES C[C@H]1O[C@@H](OC[C@H]2O[C@@H](Oc3c(-c4ccc(O)c(O)c4)oc4cc(O)cc(O)c4c3=O)[C@H](O)[C@H](O)[C@@H]2O)[C@H](O)[C@H](O)[C@H]1O
REMARK SMILES IDX 7 1 36 2 34 3 32 4 9 5 8 6 6 7 5 8 4 9 1 10 2 11 42 12 3 13
REMARK SMILES IDX 40 14 38 15 43 16 41 18 39 20 37 22 35 24 10 26 11 27 12 28
REMARK SMILES IDX 30 29 21 30 29 31 31 32 22 33 27 34 23 35 26 36 24 37 13 38
REMARK SMILES IDX 20 39 14 40 18 41 15 42 16 43 19 44 17 46 28 48 25 50 33 52
REMARK H PARENT 43 17 41 19 39 21 37 23 35 25 19 45 17 47 28 49 25 51 33 53
REMARK Flexibility Score: inf
ROOT
ATOM      1  C   UNL     1      81.391 -24.992  87.536  1.00  0.00     0.180 C 
ATOM      2  C   UNL     1      81.261 -23.651  88.299  1.00  0.00     0.177 C 
ATOM      3  C   UNL     1      79.885 -23.033  88.034  1.00  0.00     0.180 C 
ATOM      4  C   UNL     1      79.649 -22.893  86.525  1.00  0.00     0.214 C 
ATOM      5  C   UNL     1      79.871 -24.241  85.815  1.00  0.00     0.339 C 
ATOM      6  O   UNL     1      81.108 -24.873  86.144  1.00  0.00    -0.332 OA
ENDROOT
BRANCH   1   7
ATOM      7  C   UNL     1      80.638 -26.163  88.234  1.00  0.00     0.198 C 
BRANCH   7   8
ATOM      8  O   UNL     1      81.527 -27.128  88.775  1.00  0.00    -0.347 OA
BRANCH   8   9
ATOM      9  C   UNL     1      82.215 -27.837  87.751  1.00  0.00     0.281 C 
ATOM     10  C   UNL     1      85.094 -26.772  85.771  1.00  0.00     0.041 C 
ATOM     11  C   UNL     1      84.098 -27.750  86.391  1.00  0.00     0.150 C 
ATOM     12  C   UNL     1      83.354 -28.641  85.337  1.00  0.00     0.174 C 
ATOM     13  O   UNL     1      83.201 -26.995  87.186  1.00  0.00    -0.344 OA
ATOM     14  C   UNL     1      81.867 -28.236  85.246  1.00  0.00     0.179 C 
ATOM     15  C   UNL     1      81.202 -28.248  86.651  1.00  0.00     0.202 C 
BRANCH  12  16
ATOM     16  O   UNL     1      83.952 -28.543  84.066  1.00  0.00    -0.388 OA
ATOM     17  H   UNL     1      84.061 -29.465  83.722  1.00  0.00     0.211 HD
ENDBRANCH  12  16
BRANCH  14  18
ATOM     18  O   UNL     1      81.196 -29.114  84.381  1.00  0.00    -0.387 OA
ATOM     19  H   UNL     1      80.457 -29.530  84.900  1.00  0.00     0.211 HD
ENDBRANCH  14  18
BRANCH  15  20
ATOM     20  O   UNL     1      80.678 -29.519  86.934  1.00  0.00    -0.385 OA
ATOM     21  H   UNL     1      81.238 -30.172  86.436  1.00  0.00     0.211 HD
ENDBRANCH  15  20
ENDBRANCH   8   9
ENDBRANCH   7   8
ENDBRANCH   1   7
BRANCH   2  22
ATOM     22  O   UNL     1      82.268 -22.756  87.881  1.00  0.00    -0.387 OA
ATOM     23  H   UNL     1      81.984 -22.401  87.004  1.00  0.00     0.211 HD
ENDBRANCH   2  22
BRANCH   3  24
ATOM     24  O   UNL     1      79.750 -21.771  88.643  1.00  0.00    -0.387 OA
ATOM     25  H   UNL     1      78.878 -21.747  89.111  1.00  0.00     0.211 HD
ENDBRANCH   3  24
BRANCH   5  26
ATOM     26  O   UNL     1      78.780 -25.134  86.026  1.00  0.00    -0.454 OA
BRANCH  26  27
ATOM     27  C   UNL     1      78.305 -26.007  85.051  1.00  0.00     0.214 A 
ATOM     28  C   UNL     1      77.049 -26.652  85.152  1.00  0.00     0.180 A 
ATOM     29  C   UNL     1      79.092 -26.227  83.916  1.00  0.00     0.239 A 
ATOM     30  O   UNL     1      76.664 -27.475  84.179  1.00  0.00    -0.452 OA
ATOM     31  C   UNL     1      78.657 -27.120  82.921  1.00  0.00     0.111 A 
ATOM     32  O   UNL     1      80.202 -25.635  83.826  1.00  0.00    -0.285 OA
ATOM     33  C   UNL     1      77.394 -27.732  83.099  1.00  0.00     0.146 A 
ATOM     34  C   UNL     1      79.425 -27.443  81.779  1.00  0.00     0.134 A 
ATOM     35  C   UNL     1      76.898 -28.612  82.136  1.00  0.00     0.094 A 
ATOM     36  C   UNL     1      78.913 -28.344  80.829  1.00  0.00     0.093 A 
ATOM     37  C   UNL     1      77.651 -28.915  80.999  1.00  0.00     0.123 A 
BRANCH  28  38
ATOM     38  C   UNL     1      76.124 -26.475  86.309  1.00  0.00     0.025 A 
ATOM     39  C   UNL     1      76.472 -27.041  87.554  1.00  0.00     0.062 A 
ATOM     40  C   UNL     1      74.878 -25.820  86.189  1.00  0.00     0.016 A 
ATOM     41  C   UNL     1      75.634 -26.920  88.665  1.00  0.00     0.158 A 
ATOM     42  C   UNL     1      74.053 -25.675  87.303  1.00  0.00     0.051 A 
ATOM     43  C   UNL     1      74.424 -26.209  88.548  1.00  0.00     0.157 A 
BRANCH  41  44
ATOM     44  O   UNL     1      76.023 -27.513  89.872  1.00  0.00    -0.504 OA
ATOM     45  H   UNL     1      75.764 -28.477  90.082  1.00  0.00     0.293 HD
ENDBRANCH  41  44
BRANCH  43  46
ATOM     46  O   UNL     1      73.595 -26.062  89.660  1.00  0.00    -0.504 OA
ATOM     47  H   UNL     1      73.961 -25.701  90.542  1.00  0.00     0.293 HD
ENDBRANCH  43  46
ENDBRANCH  28  38
BRANCH  34  48
ATOM     48  O   UNL     1      80.689 -26.877  81.580  1.00  0.00    -0.507 OA
ATOM     49  H   UNL     1      81.286 -26.642  82.350  1.00  0.00     0.293 HD
ENDBRANCH  34  48
BRANCH  37  50
ATOM     50  O   UNL     1      77.161 -29.784  80.035  1.00  0.00    -0.508 OA
ATOM     51  H   UNL     1      76.256 -29.631  79.605  1.00  0.00     0.293 HD
ENDBRANCH  37  50
ENDBRANCH  26  27
ENDBRANCH   5  26
BRANCH   4  52
ATOM     52  O   UNL     1      80.501 -21.924  85.951  1.00  0.00    -0.384 OA
ATOM     53  H   UNL     1      80.041 -21.044  86.011  1.00  0.00     0.211 HD
ENDBRANCH   4  52
TORSDOF 16
ENDMDL
