MODEL 1
REMARK VINA RESULT:    -4.452      0.000      0.000
REMARK INTER + INTRA:         -16.176
REMARK INTER:                 -11.220
REMARK INTRA:                  -4.956
REMARK UNBOUND:                -4.956
REMARK SMILES CCCCCCCCCCCCCCCCCCCCCCCCCCCC(=O)[O-]
REMARK SMILES IDX 15 1 16 2 17 3 18 4 19 5 20 6 21 7 22 8 23 9 24 10 25 11
REMARK SMILES IDX 26 12 27 13 28 14 29 15 30 16 14 17 13 18 12 19 11 20 10 21
REMARK SMILES IDX 9 22 8 23 7 24 6 25 5 26 4 27 3 28 2 29 1 30
REMARK H PARENT
REMARK Flexibility Score: inf
ROOT
ATOM      1  C   UNL     1       4.195 -10.559   7.036  1.00  0.00     0.000 C 
ENDROOT
BRANCH   1   2
ATOM      2  C   UNL     1       5.615 -11.104   7.283  1.00  0.00     0.000 C 
BRANCH   2   3
ATOM      3  C   UNL     1       5.971 -12.258   6.336  1.00  0.00     0.000 C 
BRANCH   3   4
ATOM      4  C   UNL     1       5.009 -13.450   6.475  1.00  0.00     0.000 C 
BRANCH   4   5
ATOM      5  C   UNL     1       4.517 -13.978   5.116  1.00  0.00     0.000 C 
BRANCH   5   6
ATOM      6  C   UNL     1       5.005 -13.174   3.897  1.00  0.00     0.000 C 
BRANCH   6   7
ATOM      7  C   UNL     1       4.122 -13.376   2.655  1.00  0.00     0.000 C 
BRANCH   7   8
ATOM      8  C   UNL     1       4.149 -12.134   1.756  1.00  0.00     0.000 C 
BRANCH   8   9
ATOM      9  C   UNL     1       4.099 -12.526   0.273  1.00  0.00     0.000 C 
BRANCH   9  10
ATOM     10  C   UNL     1       5.432 -13.096  -0.242  1.00  0.00     0.000 C 
BRANCH  10  11
ATOM     11  C   UNL     1       6.650 -12.199   0.063  1.00  0.00     0.000 C 
BRANCH  11  12
ATOM     12  C   UNL     1       7.740 -12.948   0.848  1.00  0.00     0.006 C 
BRANCH  12  13
ATOM     13  C   UNL     1       7.690 -14.463   0.613  1.00  0.00     0.053 C 
BRANCH  13  14
ATOM     14  C   UNL     1       8.583 -14.879  -0.518  1.00  0.00     0.041 C 
ATOM     15  O   UNL     1       9.834 -14.796  -0.400  1.00  0.00    -0.550 OA
ATOM     16  O   UNL     1       8.031 -15.333  -1.709  1.00  0.00    -0.550 OA
ENDBRANCH  13  14
ENDBRANCH  12  13
ENDBRANCH  11  12
ENDBRANCH  10  11
ENDBRANCH   9  10
ENDBRANCH   8   9
ENDBRANCH   7   8
ENDBRANCH   6   7
ENDBRANCH   5   6
ENDBRANCH   4   5
ENDBRANCH   3   4
ENDBRANCH   2   3
ENDBRANCH   1   2
BRANCH   1  17
ATOM     17  C   UNL     1       4.166  -9.388   6.037  1.00  0.00     0.000 C 
BRANCH  17  18
ATOM     18  C   UNL     1       3.650  -9.738   4.630  1.00  0.00     0.000 C 
BRANCH  18  19
ATOM     19  C   UNL     1       2.417 -10.657   4.653  1.00  0.00     0.000 C 
BRANCH  19  20
ATOM     20  C   UNL     1       1.315 -10.196   3.685  1.00  0.00     0.000 C 
BRANCH  20  21
ATOM     21  C   UNL     1       1.822  -9.241   2.581  1.00  0.00     0.000 C 
BRANCH  21  22
ATOM     22  C   UNL     1       1.418  -9.712   1.173  1.00  0.00    -0.000 C 
BRANCH  22  23
ATOM     23  C   UNL     1       0.174 -10.616   1.177  1.00  0.00    -0.000 C 
BRANCH  23  24
ATOM     24  C   UNL     1       0.436 -12.037   0.634  1.00  0.00    -0.000 C 
BRANCH  24  25
ATOM     25  C   UNL     1      -0.359 -13.110   1.400  1.00  0.00    -0.000 C 
BRANCH  25  26
ATOM     26  C   UNL     1       0.535 -13.917   2.367  1.00  0.00    -0.000 C 
BRANCH  26  27
ATOM     27  C   UNL     1       1.057 -15.232   1.764  1.00  0.00    -0.000 C 
BRANCH  27  28
ATOM     28  C   UNL     1       1.744 -16.129   2.807  1.00  0.00    -0.000 C 
BRANCH  28  29
ATOM     29  C   UNL     1       1.458 -15.679   4.250  1.00  0.00    -0.003 C 
ATOM     30  C   UNL     1       0.736 -16.747   5.075  1.00  0.00     0.004 C 
ENDBRANCH  28  29
ENDBRANCH  27  28
ENDBRANCH  26  27
ENDBRANCH  25  26
ENDBRANCH  24  25
ENDBRANCH  23  24
ENDBRANCH  22  23
ENDBRANCH  21  22
ENDBRANCH  20  21
ENDBRANCH  19  20
ENDBRANCH  18  19
ENDBRANCH  17  18
ENDBRANCH   1  17
TORSDOF 26
ENDMDL
MODEL 2
REMARK VINA RESULT:    -4.413      2.006      5.344
REMARK INTER + INTRA:         -16.076
REMARK INTER:                 -11.328
REMARK INTRA:                  -4.748
REMARK UNBOUND:                -4.956
REMARK SMILES CCCCCCCCCCCCCCCCCCCCCCCCCCCC(=O)[O-]
REMARK SMILES IDX 15 1 16 2 17 3 18 4 19 5 20 6 21 7 22 8 23 9 24 10 25 11
REMARK SMILES IDX 26 12 27 13 28 14 29 15 30 16 14 17 13 18 12 19 11 20 10 21
REMARK SMILES IDX 9 22 8 23 7 24 6 25 5 26 4 27 3 28 2 29 1 30
REMARK H PARENT
REMARK Flexibility Score: inf
ROOT
ATOM      1  C   UNL     1       4.833 -13.746   4.762  1.00  0.00     0.000 C 
ENDROOT
BRANCH   1   2
ATOM      2  C   UNL     1       3.547 -14.017   3.959  1.00  0.00     0.000 C 
BRANCH   2   3
ATOM      3  C   UNL     1       2.487 -12.925   4.166  1.00  0.00     0.000 C 
BRANCH   3   4
ATOM      4  C   UNL     1       1.243 -13.141   3.288  1.00  0.00     0.000 C 
BRANCH   4   5
ATOM      5  C   UNL     1       0.755 -11.843   2.621  1.00  0.00     0.000 C 
BRANCH   5   6
ATOM      6  C   UNL     1       1.362 -11.563   1.234  1.00  0.00     0.000 C 
BRANCH   6   7
ATOM      7  C   UNL     1       2.528 -10.561   1.283  1.00  0.00     0.000 C 
BRANCH   7   8
ATOM      8  C   UNL     1       3.872 -11.275   1.097  1.00  0.00     0.000 C 
BRANCH   8   9
ATOM      9  C   UNL     1       3.682 -12.642   0.427  1.00  0.00     0.000 C 
BRANCH   9  10
ATOM     10  C   UNL     1       4.870 -13.593   0.655  1.00  0.00     0.000 C 
BRANCH  10  11
ATOM     11  C   UNL     1       6.059 -12.936   1.386  1.00  0.00     0.000 C 
BRANCH  11  12
ATOM     12  C   UNL     1       7.273 -12.742   0.461  1.00  0.00     0.006 C 
BRANCH  12  13
ATOM     13  C   UNL     1       7.414 -13.878  -0.560  1.00  0.00     0.053 C 
BRANCH  13  14
ATOM     14  C   UNL     1       8.514 -14.827  -0.186  1.00  0.00     0.041 C 
ATOM     15  O   UNL     1       9.380 -14.489   0.663  1.00  0.00    -0.550 OA
ATOM     16  O   UNL     1       8.595 -16.072  -0.796  1.00  0.00    -0.550 OA
ENDBRANCH  13  14
ENDBRANCH  12  13
ENDBRANCH  11  12
ENDBRANCH  10  11
ENDBRANCH   9  10
ENDBRANCH   8   9
ENDBRANCH   7   8
ENDBRANCH   6   7
ENDBRANCH   5   6
ENDBRANCH   4   5
ENDBRANCH   3   4
ENDBRANCH   2   3
ENDBRANCH   1   2
BRANCH   1  17
ATOM     17  C   UNL     1       4.578 -12.967   6.064  1.00  0.00     0.000 C 
BRANCH  17  18
ATOM     18  C   UNL     1       5.831 -12.667   6.905  1.00  0.00     0.000 C 
BRANCH  18  19
ATOM     19  C   UNL     1       5.928 -11.193   7.337  1.00  0.00     0.000 C 
BRANCH  19  20
ATOM     20  C   UNL     1       4.688 -10.376   6.935  1.00  0.00     0.000 C 
BRANCH  20  21
ATOM     21  C   UNL     1       4.986  -8.880   6.690  1.00  0.00     0.000 C 
BRANCH  21  22
ATOM     22  C   UNL     1       4.244  -8.333   5.459  1.00  0.00    -0.000 C 
BRANCH  22  23
ATOM     23  C   UNL     1       3.390  -9.398   4.751  1.00  0.00    -0.000 C 
BRANCH  23  24
ATOM     24  C   UNL     1       1.930  -8.960   4.500  1.00  0.00    -0.000 C 
BRANCH  24  25
ATOM     25  C   UNL     1       0.966  -9.504   5.569  1.00  0.00    -0.000 C 
BRANCH  25  26
ATOM     26  C   UNL     1       0.796  -8.526   6.752  1.00  0.00    -0.000 C 
BRANCH  26  27
ATOM     27  C   UNL     1       0.397  -7.105   6.318  1.00  0.00    -0.000 C 
BRANCH  27  28
ATOM     28  C   UNL     1       1.495  -6.069   6.607  1.00  0.00    -0.000 C 
BRANCH  28  29
ATOM     29  C   UNL     1       2.341  -6.435   7.838  1.00  0.00    -0.003 C 
ATOM     30  C   UNL     1       3.584  -5.555   7.991  1.00  0.00     0.004 C 
ENDBRANCH  28  29
ENDBRANCH  27  28
ENDBRANCH  26  27
ENDBRANCH  25  26
ENDBRANCH  24  25
ENDBRANCH  23  24
ENDBRANCH  22  23
ENDBRANCH  21  22
ENDBRANCH  20  21
ENDBRANCH  19  20
ENDBRANCH  18  19
ENDBRANCH  17  18
ENDBRANCH   1  17
TORSDOF 26
ENDMDL
MODEL 3
REMARK VINA RESULT:    -4.402      2.601      5.726
REMARK INTER + INTRA:         -16.050
REMARK INTER:                 -10.399
REMARK INTRA:                  -5.652
REMARK UNBOUND:                -4.956
REMARK SMILES CCCCCCCCCCCCCCCCCCCCCCCCCCCC(=O)[O-]
REMARK SMILES IDX 15 1 16 2 17 3 18 4 19 5 20 6 21 7 22 8 23 9 24 10 25 11
REMARK SMILES IDX 26 12 27 13 28 14 29 15 30 16 14 17 13 18 12 19 11 20 10 21
REMARK SMILES IDX 9 22 8 23 7 24 6 25 5 26 4 27 3 28 2 29 1 30
REMARK H PARENT
REMARK Flexibility Score: inf
ROOT
ATOM      1  C   UNL     1       5.788 -12.267   6.270  1.00  0.00     0.000 C 
ENDROOT
BRANCH   1   2
ATOM      2  C   UNL     1       5.373 -11.180   7.279  1.00  0.00     0.000 C 
BRANCH   2   3
ATOM      3  C   UNL     1       4.017 -10.548   6.934  1.00  0.00     0.000 C 
BRANCH   3   4
ATOM      4  C   UNL     1       4.137  -9.459   5.853  1.00  0.00     0.000 C 
BRANCH   4   5
ATOM      5  C   UNL     1       3.377  -9.819   4.563  1.00  0.00     0.000 C 
BRANCH   5   6
ATOM      6  C   UNL     1       2.236 -10.835   4.749  1.00  0.00     0.000 C 
BRANCH   6   7
ATOM      7  C   UNL     1       1.222 -10.814   3.593  1.00  0.00     0.000 C 
BRANCH   7   8
ATOM      8  C   UNL     1       0.099 -11.830   3.831  1.00  0.00     0.000 C 
BRANCH   8   9
ATOM      9  C   UNL     1      -0.089 -12.740   2.610  1.00  0.00     0.000 C 
BRANCH   9  10
ATOM     10  C   UNL     1      -0.172 -14.231   2.980  1.00  0.00     0.000 C 
BRANCH  10  11
ATOM     11  C   UNL     1       0.942 -14.695   3.943  1.00  0.00     0.000 C 
BRANCH  11  12
ATOM     12  C   UNL     1       1.663 -15.953   3.431  1.00  0.00     0.006 C 
BRANCH  12  13
ATOM     13  C   UNL     1       1.185 -16.373   2.036  1.00  0.00     0.053 C 
BRANCH  13  14
ATOM     14  C   UNL     1       0.797 -17.821   1.993  1.00  0.00     0.041 C 
ATOM     15  O   UNL     1       1.098 -18.528   0.996  1.00  0.00    -0.550 OA
ATOM     16  O   UNL     1       0.079 -18.379   3.043  1.00  0.00    -0.550 OA
ENDBRANCH  13  14
ENDBRANCH  12  13
ENDBRANCH  11  12
ENDBRANCH  10  11
ENDBRANCH   9  10
ENDBRANCH   8   9
ENDBRANCH   7   8
ENDBRANCH   6   7
ENDBRANCH   5   6
ENDBRANCH   4   5
ENDBRANCH   3   4
ENDBRANCH   2   3
ENDBRANCH   1   2
BRANCH   1  17
ATOM     17  C   UNL     1       4.887 -13.514   6.324  1.00  0.00     0.000 C 
BRANCH  17  18
ATOM     18  C   UNL     1       4.374 -14.012   4.960  1.00  0.00     0.000 C 
BRANCH  18  19
ATOM     19  C   UNL     1       4.953 -13.221   3.775  1.00  0.00     0.000 C 
BRANCH  19  20
ATOM     20  C   UNL     1       4.014 -13.206   2.557  1.00  0.00     0.000 C 
BRANCH  20  21
ATOM     21  C   UNL     1       4.231 -11.994   1.623  1.00  0.00     0.000 C 
BRANCH  21  22
ATOM     22  C   UNL     1       3.147 -11.894   0.537  1.00  0.00    -0.000 C 
BRANCH  22  23
ATOM     23  C   UNL     1       2.471 -13.243   0.238  1.00  0.00    -0.000 C 
BRANCH  23  24
ATOM     24  C   UNL     1       3.018 -13.947  -1.023  1.00  0.00    -0.000 C 
BRANCH  24  25
ATOM     25  C   UNL     1       3.715 -15.279  -0.691  1.00  0.00    -0.000 C 
BRANCH  25  26
ATOM     26  C   UNL     1       5.252 -15.136  -0.641  1.00  0.00    -0.000 C 
BRANCH  26  27
ATOM     27  C   UNL     1       5.779 -13.919  -1.421  1.00  0.00    -0.000 C 
BRANCH  27  28
ATOM     28  C   UNL     1       6.791 -13.092  -0.612  1.00  0.00    -0.000 C 
BRANCH  28  29
ATOM     29  C   UNL     1       7.336 -13.856   0.607  1.00  0.00    -0.003 C 
ATOM     30  C   UNL     1       8.865 -13.903   0.646  1.00  0.00     0.004 C 
ENDBRANCH  28  29
ENDBRANCH  27  28
ENDBRANCH  26  27
ENDBRANCH  25  26
ENDBRANCH  24  25
ENDBRANCH  23  24
ENDBRANCH  22  23
ENDBRANCH  21  22
ENDBRANCH  20  21
ENDBRANCH  19  20
ENDBRANCH  18  19
ENDBRANCH  17  18
ENDBRANCH   1  17
TORSDOF 26
ENDMDL
MODEL 4
REMARK VINA RESULT:    -4.377      2.379      5.251
REMARK INTER + INTRA:         -15.985
REMARK INTER:                 -11.292
REMARK INTRA:                  -4.693
REMARK UNBOUND:                -4.956
REMARK SMILES CCCCCCCCCCCCCCCCCCCCCCCCCCCC(=O)[O-]
REMARK SMILES IDX 15 1 16 2 17 3 18 4 19 5 20 6 21 7 22 8 23 9 24 10 25 11
REMARK SMILES IDX 26 12 27 13 28 14 29 15 30 16 14 17 13 18 12 19 11 20 10 21
REMARK SMILES IDX 9 22 8 23 7 24 6 25 5 26 4 27 3 28 2 29 1 30
REMARK H PARENT
REMARK Flexibility Score: inf
ROOT
ATOM      1  C   UNL     1       5.769 -12.245   6.321  1.00  0.00     0.000 C 
ENDROOT
BRANCH   1   2
ATOM      2  C   UNL     1       4.990 -13.572   6.383  1.00  0.00     0.000 C 
BRANCH   2   3
ATOM      3  C   UNL     1       4.506 -14.033   5.001  1.00  0.00     0.000 C 
BRANCH   3   4
ATOM      4  C   UNL     1       3.600 -12.992   4.321  1.00  0.00     0.000 C 
BRANCH   4   5
ATOM      5  C   UNL     1       2.255 -13.585   3.864  1.00  0.00     0.000 C 
BRANCH   5   6
ATOM      6  C   UNL     1       2.363 -14.919   3.104  1.00  0.00     0.000 C 
BRANCH   6   7
ATOM      7  C   UNL     1       1.870 -14.822   1.651  1.00  0.00     0.000 C 
BRANCH   7   8
ATOM      8  C   UNL     1       1.244 -13.450   1.375  1.00  0.00     0.000 C 
BRANCH   8   9
ATOM      9  C   UNL     1       1.997 -12.716   0.258  1.00  0.00     0.000 C 
BRANCH   9  10
ATOM     10  C   UNL     1       2.640 -11.401   0.733  1.00  0.00     0.000 C 
BRANCH  10  11
ATOM     11  C   UNL     1       4.146 -11.524   1.046  1.00  0.00     0.000 C 
BRANCH  11  12
ATOM     12  C   UNL     1       4.767 -12.785   0.422  1.00  0.00     0.006 C 
BRANCH  12  13
ATOM     13  C   UNL     1       5.737 -13.490   1.379  1.00  0.00     0.053 C 
BRANCH  13  14
ATOM     14  C   UNL     1       7.148 -13.442   0.874  1.00  0.00     0.041 C 
ATOM     15  O   UNL     1       7.622 -12.368   0.419  1.00  0.00    -0.550 OA
ATOM     16  O   UNL     1       7.929 -14.591   0.882  1.00  0.00    -0.550 OA
ENDBRANCH  13  14
ENDBRANCH  12  13
ENDBRANCH  11  12
ENDBRANCH  10  11
ENDBRANCH   9  10
ENDBRANCH   8   9
ENDBRANCH   7   8
ENDBRANCH   6   7
ENDBRANCH   5   6
ENDBRANCH   4   5
ENDBRANCH   3   4
ENDBRANCH   2   3
ENDBRANCH   1   2
BRANCH   1  17
ATOM     17  C   UNL     1       5.221 -11.180   7.287  1.00  0.00     0.000 C 
BRANCH  17  18
ATOM     18  C   UNL     1       3.992 -10.404   6.780  1.00  0.00     0.000 C 
BRANCH  18  19
ATOM     19  C   UNL     1       4.305  -8.937   6.438  1.00  0.00     0.000 C 
BRANCH  19  20
ATOM     20  C   UNL     1       3.559  -8.448   5.186  1.00  0.00     0.000 C 
BRANCH  20  21
ATOM     21  C   UNL     1       3.188  -9.581   4.204  1.00  0.00     0.000 C 
BRANCH  21  22
ATOM     22  C   UNL     1       1.690  -9.582   3.854  1.00  0.00    -0.000 C 
BRANCH  22  23
ATOM     23  C   UNL     1       0.835  -8.812   4.874  1.00  0.00    -0.000 C 
BRANCH  23  24
ATOM     24  C   UNL     1      -0.075  -9.717   5.732  1.00  0.00    -0.000 C 
BRANCH  24  25
ATOM     25  C   UNL     1       0.030  -9.393   7.234  1.00  0.00    -0.000 C 
BRANCH  25  26
ATOM     26  C   UNL     1       0.957  -8.189   7.507  1.00  0.00    -0.000 C 
BRANCH  26  27
ATOM     27  C   UNL     1       0.791  -7.596   8.916  1.00  0.00    -0.000 C 
BRANCH  27  28
ATOM     28  C   UNL     1       1.507  -6.245   9.077  1.00  0.00    -0.000 C 
BRANCH  28  29
ATOM     29  C   UNL     1       2.196  -5.785   7.781  1.00  0.00    -0.003 C 
ATOM     30  C   UNL     1       3.678  -5.462   7.977  1.00  0.00     0.004 C 
ENDBRANCH  28  29
ENDBRANCH  27  28
ENDBRANCH  26  27
ENDBRANCH  25  26
ENDBRANCH  24  25
ENDBRANCH  23  24
ENDBRANCH  22  23
ENDBRANCH  21  22
ENDBRANCH  20  21
ENDBRANCH  19  20
ENDBRANCH  18  19
ENDBRANCH  17  18
ENDBRANCH   1  17
TORSDOF 26
ENDMDL
MODEL 5
REMARK VINA RESULT:    -4.297      3.999      7.091
REMARK INTER + INTRA:         -15.784
REMARK INTER:                 -11.146
REMARK INTRA:                  -4.638
REMARK UNBOUND:                -4.956
REMARK SMILES CCCCCCCCCCCCCCCCCCCCCCCCCCCC(=O)[O-]
REMARK SMILES IDX 15 1 16 2 17 3 18 4 19 5 20 6 21 7 22 8 23 9 24 10 25 11
REMARK SMILES IDX 26 12 27 13 28 14 29 15 30 16 14 17 13 18 12 19 11 20 10 21
REMARK SMILES IDX 9 22 8 23 7 24 6 25 5 26 4 27 3 28 2 29 1 30
REMARK H PARENT
REMARK Flexibility Score: inf
ROOT
ATOM      1  C   UNL     1       4.812 -13.278   6.252  1.00  0.00     0.000 C 
ENDROOT
BRANCH   1   2
ATOM      2  C   UNL     1       6.005 -12.331   6.480  1.00  0.00     0.000 C 
BRANCH   2   3
ATOM      3  C   UNL     1       5.647 -11.148   7.392  1.00  0.00     0.000 C 
BRANCH   3   4
ATOM      4  C   UNL     1       4.319 -10.481   6.992  1.00  0.00     0.000 C 
BRANCH   4   5
ATOM      5  C   UNL     1       4.513  -9.054   6.447  1.00  0.00     0.000 C 
BRANCH   5   6
ATOM      6  C   UNL     1       3.768  -8.759   5.133  1.00  0.00     0.000 C 
BRANCH   6   7
ATOM      7  C   UNL     1       3.152 -10.016   4.498  1.00  0.00     0.000 C 
BRANCH   7   8
ATOM      8  C   UNL     1       1.626 -10.011   4.640  1.00  0.00     0.000 C 
BRANCH   8   9
ATOM      9  C   UNL     1       1.090  -8.579   4.773  1.00  0.00     0.000 C 
BRANCH   9  10
ATOM     10  C   UNL     1       0.201  -8.384   6.014  1.00  0.00     0.000 C 
BRANCH  10  11
ATOM     11  C   UNL     1       0.856  -8.859   7.327  1.00  0.00     0.000 C 
BRANCH  11  12
ATOM     12  C   UNL     1       1.430  -7.690   8.145  1.00  0.00     0.006 C 
BRANCH  12  13
ATOM     13  C   UNL     1       1.505  -6.392   7.332  1.00  0.00     0.053 C 
BRANCH  13  14
ATOM     14  C   UNL     1       2.870  -5.774   7.397  1.00  0.00     0.041 C 
ATOM     15  O   UNL     1       3.447  -5.401   6.342  1.00  0.00    -0.550 OA
ATOM     16  O   UNL     1       3.513  -5.635   8.620  1.00  0.00    -0.550 OA
ENDBRANCH  13  14
ENDBRANCH  12  13
ENDBRANCH  11  12
ENDBRANCH  10  11
ENDBRANCH   9  10
ENDBRANCH   8   9
ENDBRANCH   7   8
ENDBRANCH   6   7
ENDBRANCH   5   6
ENDBRANCH   4   5
ENDBRANCH   3   4
ENDBRANCH   2   3
ENDBRANCH   1   2
BRANCH   1  17
ATOM     17  C   UNL     1       4.427 -13.414   4.767  1.00  0.00     0.000 C 
BRANCH  17  18
ATOM     18  C   UNL     1       3.926 -14.807   4.345  1.00  0.00     0.000 C 
BRANCH  18  19
ATOM     19  C   UNL     1       2.569 -14.764   3.623  1.00  0.00     0.000 C 
BRANCH  19  20
ATOM     20  C   UNL     1       1.988 -13.343   3.536  1.00  0.00     0.000 C 
BRANCH  20  21
ATOM     21  C   UNL     1       0.564 -13.292   2.939  1.00  0.00     0.000 C 
BRANCH  21  22
ATOM     22  C   UNL     1       0.562 -12.813   1.477  1.00  0.00    -0.000 C 
BRANCH  22  23
ATOM     23  C   UNL     1       0.377 -11.292   1.345  1.00  0.00    -0.000 C 
BRANCH  23  24
ATOM     24  C   UNL     1       1.689 -10.528   1.064  1.00  0.00    -0.000 C 
BRANCH  24  25
ATOM     25  C   UNL     1       2.703 -11.379   0.279  1.00  0.00    -0.000 C 
BRANCH  25  26
ATOM     26  C   UNL     1       4.030 -11.560   1.047  1.00  0.00    -0.000 C 
BRANCH  26  27
ATOM     27  C   UNL     1       4.647 -12.960   0.881  1.00  0.00    -0.000 C 
BRANCH  27  28
ATOM     28  C   UNL     1       6.038 -13.073   1.524  1.00  0.00    -0.000 C 
BRANCH  28  29
ATOM     29  C   UNL     1       7.173 -12.778   0.529  1.00  0.00    -0.003 C 
ATOM     30  C   UNL     1       8.386 -13.691   0.720  1.00  0.00     0.004 C 
ENDBRANCH  28  29
ENDBRANCH  27  28
ENDBRANCH  26  27
ENDBRANCH  25  26
ENDBRANCH  24  25
ENDBRANCH  23  24
ENDBRANCH  22  23
ENDBRANCH  21  22
ENDBRANCH  20  21
ENDBRANCH  19  20
ENDBRANCH  18  19
ENDBRANCH  17  18
ENDBRANCH   1  17
TORSDOF 26
ENDMDL
MODEL 6
REMARK VINA RESULT:    -4.270      4.156      7.549
REMARK INTER + INTRA:         -15.717
REMARK INTER:                 -11.286
REMARK INTRA:                  -4.430
REMARK UNBOUND:                -4.956
REMARK SMILES CCCCCCCCCCCCCCCCCCCCCCCCCCCC(=O)[O-]
REMARK SMILES IDX 15 1 16 2 17 3 18 4 19 5 20 6 21 7 22 8 23 9 24 10 25 11
REMARK SMILES IDX 26 12 27 13 28 14 29 15 30 16 14 17 13 18 12 19 11 20 10 21
REMARK SMILES IDX 9 22 8 23 7 24 6 25 5 26 4 27 3 28 2 29 1 30
REMARK H PARENT
REMARK Flexibility Score: inf
ROOT
ATOM      1  C   UNL     1       5.312 -11.011   7.281  1.00  0.00     0.000 C 
ENDROOT
BRANCH   1   2
ATOM      2  C   UNL     1       3.906 -10.655   6.762  1.00  0.00     0.000 C 
BRANCH   2   3
ATOM      3  C   UNL     1       3.939  -9.554   5.691  1.00  0.00     0.000 C 
BRANCH   3   4
ATOM      4  C   UNL     1       3.417 -10.045   4.330  1.00  0.00     0.000 C 
BRANCH   4   5
ATOM      5  C   UNL     1       2.246 -11.034   4.466  1.00  0.00     0.000 C 
BRANCH   5   6
ATOM      6  C   UNL     1       1.044 -10.741   3.549  1.00  0.00     0.000 C 
BRANCH   6   7
ATOM      7  C   UNL     1      -0.099 -10.013   4.275  1.00  0.00     0.000 C 
BRANCH   7   8
ATOM      8  C   UNL     1       0.100  -8.494   4.228  1.00  0.00     0.000 C 
BRANCH   8   9
ATOM      9  C   UNL     1       0.098  -7.894   5.640  1.00  0.00     0.000 C 
BRANCH   9  10
ATOM     10  C   UNL     1       0.385  -8.936   6.735  1.00  0.00     0.000 C 
BRANCH  10  11
ATOM     11  C   UNL     1       1.153  -8.367   7.947  1.00  0.00     0.000 C 
BRANCH  11  12
ATOM     12  C   UNL     1       0.737  -6.922   8.270  1.00  0.00     0.006 C 
BRANCH  12  13
ATOM     13  C   UNL     1       1.904  -6.089   8.816  1.00  0.00     0.053 C 
BRANCH  13  14
ATOM     14  C   UNL     1       2.766  -5.551   7.713  1.00  0.00     0.041 C 
ATOM     15  O   UNL     1       4.001  -5.388   7.898  1.00  0.00    -0.550 OA
ATOM     16  O   UNL     1       2.200  -5.206   6.493  1.00  0.00    -0.550 OA
ENDBRANCH  13  14
ENDBRANCH  12  13
ENDBRANCH  11  12
ENDBRANCH  10  11
ENDBRANCH   9  10
ENDBRANCH   8   9
ENDBRANCH   7   8
ENDBRANCH   6   7
ENDBRANCH   5   6
ENDBRANCH   4   5
ENDBRANCH   3   4
ENDBRANCH   2   3
ENDBRANCH   1   2
BRANCH   1  17
ATOM     17  C   UNL     1       5.946 -12.199   6.534  1.00  0.00     0.000 C 
BRANCH  17  18
ATOM     18  C   UNL     1       4.966 -13.312   6.121  1.00  0.00     0.000 C 
BRANCH  18  19
ATOM     19  C   UNL     1       4.868 -13.493   4.597  1.00  0.00     0.000 C 
BRANCH  19  20
ATOM     20  C   UNL     1       4.114 -14.773   4.199  1.00  0.00     0.000 C 
BRANCH  20  21
ATOM     21  C   UNL     1       2.584 -14.583   4.097  1.00  0.00     0.000 C 
BRANCH  21  22
ATOM     22  C   UNL     1       2.018 -15.114   2.769  1.00  0.00    -0.000 C 
BRANCH  22  23
ATOM     23  C   UNL     1       2.699 -14.494   1.537  1.00  0.00    -0.000 C 
BRANCH  23  24
ATOM     24  C   UNL     1       2.096 -13.140   1.107  1.00  0.00    -0.000 C 
BRANCH  24  25
ATOM     25  C   UNL     1       3.106 -12.268   0.339  1.00  0.00    -0.000 C 
BRANCH  25  26
ATOM     26  C   UNL     1       4.353 -11.938   1.187  1.00  0.00    -0.000 C 
BRANCH  26  27
ATOM     27  C   UNL     1       5.679 -12.257   0.475  1.00  0.00    -0.000 C 
BRANCH  27  28
ATOM     28  C   UNL     1       6.537 -13.270   1.250  1.00  0.00    -0.000 C 
BRANCH  28  29
ATOM     29  C   UNL     1       8.034 -13.146   0.921  1.00  0.00    -0.003 C 
ATOM     30  C   UNL     1       8.604 -14.401   0.256  1.00  0.00     0.004 C 
ENDBRANCH  28  29
ENDBRANCH  27  28
ENDBRANCH  26  27
ENDBRANCH  25  26
ENDBRANCH  24  25
ENDBRANCH  23  24
ENDBRANCH  22  23
ENDBRANCH  21  22
ENDBRANCH  20  21
ENDBRANCH  19  20
ENDBRANCH  18  19
ENDBRANCH  17  18
ENDBRANCH   1  17
TORSDOF 26
ENDMDL
MODEL 7
REMARK VINA RESULT:    -4.244      6.487     10.713
REMARK INTER + INTRA:         -15.652
REMARK INTER:                 -11.266
REMARK INTRA:                  -4.386
REMARK UNBOUND:                -4.956
REMARK SMILES CCCCCCCCCCCCCCCCCCCCCCCCCCCC(=O)[O-]
REMARK SMILES IDX 15 1 16 2 17 3 18 4 19 5 20 6 21 7 22 8 23 9 24 10 25 11
REMARK SMILES IDX 26 12 27 13 28 14 29 15 30 16 14 17 13 18 12 19 11 20 10 21
REMARK SMILES IDX 9 22 8 23 7 24 6 25 5 26 4 27 3 28 2 29 1 30
REMARK H PARENT
REMARK Flexibility Score: inf
ROOT
ATOM      1  C   UNL     1       2.850 -10.634   3.435  1.00  0.00     0.000 C 
ENDROOT
BRANCH   1   2
ATOM      2  C   UNL     1       1.466  -9.967   3.539  1.00  0.00     0.000 C 
BRANCH   2   3
ATOM      3  C   UNL     1       1.239  -9.298   4.902  1.00  0.00     0.000 C 
BRANCH   3   4
ATOM      4  C   UNL     1      -0.186  -9.521   5.435  1.00  0.00     0.000 C 
BRANCH   4   5
ATOM      5  C   UNL     1      -0.343  -9.095   6.906  1.00  0.00     0.000 C 
BRANCH   5   6
ATOM      6  C   UNL     1       0.978  -8.777   7.630  1.00  0.00     0.000 C 
BRANCH   6   7
ATOM      7  C   UNL     1       0.775  -7.949   8.909  1.00  0.00     0.000 C 
BRANCH   7   8
ATOM      8  C   UNL     1      -0.701  -7.577   9.093  1.00  0.00     0.000 C 
BRANCH   8   9
ATOM      9  C   UNL     1      -0.875  -6.057   9.213  1.00  0.00     0.000 C 
BRANCH   9  10
ATOM     10  C   UNL     1       0.395  -5.346   9.712  1.00  0.00     0.000 C 
BRANCH  10  11
ATOM     11  C   UNL     1       0.502  -5.271  11.250  1.00  0.00     0.000 C 
BRANCH  11  12
ATOM     12  C   UNL     1       1.779  -5.947  11.776  1.00  0.00     0.006 C 
BRANCH  12  13
ATOM     13  C   UNL     1       2.014  -5.670  13.266  1.00  0.00     0.053 C 
BRANCH  13  14
ATOM     14  C   UNL     1       3.106  -4.664  13.478  1.00  0.00     0.041 C 
ATOM     15  O   UNL     1       4.212  -5.023  13.960  1.00  0.00    -0.550 OA
ATOM     16  O   UNL     1       2.890  -3.328  13.170  1.00  0.00    -0.550 OA
ENDBRANCH  13  14
ENDBRANCH  12  13
ENDBRANCH  11  12
ENDBRANCH  10  11
ENDBRANCH   9  10
ENDBRANCH   8   9
ENDBRANCH   7   8
ENDBRANCH   6   7
ENDBRANCH   5   6
ENDBRANCH   4   5
ENDBRANCH   3   4
ENDBRANCH   2   3
ENDBRANCH   1   2
BRANCH   1  17
ATOM     17  C   UNL     1       2.953 -11.936   4.250  1.00  0.00     0.000 C 
BRANCH  17  18
ATOM     18  C   UNL     1       4.149 -12.838   3.895  1.00  0.00     0.000 C 
BRANCH  18  19
ATOM     19  C   UNL     1       4.654 -13.664   5.091  1.00  0.00     0.000 C 
BRANCH  19  20
ATOM     20  C   UNL     1       4.592 -12.887   6.417  1.00  0.00     0.000 C 
BRANCH  20  21
ATOM     21  C   UNL     1       5.955 -12.311   6.861  1.00  0.00     0.000 C 
BRANCH  21  22
ATOM     22  C   UNL     1       5.858 -10.829   7.261  1.00  0.00    -0.000 C 
BRANCH  22  23
ATOM     23  C   UNL     1       4.503 -10.198   6.900  1.00  0.00    -0.000 C 
BRANCH  23  24
ATOM     24  C   UNL     1       4.622  -8.842   6.169  1.00  0.00    -0.000 C 
BRANCH  24  25
ATOM     25  C   UNL     1       4.213  -7.659   7.065  1.00  0.00    -0.000 C 
BRANCH  25  26
ATOM     26  C   UNL     1       3.568  -6.512   6.256  1.00  0.00    -0.000 C 
BRANCH  26  27
ATOM     27  C   UNL     1       3.154  -5.311   7.122  1.00  0.00    -0.000 C 
BRANCH  27  28
ATOM     28  C   UNL     1       1.966  -4.536   6.529  1.00  0.00    -0.000 C 
BRANCH  28  29
ATOM     29  C   UNL     1       0.853  -5.466   6.017  1.00  0.00    -0.003 C 
ATOM     30  C   UNL     1      -0.475  -4.740   5.792  1.00  0.00     0.004 C 
ENDBRANCH  28  29
ENDBRANCH  27  28
ENDBRANCH  26  27
ENDBRANCH  25  26
ENDBRANCH  24  25
ENDBRANCH  23  24
ENDBRANCH  22  23
ENDBRANCH  21  22
ENDBRANCH  20  21
ENDBRANCH  19  20
ENDBRANCH  18  19
ENDBRANCH  17  18
ENDBRANCH   1  17
TORSDOF 26
ENDMDL
MODEL 8
REMARK VINA RESULT:    -4.216      2.829      5.765
REMARK INTER + INTRA:         -15.582
REMARK INTER:                 -11.360
REMARK INTRA:                  -4.222
REMARK UNBOUND:                -4.956
REMARK SMILES CCCCCCCCCCCCCCCCCCCCCCCCCCCC(=O)[O-]
REMARK SMILES IDX 15 1 16 2 17 3 18 4 19 5 20 6 21 7 22 8 23 9 24 10 25 11
REMARK SMILES IDX 26 12 27 13 28 14 29 15 30 16 14 17 13 18 12 19 11 20 10 21
REMARK SMILES IDX 9 22 8 23 7 24 6 25 5 26 4 27 3 28 2 29 1 30
REMARK H PARENT
REMARK Flexibility Score: inf
ROOT
ATOM      1  C   UNL     1       5.672 -11.156   7.260  1.00  0.00     0.000 C 
ENDROOT
BRANCH   1   2
ATOM      2  C   UNL     1       6.000 -12.427   6.454  1.00  0.00     0.000 C 
BRANCH   2   3
ATOM      3  C   UNL     1       4.790 -13.362   6.318  1.00  0.00     0.000 C 
BRANCH   3   4
ATOM      4  C   UNL     1       4.480 -13.710   4.852  1.00  0.00     0.000 C 
BRANCH   4   5
ATOM      5  C   UNL     1       3.894 -12.521   4.070  1.00  0.00     0.000 C 
BRANCH   5   6
ATOM      6  C   UNL     1       2.360 -12.531   3.935  1.00  0.00     0.000 C 
BRANCH   6   7
ATOM      7  C   UNL     1       1.873 -11.951   2.598  1.00  0.00     0.000 C 
BRANCH   7   8
ATOM      8  C   UNL     1       2.952 -11.071   1.957  1.00  0.00     0.000 C 
BRANCH   8   9
ATOM      9  C   UNL     1       3.162 -11.441   0.483  1.00  0.00     0.000 C 
BRANCH   9  10
ATOM     10  C   UNL     1       3.136 -12.960   0.236  1.00  0.00     0.000 C 
BRANCH  10  11
ATOM     11  C   UNL     1       4.508 -13.550  -0.153  1.00  0.00     0.000 C 
BRANCH  11  12
ATOM     12  C   UNL     1       5.602 -13.195   0.869  1.00  0.00     0.006 C 
BRANCH  12  13
ATOM     13  C   UNL     1       6.902 -12.740   0.195  1.00  0.00     0.053 C 
BRANCH  13  14
ATOM     14  C   UNL     1       7.897 -13.857   0.096  1.00  0.00     0.041 C 
ATOM     15  O   UNL     1       7.685 -14.828  -0.678  1.00  0.00    -0.550 OA
ATOM     16  O   UNL     1       9.045 -13.837   0.877  1.00  0.00    -0.550 OA
ENDBRANCH  13  14
ENDBRANCH  12  13
ENDBRANCH  11  12
ENDBRANCH  10  11
ENDBRANCH   9  10
ENDBRANCH   8   9
ENDBRANCH   7   8
ENDBRANCH   6   7
ENDBRANCH   5   6
ENDBRANCH   4   5
ENDBRANCH   3   4
ENDBRANCH   2   3
ENDBRANCH   1   2
BRANCH   1  17
ATOM     17  C   UNL     1       4.320 -10.530   6.874  1.00  0.00     0.000 C 
BRANCH  17  18
ATOM     18  C   UNL     1       4.296  -8.991   6.837  1.00  0.00     0.000 C 
BRANCH  18  19
ATOM     19  C   UNL     1       4.038  -8.427   5.430  1.00  0.00     0.000 C 
BRANCH  19  20
ATOM     20  C   UNL     1       2.766  -9.003   4.785  1.00  0.00     0.000 C 
BRANCH  20  21
ATOM     21  C   UNL     1       1.466  -8.314   5.257  1.00  0.00     0.000 C 
BRANCH  21  22
ATOM     22  C   UNL     1       0.554  -9.270   6.046  1.00  0.00    -0.000 C 
BRANCH  22  23
ATOM     23  C   UNL     1       0.639  -9.061   7.567  1.00  0.00    -0.000 C 
BRANCH  23  24
ATOM     24  C   UNL     1       0.090  -7.697   8.039  1.00  0.00    -0.000 C 
BRANCH  24  25
ATOM     25  C   UNL     1       0.807  -7.184   9.301  1.00  0.00    -0.000 C 
BRANCH  25  26
ATOM     26  C   UNL     1       1.581  -5.874   9.040  1.00  0.00    -0.000 C 
BRANCH  26  27
ATOM     27  C   UNL     1       2.710  -6.026   8.008  1.00  0.00    -0.000 C 
BRANCH  27  28
ATOM     28  C   UNL     1       2.586  -5.030   6.844  1.00  0.00    -0.000 C 
BRANCH  28  29
ATOM     29  C   UNL     1       1.233  -4.299   6.837  1.00  0.00    -0.003 C 
ATOM     30  C   UNL     1       0.297  -4.786   5.728  1.00  0.00     0.004 C 
ENDBRANCH  28  29
ENDBRANCH  27  28
ENDBRANCH  26  27
ENDBRANCH  25  26
ENDBRANCH  24  25
ENDBRANCH  23  24
ENDBRANCH  22  23
ENDBRANCH  21  22
ENDBRANCH  20  21
ENDBRANCH  19  20
ENDBRANCH  18  19
ENDBRANCH  17  18
ENDBRANCH   1  17
TORSDOF 26
ENDMDL
MODEL 9
REMARK VINA RESULT:    -4.189      2.883      5.533
REMARK INTER + INTRA:         -15.512
REMARK INTER:                 -11.155
REMARK INTRA:                  -4.357
REMARK UNBOUND:                -4.956
REMARK SMILES CCCCCCCCCCCCCCCCCCCCCCCCCCCC(=O)[O-]
REMARK SMILES IDX 15 1 16 2 17 3 18 4 19 5 20 6 21 7 22 8 23 9 24 10 25 11
REMARK SMILES IDX 26 12 27 13 28 14 29 15 30 16 14 17 13 18 12 19 11 20 10 21
REMARK SMILES IDX 9 22 8 23 7 24 6 25 5 26 4 27 3 28 2 29 1 30
REMARK H PARENT
REMARK Flexibility Score: inf
ROOT
ATOM      1  C   UNL     1       5.946 -12.386   6.165  1.00  0.00     0.000 C 
ENDROOT
BRANCH   1   2
ATOM      2  C   UNL     1       4.819 -13.427   6.029  1.00  0.00     0.000 C 
BRANCH   2   3
ATOM      3  C   UNL     1       4.362 -13.607   4.574  1.00  0.00     0.000 C 
BRANCH   3   4
ATOM      4  C   UNL     1       3.092 -12.800   4.254  1.00  0.00     0.000 C 
BRANCH   4   5
ATOM      5  C   UNL     1       3.403 -11.432   3.621  1.00  0.00     0.000 C 
BRANCH   5   6
ATOM      6  C   UNL     1       2.165 -10.633   3.171  1.00  0.00     0.000 C 
BRANCH   6   7
ATOM      7  C   UNL     1       1.745 -10.943   1.725  1.00  0.00     0.000 C 
BRANCH   7   8
ATOM      8  C   UNL     1       2.973 -11.173   0.836  1.00  0.00     0.000 C 
BRANCH   8   9
ATOM      9  C   UNL     1       2.900 -12.538   0.139  1.00  0.00     0.000 C 
BRANCH   9  10
ATOM     10  C   UNL     1       4.280 -13.196  -0.037  1.00  0.00     0.000 C 
BRANCH  10  11
ATOM     11  C   UNL     1       5.409 -12.489   0.742  1.00  0.00     0.000 C 
BRANCH  11  12
ATOM     12  C   UNL     1       6.723 -12.443  -0.056  1.00  0.00     0.006 C 
BRANCH  12  13
ATOM     13  C   UNL     1       7.912 -12.985   0.748  1.00  0.00     0.053 C 
BRANCH  13  14
ATOM     14  C   UNL     1       8.410 -14.287   0.195  1.00  0.00     0.041 C 
ATOM     15  O   UNL     1       7.598 -15.127  -0.276  1.00  0.00    -0.550 OA
ATOM     16  O   UNL     1       9.767 -14.581   0.224  1.00  0.00    -0.550 OA
ENDBRANCH  13  14
ENDBRANCH  12  13
ENDBRANCH  11  12
ENDBRANCH  10  11
ENDBRANCH   9  10
ENDBRANCH   8   9
ENDBRANCH   7   8
ENDBRANCH   6   7
ENDBRANCH   5   6
ENDBRANCH   4   5
ENDBRANCH   3   4
ENDBRANCH   2   3
ENDBRANCH   1   2
BRANCH   1  17
ATOM     17  C   UNL     1       5.678 -11.350   7.271  1.00  0.00     0.000 C 
BRANCH  17  18
ATOM     18  C   UNL     1       4.329 -10.616   7.170  1.00  0.00     0.000 C 
BRANCH  18  19
ATOM     19  C   UNL     1       4.442  -9.240   6.492  1.00  0.00     0.000 C 
BRANCH  19  20
ATOM     20  C   UNL     1       3.071  -8.617   6.183  1.00  0.00     0.000 C 
BRANCH  20  21
ATOM     21  C   UNL     1       1.889  -9.366   6.838  1.00  0.00     0.000 C 
BRANCH  21  22
ATOM     22  C   UNL     1       0.559  -9.108   6.109  1.00  0.00    -0.000 C 
BRANCH  22  23
ATOM     23  C   UNL     1       0.572  -7.813   5.280  1.00  0.00    -0.000 C 
BRANCH  23  24
ATOM     24  C   UNL     1      -0.632  -6.885   5.555  1.00  0.00    -0.000 C 
BRANCH  24  25
ATOM     25  C   UNL     1      -0.196  -5.445   5.879  1.00  0.00    -0.000 C 
BRANCH  25  26
ATOM     26  C   UNL     1       1.151  -5.399   6.632  1.00  0.00    -0.000 C 
BRANCH  26  27
ATOM     27  C   UNL     1       1.000  -5.152   8.143  1.00  0.00    -0.000 C 
BRANCH  27  28
ATOM     28  C   UNL     1       1.555  -6.308   8.990  1.00  0.00    -0.000 C 
BRANCH  28  29
ATOM     29  C   UNL     1       0.468  -7.320   9.391  1.00  0.00    -0.003 C 
ATOM     30  C   UNL     1      -0.932  -6.703   9.438  1.00  0.00     0.004 C 
ENDBRANCH  28  29
ENDBRANCH  27  28
ENDBRANCH  26  27
ENDBRANCH  25  26
ENDBRANCH  24  25
ENDBRANCH  23  24
ENDBRANCH  22  23
ENDBRANCH  21  22
ENDBRANCH  20  21
ENDBRANCH  19  20
ENDBRANCH  18  19
ENDBRANCH  17  18
ENDBRANCH   1  17
TORSDOF 26
ENDMDL
