MODEL 1
REMARK VINA RESULT:    -3.645      0.000      0.000
REMARK INTER + INTRA:          -7.161
REMARK INTER:                  -5.776
REMARK INTRA:                  -1.385
REMARK UNBOUND:                -1.385
REMARK SMILES CCCCCCCCCCCC(=O)[O-]
REMARK SMILES IDX 7 1 8 2 9 3 10 4 11 5 12 6 13 7 14 8 6 9 5 10 4 11 3 12 2 13
REMARK SMILES IDX 1 14
REMARK H PARENT
REMARK Flexibility Score: inf
ROOT
ATOM      1  C   UNL     1     188.561 185.521 168.451  1.00  0.00     0.000 C 
ENDROOT
BRANCH   1   2
ATOM      2  C   UNL     1     189.300 185.193 169.758  1.00  0.00     0.000 C 
BRANCH   2   3
ATOM      3  C   UNL     1     190.152 186.365 170.269  1.00  0.00     0.000 C 
BRANCH   3   4
ATOM      4  C   UNL     1     189.675 186.826 171.654  1.00  0.00     0.006 C 
BRANCH   4   5
ATOM      5  C   UNL     1     188.674 185.846 172.280  1.00  0.00     0.053 C 
BRANCH   5   6
ATOM      6  C   UNL     1     189.266 185.118 173.448  1.00  0.00     0.041 C 
ATOM      7  O   UNL     1     188.998 183.903 173.641  1.00  0.00    -0.550 OA
ATOM      8  O   UNL     1     190.139 185.774 174.306  1.00  0.00    -0.550 OA
ENDBRANCH   5   6
ENDBRANCH   4   5
ENDBRANCH   3   4
ENDBRANCH   2   3
ENDBRANCH   1   2
BRANCH   1   9
ATOM      9  C   UNL     1     187.280 184.687 168.273  1.00  0.00     0.000 C 
BRANCH   9  10
ATOM     10  C   UNL     1     186.004 185.477 168.611  1.00  0.00    -0.000 C 
BRANCH  10  11
ATOM     11  C   UNL     1     186.049 186.975 168.252  1.00  0.00    -0.000 C 
BRANCH  11  12
ATOM     12  C   UNL     1     185.603 187.905 169.400  1.00  0.00    -0.000 C 
BRANCH  12  13
ATOM     13  C   UNL     1     186.789 188.413 170.232  1.00  0.00    -0.003 C 
ATOM     14  C   UNL     1     187.788 189.171 169.363  1.00  0.00     0.004 C 
ENDBRANCH  12  13
ENDBRANCH  11  12
ENDBRANCH  10  11
ENDBRANCH   9  10
ENDBRANCH   1   9
TORSDOF 10
ENDMDL
MODEL 2
REMARK VINA RESULT:    -3.629      1.336      2.751
REMARK INTER + INTRA:          -7.135
REMARK INTER:                  -5.823
REMARK INTRA:                  -1.312
REMARK UNBOUND:                -1.385
REMARK SMILES CCCCCCCCCCCC(=O)[O-]
REMARK SMILES IDX 7 1 8 2 9 3 10 4 11 5 12 6 13 7 14 8 6 9 5 10 4 11 3 12 2 13
REMARK SMILES IDX 1 14
REMARK H PARENT
REMARK Flexibility Score: inf
ROOT
ATOM      1  C   UNL     1     187.449 188.354 170.414  1.00  0.00     0.000 C 
ENDROOT
BRANCH   1   2
ATOM      2  C   UNL     1     188.635 187.503 170.895  1.00  0.00     0.000 C 
BRANCH   2   3
ATOM      3  C   UNL     1     188.196 186.290 171.729  1.00  0.00     0.000 C 
BRANCH   3   4
ATOM      4  C   UNL     1     189.373 185.330 171.961  1.00  0.00     0.006 C 
BRANCH   4   5
ATOM      5  C   UNL     1     189.419 184.804 173.402  1.00  0.00     0.053 C 
BRANCH   5   6
ATOM      6  C   UNL     1     190.576 185.372 174.164  1.00  0.00     0.041 C 
ATOM      7  O   UNL     1     190.735 186.619 174.239  1.00  0.00    -0.550 OA
ATOM      8  O   UNL     1     191.460 184.525 174.819  1.00  0.00    -0.550 OA
ENDBRANCH   5   6
ENDBRANCH   4   5
ENDBRANCH   3   4
ENDBRANCH   2   3
ENDBRANCH   1   2
BRANCH   1   9
ATOM      9  C   UNL     1     186.114 187.589 170.462  1.00  0.00     0.000 C 
BRANCH   9  10
ATOM     10  C   UNL     1     185.319 187.698 169.150  1.00  0.00    -0.000 C 
BRANCH  10  11
ATOM     11  C   UNL     1     185.757 186.726 168.038  1.00  0.00    -0.000 C 
BRANCH  11  12
ATOM     12  C   UNL     1     186.179 185.335 168.555  1.00  0.00    -0.000 C 
BRANCH  12  13
ATOM     13  C   UNL     1     187.629 184.992 168.186  1.00  0.00    -0.003 C 
ATOM     14  C   UNL     1     188.293 186.141 167.433  1.00  0.00     0.004 C 
ENDBRANCH  12  13
ENDBRANCH  11  12
ENDBRANCH  10  11
ENDBRANCH   9  10
ENDBRANCH   1   9
TORSDOF 10
ENDMDL
MODEL 3
REMARK VINA RESULT:    -3.622      1.221      2.645
REMARK INTER + INTRA:          -7.124
REMARK INTER:                  -5.495
REMARK INTRA:                  -1.629
REMARK UNBOUND:                -1.385
REMARK SMILES CCCCCCCCCCCC(=O)[O-]
REMARK SMILES IDX 7 1 8 2 9 3 10 4 11 5 12 6 13 7 14 8 6 9 5 10 4 11 3 12 2 13
REMARK SMILES IDX 1 14
REMARK H PARENT
REMARK Flexibility Score: inf
ROOT
ATOM      1  C   UNL     1     186.991 188.606 169.385  1.00  0.00     0.000 C 
ENDROOT
BRANCH   1   2
ATOM      2  C   UNL     1     187.987 188.348 170.526  1.00  0.00     0.000 C 
BRANCH   2   3
ATOM      3  C   UNL     1     189.177 187.479 170.091  1.00  0.00     0.000 C 
BRANCH   3   4
ATOM      4  C   UNL     1     189.238 186.182 170.913  1.00  0.00     0.006 C 
BRANCH   4   5
ATOM      5  C   UNL     1     188.149 186.126 171.992  1.00  0.00     0.053 C 
BRANCH   5   6
ATOM      6  C   UNL     1     188.643 185.475 173.247  1.00  0.00     0.041 C 
ATOM      7  O   UNL     1     187.905 184.674 173.880  1.00  0.00    -0.550 OA
ATOM      8  O   UNL     1     189.931 185.728 173.700  1.00  0.00    -0.550 OA
ENDBRANCH   5   6
ENDBRANCH   4   5
ENDBRANCH   3   4
ENDBRANCH   2   3
ENDBRANCH   1   2
BRANCH   1   9
ATOM      9  C   UNL     1     185.691 187.798 169.541  1.00  0.00     0.000 C 
BRANCH   9  10
ATOM     10  C   UNL     1     185.531 186.714 168.461  1.00  0.00    -0.000 C 
BRANCH  10  11
ATOM     11  C   UNL     1     186.307 185.409 168.726  1.00  0.00    -0.000 C 
BRANCH  11  12
ATOM     12  C   UNL     1     187.417 185.123 167.694  1.00  0.00    -0.000 C 
BRANCH  12  13
ATOM     13  C   UNL     1     187.450 186.169 166.570  1.00  0.00    -0.003 C 
ATOM     14  C   UNL     1     188.827 186.818 166.461  1.00  0.00     0.004 C 
ENDBRANCH  12  13
ENDBRANCH  11  12
ENDBRANCH  10  11
ENDBRANCH   9  10
ENDBRANCH   1   9
TORSDOF 10
ENDMDL
MODEL 4
REMARK VINA RESULT:    -3.608      1.298      2.935
REMARK INTER + INTRA:          -7.103
REMARK INTER:                  -5.496
REMARK INTRA:                  -1.606
REMARK UNBOUND:                -1.385
REMARK SMILES CCCCCCCCCCCC(=O)[O-]
REMARK SMILES IDX 7 1 8 2 9 3 10 4 11 5 12 6 13 7 14 8 6 9 5 10 4 11 3 12 2 13
REMARK SMILES IDX 1 14
REMARK H PARENT
REMARK Flexibility Score: inf
ROOT
ATOM      1  C   UNL     1     185.052 187.355 169.869  1.00  0.00     0.000 C 
ENDROOT
BRANCH   1   2
ATOM      2  C   UNL     1     186.259 187.254 170.815  1.00  0.00     0.000 C 
BRANCH   2   3
ATOM      3  C   UNL     1     187.403 188.200 170.421  1.00  0.00     0.000 C 
BRANCH   3   4
ATOM      4  C   UNL     1     188.765 187.607 170.812  1.00  0.00     0.006 C 
BRANCH   4   5
ATOM      5  C   UNL     1     188.659 186.133 171.226  1.00  0.00     0.053 C 
BRANCH   5   6
ATOM      6  C   UNL     1     189.103 185.920 172.641  1.00  0.00     0.041 C 
ATOM      7  O   UNL     1     190.232 186.328 173.020  1.00  0.00    -0.550 OA
ATOM      8  O   UNL     1     188.255 185.299 173.548  1.00  0.00    -0.550 OA
ENDBRANCH   5   6
ENDBRANCH   4   5
ENDBRANCH   3   4
ENDBRANCH   2   3
ENDBRANCH   1   2
BRANCH   1   9
ATOM      9  C   UNL     1     185.342 186.770 168.476  1.00  0.00     0.000 C 
BRANCH   9  10
ATOM     10  C   UNL     1     186.030 185.396 168.538  1.00  0.00    -0.000 C 
BRANCH  10  11
ATOM     11  C   UNL     1     187.366 185.299 167.776  1.00  0.00    -0.000 C 
BRANCH  11  12
ATOM     12  C   UNL     1     187.717 186.567 166.969  1.00  0.00    -0.000 C 
BRANCH  12  13
ATOM     13  C   UNL     1     189.171 187.012 167.187  1.00  0.00    -0.003 C 
ATOM     14  C   UNL     1     190.022 185.867 167.728  1.00  0.00     0.004 C 
ENDBRANCH  12  13
ENDBRANCH  11  12
ENDBRANCH  10  11
ENDBRANCH   9  10
ENDBRANCH   1   9
TORSDOF 10
ENDMDL
MODEL 5
REMARK VINA RESULT:    -3.531      1.360      3.325
REMARK INTER + INTRA:          -6.980
REMARK INTER:                  -5.340
REMARK INTRA:                  -1.641
REMARK UNBOUND:                -1.385
REMARK SMILES CCCCCCCCCCCC(=O)[O-]
REMARK SMILES IDX 7 1 8 2 9 3 10 4 11 5 12 6 13 7 14 8 6 9 5 10 4 11 3 12 2 13
REMARK SMILES IDX 1 14
REMARK H PARENT
REMARK Flexibility Score: inf
ROOT
ATOM      1  C   UNL     1     188.074 189.065 168.924  1.00  0.00     0.000 C 
ENDROOT
BRANCH   1   2
ATOM      2  C   UNL     1     187.752 188.718 170.386  1.00  0.00     0.000 C 
BRANCH   2   3
ATOM      3  C   UNL     1     186.611 187.698 170.518  1.00  0.00     0.000 C 
BRANCH   3   4
ATOM      4  C   UNL     1     187.052 186.487 171.354  1.00  0.00     0.006 C 
BRANCH   4   5
ATOM      5  C   UNL     1     188.547 186.531 171.697  1.00  0.00     0.053 C 
BRANCH   5   6
ATOM      6  C   UNL     1     188.909 185.515 172.736  1.00  0.00     0.041 C 
ATOM      7  O   UNL     1     190.006 184.901 172.668  1.00  0.00    -0.550 OA
ATOM      8  O   UNL     1     188.048 185.269 173.798  1.00  0.00    -0.550 OA
ENDBRANCH   5   6
ENDBRANCH   4   5
ENDBRANCH   3   4
ENDBRANCH   2   3
ENDBRANCH   1   2
BRANCH   1   9
ATOM      9  C   UNL     1     189.535 188.758 168.552  1.00  0.00     0.000 C 
BRANCH   9  10
ATOM     10  C   UNL     1     189.802 187.254 168.378  1.00  0.00    -0.000 C 
BRANCH  10  11
ATOM     11  C   UNL     1     188.812 186.518 167.453  1.00  0.00    -0.000 C 
BRANCH  11  12
ATOM     12  C   UNL     1     188.192 185.253 168.082  1.00  0.00    -0.000 C 
BRANCH  12  13
ATOM     13  C   UNL     1     186.697 185.116 167.760  1.00  0.00    -0.003 C 
ATOM     14  C   UNL     1     186.144 186.401 167.151  1.00  0.00     0.004 C 
ENDBRANCH  12  13
ENDBRANCH  11  12
ENDBRANCH  10  11
ENDBRANCH   9  10
ENDBRANCH   1   9
TORSDOF 10
ENDMDL
MODEL 6
REMARK VINA RESULT:    -3.528      3.401      5.000
REMARK INTER + INTRA:          -6.976
REMARK INTER:                  -5.774
REMARK INTRA:                  -1.202
REMARK UNBOUND:                -1.385
REMARK SMILES CCCCCCCCCCCC(=O)[O-]
REMARK SMILES IDX 7 1 8 2 9 3 10 4 11 5 12 6 13 7 14 8 6 9 5 10 4 11 3 12 2 13
REMARK SMILES IDX 1 14
REMARK H PARENT
REMARK Flexibility Score: inf
ROOT
ATOM      1  C   UNL     1     187.852 185.002 168.118  1.00  0.00     0.000 C 
ENDROOT
BRANCH   1   2
ATOM      2  C   UNL     1     186.332 185.118 168.311  1.00  0.00     0.000 C 
BRANCH   2   3
ATOM      3  C   UNL     1     185.834 186.569 168.253  1.00  0.00     0.000 C 
BRANCH   3   4
ATOM      4  C   UNL     1     185.059 186.934 169.528  1.00  0.00     0.006 C 
BRANCH   4   5
ATOM      5  C   UNL     1     183.855 187.840 169.237  1.00  0.00     0.053 C 
BRANCH   5   6
ATOM      6  C   UNL     1     182.835 187.778 170.331  1.00  0.00     0.041 C 
ATOM      7  O   UNL     1     182.818 186.803 171.128  1.00  0.00    -0.550 OA
ATOM      8  O   UNL     1     181.922 188.812 170.491  1.00  0.00    -0.550 OA
ENDBRANCH   5   6
ENDBRANCH   4   5
ENDBRANCH   3   4
ENDBRANCH   2   3
ENDBRANCH   1   2
BRANCH   1   9
ATOM      9  C   UNL     1     188.631 185.183 169.433  1.00  0.00     0.000 C 
BRANCH   9  10
ATOM     10  C   UNL     1     189.726 186.258 169.334  1.00  0.00    -0.000 C 
BRANCH  10  11
ATOM     11  C   UNL     1     189.647 187.157 168.085  1.00  0.00    -0.000 C 
BRANCH  11  12
ATOM     12  C   UNL     1     189.115 188.577 168.370  1.00  0.00    -0.000 C 
BRANCH  12  13
ATOM     13  C   UNL     1     188.901 188.828 169.870  1.00  0.00    -0.003 C 
ATOM     14  C   UNL     1     187.541 189.468 170.134  1.00  0.00     0.004 C 
ENDBRANCH  12  13
ENDBRANCH  11  12
ENDBRANCH  10  11
ENDBRANCH   9  10
ENDBRANCH   1   9
TORSDOF 10
ENDMDL
MODEL 7
REMARK VINA RESULT:    -3.526      1.072      2.667
REMARK INTER + INTRA:          -6.973
REMARK INTER:                  -5.511
REMARK INTRA:                  -1.461
REMARK UNBOUND:                -1.385
REMARK SMILES CCCCCCCCCCCC(=O)[O-]
REMARK SMILES IDX 7 1 8 2 9 3 10 4 11 5 12 6 13 7 14 8 6 9 5 10 4 11 3 12 2 13
REMARK SMILES IDX 1 14
REMARK H PARENT
REMARK Flexibility Score: inf
ROOT
ATOM      1  C   UNL     1     188.586 188.226 170.429  1.00  0.00     0.000 C 
ENDROOT
BRANCH   1   2
ATOM      2  C   UNL     1     189.361 186.979 169.976  1.00  0.00     0.000 C 
BRANCH   2   3
ATOM      3  C   UNL     1     189.124 185.767 170.889  1.00  0.00     0.000 C 
BRANCH   3   4
ATOM      4  C   UNL     1     188.223 186.143 172.076  1.00  0.00     0.006 C 
BRANCH   4   5
ATOM      5  C   UNL     1     188.570 185.350 173.343  1.00  0.00     0.053 C 
BRANCH   5   6
ATOM      6  C   UNL     1     190.041 185.367 173.624  1.00  0.00     0.041 C 
ATOM      7  O   UNL     1     190.618 186.446 173.921  1.00  0.00    -0.550 OA
ATOM      8  O   UNL     1     190.769 184.185 173.589  1.00  0.00    -0.550 OA
ENDBRANCH   5   6
ENDBRANCH   4   5
ENDBRANCH   3   4
ENDBRANCH   2   3
ENDBRANCH   1   2
BRANCH   1   9
ATOM      9  C   UNL     1     187.554 188.691 169.386  1.00  0.00     0.000 C 
BRANCH   9  10
ATOM     10  C   UNL     1     186.176 188.037 169.579  1.00  0.00    -0.000 C 
BRANCH  10  11
ATOM     11  C   UNL     1     185.751 187.068 168.459  1.00  0.00    -0.000 C 
BRANCH  11  12
ATOM     12  C   UNL     1     186.016 185.583 168.784  1.00  0.00    -0.000 C 
BRANCH  12  13
ATOM     13  C   UNL     1     187.038 184.951 167.827  1.00  0.00    -0.003 C 
ATOM     14  C   UNL     1     187.504 185.956 166.778  1.00  0.00     0.004 C 
ENDBRANCH  12  13
ENDBRANCH  11  12
ENDBRANCH  10  11
ENDBRANCH   9  10
ENDBRANCH   1   9
TORSDOF 10
ENDMDL
MODEL 8
REMARK VINA RESULT:    -3.419      1.179      2.152
REMARK INTER + INTRA:          -6.803
REMARK INTER:                  -5.230
REMARK INTRA:                  -1.574
REMARK UNBOUND:                -1.385
REMARK SMILES CCCCCCCCCCCC(=O)[O-]
REMARK SMILES IDX 7 1 8 2 9 3 10 4 11 5 12 6 13 7 14 8 6 9 5 10 4 11 3 12 2 13
REMARK SMILES IDX 1 14
REMARK H PARENT
REMARK Flexibility Score: inf
ROOT
ATOM      1  C   UNL     1     187.129 185.361 168.835  1.00  0.00     0.000 C 
ENDROOT
BRANCH   1   2
ATOM      2  C   UNL     1     188.321 185.184 167.881  1.00  0.00     0.000 C 
BRANCH   2   3
ATOM      3  C   UNL     1     189.662 185.062 168.621  1.00  0.00     0.000 C 
BRANCH   3   4
ATOM      4  C   UNL     1     189.439 184.799 170.119  1.00  0.00     0.006 C 
BRANCH   4   5
ATOM      5  C   UNL     1     190.433 185.569 170.998  1.00  0.00     0.053 C 
BRANCH   5   6
ATOM      6  C   UNL     1     189.790 186.072 172.253  1.00  0.00     0.041 C 
ATOM      7  O   UNL     1     190.460 186.736 173.088  1.00  0.00    -0.550 OA
ATOM      8  O   UNL     1     188.441 185.836 172.486  1.00  0.00    -0.550 OA
ENDBRANCH   5   6
ENDBRANCH   4   5
ENDBRANCH   3   4
ENDBRANCH   2   3
ENDBRANCH   1   2
BRANCH   1   9
ATOM      9  C   UNL     1     185.987 186.179 168.207  1.00  0.00     0.000 C 
BRANCH   9  10
ATOM     10  C   UNL     1     185.446 187.268 169.149  1.00  0.00    -0.000 C 
BRANCH  10  11
ATOM     11  C   UNL     1     186.357 187.608 170.344  1.00  0.00    -0.000 C 
BRANCH  11  12
ATOM     12  C   UNL     1     187.175 188.903 170.156  1.00  0.00    -0.000 C 
BRANCH  12  13
ATOM     13  C   UNL     1     188.668 188.620 169.931  1.00  0.00    -0.003 C 
ATOM     14  C   UNL     1     189.036 188.747 168.456  1.00  0.00     0.004 C 
ENDBRANCH  12  13
ENDBRANCH  11  12
ENDBRANCH  10  11
ENDBRANCH   9  10
ENDBRANCH   1   9
TORSDOF 10
ENDMDL
MODEL 9
REMARK VINA RESULT:    -3.364      3.106      4.870
REMARK INTER + INTRA:          -6.715
REMARK INTER:                  -5.191
REMARK INTRA:                  -1.524
REMARK UNBOUND:                -1.385
REMARK SMILES CCCCCCCCCCCC(=O)[O-]
REMARK SMILES IDX 7 1 8 2 9 3 10 4 11 5 12 6 13 7 14 8 6 9 5 10 4 11 3 12 2 13
REMARK SMILES IDX 1 14
REMARK H PARENT
REMARK Flexibility Score: inf
ROOT
ATOM      1  C   UNL     1     189.258 186.974 166.977  1.00  0.00     0.000 C 
ENDROOT
BRANCH   1   2
ATOM      2  C   UNL     1     187.803 186.480 166.941  1.00  0.00     0.000 C 
BRANCH   2   3
ATOM      3  C   UNL     1     187.528 185.366 167.963  1.00  0.00     0.000 C 
BRANCH   3   4
ATOM      4  C   UNL     1     186.154 185.554 168.622  1.00  0.00     0.006 C 
BRANCH   4   5
ATOM      5  C   UNL     1     185.499 186.885 168.231  1.00  0.00     0.053 C 
BRANCH   5   6
ATOM      6  C   UNL     1     184.555 187.372 169.288  1.00  0.00     0.041 C 
ATOM      7  O   UNL     1     184.648 186.942 170.468  1.00  0.00    -0.550 OA
ATOM      8  O   UNL     1     183.595 188.326 168.977  1.00  0.00    -0.550 OA
ENDBRANCH   5   6
ENDBRANCH   4   5
ENDBRANCH   3   4
ENDBRANCH   2   3
ENDBRANCH   1   2
BRANCH   1   9
ATOM      9  C   UNL     1     189.378 188.421 167.486  1.00  0.00     0.000 C 
BRANCH   9  10
ATOM     10  C   UNL     1     189.610 188.501 169.004  1.00  0.00    -0.000 C 
BRANCH  10  11
ATOM     11  C   UNL     1     188.342 188.740 169.847  1.00  0.00    -0.000 C 
BRANCH  11  12
ATOM     12  C   UNL     1     188.112 187.678 170.943  1.00  0.00    -0.000 C 
BRANCH  12  13
ATOM     13  C   UNL     1     189.220 186.614 170.964  1.00  0.00    -0.003 C 
ATOM     14  C   UNL     1     189.838 186.490 172.353  1.00  0.00     0.004 C 
ENDBRANCH  12  13
ENDBRANCH  11  12
ENDBRANCH  10  11
ENDBRANCH   9  10
ENDBRANCH   1   9
TORSDOF 10
ENDMDL
