MODEL 1
REMARK VINA RESULT:    -5.931      0.000      0.000
REMARK INTER + INTRA:          -7.235
REMARK INTER:                  -6.971
REMARK INTRA:                  -0.263
REMARK UNBOUND:                -0.263
REMARK SMILES O=c1cc(-c2ccc(O)c(O)c2)oc2cc(O)cc(O)c12
REMARK SMILES IDX 4 1 3 2 2 3 1 4 21 5 19 6 18 7 16 8 15 9 14 10 13 11 5 12
REMARK SMILES IDX 6 13 7 14 8 15 12 16 10 17 9 18 11 20 20 22 17 24
REMARK H PARENT 9 19 11 21 20 23 17 25
REMARK Flexibility Score: inf
ROOT
ATOM      1  C   UNL     1      37.025 -33.888   3.324  1.00  0.00     0.138 A 
ATOM      2  C   UNL     1      37.106 -35.238   2.953  1.00  0.00     0.100 A 
ATOM      3  C   UNL     1      35.967 -35.892   2.480  1.00  0.00     0.197 A 
ATOM      4  O   UNL     1      36.056 -37.119   2.214  1.00  0.00    -0.289 OA
ATOM      5  C   UNL     1      34.751 -35.182   2.348  1.00  0.00     0.107 A 
ATOM      6  C   UNL     1      33.538 -35.734   1.839  1.00  0.00     0.134 A 
ATOM      7  C   UNL     1      32.366 -34.969   1.864  1.00  0.00     0.093 A 
ATOM      8  C   UNL     1      32.378 -33.649   2.325  1.00  0.00     0.123 A 
ATOM      9  C   UNL     1      33.568 -33.082   2.774  1.00  0.00     0.094 A 
ATOM     10  C   UNL     1      34.746 -33.832   2.794  1.00  0.00     0.146 A 
ATOM     11  O   UNL     1      35.857 -33.259   3.243  1.00  0.00    -0.456 OA
ENDROOT
BRANCH   1  12
ATOM     12  C   UNL     1      38.204 -33.143   3.833  1.00  0.00     0.021 A 
ATOM     13  C   UNL     1      38.333 -32.912   5.214  1.00  0.00     0.016 A 
ATOM     14  C   UNL     1      39.430 -32.207   5.717  1.00  0.00     0.051 A 
ATOM     15  C   UNL     1      40.410 -31.713   4.852  1.00  0.00     0.157 A 
ATOM     16  C   UNL     1      39.188 -32.632   2.964  1.00  0.00     0.062 A 
ATOM     17  C   UNL     1      40.288 -31.922   3.469  1.00  0.00     0.158 A 
BRANCH  15  18
ATOM     18  O   UNL     1      41.494 -31.015   5.384  1.00  0.00    -0.504 OA
ATOM     19  H   UNL     1      42.434 -31.121   5.020  1.00  0.00     0.293 HD
ENDBRANCH  15  18
BRANCH  17  20
ATOM     20  O   UNL     1      41.258 -31.422   2.600  1.00  0.00    -0.504 OA
ATOM     21  H   UNL     1      42.246 -31.573   2.763  1.00  0.00     0.293 HD
ENDBRANCH  17  20
ENDBRANCH   1  12
BRANCH   6  22
ATOM     22  O   UNL     1      33.437 -37.011   1.278  1.00  0.00    -0.507 OA
ATOM     23  H   UNL     1      32.593 -37.408   0.895  1.00  0.00     0.293 HD
ENDBRANCH   6  22
BRANCH   8  24
ATOM     24  O   UNL     1      31.209 -32.889   2.332  1.00  0.00    -0.508 OA
ATOM     25  H   UNL     1      31.042 -32.181   3.036  1.00  0.00     0.293 HD
ENDBRANCH   8  24
TORSDOF 5
ENDMDL
MODEL 2
REMARK VINA RESULT:    -5.923      1.761      2.407
REMARK INTER + INTRA:          -7.225
REMARK INTER:                  -6.942
REMARK INTRA:                  -0.284
REMARK UNBOUND:                -0.263
REMARK SMILES O=c1cc(-c2ccc(O)c(O)c2)oc2cc(O)cc(O)c12
REMARK SMILES IDX 4 1 3 2 2 3 1 4 21 5 19 6 18 7 16 8 15 9 14 10 13 11 5 12
REMARK SMILES IDX 6 13 7 14 8 15 12 16 10 17 9 18 11 20 20 22 17 24
REMARK H PARENT 9 19 11 21 20 23 17 25
REMARK Flexibility Score: inf
ROOT
ATOM      1  C   UNL     1      36.549 -32.754   3.708  1.00  0.00     0.138 A 
ATOM      2  C   UNL     1      36.006 -32.341   2.484  1.00  0.00     0.100 A 
ATOM      3  C   UNL     1      34.735 -32.780   2.111  1.00  0.00     0.197 A 
ATOM      4  O   UNL     1      34.299 -32.443   0.979  1.00  0.00    -0.289 OA
ATOM      5  C   UNL     1      33.992 -33.611   2.983  1.00  0.00     0.107 A 
ATOM      6  C   UNL     1      32.672 -34.086   2.726  1.00  0.00     0.134 A 
ATOM      7  C   UNL     1      32.082 -34.998   3.609  1.00  0.00     0.093 A 
ATOM      8  C   UNL     1      32.742 -35.405   4.772  1.00  0.00     0.123 A 
ATOM      9  C   UNL     1      34.010 -34.906   5.060  1.00  0.00     0.094 A 
ATOM     10  C   UNL     1      34.639 -34.021   4.181  1.00  0.00     0.146 A 
ATOM     11  O   UNL     1      35.854 -33.579   4.484  1.00  0.00    -0.456 OA
ENDROOT
BRANCH   1  12
ATOM     12  C   UNL     1      37.896 -32.317   4.156  1.00  0.00     0.021 A 
ATOM     13  C   UNL     1      38.125 -32.071   5.521  1.00  0.00     0.016 A 
ATOM     14  C   UNL     1      39.381 -31.651   5.966  1.00  0.00     0.051 A 
ATOM     15  C   UNL     1      40.426 -31.461   5.057  1.00  0.00     0.157 A 
ATOM     16  C   UNL     1      38.948 -32.111   3.242  1.00  0.00     0.062 A 
ATOM     17  C   UNL     1      40.210 -31.688   3.689  1.00  0.00     0.158 A 
BRANCH  15  18
ATOM     18  O   UNL     1      41.669 -31.045   5.533  1.00  0.00    -0.504 OA
ATOM     19  H   UNL     1      41.966 -30.076   5.490  1.00  0.00     0.293 HD
ENDBRANCH  15  18
BRANCH  17  20
ATOM     20  O   UNL     1      41.245 -31.489   2.777  1.00  0.00    -0.504 OA
ATOM     21  H   UNL     1      41.593 -32.243   2.195  1.00  0.00     0.293 HD
ENDBRANCH  17  20
ENDBRANCH   1  12
BRANCH   6  22
ATOM     22  O   UNL     1      31.893 -33.677   1.639  1.00  0.00    -0.507 OA
ATOM     23  H   UNL     1      31.095 -33.064   1.700  1.00  0.00     0.293 HD
ENDBRANCH   6  22
BRANCH   8  24
ATOM     24  O   UNL     1      32.140 -36.301   5.653  1.00  0.00    -0.508 OA
ATOM     25  H   UNL     1      31.135 -36.420   5.685  1.00  0.00     0.293 HD
ENDBRANCH   8  24
TORSDOF 5
ENDMDL
MODEL 3
REMARK VINA RESULT:    -5.849     12.259     15.118
REMARK INTER + INTRA:          -7.138
REMARK INTER:                  -6.833
REMARK INTRA:                  -0.305
REMARK UNBOUND:                -0.263
REMARK SMILES O=c1cc(-c2ccc(O)c(O)c2)oc2cc(O)cc(O)c12
REMARK SMILES IDX 4 1 3 2 2 3 1 4 21 5 19 6 18 7 16 8 15 9 14 10 13 11 5 12
REMARK SMILES IDX 6 13 7 14 8 15 12 16 10 17 9 18 11 20 20 22 17 24
REMARK H PARENT 9 19 11 21 20 23 17 25
REMARK Flexibility Score: inf
ROOT
ATOM      1  C   UNL     1      26.623 -22.636   0.888  1.00  0.00     0.138 A 
ATOM      2  C   UNL     1      26.470 -22.286  -0.461  1.00  0.00     0.100 A 
ATOM      3  C   UNL     1      26.464 -23.286  -1.435  1.00  0.00     0.197 A 
ATOM      4  O   UNL     1      26.388 -22.937  -2.642  1.00  0.00    -0.289 OA
ATOM      5  C   UNL     1      26.579 -24.643  -1.053  1.00  0.00     0.107 A 
ATOM      6  C   UNL     1      26.544 -25.748  -1.955  1.00  0.00     0.134 A 
ATOM      7  C   UNL     1      26.785 -27.040  -1.474  1.00  0.00     0.093 A 
ATOM      8  C   UNL     1      26.999 -27.274  -0.113  1.00  0.00     0.123 A 
ATOM      9  C   UNL     1      26.982 -26.208   0.784  1.00  0.00     0.094 A 
ATOM     10  C   UNL     1      26.779 -24.903   0.330  1.00  0.00     0.146 A 
ATOM     11  O   UNL     1      26.785 -23.914   1.216  1.00  0.00    -0.456 OA
ENDROOT
BRANCH   1  12
ATOM     12  C   UNL     1      26.636 -21.615   1.966  1.00  0.00     0.021 A 
ATOM     13  C   UNL     1      25.890 -20.434   1.809  1.00  0.00     0.016 A 
ATOM     14  C   UNL     1      25.891 -19.454   2.805  1.00  0.00     0.051 A 
ATOM     15  C   UNL     1      26.644 -19.631   3.969  1.00  0.00     0.157 A 
ATOM     16  C   UNL     1      27.403 -21.783   3.135  1.00  0.00     0.062 A 
ATOM     17  C   UNL     1      27.406 -20.798   4.135  1.00  0.00     0.158 A 
BRANCH  15  18
ATOM     18  O   UNL     1      26.624 -18.637   4.947  1.00  0.00    -0.504 OA
ATOM     19  H   UNL     1      27.469 -18.308   5.399  1.00  0.00     0.293 HD
ENDBRANCH  15  18
BRANCH  17  20
ATOM     20  O   UNL     1      28.168 -20.976   5.290  1.00  0.00    -0.504 OA
ATOM     21  H   UNL     1      27.907 -21.650   6.000  1.00  0.00     0.293 HD
ENDBRANCH  17  20
ENDBRANCH   1  12
BRANCH   6  22
ATOM     22  O   UNL     1      26.254 -25.633  -3.318  1.00  0.00    -0.507 OA
ATOM     23  H   UNL     1      26.337 -24.785  -3.857  1.00  0.00     0.293 HD
ENDBRANCH   6  22
BRANCH   8  24
ATOM     24  O   UNL     1      27.223 -28.566   0.359  1.00  0.00    -0.508 OA
ATOM     25  H   UNL     1      26.904 -28.858   1.275  1.00  0.00     0.293 HD
ENDBRANCH   8  24
TORSDOF 5
ENDMDL
MODEL 4
REMARK VINA RESULT:    -5.748     10.690     12.527
REMARK INTER + INTRA:          -7.019
REMARK INTER:                  -6.702
REMARK INTRA:                  -0.317
REMARK UNBOUND:                -0.263
REMARK SMILES O=c1cc(-c2ccc(O)c(O)c2)oc2cc(O)cc(O)c12
REMARK SMILES IDX 4 1 3 2 2 3 1 4 21 5 19 6 18 7 16 8 15 9 14 10 13 11 5 12
REMARK SMILES IDX 6 13 7 14 8 15 12 16 10 17 9 18 11 20 20 22 17 24
REMARK H PARENT 9 19 11 21 20 23 17 25
REMARK Flexibility Score: inf
ROOT
ATOM      1  C   UNL     1      29.646 -23.638   1.619  1.00  0.00     0.138 A 
ATOM      2  C   UNL     1      29.130 -22.527   0.938  1.00  0.00     0.100 A 
ATOM      3  C   UNL     1      28.293 -22.719  -0.162  1.00  0.00     0.197 A 
ATOM      4  O   UNL     1      27.896 -21.703  -0.790  1.00  0.00    -0.289 OA
ATOM      5  C   UNL     1      27.945 -24.031  -0.561  1.00  0.00     0.107 A 
ATOM      6  C   UNL     1      27.068 -24.347  -1.641  1.00  0.00     0.134 A 
ATOM      7  C   UNL     1      26.890 -25.683  -2.019  1.00  0.00     0.093 A 
ATOM      8  C   UNL     1      27.511 -26.719  -1.315  1.00  0.00     0.123 A 
ATOM      9  C   UNL     1      28.328 -26.425  -0.226  1.00  0.00     0.094 A 
ATOM     10  C   UNL     1      28.552 -25.099   0.153  1.00  0.00     0.146 A 
ATOM     11  O   UNL     1      29.348 -24.860   1.189  1.00  0.00    -0.456 OA
ENDROOT
BRANCH   1  12
ATOM     12  C   UNL     1      30.540 -23.492   2.795  1.00  0.00     0.021 A 
ATOM     13  C   UNL     1      31.014 -22.218   3.149  1.00  0.00     0.016 A 
ATOM     14  C   UNL     1      31.863 -22.055   4.247  1.00  0.00     0.051 A 
ATOM     15  C   UNL     1      32.260 -23.160   5.004  1.00  0.00     0.157 A 
ATOM     16  C   UNL     1      30.953 -24.605   3.553  1.00  0.00     0.062 A 
ATOM     17  C   UNL     1      31.807 -24.442   4.655  1.00  0.00     0.158 A 
BRANCH  15  18
ATOM     18  O   UNL     1      33.105 -22.966   6.096  1.00  0.00    -0.504 OA
ATOM     19  H   UNL     1      33.918 -23.548   6.258  1.00  0.00     0.293 HD
ENDBRANCH  15  18
BRANCH  17  20
ATOM     20  O   UNL     1      32.208 -25.551   5.400  1.00  0.00    -0.504 OA
ATOM     21  H   UNL     1      31.956 -26.494   5.127  1.00  0.00     0.293 HD
ENDBRANCH  17  20
ENDBRANCH   1  12
BRANCH   6  22
ATOM     22  O   UNL     1      26.334 -23.394  -2.354  1.00  0.00    -0.507 OA
ATOM     23  H   UNL     1      25.938 -22.556  -1.958  1.00  0.00     0.293 HD
ENDBRANCH   6  22
BRANCH   8  24
ATOM     24  O   UNL     1      27.316 -28.048  -1.689  1.00  0.00    -0.508 OA
ATOM     25  H   UNL     1      27.483 -28.361  -2.637  1.00  0.00     0.293 HD
ENDBRANCH   8  24
TORSDOF 5
ENDMDL
MODEL 5
REMARK VINA RESULT:    -5.721     10.892     14.169
REMARK INTER + INTRA:          -6.988
REMARK INTER:                  -6.675
REMARK INTRA:                  -0.312
REMARK UNBOUND:                -0.263
REMARK SMILES O=c1cc(-c2ccc(O)c(O)c2)oc2cc(O)cc(O)c12
REMARK SMILES IDX 4 1 3 2 2 3 1 4 21 5 19 6 18 7 16 8 15 9 14 10 13 11 5 12
REMARK SMILES IDX 6 13 7 14 8 15 12 16 10 17 9 18 11 20 20 22 17 24
REMARK H PARENT 9 19 11 21 20 23 17 25
REMARK Flexibility Score: inf
ROOT
ATOM      1  C   UNL     1      28.997 -23.426   1.875  1.00  0.00     0.138 A 
ATOM      2  C   UNL     1      28.419 -22.295   2.468  1.00  0.00     0.100 A 
ATOM      3  C   UNL     1      28.959 -21.785   3.650  1.00  0.00     0.197 A 
ATOM      4  O   UNL     1      28.381 -20.807   4.192  1.00  0.00    -0.289 OA
ATOM      5  C   UNL     1      30.102 -22.392   4.222  1.00  0.00     0.107 A 
ATOM      6  C   UNL     1      30.761 -21.935   5.401  1.00  0.00     0.134 A 
ATOM      7  C   UNL     1      31.813 -22.685   5.940  1.00  0.00     0.093 A 
ATOM      8  C   UNL     1      32.269 -23.845   5.306  1.00  0.00     0.123 A 
ATOM      9  C   UNL     1      31.666 -24.271   4.125  1.00  0.00     0.094 A 
ATOM     10  C   UNL     1      30.592 -23.563   3.582  1.00  0.00     0.146 A 
ATOM     11  O   UNL     1      30.036 -24.011   2.462  1.00  0.00    -0.456 OA
ENDROOT
BRANCH   1  12
ATOM     12  C   UNL     1      28.465 -24.010   0.618  1.00  0.00     0.021 A 
ATOM     13  C   UNL     1      27.654 -23.225  -0.221  1.00  0.00     0.016 A 
ATOM     14  C   UNL     1      27.135 -23.754  -1.405  1.00  0.00     0.051 A 
ATOM     15  C   UNL     1      27.407 -25.076  -1.768  1.00  0.00     0.157 A 
ATOM     16  C   UNL     1      28.726 -25.345   0.254  1.00  0.00     0.062 A 
ATOM     17  C   UNL     1      28.203 -25.877  -0.935  1.00  0.00     0.158 A 
BRANCH  15  18
ATOM     18  O   UNL     1      26.877 -25.574  -2.958  1.00  0.00    -0.504 OA
ATOM     19  H   UNL     1      27.008 -25.102  -3.846  1.00  0.00     0.293 HD
ENDBRANCH  15  18
BRANCH  17  20
ATOM     20  O   UNL     1      28.470 -27.200  -1.287  1.00  0.00    -0.504 OA
ATOM     21  H   UNL     1      27.867 -27.714  -1.920  1.00  0.00     0.293 HD
ENDBRANCH  17  20
ENDBRANCH   1  12
BRANCH   6  22
ATOM     22  O   UNL     1      30.441 -20.745   6.063  1.00  0.00    -0.507 OA
ATOM     23  H   UNL     1      29.744 -20.656   6.786  1.00  0.00     0.293 HD
ENDBRANCH   6  22
BRANCH   8  24
ATOM     24  O   UNL     1      33.327 -24.577   5.841  1.00  0.00    -0.508 OA
ATOM     25  H   UNL     1      33.230 -25.092   6.708  1.00  0.00     0.293 HD
ENDBRANCH   8  24
TORSDOF 5
ENDMDL
MODEL 6
REMARK VINA RESULT:    -5.680     12.095     14.902
REMARK INTER + INTRA:          -6.939
REMARK INTER:                  -6.658
REMARK INTRA:                  -0.281
REMARK UNBOUND:                -0.263
REMARK SMILES O=c1cc(-c2ccc(O)c(O)c2)oc2cc(O)cc(O)c12
REMARK SMILES IDX 4 1 3 2 2 3 1 4 21 5 19 6 18 7 16 8 15 9 14 10 13 11 5 12
REMARK SMILES IDX 6 13 7 14 8 15 12 16 10 17 9 18 11 20 20 22 17 24
REMARK H PARENT 9 19 11 21 20 23 17 25
REMARK Flexibility Score: inf
ROOT
ATOM      1  C   UNL     1      28.381 -23.525   1.135  1.00  0.00     0.138 A 
ATOM      2  C   UNL     1      29.687 -23.725   1.602  1.00  0.00     0.100 A 
ATOM      3  C   UNL     1      30.138 -23.009   2.712  1.00  0.00     0.197 A 
ATOM      4  O   UNL     1      31.335 -23.164   3.071  1.00  0.00    -0.289 OA
ATOM      5  C   UNL     1      29.266 -22.115   3.376  1.00  0.00     0.107 A 
ATOM      6  C   UNL     1      29.605 -21.363   4.541  1.00  0.00     0.134 A 
ATOM      7  C   UNL     1      28.699 -20.421   5.042  1.00  0.00     0.093 A 
ATOM      8  C   UNL     1      27.442 -20.246   4.455  1.00  0.00     0.123 A 
ATOM      9  C   UNL     1      27.082 -21.013   3.349  1.00  0.00     0.094 A 
ATOM     10  C   UNL     1      27.977 -21.936   2.805  1.00  0.00     0.146 A 
ATOM     11  O   UNL     1      27.600 -22.637   1.742  1.00  0.00    -0.456 OA
ENDROOT
BRANCH   1  12
ATOM     12  C   UNL     1      27.848 -24.259  -0.041  1.00  0.00     0.021 A 
ATOM     13  C   UNL     1      27.042 -23.581  -0.972  1.00  0.00     0.016 A 
ATOM     14  C   UNL     1      26.522 -24.251  -2.083  1.00  0.00     0.051 A 
ATOM     15  C   UNL     1      26.789 -25.609  -2.278  1.00  0.00     0.157 A 
ATOM     16  C   UNL     1      28.104 -25.630  -0.235  1.00  0.00     0.062 A 
ATOM     17  C   UNL     1      27.580 -26.304  -1.350  1.00  0.00     0.158 A 
BRANCH  15  18
ATOM     18  O   UNL     1      26.259 -26.250  -3.397  1.00  0.00    -0.504 OA
ATOM     19  H   UNL     1      25.922 -27.205  -3.362  1.00  0.00     0.293 HD
ENDBRANCH  15  18
BRANCH  17  20
ATOM     20  O   UNL     1      27.841 -27.662  -1.533  1.00  0.00    -0.504 OA
ATOM     21  H   UNL     1      28.752 -28.060  -1.332  1.00  0.00     0.293 HD
ENDBRANCH  17  20
ENDBRANCH   1  12
BRANCH   6  22
ATOM     22  O   UNL     1      30.797 -21.522   5.253  1.00  0.00    -0.507 OA
ATOM     23  H   UNL     1      30.864 -21.870   6.197  1.00  0.00     0.293 HD
ENDBRANCH   6  22
BRANCH   8  24
ATOM     24  O   UNL     1      26.541 -19.316   4.970  1.00  0.00    -0.508 OA
ATOM     25  H   UNL     1      26.841 -18.395   5.265  1.00  0.00     0.293 HD
ENDBRANCH   8  24
TORSDOF 5
ENDMDL
MODEL 7
REMARK VINA RESULT:    -5.608     10.264     13.468
REMARK INTER + INTRA:          -6.854
REMARK INTER:                  -6.568
REMARK INTRA:                  -0.286
REMARK UNBOUND:                -0.263
REMARK SMILES O=c1cc(-c2ccc(O)c(O)c2)oc2cc(O)cc(O)c12
REMARK SMILES IDX 4 1 3 2 2 3 1 4 21 5 19 6 18 7 16 8 15 9 14 10 13 11 5 12
REMARK SMILES IDX 6 13 7 14 8 15 12 16 10 17 9 18 11 20 20 22 17 24
REMARK H PARENT 9 19 11 21 20 23 17 25
REMARK Flexibility Score: inf
ROOT
ATOM      1  C   UNL     1      29.568 -24.143   1.956  1.00  0.00     0.138 A 
ATOM      2  C   UNL     1      29.603 -25.452   2.455  1.00  0.00     0.100 A 
ATOM      3  C   UNL     1      30.386 -25.743   3.572  1.00  0.00     0.197 A 
ATOM      4  O   UNL     1      30.446 -26.940   3.959  1.00  0.00    -0.289 OA
ATOM      5  C   UNL     1      31.112 -24.711   4.212  1.00  0.00     0.107 A 
ATOM      6  C   UNL     1      31.910 -24.883   5.382  1.00  0.00     0.134 A 
ATOM      7  C   UNL     1      32.677 -23.813   5.859  1.00  0.00     0.093 A 
ATOM      8  C   UNL     1      32.626 -22.560   5.242  1.00  0.00     0.123 A 
ATOM      9  C   UNL     1      31.809 -22.367   4.130  1.00  0.00     0.094 A 
ATOM     10  C   UNL     1      31.059 -23.424   3.611  1.00  0.00     0.146 A 
ATOM     11  O   UNL     1      30.303 -23.203   2.542  1.00  0.00    -0.456 OA
ENDROOT
BRANCH   1  12
ATOM     12  C   UNL     1      28.752 -23.776   0.771  1.00  0.00     0.021 A 
ATOM     13  C   UNL     1      28.193 -22.490   0.687  1.00  0.00     0.016 A 
ATOM     14  C   UNL     1      27.415 -22.123  -0.415  1.00  0.00     0.051 A 
ATOM     15  C   UNL     1      27.174 -23.036  -1.445  1.00  0.00     0.157 A 
ATOM     16  C   UNL     1      28.496 -24.697  -0.265  1.00  0.00     0.062 A 
ATOM     17  C   UNL     1      27.713 -24.329  -1.370  1.00  0.00     0.158 A 
BRANCH  15  18
ATOM     18  O   UNL     1      26.397 -22.640  -2.533  1.00  0.00    -0.504 OA
ATOM     19  H   UNL     1      26.429 -23.123  -3.423  1.00  0.00     0.293 HD
ENDBRANCH  15  18
BRANCH  17  20
ATOM     20  O   UNL     1      27.468 -25.248  -2.390  1.00  0.00    -0.504 OA
ATOM     21  H   UNL     1      26.525 -25.515  -2.649  1.00  0.00     0.293 HD
ENDBRANCH  17  20
ENDBRANCH   1  12
BRANCH   6  22
ATOM     22  O   UNL     1      31.965 -26.068   6.122  1.00  0.00    -0.507 OA
ATOM     23  H   UNL     1      31.208 -26.437   6.677  1.00  0.00     0.293 HD
ENDBRANCH   6  22
BRANCH   8  24
ATOM     24  O   UNL     1      33.382 -21.496   5.732  1.00  0.00    -0.508 OA
ATOM     25  H   UNL     1      33.467 -20.626   5.220  1.00  0.00     0.293 HD
ENDBRANCH   8  24
TORSDOF 5
ENDMDL
MODEL 8
REMARK VINA RESULT:    -5.503      6.470      9.879
REMARK INTER + INTRA:          -6.731
REMARK INTER:                  -6.447
REMARK INTRA:                  -0.284
REMARK UNBOUND:                -0.263
REMARK SMILES O=c1cc(-c2ccc(O)c(O)c2)oc2cc(O)cc(O)c12
REMARK SMILES IDX 4 1 3 2 2 3 1 4 21 5 19 6 18 7 16 8 15 9 14 10 13 11 5 12
REMARK SMILES IDX 6 13 7 14 8 15 12 16 10 17 9 18 11 20 20 22 17 24
REMARK H PARENT 9 19 11 21 20 23 17 25
REMARK Flexibility Score: inf
ROOT
ATOM      1  C   UNL     1      32.820 -36.129  -4.217  1.00  0.00     0.138 A 
ATOM      2  C   UNL     1      31.638 -35.378  -4.280  1.00  0.00     0.100 A 
ATOM      3  C   UNL     1      31.017 -34.971  -3.098  1.00  0.00     0.197 A 
ATOM      4  O   UNL     1      29.924 -34.351  -3.186  1.00  0.00    -0.289 OA
ATOM      5  C   UNL     1      31.599 -35.291  -1.849  1.00  0.00     0.107 A 
ATOM      6  C   UNL     1      31.076 -34.895  -0.583  1.00  0.00     0.134 A 
ATOM      7  C   UNL     1      31.674 -35.370   0.591  1.00  0.00     0.093 A 
ATOM      8  C   UNL     1      32.813 -36.178   0.542  1.00  0.00     0.123 A 
ATOM      9  C   UNL     1      33.363 -36.528  -0.689  1.00  0.00     0.094 A 
ATOM     10  C   UNL     1      32.769 -36.098  -1.878  1.00  0.00     0.146 A 
ATOM     11  O   UNL     1      33.316 -36.465  -3.031  1.00  0.00    -0.456 OA
ENDROOT
BRANCH   1  12
ATOM     12  C   UNL     1      33.523 -36.588  -5.442  1.00  0.00     0.021 A 
ATOM     13  C   UNL     1      34.928 -36.636  -5.455  1.00  0.00     0.016 A 
ATOM     14  C   UNL     1      35.614 -37.056  -6.598  1.00  0.00     0.051 A 
ATOM     15  C   UNL     1      34.911 -37.426  -7.748  1.00  0.00     0.157 A 
ATOM     16  C   UNL     1      32.820 -36.950  -6.607  1.00  0.00     0.062 A 
ATOM     17  C   UNL     1      33.509 -37.371  -7.756  1.00  0.00     0.158 A 
BRANCH  15  18
ATOM     18  O   UNL     1      35.624 -37.845  -8.871  1.00  0.00    -0.504 OA
ATOM     19  H   UNL     1      35.363 -38.670  -9.398  1.00  0.00     0.293 HD
ENDBRANCH  15  18
BRANCH  17  20
ATOM     20  O   UNL     1      32.803 -37.729  -8.904  1.00  0.00    -0.504 OA
ATOM     21  H   UNL     1      33.272 -38.099  -9.722  1.00  0.00     0.293 HD
ENDBRANCH  17  20
ENDBRANCH   1  12
BRANCH   6  22
ATOM     22  O   UNL     1      29.996 -34.023  -0.423  1.00  0.00    -0.507 OA
ATOM     23  H   UNL     1      29.190 -33.985  -1.028  1.00  0.00     0.293 HD
ENDBRANCH   6  22
BRANCH   8  24
ATOM     24  O   UNL     1      33.411 -36.634   1.716  1.00  0.00    -0.508 OA
ATOM     25  H   UNL     1      33.067 -36.357   2.628  1.00  0.00     0.293 HD
ENDBRANCH   8  24
TORSDOF 5
ENDMDL
MODEL 9
REMARK VINA RESULT:    -4.852     13.393     15.262
REMARK INTER + INTRA:          -5.966
REMARK INTER:                  -5.678
REMARK INTRA:                  -0.288
REMARK UNBOUND:                -0.263
REMARK SMILES O=c1cc(-c2ccc(O)c(O)c2)oc2cc(O)cc(O)c12
REMARK SMILES IDX 4 1 3 2 2 3 1 4 21 5 19 6 18 7 16 8 15 9 14 10 13 11 5 12
REMARK SMILES IDX 6 13 7 14 8 15 12 16 10 17 9 18 11 20 20 22 17 24
REMARK H PARENT 9 19 11 21 20 23 17 25
REMARK Flexibility Score: inf
ROOT
ATOM      1  C   UNL     1      26.676 -22.892   1.154  1.00  0.00     0.138 A 
ATOM      2  C   UNL     1      26.868 -24.231   1.520  1.00  0.00     0.100 A 
ATOM      3  C   UNL     1      26.857 -25.222   0.537  1.00  0.00     0.197 A 
ATOM      4  O   UNL     1      26.969 -26.421   0.903  1.00  0.00    -0.289 OA
ATOM      5  C   UNL     1      26.687 -24.866  -0.821  1.00  0.00     0.107 A 
ATOM      6  C   UNL     1      26.699 -25.786  -1.911  1.00  0.00     0.134 A 
ATOM      7  C   UNL     1      26.403 -25.333  -3.202  1.00  0.00     0.093 A 
ATOM      8  C   UNL     1      26.154 -23.980  -3.451  1.00  0.00     0.123 A 
ATOM      9  C   UNL     1      26.191 -23.064  -2.402  1.00  0.00     0.094 A 
ATOM     10  C   UNL     1      26.450 -23.492  -1.097  1.00  0.00     0.146 A 
ATOM     11  O   UNL     1      26.462 -22.589  -0.123  1.00  0.00    -0.456 OA
ENDROOT
BRANCH   1  12
ATOM     12  C   UNL     1      26.678 -21.797   2.156  1.00  0.00     0.021 A 
ATOM     13  C   UNL     1      25.902 -20.648   1.928  1.00  0.00     0.016 A 
ATOM     14  C   UNL     1      25.892 -19.601   2.853  1.00  0.00     0.051 A 
ATOM     15  C   UNL     1      26.665 -19.677   4.015  1.00  0.00     0.157 A 
ATOM     16  C   UNL     1      27.465 -21.864   3.323  1.00  0.00     0.062 A 
ATOM     17  C   UNL     1      27.457 -20.811   4.251  1.00  0.00     0.158 A 
BRANCH  15  18
ATOM     18  O   UNL     1      26.633 -18.617   4.921  1.00  0.00    -0.504 OA
ATOM     19  H   UNL     1      26.805 -18.749   5.911  1.00  0.00     0.293 HD
ENDBRANCH  15  18
BRANCH  17  20
ATOM     20  O   UNL     1      28.238 -20.889   5.404  1.00  0.00    -0.504 OA
ATOM     21  H   UNL     1      28.550 -20.057   5.892  1.00  0.00     0.293 HD
ENDBRANCH  17  20
ENDBRANCH   1  12
BRANCH   6  22
ATOM     22  O   UNL     1      27.020 -27.141  -1.785  1.00  0.00    -0.507 OA
ATOM     23  H   UNL     1      26.520 -27.801  -1.210  1.00  0.00     0.293 HD
ENDBRANCH   6  22
BRANCH   8  24
ATOM     24  O   UNL     1      25.875 -23.535  -4.742  1.00  0.00    -0.508 OA
ATOM     25  H   UNL     1      26.563 -23.033  -5.289  1.00  0.00     0.293 HD
ENDBRANCH   8  24
TORSDOF 5
ENDMDL
