MODEL 1
REMARK VINA RESULT:    -6.756      0.000      0.000
REMARK INTER + INTRA:          -7.392
REMARK INTER:                  -7.349
REMARK INTRA:                  -0.044
REMARK UNBOUND:                -0.044
REMARK SMILES COc1cc2ccc(=O)oc2cc1O
REMARK SMILES IDX 3 1 13 2 12 3 11 4 5 5 4 6 6 7 7 8 8 9 9 10 10 11 2 12 1 13
REMARK SMILES IDX 14 14
REMARK H PARENT 14 15
REMARK Flexibility Score: inf
ROOT
ATOM      1  C   UNL     1     -30.074  57.506  -0.168  1.00  0.00     0.161 A 
ATOM      2  C   UNL     1     -31.230  57.089   0.520  1.00  0.00     0.161 A 
ATOM      3  C   UNL     1     -31.280  57.153   1.918  1.00  0.00     0.098 A 
ATOM      4  C   UNL     1     -30.187  57.630   2.643  1.00  0.00     0.142 A 
ATOM      5  C   UNL     1     -29.025  58.051   1.964  1.00  0.00     0.022 A 
ATOM      6  C   UNL     1     -28.970  57.988   0.566  1.00  0.00     0.062 A 
ATOM      7  C   UNL     1     -27.946  58.524   2.720  1.00  0.00     0.019 A 
ATOM      8  C   UNL     1     -28.049  58.566   4.109  1.00  0.00     0.094 A 
ATOM      9  C   UNL     1     -29.234  58.133   4.714  1.00  0.00     0.336 A 
ATOM     10  O   UNL     1     -29.347  58.163   5.967  1.00  0.00    -0.246 OA
ATOM     11  O   UNL     1     -30.245  57.688   3.973  1.00  0.00    -0.423 OA
ENDROOT
BRANCH   1  12
ATOM     12  O   UNL     1     -30.056  57.428  -1.569  1.00  0.00    -0.493 OA
ATOM     13  C   UNL     1     -28.895  57.608  -2.375  1.00  0.00     0.278 C 
ENDBRANCH   1  12
BRANCH   2  14
ATOM     14  O   UNL     1     -32.342  56.606  -0.169  1.00  0.00    -0.504 OA
ATOM     15  H   UNL     1     -32.601  56.951  -1.085  1.00  0.00     0.293 HD
ENDBRANCH   2  14
TORSDOF 2
ENDMDL
MODEL 2
REMARK VINA RESULT:    -6.700      1.919      4.518
REMARK INTER + INTRA:          -7.331
REMARK INTER:                  -7.288
REMARK INTRA:                  -0.043
REMARK UNBOUND:                -0.044
REMARK SMILES COc1cc2ccc(=O)oc2cc1O
REMARK SMILES IDX 3 1 13 2 12 3 11 4 5 5 4 6 6 7 7 8 8 9 9 10 10 11 2 12 1 13
REMARK SMILES IDX 14 14
REMARK H PARENT 14 15
REMARK Flexibility Score: inf
ROOT
ATOM      1  C   UNL     1     -30.815  57.108   2.010  1.00  0.00     0.161 A 
ATOM      2  C   UNL     1     -31.335  57.380   0.729  1.00  0.00     0.161 A 
ATOM      3  C   UNL     1     -30.483  57.437  -0.381  1.00  0.00     0.098 A 
ATOM      4  C   UNL     1     -29.112  57.225  -0.230  1.00  0.00     0.142 A 
ATOM      5  C   UNL     1     -28.580  56.952   1.048  1.00  0.00     0.022 A 
ATOM      6  C   UNL     1     -29.429  56.895   2.161  1.00  0.00     0.062 A 
ATOM      7  C   UNL     1     -27.202  56.744   1.166  1.00  0.00     0.019 A 
ATOM      8  C   UNL     1     -26.400  56.812   0.028  1.00  0.00     0.094 A 
ATOM      9  C   UNL     1     -26.996  57.087  -1.207  1.00  0.00     0.336 A 
ATOM     10  O   UNL     1     -26.289  57.152  -2.246  1.00  0.00    -0.246 OA
ATOM     11  O   UNL     1     -28.310  57.280  -1.292  1.00  0.00    -0.423 OA
ENDROOT
BRANCH   1  12
ATOM     12  O   UNL     1     -31.697  57.059   3.101  1.00  0.00    -0.493 OA
ATOM     13  C   UNL     1     -31.293  56.960   4.463  1.00  0.00     0.278 C 
ENDBRANCH   1  12
BRANCH   2  14
ATOM     14  O   UNL     1     -32.700  57.598   0.538  1.00  0.00    -0.504 OA
ATOM     15  H   UNL     1     -33.179  58.398   0.932  1.00  0.00     0.293 HD
ENDBRANCH   2  14
TORSDOF 2
ENDMDL
MODEL 3
REMARK VINA RESULT:    -6.585      1.023      1.099
REMARK INTER + INTRA:          -7.206
REMARK INTER:                  -7.150
REMARK INTRA:                  -0.056
REMARK UNBOUND:                -0.044
REMARK SMILES COc1cc2ccc(=O)oc2cc1O
REMARK SMILES IDX 3 1 13 2 12 3 11 4 5 5 4 6 6 7 7 8 8 9 9 10 10 11 2 12 1 13
REMARK SMILES IDX 14 14
REMARK H PARENT 14 15
REMARK Flexibility Score: inf
ROOT
ATOM      1  C   UNL     1     -29.299  57.598  -0.005  1.00  0.00     0.161 A 
ATOM      2  C   UNL     1     -30.559  56.989   0.155  1.00  0.00     0.161 A 
ATOM      3  C   UNL     1     -31.125  56.863   1.429  1.00  0.00     0.098 A 
ATOM      4  C   UNL     1     -30.449  57.340   2.553  1.00  0.00     0.142 A 
ATOM      5  C   UNL     1     -29.186  57.952   2.404  1.00  0.00     0.022 A 
ATOM      6  C   UNL     1     -28.616  58.079   1.131  1.00  0.00     0.062 A 
ATOM      7  C   UNL     1     -28.533  58.420   3.550  1.00  0.00     0.019 A 
ATOM      8  C   UNL     1     -29.142  58.269   4.795  1.00  0.00     0.094 A 
ATOM      9  C   UNL     1     -30.397  57.653   4.866  1.00  0.00     0.336 A 
ATOM     10  O   UNL     1     -30.963  57.507   5.981  1.00  0.00    -0.246 OA
ATOM     11  O   UNL     1     -30.996  57.216   3.761  1.00  0.00    -0.423 OA
ENDROOT
BRANCH   1  12
ATOM     12  O   UNL     1     -28.760  57.707  -1.296  1.00  0.00    -0.493 OA
ATOM     13  C   UNL     1     -27.498  57.179  -1.693  1.00  0.00     0.278 C 
ENDBRANCH   1  12
BRANCH   2  14
ATOM     14  O   UNL     1     -31.266  56.499  -0.944  1.00  0.00    -0.504 OA
ATOM     15  H   UNL     1     -31.714  55.591  -0.937  1.00  0.00     0.293 HD
ENDBRANCH   2  14
TORSDOF 2
ENDMDL
MODEL 4
REMARK VINA RESULT:    -6.511      2.585      4.427
REMARK INTER + INTRA:          -7.125
REMARK INTER:                  -7.077
REMARK INTRA:                  -0.048
REMARK UNBOUND:                -0.044
REMARK SMILES COc1cc2ccc(=O)oc2cc1O
REMARK SMILES IDX 3 1 13 2 12 3 11 4 5 5 4 6 6 7 7 8 8 9 9 10 10 11 2 12 1 13
REMARK SMILES IDX 14 14
REMARK H PARENT 14 15
REMARK Flexibility Score: inf
ROOT
ATOM      1  C   UNL     1     -26.830  56.991   0.439  1.00  0.00     0.161 A 
ATOM      2  C   UNL     1     -27.272  57.159  -0.888  1.00  0.00     0.161 A 
ATOM      3  C   UNL     1     -28.636  57.305  -1.165  1.00  0.00     0.098 A 
ATOM      4  C   UNL     1     -29.573  57.287  -0.130  1.00  0.00     0.142 A 
ATOM      5  C   UNL     1     -29.142  57.120   1.203  1.00  0.00     0.022 A 
ATOM      6  C   UNL     1     -27.777  56.973   1.484  1.00  0.00     0.062 A 
ATOM      7  C   UNL     1     -30.104  57.106   2.218  1.00  0.00     0.019 A 
ATOM      8  C   UNL     1     -31.450  57.255   1.887  1.00  0.00     0.094 A 
ATOM      9  C   UNL     1     -31.804  57.417   0.543  1.00  0.00     0.336 A 
ATOM     10  O   UNL     1     -33.014  57.554   0.224  1.00  0.00    -0.246 OA
ATOM     11  O   UNL     1     -30.869  57.427  -0.403  1.00  0.00    -0.423 OA
ENDROOT
BRANCH   1  12
ATOM     12  O   UNL     1     -25.455  56.847   0.681  1.00  0.00    -0.493 OA
ATOM     13  C   UNL     1     -24.758  57.448   1.767  1.00  0.00     0.278 C 
ENDBRANCH   1  12
BRANCH   2  14
ATOM     14  O   UNL     1     -26.366  57.182  -1.950  1.00  0.00    -0.504 OA
ATOM     15  H   UNL     1     -26.643  56.967  -2.900  1.00  0.00     0.293 HD
ENDBRANCH   2  14
TORSDOF 2
ENDMDL
MODEL 5
REMARK VINA RESULT:    -6.470      1.228      5.427
REMARK INTER + INTRA:          -7.081
REMARK INTER:                  -7.030
REMARK INTRA:                  -0.051
REMARK UNBOUND:                -0.044
REMARK SMILES COc1cc2ccc(=O)oc2cc1O
REMARK SMILES IDX 3 1 13 2 12 3 11 4 5 5 4 6 6 7 7 8 8 9 9 10 10 11 2 12 1 13
REMARK SMILES IDX 14 14
REMARK H PARENT 14 15
REMARK Flexibility Score: inf
ROOT
ATOM      1  C   UNL     1     -29.180  58.072   4.291  1.00  0.00     0.161 A 
ATOM      2  C   UNL     1     -28.052  58.543   3.590  1.00  0.00     0.161 A 
ATOM      3  C   UNL     1     -28.013  58.480   2.193  1.00  0.00     0.098 A 
ATOM      4  C   UNL     1     -29.089  57.949   1.479  1.00  0.00     0.142 A 
ATOM      5  C   UNL     1     -30.223  57.474   2.170  1.00  0.00     0.022 A 
ATOM      6  C   UNL     1     -30.266  57.536   3.569  1.00  0.00     0.062 A 
ATOM      7  C   UNL     1     -31.285  56.948   1.426  1.00  0.00     0.019 A 
ATOM      8  C   UNL     1     -31.193  56.907   0.036  1.00  0.00     0.094 A 
ATOM      9  C   UNL     1     -30.037  57.397  -0.582  1.00  0.00     0.336 A 
ATOM     10  O   UNL     1     -29.936  57.370  -1.836  1.00  0.00    -0.246 OA
ATOM     11  O   UNL     1     -29.042  57.893   0.149  1.00  0.00    -0.423 OA
ENDROOT
BRANCH   1  12
ATOM     12  O   UNL     1     -29.187  58.150   5.693  1.00  0.00    -0.493 OA
ATOM     13  C   UNL     1     -30.276  58.636   6.470  1.00  0.00     0.278 C 
ENDBRANCH   1  12
BRANCH   2  14
ATOM     14  O   UNL     1     -26.957  59.080   4.268  1.00  0.00    -0.504 OA
ATOM     15  H   UNL     1     -27.020  59.401   5.226  1.00  0.00     0.293 HD
ENDBRANCH   2  14
TORSDOF 2
ENDMDL
MODEL 6
REMARK VINA RESULT:    -6.470     11.971     13.952
REMARK INTER + INTRA:          -7.081
REMARK INTER:                  -7.109
REMARK INTRA:                   0.029
REMARK UNBOUND:                -0.044
REMARK SMILES COc1cc2ccc(=O)oc2cc1O
REMARK SMILES IDX 3 1 13 2 12 3 11 4 5 5 4 6 6 7 7 8 8 9 9 10 10 11 2 12 1 13
REMARK SMILES IDX 14 14
REMARK H PARENT 14 15
REMARK Flexibility Score: inf
ROOT
ATOM      1  C   UNL     1     -19.605  57.837  -4.757  1.00  0.00     0.161 A 
ATOM      2  C   UNL     1     -19.071  57.902  -6.058  1.00  0.00     0.161 A 
ATOM      3  C   UNL     1     -17.896  58.622  -6.304  1.00  0.00     0.098 A 
ATOM      4  C   UNL     1     -17.242  59.284  -5.263  1.00  0.00     0.142 A 
ATOM      5  C   UNL     1     -17.768  59.226  -3.956  1.00  0.00     0.022 A 
ATOM      6  C   UNL     1     -18.944  58.506  -3.706  1.00  0.00     0.062 A 
ATOM      7  C   UNL     1     -17.090  59.899  -2.934  1.00  0.00     0.019 A 
ATOM      8  C   UNL     1     -15.925  60.602  -3.234  1.00  0.00     0.094 A 
ATOM      9  C   UNL     1     -15.461  60.616  -4.554  1.00  0.00     0.336 A 
ATOM     10  O   UNL     1     -14.410  61.245  -4.845  1.00  0.00    -0.246 OA
ATOM     11  O   UNL     1     -16.125  59.967  -5.507  1.00  0.00    -0.423 OA
ENDROOT
BRANCH   1  12
ATOM     12  O   UNL     1     -20.785  57.106  -4.545  1.00  0.00    -0.493 OA
ATOM     13  C   UNL     1     -22.089  57.558  -4.894  1.00  0.00     0.278 C 
ENDBRANCH   1  12
BRANCH   2  14
ATOM     14  O   UNL     1     -19.696  57.254  -7.125  1.00  0.00    -0.504 OA
ATOM     15  H   UNL     1     -19.978  57.745  -7.964  1.00  0.00     0.293 HD
ENDBRANCH   2  14
TORSDOF 2
ENDMDL
MODEL 7
REMARK VINA RESULT:    -6.399      2.353      3.721
REMARK INTER + INTRA:          -7.004
REMARK INTER:                  -6.950
REMARK INTRA:                  -0.053
REMARK UNBOUND:                -0.044
REMARK SMILES COc1cc2ccc(=O)oc2cc1O
REMARK SMILES IDX 3 1 13 2 12 3 11 4 5 5 4 6 6 7 7 8 8 9 9 10 10 11 2 12 1 13
REMARK SMILES IDX 14 14
REMARK H PARENT 14 15
REMARK Flexibility Score: inf
ROOT
ATOM      1  C   UNL     1     -27.240  57.134  -0.899  1.00  0.00     0.161 A 
ATOM      2  C   UNL     1     -26.745  56.781   0.372  1.00  0.00     0.161 A 
ATOM      3  C   UNL     1     -27.612  56.695   1.467  1.00  0.00     0.098 A 
ATOM      4  C   UNL     1     -28.974  56.957   1.313  1.00  0.00     0.142 A 
ATOM      5  C   UNL     1     -29.481  57.311   0.045  1.00  0.00     0.022 A 
ATOM      6  C   UNL     1     -28.616  57.399  -1.054  1.00  0.00     0.062 A 
ATOM      7  C   UNL     1     -30.851  57.568  -0.078  1.00  0.00     0.019 A 
ATOM      8  C   UNL     1     -31.669  57.468   1.046  1.00  0.00     0.094 A 
ATOM      9  C   UNL     1     -31.097  57.111   2.272  1.00  0.00     0.336 A 
ATOM     10  O   UNL     1     -31.820  57.015   3.298  1.00  0.00    -0.246 OA
ATOM     11  O   UNL     1     -29.791  56.872   2.361  1.00  0.00    -0.423 OA
ENDROOT
BRANCH   1  12
ATOM     12  O   UNL     1     -26.343  57.212  -1.976  1.00  0.00    -0.493 OA
ATOM     13  C   UNL     1     -26.518  56.548  -3.223  1.00  0.00     0.278 C 
ENDBRANCH   1  12
BRANCH   2  14
ATOM     14  O   UNL     1     -25.390  56.512   0.566  1.00  0.00    -0.504 OA
ATOM     15  H   UNL     1     -25.004  56.315   1.482  1.00  0.00     0.293 HD
ENDBRANCH   2  14
TORSDOF 2
ENDMDL
MODEL 8
REMARK VINA RESULT:    -6.359      1.311      4.705
REMARK INTER + INTRA:          -6.960
REMARK INTER:                  -6.913
REMARK INTRA:                  -0.047
REMARK UNBOUND:                -0.044
REMARK SMILES COc1cc2ccc(=O)oc2cc1O
REMARK SMILES IDX 3 1 13 2 12 3 11 4 5 5 4 6 6 7 7 8 8 9 9 10 10 11 2 12 1 13
REMARK SMILES IDX 14 14
REMARK H PARENT 14 15
REMARK Flexibility Score: inf
ROOT
ATOM      1  C   UNL     1     -28.185  58.378   3.446  1.00  0.00     0.161 A 
ATOM      2  C   UNL     1     -29.321  57.999   4.188  1.00  0.00     0.161 A 
ATOM      3  C   UNL     1     -30.460  57.512   3.535  1.00  0.00     0.098 A 
ATOM      4  C   UNL     1     -30.481  57.396   2.144  1.00  0.00     0.142 A 
ATOM      5  C   UNL     1     -29.349  57.772   1.392  1.00  0.00     0.022 A 
ATOM      6  C   UNL     1     -28.208  58.261   2.041  1.00  0.00     0.062 A 
ATOM      7  C   UNL     1     -29.401  57.644  -0.001  1.00  0.00     0.019 A 
ATOM      8  C   UNL     1     -30.560  57.154  -0.600  1.00  0.00     0.094 A 
ATOM      9  C   UNL     1     -31.645  56.799   0.210  1.00  0.00     0.336 A 
ATOM     10  O   UNL     1     -32.700  56.354  -0.312  1.00  0.00    -0.246 OA
ATOM     11  O   UNL     1     -31.569  56.931   1.532  1.00  0.00    -0.423 OA
ENDROOT
BRANCH   1  12
ATOM     12  O   UNL     1     -27.061  58.864   4.132  1.00  0.00    -0.493 OA
ATOM     13  C   UNL     1     -25.711  58.598   3.763  1.00  0.00     0.278 C 
ENDBRANCH   1  12
BRANCH   2  14
ATOM     14  O   UNL     1     -29.338  58.101   5.580  1.00  0.00    -0.504 OA
ATOM     15  H   UNL     1     -28.587  57.742   6.156  1.00  0.00     0.293 HD
ENDBRANCH   2  14
TORSDOF 2
ENDMDL
MODEL 9
REMARK VINA RESULT:    -6.355      2.197      3.442
REMARK INTER + INTRA:          -6.955
REMARK INTER:                  -7.153
REMARK INTRA:                   0.198
REMARK UNBOUND:                -0.044
REMARK SMILES COc1cc2ccc(=O)oc2cc1O
REMARK SMILES IDX 3 1 13 2 12 3 11 4 5 5 4 6 6 7 7 8 8 9 9 10 10 11 2 12 1 13
REMARK SMILES IDX 14 14
REMARK H PARENT 14 15
REMARK Flexibility Score: inf
ROOT
ATOM      1  C   UNL     1     -27.473  57.244  -1.537  1.00  0.00     0.161 A 
ATOM      2  C   UNL     1     -28.606  57.849  -2.115  1.00  0.00     0.161 A 
ATOM      3  C   UNL     1     -29.790  57.978  -1.379  1.00  0.00     0.098 A 
ATOM      4  C   UNL     1     -29.860  57.508  -0.066  1.00  0.00     0.142 A 
ATOM      5  C   UNL     1     -28.731  56.900   0.522  1.00  0.00     0.022 A 
ATOM      6  C   UNL     1     -27.545  56.769  -0.211  1.00  0.00     0.062 A 
ATOM      7  C   UNL     1     -28.833  56.440   1.840  1.00  0.00     0.019 A 
ATOM      8  C   UNL     1     -30.036  56.593   2.527  1.00  0.00     0.094 A 
ATOM      9  C   UNL     1     -31.114  57.207   1.880  1.00  0.00     0.336 A 
ATOM     10  O   UNL     1     -32.208  57.354   2.484  1.00  0.00    -0.246 OA
ATOM     11  O   UNL     1     -30.990  57.636   0.626  1.00  0.00    -0.423 OA
ENDROOT
BRANCH   1  12
ATOM     12  O   UNL     1     -26.302  57.130  -2.304  1.00  0.00    -0.493 OA
ATOM     13  C   UNL     1     -26.200  56.396  -3.520  1.00  0.00     0.278 C 
ENDBRANCH   1  12
BRANCH   2  14
ATOM     14  O   UNL     1     -28.575  58.331  -3.424  1.00  0.00    -0.504 OA
ATOM     15  H   UNL     1     -27.783  58.843  -3.793  1.00  0.00     0.293 HD
ENDBRANCH   2  14
TORSDOF 2
ENDMDL
