MODEL 1
REMARK VINA RESULT:    -7.366      0.000      0.000
REMARK INTER + INTRA:          -9.194
REMARK INTER:                  -8.873
REMARK INTRA:                  -0.321
REMARK UNBOUND:                -0.321
REMARK SMILES O=c1c(O)c(-c2ccc(O)c(O)c2)oc2cc(O)cc(O)c12
REMARK SMILES IDX 5 1 3 2 2 3 1 4 22 5 20 6 19 7 17 8 16 9 15 10 14 11 6 12
REMARK SMILES IDX 7 13 8 14 9 15 13 16 11 17 10 18 12 20 4 22 21 24 18 26
REMARK H PARENT 10 19 12 21 4 23 21 25 18 27
REMARK Flexibility Score: inf
ROOT
ATOM      1  C   UNL     1       2.606  -4.348  23.924  1.00  0.00     0.180 A 
ATOM      2  C   UNL     1       2.399  -3.087  24.510  1.00  0.00     0.208 A 
ATOM      3  C   UNL     1       1.995  -2.017  23.695  1.00  0.00     0.238 A 
ATOM      4  O   UNL     1       1.758  -0.904  24.234  1.00  0.00    -0.285 OA
ATOM      5  C   UNL     1       1.818  -2.217  22.305  1.00  0.00     0.111 A 
ATOM      6  C   UNL     1       1.450  -1.195  21.379  1.00  0.00     0.134 A 
ATOM      7  C   UNL     1       1.176  -1.534  20.048  1.00  0.00     0.093 A 
ATOM      8  C   UNL     1       1.320  -2.844  19.595  1.00  0.00     0.123 A 
ATOM      9  C   UNL     1       1.738  -3.841  20.477  1.00  0.00     0.094 A 
ATOM     10  C   UNL     1       1.983  -3.540  21.819  1.00  0.00     0.146 A 
ATOM     11  O   UNL     1       2.369  -4.519  22.629  1.00  0.00    -0.452 OA
ENDROOT
BRANCH   1  12
ATOM     12  C   UNL     1       3.057  -5.519  24.712  1.00  0.00     0.025 A 
ATOM     13  C   UNL     1       2.139  -6.352  25.376  1.00  0.00     0.016 A 
ATOM     14  C   UNL     1       2.589  -7.436  26.134  1.00  0.00     0.051 A 
ATOM     15  C   UNL     1       3.961  -7.696  26.250  1.00  0.00     0.157 A 
ATOM     16  C   UNL     1       4.432  -5.771  24.850  1.00  0.00     0.062 A 
ATOM     17  C   UNL     1       4.884  -6.860  25.610  1.00  0.00     0.158 A 
BRANCH  15  18
ATOM     18  O   UNL     1       4.413  -8.777  27.004  1.00  0.00    -0.504 OA
ATOM     19  H   UNL     1       4.775  -9.616  26.564  1.00  0.00     0.293 HD
ENDBRANCH  15  18
BRANCH  17  20
ATOM     20  O   UNL     1       6.248  -7.116  25.734  1.00  0.00    -0.504 OA
ATOM     21  H   UNL     1       6.719  -7.058  26.630  1.00  0.00     0.293 HD
ENDBRANCH  17  20
ENDBRANCH   1  12
BRANCH   2  22
ATOM     22  O   UNL     1       2.558  -2.917  25.886  1.00  0.00    -0.502 OA
ATOM     23  H   UNL     1       2.096  -3.509  26.565  1.00  0.00     0.293 HD
ENDBRANCH   2  22
BRANCH   6  24
ATOM     24  O   UNL     1       1.366   0.162  21.708  1.00  0.00    -0.507 OA
ATOM     25  H   UNL     1       1.516   0.539  22.630  1.00  0.00     0.293 HD
ENDBRANCH   6  24
BRANCH   8  26
ATOM     26  O   UNL     1       1.055  -3.144  18.260  1.00  0.00    -0.508 OA
ATOM     27  H   UNL     1       0.211  -2.823  17.803  1.00  0.00     0.293 HD
ENDBRANCH   8  26
TORSDOF 6
ENDMDL
MODEL 2
REMARK VINA RESULT:    -7.306      2.817      7.876
REMARK INTER + INTRA:          -9.122
REMARK INTER:                  -9.007
REMARK INTRA:                  -0.115
REMARK UNBOUND:                -0.321
REMARK SMILES O=c1c(O)c(-c2ccc(O)c(O)c2)oc2cc(O)cc(O)c12
REMARK SMILES IDX 5 1 3 2 2 3 1 4 22 5 20 6 19 7 17 8 16 9 15 10 14 11 6 12
REMARK SMILES IDX 7 13 8 14 9 15 13 16 11 17 10 18 12 20 4 22 21 24 18 26
REMARK H PARENT 10 19 12 21 4 23 21 25 18 27
REMARK Flexibility Score: inf
ROOT
ATOM      1  C   UNL     1       2.506  -1.080  20.622  1.00  0.00     0.180 A 
ATOM      2  C   UNL     1       3.153  -2.199  20.068  1.00  0.00     0.208 A 
ATOM      3  C   UNL     1       3.063  -3.434  20.731  1.00  0.00     0.238 A 
ATOM      4  O   UNL     1       3.598  -4.443  20.202  1.00  0.00    -0.285 OA
ATOM      5  C   UNL     1       2.341  -3.532  21.944  1.00  0.00     0.111 A 
ATOM      6  C   UNL     1       2.219  -4.724  22.721  1.00  0.00     0.134 A 
ATOM      7  C   UNL     1       1.372  -4.737  23.836  1.00  0.00     0.093 A 
ATOM      8  C   UNL     1       0.697  -3.587  24.241  1.00  0.00     0.123 A 
ATOM      9  C   UNL     1       0.856  -2.400  23.526  1.00  0.00     0.094 A 
ATOM     10  C   UNL     1       1.665  -2.365  22.386  1.00  0.00     0.146 A 
ATOM     11  O   UNL     1       1.782  -1.219  21.727  1.00  0.00    -0.452 OA
ENDROOT
BRANCH   1  12
ATOM     12  C   UNL     1       2.576   0.260  19.996  1.00  0.00     0.025 A 
ATOM     13  C   UNL     1       2.093   0.486  18.694  1.00  0.00     0.016 A 
ATOM     14  C   UNL     1       2.191   1.754  18.115  1.00  0.00     0.051 A 
ATOM     15  C   UNL     1       2.784   2.809  18.821  1.00  0.00     0.157 A 
ATOM     16  C   UNL     1       3.188   1.317  20.691  1.00  0.00     0.062 A 
ATOM     17  C   UNL     1       3.286   2.589  20.109  1.00  0.00     0.158 A 
BRANCH  15  18
ATOM     18  O   UNL     1       2.882   4.076  18.247  1.00  0.00    -0.504 OA
ATOM     19  H   UNL     1       2.116   4.480  17.721  1.00  0.00     0.293 HD
ENDBRANCH  15  18
BRANCH  17  20
ATOM     20  O   UNL     1       3.881   3.639  20.806  1.00  0.00    -0.504 OA
ATOM     21  H   UNL     1       3.327   4.330  21.300  1.00  0.00     0.293 HD
ENDBRANCH  17  20
ENDBRANCH   1  12
BRANCH   2  22
ATOM     22  O   UNL     1       3.841  -2.085  18.859  1.00  0.00    -0.502 OA
ATOM     23  H   UNL     1       4.852  -2.121  18.802  1.00  0.00     0.293 HD
ENDBRANCH   2  22
BRANCH   6  24
ATOM     24  O   UNL     1       2.921  -5.903  22.456  1.00  0.00    -0.507 OA
ATOM     25  H   UNL     1       3.896  -6.050  22.667  1.00  0.00     0.293 HD
ENDBRANCH   6  24
BRANCH   8  26
ATOM     26  O   UNL     1      -0.125  -3.632  25.366  1.00  0.00    -0.508 OA
ATOM     27  H   UNL     1       0.147  -4.136  26.201  1.00  0.00     0.293 HD
ENDBRANCH   8  26
TORSDOF 6
ENDMDL
MODEL 3
REMARK VINA RESULT:    -7.194      2.221      2.648
REMARK INTER + INTRA:          -8.986
REMARK INTER:                  -8.671
REMARK INTRA:                  -0.315
REMARK UNBOUND:                -0.321
REMARK SMILES O=c1c(O)c(-c2ccc(O)c(O)c2)oc2cc(O)cc(O)c12
REMARK SMILES IDX 5 1 3 2 2 3 1 4 22 5 20 6 19 7 17 8 16 9 15 10 14 11 6 12
REMARK SMILES IDX 7 13 8 14 9 15 13 16 11 17 10 18 12 20 4 22 21 24 18 26
REMARK H PARENT 10 19 12 21 4 23 21 25 18 27
REMARK Flexibility Score: inf
ROOT
ATOM      1  C   UNL     1       2.812  -5.978  24.962  1.00  0.00     0.180 A 
ATOM      2  C   UNL     1       1.545  -5.380  25.078  1.00  0.00     0.208 A 
ATOM      3  C   UNL     1       1.035  -4.651  23.991  1.00  0.00     0.238 A 
ATOM      4  O   UNL     1      -0.123  -4.164  24.082  1.00  0.00    -0.285 OA
ATOM      5  C   UNL     1       1.802  -4.517  22.810  1.00  0.00     0.111 A 
ATOM      6  C   UNL     1       1.401  -3.767  21.663  1.00  0.00     0.134 A 
ATOM      7  C   UNL     1       2.183  -3.811  20.502  1.00  0.00     0.093 A 
ATOM      8  C   UNL     1       3.381  -4.522  20.466  1.00  0.00     0.123 A 
ATOM      9  C   UNL     1       3.814  -5.209  21.601  1.00  0.00     0.094 A 
ATOM     10  C   UNL     1       3.037  -5.214  22.763  1.00  0.00     0.146 A 
ATOM     11  O   UNL     1       3.479  -5.889  23.818  1.00  0.00    -0.452 OA
ENDROOT
BRANCH   1  12
ATOM     12  C   UNL     1       3.428  -6.741  26.073  1.00  0.00     0.025 A 
ATOM     13  C   UNL     1       3.132  -8.100  26.279  1.00  0.00     0.016 A 
ATOM     14  C   UNL     1       3.707  -8.793  27.348  1.00  0.00     0.051 A 
ATOM     15  C   UNL     1       4.573  -8.136  28.232  1.00  0.00     0.157 A 
ATOM     16  C   UNL     1       4.280  -6.082  26.975  1.00  0.00     0.062 A 
ATOM     17  C   UNL     1       4.857  -6.778  28.047  1.00  0.00     0.158 A 
BRANCH  15  18
ATOM     18  O   UNL     1       5.149  -8.824  29.298  1.00  0.00    -0.504 OA
ATOM     19  H   UNL     1       5.380  -8.358  30.168  1.00  0.00     0.293 HD
ENDBRANCH  15  18
BRANCH  17  20
ATOM     20  O   UNL     1       5.713  -6.125  28.932  1.00  0.00    -0.504 OA
ATOM     21  H   UNL     1       6.510  -6.598  29.345  1.00  0.00     0.293 HD
ENDBRANCH  17  20
ENDBRANCH   1  12
BRANCH   2  22
ATOM     22  O   UNL     1       0.795  -5.543  26.245  1.00  0.00    -0.502 OA
ATOM     23  H   UNL     1      -0.086  -5.067  26.397  1.00  0.00     0.293 HD
ENDBRANCH   2  22
BRANCH   6  24
ATOM     24  O   UNL     1       0.268  -2.950  21.623  1.00  0.00    -0.507 OA
ATOM     25  H   UNL     1       0.275  -1.970  21.388  1.00  0.00     0.293 HD
ENDBRANCH   6  24
BRANCH   8  26
ATOM     26  O   UNL     1       4.141  -4.530  19.299  1.00  0.00    -0.508 OA
ATOM     27  H   UNL     1       4.819  -5.260  19.113  1.00  0.00     0.293 HD
ENDBRANCH   8  26
TORSDOF 6
ENDMDL
MODEL 4
REMARK VINA RESULT:    -7.149      1.619      6.807
REMARK INTER + INTRA:          -8.932
REMARK INTER:                  -8.649
REMARK INTRA:                  -0.284
REMARK UNBOUND:                -0.321
REMARK SMILES O=c1c(O)c(-c2ccc(O)c(O)c2)oc2cc(O)cc(O)c12
REMARK SMILES IDX 5 1 3 2 2 3 1 4 22 5 20 6 19 7 17 8 16 9 15 10 14 11 6 12
REMARK SMILES IDX 7 13 8 14 9 15 13 16 11 17 10 18 12 20 4 22 21 24 18 26
REMARK H PARENT 10 19 12 21 4 23 21 25 18 27
REMARK Flexibility Score: inf
ROOT
ATOM      1  C   UNL     1       1.866  -2.990  22.969  1.00  0.00     0.180 A 
ATOM      2  C   UNL     1       1.023  -2.586  24.019  1.00  0.00     0.208 A 
ATOM      3  C   UNL     1       0.949  -3.381  25.175  1.00  0.00     0.238 A 
ATOM      4  O   UNL     1       0.235  -2.986  26.134  1.00  0.00    -0.285 OA
ATOM      5  C   UNL     1       1.704  -4.575  25.259  1.00  0.00     0.111 A 
ATOM      6  C   UNL     1       1.674  -5.477  26.365  1.00  0.00     0.134 A 
ATOM      7  C   UNL     1       2.561  -6.561  26.396  1.00  0.00     0.093 A 
ATOM      8  C   UNL     1       3.429  -6.812  25.336  1.00  0.00     0.123 A 
ATOM      9  C   UNL     1       3.424  -5.972  24.222  1.00  0.00     0.094 A 
ATOM     10  C   UNL     1       2.577  -4.861  24.177  1.00  0.00     0.146 A 
ATOM     11  O   UNL     1       2.611  -4.080  23.104  1.00  0.00    -0.452 OA
ENDROOT
BRANCH   1  12
ATOM     12  C   UNL     1       1.978  -2.219  21.709  1.00  0.00     0.025 A 
ATOM     13  C   UNL     1       2.749  -1.044  21.636  1.00  0.00     0.016 A 
ATOM     14  C   UNL     1       2.821  -0.320  20.443  1.00  0.00     0.051 A 
ATOM     15  C   UNL     1       2.116  -0.750  19.312  1.00  0.00     0.157 A 
ATOM     16  C   UNL     1       1.257  -2.633  20.577  1.00  0.00     0.062 A 
ATOM     17  C   UNL     1       1.330  -1.906  19.380  1.00  0.00     0.158 A 
BRANCH  15  18
ATOM     18  O   UNL     1       2.187  -0.031  18.120  1.00  0.00    -0.504 OA
ATOM     19  H   UNL     1       2.155  -0.493  17.219  1.00  0.00     0.293 HD
ENDBRANCH  15  18
BRANCH  17  20
ATOM     20  O   UNL     1       0.624  -2.328  18.255  1.00  0.00    -0.504 OA
ATOM     21  H   UNL     1      -0.165  -2.962  18.330  1.00  0.00     0.293 HD
ENDBRANCH  17  20
ENDBRANCH   1  12
BRANCH   2  22
ATOM     22  O   UNL     1       0.303  -1.393  23.925  1.00  0.00    -0.502 OA
ATOM     23  H   UNL     1      -0.081  -1.057  23.050  1.00  0.00     0.293 HD
ENDBRANCH   2  22
BRANCH   6  24
ATOM     24  O   UNL     1       0.782  -5.369  27.435  1.00  0.00    -0.507 OA
ATOM     25  H   UNL     1      -0.173  -5.054  27.358  1.00  0.00     0.293 HD
ENDBRANCH   6  24
BRANCH   8  26
ATOM     26  O   UNL     1       4.287  -7.908  25.393  1.00  0.00    -0.508 OA
ATOM     27  H   UNL     1       4.693  -8.309  24.557  1.00  0.00     0.293 HD
ENDBRANCH   8  26
TORSDOF 6
ENDMDL
MODEL 5
REMARK VINA RESULT:    -7.128     13.169     14.965
REMARK INTER + INTRA:          -8.907
REMARK INTER:                  -8.708
REMARK INTRA:                  -0.200
REMARK UNBOUND:                -0.321
REMARK SMILES O=c1c(O)c(-c2ccc(O)c(O)c2)oc2cc(O)cc(O)c12
REMARK SMILES IDX 5 1 3 2 2 3 1 4 22 5 20 6 19 7 17 8 16 9 15 10 14 11 6 12
REMARK SMILES IDX 7 13 8 14 9 15 13 16 11 17 10 18 12 20 4 22 21 24 18 26
REMARK H PARENT 10 19 12 21 4 23 21 25 18 27
REMARK Flexibility Score: inf
ROOT
ATOM      1  C   UNL     1      15.837  -4.702  28.363  1.00  0.00     0.180 A 
ATOM      2  C   UNL     1      14.776  -5.625  28.369  1.00  0.00     0.208 A 
ATOM      3  C   UNL     1      14.654  -6.525  27.298  1.00  0.00     0.238 A 
ATOM      4  O   UNL     1      13.734  -7.385  27.335  1.00  0.00    -0.285 OA
ATOM      5  C   UNL     1      15.581  -6.482  26.231  1.00  0.00     0.111 A 
ATOM      6  C   UNL     1      15.528  -7.320  25.076  1.00  0.00     0.134 A 
ATOM      7  C   UNL     1      16.574  -7.278  24.144  1.00  0.00     0.093 A 
ATOM      8  C   UNL     1      17.634  -6.386  24.291  1.00  0.00     0.123 A 
ATOM      9  C   UNL     1      17.665  -5.520  25.384  1.00  0.00     0.094 A 
ATOM     10  C   UNL     1      16.656  -5.563  26.349  1.00  0.00     0.146 A 
ATOM     11  O   UNL     1      16.728  -4.729  27.380  1.00  0.00    -0.452 OA
ENDROOT
BRANCH   1  12
ATOM     12  C   UNL     1      16.018  -3.704  29.443  1.00  0.00     0.025 A 
ATOM     13  C   UNL     1      16.388  -4.092  30.744  1.00  0.00     0.016 A 
ATOM     14  C   UNL     1      16.530  -3.135  31.753  1.00  0.00     0.051 A 
ATOM     15  C   UNL     1      16.292  -1.782  31.481  1.00  0.00     0.157 A 
ATOM     16  C   UNL     1      15.760  -2.348  29.183  1.00  0.00     0.062 A 
ATOM     17  C   UNL     1      15.903  -1.388  30.195  1.00  0.00     0.158 A 
BRANCH  15  18
ATOM     18  O   UNL     1      16.434  -0.825  32.484  1.00  0.00    -0.504 OA
ATOM     19  H   UNL     1      16.764  -1.072  33.410  1.00  0.00     0.293 HD
ENDBRANCH  15  18
BRANCH  17  20
ATOM     20  O   UNL     1      15.660  -0.041  29.930  1.00  0.00    -0.504 OA
ATOM     21  H   UNL     1      15.098   0.250  29.137  1.00  0.00     0.293 HD
ENDBRANCH  17  20
ENDBRANCH   1  12
BRANCH   2  22
ATOM     22  O   UNL     1      13.885  -5.665  29.443  1.00  0.00    -0.502 OA
ATOM     23  H   UNL     1      14.167  -5.458  30.393  1.00  0.00     0.293 HD
ENDBRANCH   2  22
BRANCH   6  24
ATOM     24  O   UNL     1      14.468  -8.183  24.787  1.00  0.00    -0.507 OA
ATOM     25  H   UNL     1      13.750  -8.002  24.102  1.00  0.00     0.293 HD
ENDBRANCH   6  24
BRANCH   8  26
ATOM     26  O   UNL     1      18.649  -6.361  23.336  1.00  0.00    -0.508 OA
ATOM     27  H   UNL     1      19.609  -6.164  23.589  1.00  0.00     0.293 HD
ENDBRANCH   8  26
TORSDOF 6
ENDMDL
MODEL 6
REMARK VINA RESULT:    -7.092      1.814      6.655
REMARK INTER + INTRA:          -8.864
REMARK INTER:                  -8.885
REMARK INTRA:                   0.021
REMARK UNBOUND:                -0.321
REMARK SMILES O=c1c(O)c(-c2ccc(O)c(O)c2)oc2cc(O)cc(O)c12
REMARK SMILES IDX 5 1 3 2 2 3 1 4 22 5 20 6 19 7 17 8 16 9 15 10 14 11 6 12
REMARK SMILES IDX 7 13 8 14 9 15 13 16 11 17 10 18 12 20 4 22 21 24 18 26
REMARK H PARENT 10 19 12 21 4 23 21 25 18 27
REMARK Flexibility Score: inf
ROOT
ATOM      1  C   UNL     1       1.811  -4.579  24.024  1.00  0.00     0.180 A 
ATOM      2  C   UNL     1       1.315  -3.872  25.133  1.00  0.00     0.208 A 
ATOM      3  C   UNL     1       1.563  -4.369  26.423  1.00  0.00     0.238 A 
ATOM      4  O   UNL     1       1.164  -3.703  27.414  1.00  0.00    -0.285 OA
ATOM      5  C   UNL     1       2.289  -5.573  26.586  1.00  0.00     0.111 A 
ATOM      6  C   UNL     1       2.563  -6.190  27.844  1.00  0.00     0.134 A 
ATOM      7  C   UNL     1       3.402  -7.311  27.895  1.00  0.00     0.093 A 
ATOM      8  C   UNL     1       3.922  -7.875  26.732  1.00  0.00     0.123 A 
ATOM      9  C   UNL     1       3.611  -7.317  25.492  1.00  0.00     0.094 A 
ATOM     10  C   UNL     1       2.807  -6.177  25.411  1.00  0.00     0.146 A 
ATOM     11  O   UNL     1       2.543  -5.670  24.213  1.00  0.00    -0.452 OA
ENDROOT
BRANCH   1  12
ATOM     12  C   UNL     1       1.569  -4.132  22.632  1.00  0.00     0.025 A 
ATOM     13  C   UNL     1       0.289  -3.739  22.202  1.00  0.00     0.016 A 
ATOM     14  C   UNL     1       0.079  -3.343  20.878  1.00  0.00     0.051 A 
ATOM     15  C   UNL     1       1.141  -3.347  19.964  1.00  0.00     0.157 A 
ATOM     16  C   UNL     1       2.624  -4.154  21.705  1.00  0.00     0.062 A 
ATOM     17  C   UNL     1       2.414  -3.756  20.377  1.00  0.00     0.158 A 
BRANCH  15  18
ATOM     18  O   UNL     1       0.936  -2.952  18.643  1.00  0.00    -0.504 OA
ATOM     19  H   UNL     1       1.711  -2.796  18.010  1.00  0.00     0.293 HD
ENDBRANCH  15  18
BRANCH  17  20
ATOM     20  O   UNL     1       3.466  -3.766  19.463  1.00  0.00    -0.504 OA
ATOM     21  H   UNL     1       3.741  -4.614  18.981  1.00  0.00     0.293 HD
ENDBRANCH  17  20
ENDBRANCH   1  12
BRANCH   2  22
ATOM     22  O   UNL     1       0.620  -2.674  24.950  1.00  0.00    -0.502 OA
ATOM     23  H   UNL     1       0.711  -2.115  24.111  1.00  0.00     0.293 HD
ENDBRANCH   2  22
BRANCH   6  24
ATOM     24  O   UNL     1       2.020  -5.760  29.059  1.00  0.00    -0.507 OA
ATOM     25  H   UNL     1       2.556  -5.401  29.832  1.00  0.00     0.293 HD
ENDBRANCH   6  24
BRANCH   8  26
ATOM     26  O   UNL     1       4.740  -9.000  26.819  1.00  0.00    -0.508 OA
ATOM     27  H   UNL     1       5.344  -9.156  27.617  1.00  0.00     0.293 HD
ENDBRANCH   8  26
TORSDOF 6
ENDMDL
MODEL 7
REMARK VINA RESULT:    -7.008     11.245     14.247
REMARK INTER + INTRA:          -8.763
REMARK INTER:                  -8.442
REMARK INTRA:                  -0.321
REMARK UNBOUND:                -0.321
REMARK SMILES O=c1c(O)c(-c2ccc(O)c(O)c2)oc2cc(O)cc(O)c12
REMARK SMILES IDX 5 1 3 2 2 3 1 4 22 5 20 6 19 7 17 8 16 9 15 10 14 11 6 12
REMARK SMILES IDX 7 13 8 14 9 15 13 16 11 17 10 18 12 20 4 22 21 24 18 26
REMARK H PARENT 10 19 12 21 4 23 21 25 18 27
REMARK Flexibility Score: inf
ROOT
ATOM      1  C   UNL     1      14.932  -6.642  23.325  1.00  0.00     0.180 A 
ATOM      2  C   UNL     1      16.337  -6.649  23.378  1.00  0.00     0.208 A 
ATOM      3  C   UNL     1      16.969  -6.861  24.614  1.00  0.00     0.238 A 
ATOM      4  O   UNL     1      18.227  -6.921  24.646  1.00  0.00    -0.285 OA
ATOM      5  C   UNL     1      16.191  -7.046  25.781  1.00  0.00     0.111 A 
ATOM      6  C   UNL     1      16.727  -7.227  27.092  1.00  0.00     0.134 A 
ATOM      7  C   UNL     1      15.865  -7.532  28.154  1.00  0.00     0.093 A 
ATOM      8  C   UNL     1      14.486  -7.597  27.966  1.00  0.00     0.123 A 
ATOM      9  C   UNL     1      13.946  -7.361  26.701  1.00  0.00     0.094 A 
ATOM     10  C   UNL     1      14.783  -7.091  25.615  1.00  0.00     0.146 A 
ATOM     11  O   UNL     1      14.230  -6.884  24.425  1.00  0.00    -0.452 OA
ENDROOT
BRANCH   1  12
ATOM     12  C   UNL     1      14.193  -6.400  22.063  1.00  0.00     0.025 A 
ATOM     13  C   UNL     1      13.965  -5.097  21.587  1.00  0.00     0.016 A 
ATOM     14  C   UNL     1      13.245  -4.893  20.407  1.00  0.00     0.051 A 
ATOM     15  C   UNL     1      12.731  -5.985  19.695  1.00  0.00     0.157 A 
ATOM     16  C   UNL     1      13.657  -7.490  21.356  1.00  0.00     0.062 A 
ATOM     17  C   UNL     1      12.935  -7.285  20.172  1.00  0.00     0.158 A 
BRANCH  15  18
ATOM     18  O   UNL     1      12.013  -5.785  18.517  1.00  0.00    -0.504 OA
ATOM     19  H   UNL     1      11.344  -5.029  18.426  1.00  0.00     0.293 HD
ENDBRANCH  15  18
BRANCH  17  20
ATOM     20  O   UNL     1      12.416  -8.368  19.466  1.00  0.00    -0.504 OA
ATOM     21  H   UNL     1      11.545  -8.298  18.951  1.00  0.00     0.293 HD
ENDBRANCH  17  20
ENDBRANCH   1  12
BRANCH   2  22
ATOM     22  O   UNL     1      17.086  -6.486  22.210  1.00  0.00    -0.502 OA
ATOM     23  H   UNL     1      17.596  -5.635  22.005  1.00  0.00     0.293 HD
ENDBRANCH   2  22
BRANCH   6  24
ATOM     24  O   UNL     1      18.082  -7.094  27.406  1.00  0.00    -0.507 OA
ATOM     25  H   UNL     1      18.825  -7.029  26.728  1.00  0.00     0.293 HD
ENDBRANCH   6  24
BRANCH   8  26
ATOM     26  O   UNL     1      13.657  -7.887  29.048  1.00  0.00    -0.508 OA
ATOM     27  H   UNL     1      13.737  -8.757  29.559  1.00  0.00     0.293 HD
ENDBRANCH   8  26
TORSDOF 6
ENDMDL
MODEL 8
REMARK VINA RESULT:    -6.966     12.170     13.912
REMARK INTER + INTRA:          -8.712
REMARK INTER:                  -9.003
REMARK INTRA:                   0.291
REMARK UNBOUND:                -0.321
REMARK SMILES O=c1c(O)c(-c2ccc(O)c(O)c2)oc2cc(O)cc(O)c12
REMARK SMILES IDX 5 1 3 2 2 3 1 4 22 5 20 6 19 7 17 8 16 9 15 10 14 11 6 12
REMARK SMILES IDX 7 13 8 14 9 15 13 16 11 17 10 18 12 20 4 22 21 24 18 26
REMARK H PARENT 10 19 12 21 4 23 21 25 18 27
REMARK Flexibility Score: inf
ROOT
ATOM      1  C   UNL     1      16.242  -6.772  23.586  1.00  0.00     0.180 A 
ATOM      2  C   UNL     1      17.163  -6.032  22.824  1.00  0.00     0.208 A 
ATOM      3  C   UNL     1      16.952  -5.904  21.441  1.00  0.00     0.238 A 
ATOM      4  O   UNL     1      17.750  -5.195  20.773  1.00  0.00    -0.285 OA
ATOM      5  C   UNL     1      15.835  -6.528  20.837  1.00  0.00     0.111 A 
ATOM      6  C   UNL     1      15.547  -6.497  19.439  1.00  0.00     0.134 A 
ATOM      7  C   UNL     1      14.343  -7.040  18.971  1.00  0.00     0.093 A 
ATOM      8  C   UNL     1      13.451  -7.668  19.837  1.00  0.00     0.123 A 
ATOM      9  C   UNL     1      13.751  -7.758  21.196  1.00  0.00     0.094 A 
ATOM     10  C   UNL     1      14.926  -7.194  21.700  1.00  0.00     0.146 A 
ATOM     11  O   UNL     1      15.169  -7.291  23.001  1.00  0.00    -0.452 OA
ENDROOT
BRANCH   1  12
ATOM     12  C   UNL     1      16.410  -6.974  25.044  1.00  0.00     0.025 A 
ATOM     13  C   UNL     1      17.679  -6.930  25.648  1.00  0.00     0.016 A 
ATOM     14  C   UNL     1      17.815  -7.147  27.022  1.00  0.00     0.051 A 
ATOM     15  C   UNL     1      16.689  -7.423  27.809  1.00  0.00     0.157 A 
ATOM     16  C   UNL     1      15.287  -7.272  25.835  1.00  0.00     0.062 A 
ATOM     17  C   UNL     1      15.424  -7.489  27.213  1.00  0.00     0.158 A 
BRANCH  15  18
ATOM     18  O   UNL     1      16.821  -7.639  29.179  1.00  0.00    -0.504 OA
ATOM     19  H   UNL     1      16.803  -8.572  29.574  1.00  0.00     0.293 HD
ENDBRANCH  15  18
BRANCH  17  20
ATOM     20  O   UNL     1      14.306  -7.772  27.997  1.00  0.00    -0.504 OA
ATOM     21  H   UNL     1      14.354  -7.764  29.010  1.00  0.00     0.293 HD
ENDBRANCH  17  20
ENDBRANCH   1  12
BRANCH   2  22
ATOM     22  O   UNL     1      18.247  -5.406  23.443  1.00  0.00    -0.502 OA
ATOM     23  H   UNL     1      18.713  -5.800  24.252  1.00  0.00     0.293 HD
ENDBRANCH   2  22
BRANCH   6  24
ATOM     24  O   UNL     1      16.414  -5.974  18.475  1.00  0.00    -0.507 OA
ATOM     25  H   UNL     1      16.137  -5.354  17.731  1.00  0.00     0.293 HD
ENDBRANCH   6  24
BRANCH   8  26
ATOM     26  O   UNL     1      12.271  -8.211  19.334  1.00  0.00    -0.508 OA
ATOM     27  H   UNL     1      11.386  -7.725  19.414  1.00  0.00     0.293 HD
ENDBRANCH   8  26
TORSDOF 6
ENDMDL
MODEL 9
REMARK VINA RESULT:    -6.856     11.304     14.022
REMARK INTER + INTRA:          -8.580
REMARK INTER:                  -8.761
REMARK INTRA:                   0.181
REMARK UNBOUND:                -0.321
REMARK SMILES O=c1c(O)c(-c2ccc(O)c(O)c2)oc2cc(O)cc(O)c12
REMARK SMILES IDX 5 1 3 2 2 3 1 4 22 5 20 6 19 7 17 8 16 9 15 10 14 11 6 12
REMARK SMILES IDX 7 13 8 14 9 15 13 16 11 17 10 18 12 20 4 22 21 24 18 26
REMARK H PARENT 10 19 12 21 4 23 21 25 18 27
REMARK Flexibility Score: inf
ROOT
ATOM      1  C   UNL     1      14.649  -6.748  23.535  1.00  0.00     0.180 A 
ATOM      2  C   UNL     1      13.519  -6.274  24.224  1.00  0.00     0.208 A 
ATOM      3  C   UNL     1      13.601  -6.085  25.614  1.00  0.00     0.238 A 
ATOM      4  O   UNL     1      12.604  -5.609  26.217  1.00  0.00    -0.285 OA
ATOM      5  C   UNL     1      14.803  -6.386  26.297  1.00  0.00     0.111 A 
ATOM      6  C   UNL     1      14.984  -6.271  27.708  1.00  0.00     0.134 A 
ATOM      7  C   UNL     1      16.256  -6.471  28.260  1.00  0.00     0.093 A 
ATOM      8  C   UNL     1      17.336  -6.845  27.463  1.00  0.00     0.123 A 
ATOM      9  C   UNL     1      17.157  -7.020  26.090  1.00  0.00     0.094 A 
ATOM     10  C   UNL     1      15.908  -6.792  25.505  1.00  0.00     0.146 A 
ATOM     11  O   UNL     1      15.782  -6.959  24.194  1.00  0.00    -0.452 OA
ENDROOT
BRANCH   1  12
ATOM     12  C   UNL     1      14.634  -6.996  22.074  1.00  0.00     0.025 A 
ATOM     13  C   UNL     1      15.720  -6.634  21.259  1.00  0.00     0.016 A 
ATOM     14  C   UNL     1      15.673  -6.856  19.880  1.00  0.00     0.051 A 
ATOM     15  C   UNL     1      14.537  -7.431  19.295  1.00  0.00     0.157 A 
ATOM     16  C   UNL     1      13.489  -7.552  21.480  1.00  0.00     0.062 A 
ATOM     17  C   UNL     1      13.442  -7.776  20.096  1.00  0.00     0.158 A 
BRANCH  15  18
ATOM     18  O   UNL     1      14.487  -7.655  17.921  1.00  0.00    -0.504 OA
ATOM     19  H   UNL     1      13.849  -7.144  17.323  1.00  0.00     0.293 HD
ENDBRANCH  15  18
BRANCH  17  20
ATOM     20  O   UNL     1      12.310  -8.340  19.511  1.00  0.00    -0.504 OA
ATOM     21  H   UNL     1      11.990  -8.055  18.591  1.00  0.00     0.293 HD
ENDBRANCH  17  20
ENDBRANCH   1  12
BRANCH   2  22
ATOM     22  O   UNL     1      12.350  -5.962  23.528  1.00  0.00    -0.502 OA
ATOM     23  H   UNL     1      12.361  -5.552  22.602  1.00  0.00     0.293 HD
ENDBRANCH   2  22
BRANCH   6  24
ATOM     24  O   UNL     1      13.951  -5.990  28.607  1.00  0.00    -0.507 OA
ATOM     25  H   UNL     1      14.081  -5.784  29.585  1.00  0.00     0.293 HD
ENDBRANCH   6  24
BRANCH   8  26
ATOM     26  O   UNL     1      18.584  -7.052  28.047  1.00  0.00    -0.508 OA
ATOM     27  H   UNL     1      19.160  -6.278  28.353  1.00  0.00     0.293 HD
ENDBRANCH   8  26
TORSDOF 6
ENDMDL
