MODEL 1
REMARK VINA RESULT:    -2.533      0.000      0.000
REMARK INTER + INTRA:          -4.669
REMARK INTER:                  -4.014
REMARK INTRA:                  -0.655
REMARK UNBOUND:                -0.655
REMARK SMILES CCCCCCCCCCCC(=O)[O-]
REMARK SMILES IDX 7 1 8 2 9 3 10 4 11 5 12 6 13 7 14 8 6 9 5 10 4 11 3 12 2 13
REMARK SMILES IDX 1 14
REMARK H PARENT
REMARK Flexibility Score: inf
ROOT
ATOM      1  C   UNL     1      53.795  52.429  18.424  1.00  0.00     0.000 C 
ENDROOT
BRANCH   1   2
ATOM      2  C   UNL     1      55.064  52.158  19.247  1.00  0.00     0.000 C 
BRANCH   2   3
ATOM      3  C   UNL     1      55.982  53.386  19.342  1.00  0.00     0.000 C 
BRANCH   3   4
ATOM      4  C   UNL     1      56.950  53.309  20.536  1.00  0.00     0.006 C 
BRANCH   4   5
ATOM      5  C   UNL     1      56.835  51.977  21.289  1.00  0.00     0.053 C 
BRANCH   5   6
ATOM      6  C   UNL     1      56.697  52.183  22.767  1.00  0.00     0.041 C 
ATOM      7  O   UNL     1      56.545  51.196  23.534  1.00  0.00    -0.550 OA
ATOM      8  O   UNL     1      56.706  53.469  23.293  1.00  0.00    -0.550 OA
ENDBRANCH   5   6
ENDBRANCH   4   5
ENDBRANCH   3   4
ENDBRANCH   2   3
ENDBRANCH   1   2
BRANCH   1   9
ATOM      9  C   UNL     1      53.733  53.894  17.978  1.00  0.00     0.000 C 
BRANCH   9  10
ATOM     10  C   UNL     1      53.541  54.003  16.458  1.00  0.00    -0.000 C 
BRANCH  10  11
ATOM     11  C   UNL     1      54.692  53.337  15.674  1.00  0.00    -0.000 C 
BRANCH  11  12
ATOM     12  C   UNL     1      54.363  53.084  14.193  1.00  0.00    -0.000 C 
BRANCH  12  13
ATOM     13  C   UNL     1      55.530  53.421  13.256  1.00  0.00    -0.003 C 
ATOM     14  C   UNL     1      56.744  53.907  14.041  1.00  0.00     0.004 C 
ENDBRANCH  12  13
ENDBRANCH  11  12
ENDBRANCH  10  11
ENDBRANCH   9  10
ENDBRANCH   1   9
TORSDOF 10
ENDMDL
MODEL 2
REMARK VINA RESULT:    -2.376     23.500     25.005
REMARK INTER + INTRA:          -4.420
REMARK INTER:                  -3.010
REMARK INTRA:                  -1.410
REMARK UNBOUND:                -0.655
REMARK SMILES CCCCCCCCCCCC(=O)[O-]
REMARK SMILES IDX 7 1 8 2 9 3 10 4 11 5 12 6 13 7 14 8 6 9 5 10 4 11 3 12 2 13
REMARK SMILES IDX 1 14
REMARK H PARENT
REMARK Flexibility Score: inf
ROOT
ATOM      1  C   UNL     1      41.445  35.256  22.263  1.00  0.00     0.000 C 
ENDROOT
BRANCH   1   2
ATOM      2  C   UNL     1      41.463  33.890  21.561  1.00  0.00     0.000 C 
BRANCH   2   3
ATOM      3  C   UNL     1      41.223  33.999  20.048  1.00  0.00     0.000 C 
BRANCH   3   4
ATOM      4  C   UNL     1      40.178  35.070  19.689  1.00  0.00     0.006 C 
BRANCH   4   5
ATOM      5  C   UNL     1      39.271  34.629  18.532  1.00  0.00     0.053 C 
BRANCH   5   6
ATOM      6  C   UNL     1      37.970  35.373  18.530  1.00  0.00     0.041 C 
ATOM      7  O   UNL     1      36.880  34.744  18.494  1.00  0.00    -0.550 OA
ATOM      8  O   UNL     1      37.964  36.762  18.537  1.00  0.00    -0.550 OA
ENDBRANCH   5   6
ENDBRANCH   4   5
ENDBRANCH   3   4
ENDBRANCH   2   3
ENDBRANCH   1   2
BRANCH   1   9
ATOM      9  C   UNL     1      40.508  35.238  23.476  1.00  0.00     0.000 C 
BRANCH   9  10
ATOM     10  C   UNL     1      39.418  34.167  23.318  1.00  0.00    -0.000 C 
BRANCH  10  11
ATOM     11  C   UNL     1      37.997  34.755  23.444  1.00  0.00    -0.000 C 
BRANCH  11  12
ATOM     12  C   UNL     1      37.310  35.004  22.091  1.00  0.00    -0.000 C 
BRANCH  12  13
ATOM     13  C   UNL     1      36.875  36.463  21.901  1.00  0.00    -0.003 C 
ATOM     14  C   UNL     1      38.051  37.417  22.093  1.00  0.00     0.004 C 
ENDBRANCH  12  13
ENDBRANCH  11  12
ENDBRANCH  10  11
ENDBRANCH   9  10
ENDBRANCH   1   9
TORSDOF 10
ENDMDL
MODEL 3
REMARK VINA RESULT:    -2.326      2.501      4.612
REMARK INTER + INTRA:          -4.340
REMARK INTER:                  -3.480
REMARK INTRA:                  -0.861
REMARK UNBOUND:                -0.655
REMARK SMILES CCCCCCCCCCCC(=O)[O-]
REMARK SMILES IDX 7 1 8 2 9 3 10 4 11 5 12 6 13 7 14 8 6 9 5 10 4 11 3 12 2 13
REMARK SMILES IDX 1 14
REMARK H PARENT
REMARK Flexibility Score: inf
ROOT
ATOM      1  C   UNL     1      56.193  53.235  14.837  1.00  0.00     0.000 C 
ENDROOT
BRANCH   1   2
ATOM      2  C   UNL     1      54.659  53.249  14.761  1.00  0.00     0.000 C 
BRANCH   2   3
ATOM      3  C   UNL     1      54.002  53.614  16.102  1.00  0.00     0.000 C 
BRANCH   3   4
ATOM      4  C   UNL     1      53.563  52.375  16.902  1.00  0.00     0.006 C 
BRANCH   4   5
ATOM      5  C   UNL     1      53.923  52.492  18.390  1.00  0.00     0.053 C 
BRANCH   5   6
ATOM      6  C   UNL     1      55.405  52.533  18.603  1.00  0.00     0.041 C 
ATOM      7  O   UNL     1      55.919  53.437  19.313  1.00  0.00    -0.550 OA
ATOM      8  O   UNL     1      56.222  51.591  17.990  1.00  0.00    -0.550 OA
ENDBRANCH   5   6
ENDBRANCH   4   5
ENDBRANCH   3   4
ENDBRANCH   2   3
ENDBRANCH   1   2
BRANCH   1   9
ATOM      9  C   UNL     1      56.804  54.124  13.747  1.00  0.00     0.000 C 
BRANCH   9  10
ATOM     10  C   UNL     1      57.124  53.310  12.484  1.00  0.00    -0.000 C 
BRANCH  10  11
ATOM     11  C   UNL     1      56.752  54.066  11.191  1.00  0.00    -0.000 C 
BRANCH  11  12
ATOM     12  C   UNL     1      55.708  53.336  10.330  1.00  0.00    -0.000 C 
BRANCH  12  13
ATOM     13  C   UNL     1      54.414  53.027  11.094  1.00  0.00    -0.003 C 
ATOM     14  C   UNL     1      53.372  54.120  10.876  1.00  0.00     0.004 C 
ENDBRANCH  12  13
ENDBRANCH  11  12
ENDBRANCH  10  11
ENDBRANCH   9  10
ENDBRANCH   1   9
TORSDOF 10
ENDMDL
MODEL 4
REMARK VINA RESULT:    -2.274     22.974     24.437
REMARK INTER + INTRA:          -4.258
REMARK INTER:                  -2.825
REMARK INTRA:                  -1.433
REMARK UNBOUND:                -0.655
REMARK SMILES CCCCCCCCCCCC(=O)[O-]
REMARK SMILES IDX 7 1 8 2 9 3 10 4 11 5 12 6 13 7 14 8 6 9 5 10 4 11 3 12 2 13
REMARK SMILES IDX 1 14
REMARK H PARENT
REMARK Flexibility Score: inf
ROOT
ATOM      1  C   UNL     1      38.985  38.379  19.090  1.00  0.00     0.000 C 
ENDROOT
BRANCH   1   2
ATOM      2  C   UNL     1      37.983  38.232  20.245  1.00  0.00     0.000 C 
BRANCH   2   3
ATOM      3  C   UNL     1      38.374  37.121  21.232  1.00  0.00     0.000 C 
BRANCH   3   4
ATOM      4  C   UNL     1      37.165  36.294  21.701  1.00  0.00     0.006 C 
BRANCH   4   5
ATOM      5  C   UNL     1      37.579  34.913  22.228  1.00  0.00     0.053 C 
BRANCH   5   6
ATOM      6  C   UNL     1      38.171  34.996  23.602  1.00  0.00     0.041 C 
ATOM      7  O   UNL     1      39.303  34.497  23.836  1.00  0.00    -0.550 OA
ATOM      8  O   UNL     1      37.459  35.599  24.631  1.00  0.00    -0.550 OA
ENDBRANCH   5   6
ENDBRANCH   4   5
ENDBRANCH   3   4
ENDBRANCH   2   3
ENDBRANCH   1   2
BRANCH   1   9
ATOM      9  C   UNL     1      38.291  38.198  17.735  1.00  0.00     0.000 C 
BRANCH   9  10
ATOM     10  C   UNL     1      36.949  37.468  17.893  1.00  0.00    -0.000 C 
BRANCH  10  11
ATOM     11  C   UNL     1      36.988  36.039  17.312  1.00  0.00    -0.000 C 
BRANCH  11  12
ATOM     12  C   UNL     1      37.323  34.959  18.355  1.00  0.00    -0.000 C 
BRANCH  12  13
ATOM     13  C   UNL     1      38.823  34.648  18.433  1.00  0.00    -0.003 C 
ATOM     14  C   UNL     1      39.451  34.615  17.043  1.00  0.00     0.004 C 
ENDBRANCH  12  13
ENDBRANCH  11  12
ENDBRANCH  10  11
ENDBRANCH   9  10
ENDBRANCH   1   9
TORSDOF 10
ENDMDL
MODEL 5
REMARK VINA RESULT:    -2.258      2.211      3.722
REMARK INTER + INTRA:          -4.233
REMARK INTER:                  -2.859
REMARK INTRA:                  -1.374
REMARK UNBOUND:                -0.655
REMARK SMILES CCCCCCCCCCCC(=O)[O-]
REMARK SMILES IDX 7 1 8 2 9 3 10 4 11 5 12 6 13 7 14 8 6 9 5 10 4 11 3 12 2 13
REMARK SMILES IDX 1 14
REMARK H PARENT
REMARK Flexibility Score: inf
ROOT
ATOM      1  C   UNL     1      52.273  51.787  15.428  1.00  0.00     0.000 C 
ENDROOT
BRANCH   1   2
ATOM      2  C   UNL     1      52.203  53.299  15.690  1.00  0.00     0.000 C 
BRANCH   2   3
ATOM      3  C   UNL     1      52.781  53.690  17.059  1.00  0.00     0.000 C 
BRANCH   3   4
ATOM      4  C   UNL     1      54.291  53.414  17.164  1.00  0.00     0.006 C 
BRANCH   4   5
ATOM      5  C   UNL     1      54.638  52.563  18.394  1.00  0.00     0.053 C 
BRANCH   5   6
ATOM      6  C   UNL     1      55.977  52.924  18.961  1.00  0.00     0.041 C 
ATOM      7  O   UNL     1      56.071  53.808  19.853  1.00  0.00    -0.550 OA
ATOM      8  O   UNL     1      57.125  52.306  18.481  1.00  0.00    -0.550 OA
ENDBRANCH   5   6
ENDBRANCH   4   5
ENDBRANCH   3   4
ENDBRANCH   2   3
ENDBRANCH   1   2
BRANCH   1   9
ATOM      9  C   UNL     1      53.016  51.491  14.119  1.00  0.00     0.000 C 
BRANCH   9  10
ATOM     10  C   UNL     1      53.587  52.778  13.504  1.00  0.00    -0.000 C 
BRANCH  10  11
ATOM     11  C   UNL     1      55.094  52.659  13.193  1.00  0.00    -0.000 C 
BRANCH  11  12
ATOM     12  C   UNL     1      55.948  53.749  13.862  1.00  0.00    -0.000 C 
BRANCH  12  13
ATOM     13  C   UNL     1      57.065  53.175  14.744  1.00  0.00    -0.003 C 
ATOM     14  C   UNL     1      56.842  51.691  15.018  1.00  0.00     0.004 C 
ENDBRANCH  12  13
ENDBRANCH  11  12
ENDBRANCH  10  11
ENDBRANCH   9  10
ENDBRANCH   1   9
TORSDOF 10
ENDMDL
MODEL 6
REMARK VINA RESULT:    -2.234      5.063      7.573
REMARK INTER + INTRA:          -4.195
REMARK INTER:                  -3.323
REMARK INTRA:                  -0.872
REMARK UNBOUND:                -0.655
REMARK SMILES CCCCCCCCCCCC(=O)[O-]
REMARK SMILES IDX 7 1 8 2 9 3 10 4 11 5 12 6 13 7 14 8 6 9 5 10 4 11 3 12 2 13
REMARK SMILES IDX 1 14
REMARK H PARENT
REMARK Flexibility Score: inf
ROOT
ATOM      1  C   UNL     1      54.202  53.416  15.594  1.00  0.00     0.000 C 
ENDROOT
BRANCH   1   2
ATOM      2  C   UNL     1      55.047  53.093  14.353  1.00  0.00     0.000 C 
BRANCH   2   3
ATOM      3  C   UNL     1      56.512  53.533  14.502  1.00  0.00     0.000 C 
BRANCH   3   4
ATOM      4  C   UNL     1      57.088  54.121  13.202  1.00  0.00     0.006 C 
BRANCH   4   5
ATOM      5  C   UNL     1      56.059  54.125  12.063  1.00  0.00     0.053 C 
BRANCH   5   6
ATOM      6  C   UNL     1      56.527  53.321  10.889  1.00  0.00     0.041 C 
ATOM      7  O   UNL     1      56.596  53.847   9.747  1.00  0.00    -0.550 OA
ATOM      8  O   UNL     1      56.858  51.981  11.051  1.00  0.00    -0.550 OA
ENDBRANCH   5   6
ENDBRANCH   4   5
ENDBRANCH   3   4
ENDBRANCH   2   3
ENDBRANCH   1   2
BRANCH   1   9
ATOM      9  C   UNL     1      53.410  52.186  16.054  1.00  0.00     0.000 C 
BRANCH   9  10
ATOM     10  C   UNL     1      53.725  51.839  17.517  1.00  0.00    -0.000 C 
BRANCH  10  11
ATOM     11  C   UNL     1      54.953  50.914  17.648  1.00  0.00    -0.000 C 
BRANCH  11  12
ATOM     12  C   UNL     1      56.202  51.622  18.197  1.00  0.00    -0.000 C 
BRANCH  12  13
ATOM     13  C   UNL     1      55.869  52.895  18.986  1.00  0.00    -0.003 C 
ATOM     14  C   UNL     1      57.118  53.485  19.633  1.00  0.00     0.004 C 
ENDBRANCH  12  13
ENDBRANCH  11  12
ENDBRANCH  10  11
ENDBRANCH   9  10
ENDBRANCH   1   9
TORSDOF 10
ENDMDL
MODEL 7
REMARK VINA RESULT:    -2.230     23.158     25.036
REMARK INTER + INTRA:          -4.188
REMARK INTER:                  -2.777
REMARK INTRA:                  -1.411
REMARK UNBOUND:                -0.655
REMARK SMILES CCCCCCCCCCCC(=O)[O-]
REMARK SMILES IDX 7 1 8 2 9 3 10 4 11 5 12 6 13 7 14 8 6 9 5 10 4 11 3 12 2 13
REMARK SMILES IDX 1 14
REMARK H PARENT
REMARK Flexibility Score: inf
ROOT
ATOM      1  C   UNL     1      39.646  37.081  20.412  1.00  0.00     0.000 C 
ENDROOT
BRANCH   1   2
ATOM      2  C   UNL     1      38.418  37.482  21.242  1.00  0.00     0.000 C 
BRANCH   2   3
ATOM      3  C   UNL     1      37.191  36.605  20.948  1.00  0.00     0.000 C 
BRANCH   3   4
ATOM      4  C   UNL     1      36.875  36.516  19.444  1.00  0.00     0.006 C 
BRANCH   4   5
ATOM      5  C   UNL     1      36.954  35.075  18.921  1.00  0.00     0.053 C 
BRANCH   5   6
ATOM      6  C   UNL     1      37.942  34.943  17.802  1.00  0.00     0.041 C 
ATOM      7  O   UNL     1      37.630  35.298  16.635  1.00  0.00    -0.550 OA
ATOM      8  O   UNL     1      39.197  34.398  18.043  1.00  0.00    -0.550 OA
ENDBRANCH   5   6
ENDBRANCH   4   5
ENDBRANCH   3   4
ENDBRANCH   2   3
ENDBRANCH   1   2
BRANCH   1   9
ATOM      9  C   UNL     1      40.833  36.737  21.319  1.00  0.00     0.000 C 
BRANCH   9  10
ATOM     10  C   UNL     1      41.299  35.290  21.096  1.00  0.00    -0.000 C 
BRANCH  10  11
ATOM     11  C   UNL     1      40.169  34.268  21.341  1.00  0.00    -0.000 C 
BRANCH  11  12
ATOM     12  C   UNL     1      40.003  33.875  22.818  1.00  0.00    -0.000 C 
BRANCH  12  13
ATOM     13  C   UNL     1      38.570  34.070  23.331  1.00  0.00    -0.003 C 
ATOM     14  C   UNL     1      38.482  35.264  24.276  1.00  0.00     0.004 C 
ENDBRANCH  12  13
ENDBRANCH  11  12
ENDBRANCH  10  11
ENDBRANCH   9  10
ENDBRANCH   1   9
TORSDOF 10
ENDMDL
MODEL 8
REMARK VINA RESULT:    -2.226     23.017     24.573
REMARK INTER + INTRA:          -4.182
REMARK INTER:                  -2.565
REMARK INTRA:                  -1.617
REMARK UNBOUND:                -0.655
REMARK SMILES CCCCCCCCCCCC(=O)[O-]
REMARK SMILES IDX 7 1 8 2 9 3 10 4 11 5 12 6 13 7 14 8 6 9 5 10 4 11 3 12 2 13
REMARK SMILES IDX 1 14
REMARK H PARENT
REMARK Flexibility Score: inf
ROOT
ATOM      1  C   UNL     1      40.006  34.986  23.766  1.00  0.00     0.000 C 
ENDROOT
BRANCH   1   2
ATOM      2  C   UNL     1      41.258  34.928  22.877  1.00  0.00     0.000 C 
BRANCH   2   3
ATOM      3  C   UNL     1      41.189  35.903  21.692  1.00  0.00     0.000 C 
BRANCH   3   4
ATOM      4  C   UNL     1      41.489  35.220  20.346  1.00  0.00     0.006 C 
BRANCH   4   5
ATOM      5  C   UNL     1      40.329  34.330  19.877  1.00  0.00     0.053 C 
BRANCH   5   6
ATOM      6  C   UNL     1      39.948  34.615  18.456  1.00  0.00     0.041 C 
ATOM      7  O   UNL     1      40.820  34.988  17.628  1.00  0.00    -0.550 OA
ATOM      8  O   UNL     1      38.623  34.498  18.055  1.00  0.00    -0.550 OA
ENDBRANCH   5   6
ENDBRANCH   4   5
ENDBRANCH   3   4
ENDBRANCH   2   3
ENDBRANCH   1   2
BRANCH   1   9
ATOM      9  C   UNL     1      38.981  33.927  23.341  1.00  0.00     0.000 C 
BRANCH   9  10
ATOM     10  C   UNL     1      37.771  34.574  22.651  1.00  0.00    -0.000 C 
BRANCH  10  11
ATOM     11  C   UNL     1      37.415  35.946  23.261  1.00  0.00    -0.000 C 
BRANCH  11  12
ATOM     12  C   UNL     1      37.342  37.080  22.226  1.00  0.00    -0.000 C 
BRANCH  12  13
ATOM     13  C   UNL     1      37.557  36.591  20.787  1.00  0.00    -0.003 C 
ATOM     14  C   UNL     1      38.323  37.622  19.964  1.00  0.00     0.004 C 
ENDBRANCH  12  13
ENDBRANCH  11  12
ENDBRANCH  10  11
ENDBRANCH   9  10
ENDBRANCH   1   9
TORSDOF 10
ENDMDL
MODEL 9
REMARK VINA RESULT:    -2.223      4.272      6.314
REMARK INTER + INTRA:          -4.177
REMARK INTER:                  -2.680
REMARK INTRA:                  -1.497
REMARK UNBOUND:                -0.655
REMARK SMILES CCCCCCCCCCCC(=O)[O-]
REMARK SMILES IDX 7 1 8 2 9 3 10 4 11 5 12 6 13 7 14 8 6 9 5 10 4 11 3 12 2 13
REMARK SMILES IDX 1 14
REMARK H PARENT
REMARK Flexibility Score: inf
ROOT
ATOM      1  C   UNL     1      52.833  51.835  17.457  1.00  0.00     0.000 C 
ENDROOT
BRANCH   1   2
ATOM      2  C   UNL     1      52.832  53.353  17.695  1.00  0.00     0.000 C 
BRANCH   2   3
ATOM      3  C   UNL     1      53.700  54.113  16.681  1.00  0.00     0.000 C 
BRANCH   3   4
ATOM      4  C   UNL     1      53.913  53.325  15.376  1.00  0.00     0.006 C 
BRANCH   4   5
ATOM      5  C   UNL     1      55.375  53.364  14.909  1.00  0.00     0.053 C 
BRANCH   5   6
ATOM      6  C   UNL     1      55.486  53.245  13.419  1.00  0.00     0.041 C 
ATOM      7  O   UNL     1      54.455  53.304  12.699  1.00  0.00    -0.550 OA
ATOM      8  O   UNL     1      56.726  53.037  12.829  1.00  0.00    -0.550 OA
ENDBRANCH   5   6
ENDBRANCH   4   5
ENDBRANCH   3   4
ENDBRANCH   2   3
ENDBRANCH   1   2
BRANCH   1   9
ATOM      9  C   UNL     1      52.836  51.071  18.786  1.00  0.00     0.000 C 
BRANCH   9  10
ATOM     10  C   UNL     1      54.118  50.241  18.944  1.00  0.00    -0.000 C 
BRANCH  10  11
ATOM     11  C   UNL     1      55.127  50.499  17.805  1.00  0.00    -0.000 C 
BRANCH  11  12
ATOM     12  C   UNL     1      56.503  50.977  18.297  1.00  0.00    -0.000 C 
BRANCH  12  13
ATOM     13  C   UNL     1      56.654  52.504  18.261  1.00  0.00    -0.003 C 
ATOM     14  C   UNL     1      56.311  53.123  19.613  1.00  0.00     0.004 C 
ENDBRANCH  12  13
ENDBRANCH  11  12
ENDBRANCH  10  11
ENDBRANCH   9  10
ENDBRANCH   1   9
TORSDOF 10
ENDMDL
