MODEL 1
REMARK VINA RESULT:    -5.034      0.000      0.000
REMARK INTER + INTRA:          -9.039
REMARK INTER:                  -8.565
REMARK INTRA:                  -0.475
REMARK UNBOUND:                -0.475
REMARK SMILES CCCCCCCCCCCCCC(=O)[O-]
REMARK SMILES IDX 8 1 9 2 10 3 11 4 12 5 13 6 14 7 15 8 16 9 7 10 6 11 5 12
REMARK SMILES IDX 4 13 3 14 2 15 1 16
REMARK H PARENT
REMARK Flexibility Score: inf
ROOT
ATOM      1  C   UNL     1      -8.203  27.630 -25.973  1.00  0.00     0.000 C 
ENDROOT
BRANCH   1   2
ATOM      2  C   UNL     1      -6.997  28.101 -25.140  1.00  0.00     0.000 C 
BRANCH   2   3
ATOM      3  C   UNL     1      -7.309  28.443 -23.668  1.00  0.00     0.000 C 
BRANCH   3   4
ATOM      4  C   UNL     1      -6.077  28.699 -22.782  1.00  0.00     0.000 C 
BRANCH   4   5
ATOM      5  C   UNL     1      -6.243  28.155 -21.355  1.00  0.00     0.006 C 
BRANCH   5   6
ATOM      6  C   UNL     1      -4.920  28.219 -20.586  1.00  0.00     0.053 C 
BRANCH   6   7
ATOM      7  C   UNL     1      -4.428  26.842 -20.274  1.00  0.00     0.041 C 
ATOM      8  O   UNL     1      -3.197  26.584 -20.316  1.00  0.00    -0.550 OA
ATOM      9  O   UNL     1      -5.325  25.854 -19.886  1.00  0.00    -0.550 OA
ENDBRANCH   6   7
ENDBRANCH   5   6
ENDBRANCH   4   5
ENDBRANCH   3   4
ENDBRANCH   2   3
ENDBRANCH   1   2
BRANCH   1  10
ATOM     10  C   UNL     1      -7.837  27.344 -27.439  1.00  0.00     0.000 C 
BRANCH  10  11
ATOM     11  C   UNL     1      -8.095  25.881 -27.836  1.00  0.00    -0.000 C 
BRANCH  11  12
ATOM     12  C   UNL     1      -9.447  25.361 -27.315  1.00  0.00    -0.000 C 
BRANCH  12  13
ATOM     13  C   UNL     1      -9.308  24.100 -26.443  1.00  0.00    -0.000 C 
BRANCH  13  14
ATOM     14  C   UNL     1     -10.637  23.434 -26.043  1.00  0.00    -0.000 C 
BRANCH  14  15
ATOM     15  C   UNL     1     -10.458  22.315 -25.007  1.00  0.00    -0.003 C 
ATOM     16  C   UNL     1      -9.296  22.618 -24.064  1.00  0.00     0.004 C 
ENDBRANCH  14  15
ENDBRANCH  13  14
ENDBRANCH  12  13
ENDBRANCH  11  12
ENDBRANCH  10  11
ENDBRANCH   1  10
TORSDOF 12
ENDMDL
MODEL 2
REMARK VINA RESULT:    -4.965      2.847      6.897
REMARK INTER + INTRA:          -8.923
REMARK INTER:                  -8.163
REMARK INTRA:                  -0.760
REMARK UNBOUND:                -0.475
REMARK SMILES CCCCCCCCCCCCCC(=O)[O-]
REMARK SMILES IDX 8 1 9 2 10 3 11 4 12 5 13 6 14 7 15 8 16 9 7 10 6 11 5 12
REMARK SMILES IDX 4 13 3 14 2 15 1 16
REMARK H PARENT
REMARK Flexibility Score: inf
ROOT
ATOM      1  C   UNL     1      -8.317  27.698 -24.582  1.00  0.00     0.000 C 
ENDROOT
BRANCH   1   2
ATOM      2  C   UNL     1      -8.778  27.730 -26.050  1.00  0.00     0.000 C 
BRANCH   2   3
ATOM      3  C   UNL     1      -7.793  27.108 -27.062  1.00  0.00     0.000 C 
BRANCH   3   4
ATOM      4  C   UNL     1      -8.313  25.860 -27.796  1.00  0.00     0.000 C 
BRANCH   4   5
ATOM      5  C   UNL     1      -9.560  25.253 -27.135  1.00  0.00     0.006 C 
BRANCH   5   6
ATOM      6  C   UNL     1      -9.233  23.908 -26.480  1.00  0.00     0.053 C 
BRANCH   6   7
ATOM      7  C   UNL     1     -10.181  23.627 -25.358  1.00  0.00     0.041 C 
ATOM      8  O   UNL     1      -9.840  23.854 -24.167  1.00  0.00    -0.550 OA
ATOM      9  O   UNL     1     -11.462  23.162 -25.629  1.00  0.00    -0.550 OA
ENDBRANCH   6   7
ENDBRANCH   5   6
ENDBRANCH   4   5
ENDBRANCH   3   4
ENDBRANCH   2   3
ENDBRANCH   1   2
BRANCH   1  10
ATOM     10  C   UNL     1      -6.938  28.348 -24.377  1.00  0.00     0.000 C 
BRANCH  10  11
ATOM     11  C   UNL     1      -6.690  28.751 -22.913  1.00  0.00    -0.000 C 
BRANCH  11  12
ATOM     12  C   UNL     1      -5.198  28.974 -22.611  1.00  0.00    -0.000 C 
BRANCH  12  13
ATOM     13  C   UNL     1      -4.844  28.734 -21.132  1.00  0.00    -0.000 C 
BRANCH  13  14
ATOM     14  C   UNL     1      -5.943  28.043 -20.302  1.00  0.00    -0.000 C 
BRANCH  14  15
ATOM     15  C   UNL     1      -5.658  26.556 -20.051  1.00  0.00    -0.003 C 
ATOM     16  C   UNL     1      -4.166  26.254 -20.167  1.00  0.00     0.004 C 
ENDBRANCH  14  15
ENDBRANCH  13  14
ENDBRANCH  12  13
ENDBRANCH  11  12
ENDBRANCH  10  11
ENDBRANCH   1  10
TORSDOF 12
ENDMDL
MODEL 3
REMARK VINA RESULT:    -4.957      2.266      5.880
REMARK INTER + INTRA:          -8.908
REMARK INTER:                  -8.325
REMARK INTRA:                  -0.583
REMARK UNBOUND:                -0.475
REMARK SMILES CCCCCCCCCCCCCC(=O)[O-]
REMARK SMILES IDX 8 1 9 2 10 3 11 4 12 5 13 6 14 7 15 8 16 9 7 10 6 11 5 12
REMARK SMILES IDX 4 13 3 14 2 15 1 16
REMARK H PARENT
REMARK Flexibility Score: inf
ROOT
ATOM      1  C   UNL     1      -8.633  24.718 -27.423  1.00  0.00     0.000 C 
ENDROOT
BRANCH   1   2
ATOM      2  C   UNL     1      -9.589  24.354 -26.273  1.00  0.00     0.000 C 
BRANCH   2   3
ATOM      3  C   UNL     1      -9.747  22.843 -26.003  1.00  0.00     0.000 C 
BRANCH   3   4
ATOM      4  C   UNL     1     -10.300  22.482 -24.613  1.00  0.00     0.000 C 
BRANCH   4   5
ATOM      5  C   UNL     1      -9.337  22.845 -23.473  1.00  0.00     0.006 C 
BRANCH   5   6
ATOM      6  C   UNL     1     -10.095  23.433 -22.280  1.00  0.00     0.053 C 
BRANCH   6   7
ATOM      7  C   UNL     1      -9.582  22.860 -20.998  1.00  0.00     0.041 C 
ATOM      8  O   UNL     1      -8.475  23.237 -20.532  1.00  0.00    -0.550 OA
ATOM      9  O   UNL     1     -10.350  21.944 -20.289  1.00  0.00    -0.550 OA
ENDBRANCH   6   7
ENDBRANCH   5   6
ENDBRANCH   4   5
ENDBRANCH   3   4
ENDBRANCH   2   3
ENDBRANCH   1   2
BRANCH   1  10
ATOM     10  C   UNL     1      -8.684  26.210 -27.790  1.00  0.00     0.000 C 
BRANCH  10  11
ATOM     11  C   UNL     1      -7.910  27.088 -26.791  1.00  0.00    -0.000 C 
BRANCH  11  12
ATOM     12  C   UNL     1      -8.840  27.812 -25.802  1.00  0.00    -0.000 C 
BRANCH  12  13
ATOM     13  C   UNL     1      -8.283  27.840 -24.367  1.00  0.00    -0.000 C 
BRANCH  13  14
ATOM     14  C   UNL     1      -6.877  28.449 -24.225  1.00  0.00    -0.000 C 
BRANCH  14  15
ATOM     15  C   UNL     1      -6.439  28.610 -22.763  1.00  0.00    -0.003 C 
ATOM     16  C   UNL     1      -5.071  29.281 -22.668  1.00  0.00     0.004 C 
ENDBRANCH  14  15
ENDBRANCH  13  14
ENDBRANCH  12  13
ENDBRANCH  11  12
ENDBRANCH  10  11
ENDBRANCH   1  10
TORSDOF 12
ENDMDL
MODEL 4
REMARK VINA RESULT:    -4.912      4.155      7.463
REMARK INTER + INTRA:          -8.833
REMARK INTER:                  -7.161
REMARK INTRA:                  -1.672
REMARK UNBOUND:                -0.475
REMARK SMILES CCCCCCCCCCCCCC(=O)[O-]
REMARK SMILES IDX 8 1 9 2 10 3 11 4 12 5 13 6 14 7 15 8 16 9 7 10 6 11 5 12
REMARK SMILES IDX 4 13 3 14 2 15 1 16
REMARK H PARENT
REMARK Flexibility Score: inf
ROOT
ATOM      1  C   UNL     1      -3.227  28.699 -19.381  1.00  0.00     0.000 C 
ENDROOT
BRANCH   1   2
ATOM      2  C   UNL     1      -3.379  30.088 -20.029  1.00  0.00     0.000 C 
BRANCH   2   3
ATOM      3  C   UNL     1      -3.617  30.079 -21.553  1.00  0.00     0.000 C 
BRANCH   3   4
ATOM      4  C   UNL     1      -5.091  30.187 -21.984  1.00  0.00     0.000 C 
BRANCH   4   5
ATOM      5  C   UNL     1      -5.479  29.153 -23.051  1.00  0.00     0.006 C 
BRANCH   5   6
ATOM      6  C   UNL     1      -6.967  28.804 -22.960  1.00  0.00     0.053 C 
BRANCH   6   7
ATOM      7  C   UNL     1      -7.443  28.195 -24.240  1.00  0.00     0.041 C 
ATOM      8  O   UNL     1      -8.630  27.789 -24.347  1.00  0.00    -0.550 OA
ATOM      9  O   UNL     1      -6.590  28.122 -25.334  1.00  0.00    -0.550 OA
ENDBRANCH   6   7
ENDBRANCH   5   6
ENDBRANCH   4   5
ENDBRANCH   3   4
ENDBRANCH   2   3
ENDBRANCH   1   2
BRANCH   1  10
ATOM     10  C   UNL     1      -3.415  27.550 -20.385  1.00  0.00     0.000 C 
BRANCH  10  11
ATOM     11  C   UNL     1      -4.568  26.611 -19.996  1.00  0.00    -0.000 C 
BRANCH  11  12
ATOM     12  C   UNL     1      -5.914  27.348 -19.882  1.00  0.00    -0.000 C 
BRANCH  12  13
ATOM     13  C   UNL     1      -6.517  27.278 -18.467  1.00  0.00    -0.000 C 
BRANCH  13  14
ATOM     14  C   UNL     1      -6.852  28.640 -17.832  1.00  0.00    -0.000 C 
BRANCH  14  15
ATOM     15  C   UNL     1      -6.659  29.815 -18.800  1.00  0.00    -0.003 C 
ATOM     16  C   UNL     1      -6.898  31.150 -18.100  1.00  0.00     0.004 C 
ENDBRANCH  14  15
ENDBRANCH  13  14
ENDBRANCH  12  13
ENDBRANCH  11  12
ENDBRANCH  10  11
ENDBRANCH   1  10
TORSDOF 12
ENDMDL
MODEL 5
REMARK VINA RESULT:    -4.873      5.089      7.466
REMARK INTER + INTRA:          -8.767
REMARK INTER:                  -7.292
REMARK INTRA:                  -1.474
REMARK UNBOUND:                -0.475
REMARK SMILES CCCCCCCCCCCCCC(=O)[O-]
REMARK SMILES IDX 8 1 9 2 10 3 11 4 12 5 13 6 14 7 15 8 16 9 7 10 6 11 5 12
REMARK SMILES IDX 4 13 3 14 2 15 1 16
REMARK H PARENT
REMARK Flexibility Score: inf
ROOT
ATOM      1  C   UNL     1      -2.164  31.101 -20.118  1.00  0.00     0.000 C 
ENDROOT
BRANCH   1   2
ATOM      2  C   UNL     1      -2.749  32.217 -21.004  1.00  0.00     0.000 C 
BRANCH   2   3
ATOM      3  C   UNL     1      -4.285  32.205 -21.147  1.00  0.00     0.000 C 
BRANCH   3   4
ATOM      4  C   UNL     1      -5.007  33.419 -20.536  1.00  0.00     0.000 C 
BRANCH   4   5
ATOM      5  C   UNL     1      -6.282  33.034 -19.772  1.00  0.00     0.006 C 
BRANCH   5   6
ATOM      6  C   UNL     1      -6.529  31.525 -19.843  1.00  0.00     0.053 C 
BRANCH   6   7
ATOM      7  C   UNL     1      -6.711  30.958 -18.471  1.00  0.00     0.041 C 
ATOM      8  O   UNL     1      -7.012  31.712 -17.508  1.00  0.00    -0.550 OA
ATOM      9  O   UNL     1      -6.599  29.589 -18.263  1.00  0.00    -0.550 OA
ENDBRANCH   6   7
ENDBRANCH   5   6
ENDBRANCH   4   5
ENDBRANCH   3   4
ENDBRANCH   2   3
ENDBRANCH   1   2
BRANCH   1  10
ATOM     10  C   UNL     1      -3.200  30.024 -19.757  1.00  0.00     0.000 C 
BRANCH  10  11
ATOM     11  C   UNL     1      -2.549  28.738 -19.221  1.00  0.00    -0.000 C 
BRANCH  11  12
ATOM     12  C   UNL     1      -3.292  27.470 -19.677  1.00  0.00    -0.000 C 
BRANCH  12  13
ATOM     13  C   UNL     1      -4.064  27.669 -20.994  1.00  0.00    -0.000 C 
BRANCH  13  14
ATOM     14  C   UNL     1      -5.596  27.710 -20.852  1.00  0.00    -0.000 C 
BRANCH  14  15
ATOM     15  C   UNL     1      -6.291  28.366 -22.053  1.00  0.00    -0.003 C 
ATOM     16  C   UNL     1      -5.326  29.260 -22.827  1.00  0.00     0.004 C 
ENDBRANCH  14  15
ENDBRANCH  13  14
ENDBRANCH  12  13
ENDBRANCH  11  12
ENDBRANCH  10  11
ENDBRANCH   1  10
TORSDOF 12
ENDMDL
MODEL 6
REMARK VINA RESULT:    -4.688      5.559      8.922
REMARK INTER + INTRA:          -8.451
REMARK INTER:                  -7.364
REMARK INTRA:                  -1.086
REMARK UNBOUND:                -0.475
REMARK SMILES CCCCCCCCCCCCCC(=O)[O-]
REMARK SMILES IDX 8 1 9 2 10 3 11 4 12 5 13 6 14 7 15 8 16 9 7 10 6 11 5 12
REMARK SMILES IDX 4 13 3 14 2 15 1 16
REMARK H PARENT
REMARK Flexibility Score: inf
ROOT
ATOM      1  C   UNL     1      -6.557  29.593 -19.076  1.00  0.00     0.000 C 
ENDROOT
BRANCH   1   2
ATOM      2  C   UNL     1      -6.315  28.109 -18.746  1.00  0.00     0.000 C 
BRANCH   2   3
ATOM      3  C   UNL     1      -5.858  27.238 -19.934  1.00  0.00     0.000 C 
BRANCH   3   4
ATOM      4  C   UNL     1      -5.493  28.016 -21.211  1.00  0.00     0.000 C 
BRANCH   4   5
ATOM      5  C   UNL     1      -3.982  28.250 -21.356  1.00  0.00     0.006 C 
BRANCH   5   6
ATOM      6  C   UNL     1      -3.583  29.621 -20.803  1.00  0.00     0.053 C 
BRANCH   6   7
ATOM      7  C   UNL     1      -2.579  29.473 -19.705  1.00  0.00     0.041 C 
ATOM      8  O   UNL     1      -2.600  28.458 -18.960  1.00  0.00    -0.550 OA
ATOM      9  O   UNL     1      -1.587  30.430 -19.536  1.00  0.00    -0.550 OA
ENDBRANCH   6   7
ENDBRANCH   5   6
ENDBRANCH   4   5
ENDBRANCH   3   4
ENDBRANCH   2   3
ENDBRANCH   1   2
BRANCH   1  10
ATOM     10  C   UNL     1      -6.800  30.449 -17.822  1.00  0.00     0.000 C 
BRANCH  10  11
ATOM     11  C   UNL     1      -6.989  31.939 -18.154  1.00  0.00    -0.000 C 
BRANCH  11  12
ATOM     12  C   UNL     1      -6.858  32.227 -19.660  1.00  0.00    -0.000 C 
BRANCH  12  13
ATOM     13  C   UNL     1      -5.638  33.103 -19.998  1.00  0.00    -0.000 C 
BRANCH  13  14
ATOM     14  C   UNL     1      -5.567  34.442 -19.241  1.00  0.00    -0.000 C 
BRANCH  14  15
ATOM     15  C   UNL     1      -6.777  35.347 -19.510  1.00  0.00    -0.003 C 
ATOM     16  C   UNL     1      -7.541  35.642 -18.222  1.00  0.00     0.004 C 
ENDBRANCH  14  15
ENDBRANCH  13  14
ENDBRANCH  12  13
ENDBRANCH  11  12
ENDBRANCH  10  11
ENDBRANCH   1  10
TORSDOF 12
ENDMDL
MODEL 7
REMARK VINA RESULT:    -4.662      5.424      8.438
REMARK INTER + INTRA:          -8.407
REMARK INTER:                  -6.898
REMARK INTRA:                  -1.508
REMARK UNBOUND:                -0.475
REMARK SMILES CCCCCCCCCCCCCC(=O)[O-]
REMARK SMILES IDX 8 1 9 2 10 3 11 4 12 5 13 6 14 7 15 8 16 9 7 10 6 11 5 12
REMARK SMILES IDX 4 13 3 14 2 15 1 16
REMARK H PARENT
REMARK Flexibility Score: inf
ROOT
ATOM      1  C   UNL     1      -6.869  31.846 -19.180  1.00  0.00     0.000 C 
ENDROOT
BRANCH   1   2
ATOM      2  C   UNL     1      -6.664  30.660 -18.220  1.00  0.00     0.000 C 
BRANCH   2   3
ATOM      3  C   UNL     1      -6.421  29.298 -18.902  1.00  0.00     0.000 C 
BRANCH   3   4
ATOM      4  C   UNL     1      -6.299  29.347 -20.435  1.00  0.00     0.000 C 
BRANCH   4   5
ATOM      5  C   UNL     1      -5.840  28.013 -21.041  1.00  0.00     0.006 C 
BRANCH   5   6
ATOM      6  C   UNL     1      -4.313  27.896 -21.017  1.00  0.00     0.053 C 
BRANCH   6   7
ATOM      7  C   UNL     1      -3.884  26.825 -20.066  1.00  0.00     0.041 C 
ATOM      8  O   UNL     1      -3.091  27.092 -19.125  1.00  0.00    -0.550 OA
ATOM      9  O   UNL     1      -4.400  25.540 -20.187  1.00  0.00    -0.550 OA
ENDBRANCH   6   7
ENDBRANCH   5   6
ENDBRANCH   4   5
ENDBRANCH   3   4
ENDBRANCH   2   3
ENDBRANCH   1   2
BRANCH   1  10
ATOM     10  C   UNL     1      -6.661  33.208 -18.497  1.00  0.00     0.000 C 
BRANCH  10  11
ATOM     11  C   UNL     1      -5.779  34.155 -19.329  1.00  0.00    -0.000 C 
BRANCH  11  12
ATOM     12  C   UNL     1      -5.396  33.555 -20.693  1.00  0.00    -0.000 C 
BRANCH  12  13
ATOM     13  C   UNL     1      -4.009  34.013 -21.180  1.00  0.00    -0.000 C 
BRANCH  13  14
ATOM     14  C   UNL     1      -3.122  32.898 -21.764  1.00  0.00    -0.000 C 
BRANCH  14  15
ATOM     15  C   UNL     1      -3.529  31.497 -21.286  1.00  0.00    -0.003 C 
ATOM     16  C   UNL     1      -2.766  31.102 -20.025  1.00  0.00     0.004 C 
ENDBRANCH  14  15
ENDBRANCH  13  14
ENDBRANCH  12  13
ENDBRANCH  11  12
ENDBRANCH  10  11
ENDBRANCH   1  10
TORSDOF 12
ENDMDL
MODEL 8
REMARK VINA RESULT:    -4.615      6.647      8.137
REMARK INTER + INTRA:          -8.327
REMARK INTER:                  -6.832
REMARK INTRA:                  -1.494
REMARK UNBOUND:                -0.475
REMARK SMILES CCCCCCCCCCCCCC(=O)[O-]
REMARK SMILES IDX 8 1 9 2 10 3 11 4 12 5 13 6 14 7 15 8 16 9 7 10 6 11 5 12
REMARK SMILES IDX 4 13 3 14 2 15 1 16
REMARK H PARENT
REMARK Flexibility Score: inf
ROOT
ATOM      1  C   UNL     1      -3.014  30.026 -19.838  1.00  0.00     0.000 C 
ENDROOT
BRANCH   1   2
ATOM      2  C   UNL     1      -3.570  30.240 -21.258  1.00  0.00     0.000 C 
BRANCH   2   3
ATOM      3  C   UNL     1      -4.764  31.212 -21.356  1.00  0.00     0.000 C 
BRANCH   3   4
ATOM      4  C   UNL     1      -4.411  32.700 -21.184  1.00  0.00     0.000 C 
BRANCH   4   5
ATOM      5  C   UNL     1      -4.847  33.265 -19.825  1.00  0.00     0.006 C 
BRANCH   5   6
ATOM      6  C   UNL     1      -6.373  33.273 -19.698  1.00  0.00     0.053 C 
BRANCH   6   7
ATOM      7  C   UNL     1      -6.850  34.596 -19.189  1.00  0.00     0.041 C 
ATOM      8  O   UNL     1      -7.316  34.697 -18.024  1.00  0.00    -0.550 OA
ATOM      9  O   UNL     1      -6.734  35.730 -19.984  1.00  0.00    -0.550 OA
ENDBRANCH   6   7
ENDBRANCH   5   6
ENDBRANCH   4   5
ENDBRANCH   3   4
ENDBRANCH   2   3
ENDBRANCH   1   2
BRANCH   1  10
ATOM     10  C   UNL     1      -2.776  28.543 -19.509  1.00  0.00     0.000 C 
BRANCH  10  11
ATOM     11  C   UNL     1      -3.301  27.605 -20.610  1.00  0.00    -0.000 C 
BRANCH  11  12
ATOM     12  C   UNL     1      -4.469  26.727 -20.126  1.00  0.00    -0.000 C 
BRANCH  12  13
ATOM     13  C   UNL     1      -5.834  27.429 -20.244  1.00  0.00    -0.000 C 
BRANCH  13  14
ATOM     14  C   UNL     1      -6.359  28.057 -18.940  1.00  0.00    -0.000 C 
BRANCH  14  15
ATOM     15  C   UNL     1      -6.600  29.568 -19.058  1.00  0.00    -0.003 C 
ATOM     16  C   UNL     1      -7.037  30.162 -17.721  1.00  0.00     0.004 C 
ENDBRANCH  14  15
ENDBRANCH  13  14
ENDBRANCH  12  13
ENDBRANCH  11  12
ENDBRANCH  10  11
ENDBRANCH   1  10
TORSDOF 12
ENDMDL
MODEL 9
REMARK VINA RESULT:    -4.612      6.358      7.951
REMARK INTER + INTRA:          -8.322
REMARK INTER:                  -6.634
REMARK INTRA:                  -1.688
REMARK UNBOUND:                -0.475
REMARK SMILES CCCCCCCCCCCCCC(=O)[O-]
REMARK SMILES IDX 8 1 9 2 10 3 11 4 12 5 13 6 14 7 15 8 16 9 7 10 6 11 5 12
REMARK SMILES IDX 4 13 3 14 2 15 1 16
REMARK H PARENT
REMARK Flexibility Score: inf
ROOT
ATOM      1  C   UNL     1      -6.581  31.224 -19.880  1.00  0.00     0.000 C 
ENDROOT
BRANCH   1   2
ATOM      2  C   UNL     1      -6.142  32.668 -19.576  1.00  0.00     0.000 C 
BRANCH   2   3
ATOM      3  C   UNL     1      -4.961  33.187 -20.422  1.00  0.00     0.000 C 
BRANCH   3   4
ATOM      4  C   UNL     1      -4.405  32.187 -21.451  1.00  0.00     0.000 C 
BRANCH   4   5
ATOM      5  C   UNL     1      -2.878  32.263 -21.594  1.00  0.00     0.006 C 
BRANCH   5   6
ATOM      6  C   UNL     1      -2.211  32.502 -20.236  1.00  0.00     0.053 C 
BRANCH   6   7
ATOM      7  C   UNL     1      -0.738  32.260 -20.325  1.00  0.00     0.041 C 
ATOM      8  O   UNL     1      -0.112  32.542 -21.381  1.00  0.00    -0.550 OA
ATOM      9  O   UNL     1      -0.046  31.770 -19.225  1.00  0.00    -0.550 OA
ENDBRANCH   6   7
ENDBRANCH   5   6
ENDBRANCH   4   5
ENDBRANCH   3   4
ENDBRANCH   2   3
ENDBRANCH   1   2
BRANCH   1  10
ATOM     10  C   UNL     1      -6.591  30.330 -18.629  1.00  0.00     0.000 C 
BRANCH  10  11
ATOM     11  C   UNL     1      -6.459  28.836 -18.972  1.00  0.00    -0.000 C 
BRANCH  11  12
ATOM     12  C   UNL     1      -6.146  28.601 -20.460  1.00  0.00    -0.000 C 
BRANCH  12  13
ATOM     13  C   UNL     1      -4.859  27.785 -20.679  1.00  0.00    -0.000 C 
BRANCH  13  14
ATOM     14  C   UNL     1      -3.593  28.621 -20.943  1.00  0.00    -0.000 C 
BRANCH  14  15
ATOM     15  C   UNL     1      -2.834  28.980 -19.658  1.00  0.00    -0.003 C 
ATOM     16  C   UNL     1      -2.881  27.834 -18.652  1.00  0.00     0.004 C 
ENDBRANCH  14  15
ENDBRANCH  13  14
ENDBRANCH  12  13
ENDBRANCH  11  12
ENDBRANCH  10  11
ENDBRANCH   1  10
TORSDOF 12
ENDMDL
