MODEL 1
REMARK VINA RESULT:     5.362      0.000      0.000
REMARK INTER + INTRA:           9.612
REMARK INTER:                  10.377
REMARK INTRA:                  -0.766
REMARK UNBOUND:                -0.766
REMARK SMILES CCCCCCCCCCCCCCCCCC(=O)[O-]
REMARK SMILES IDX 10 1 11 2 12 3 13 4 14 5 15 6 16 7 17 8 18 9 19 10 20 11
REMARK SMILES IDX 9 12 8 13 7 14 6 15 5 16 4 17 3 18 2 19 1 20
REMARK H PARENT
REMARK Flexibility Score: inf
ROOT
ATOM      1  C   UNL     1      10.245  14.161  -1.193  1.00  0.00     0.000 C 
ENDROOT
BRANCH   1   2
ATOM      2  C   UNL     1      10.991  12.884  -0.770  1.00  0.00     0.000 C 
BRANCH   2   3
ATOM      3  C   UNL     1      11.543  12.968   0.665  1.00  0.00     0.000 C 
BRANCH   3   4
ATOM      4  C   UNL     1      11.238  14.316   1.340  1.00  0.00     0.000 C 
BRANCH   4   5
ATOM      5  C   UNL     1      12.462  14.901   2.066  1.00  0.00     0.000 C 
BRANCH   5   6
ATOM      6  C   UNL     1      12.580  16.428   1.908  1.00  0.00     0.000 C 
BRANCH   6   7
ATOM      7  C   UNL     1      11.364  17.114   1.258  1.00  0.00     0.006 C 
BRANCH   7   8
ATOM      8  C   UNL     1      10.092  17.013   2.109  1.00  0.00     0.053 C 
BRANCH   8   9
ATOM      9  C   UNL     1       8.881  16.942   1.234  1.00  0.00     0.041 C 
ATOM     10  O   UNL     1       8.758  17.727   0.257  1.00  0.00    -0.550 OA
ATOM     11  O   UNL     1       7.910  15.974   1.466  1.00  0.00    -0.550 OA
ENDBRANCH   8   9
ENDBRANCH   7   8
ENDBRANCH   6   7
ENDBRANCH   5   6
ENDBRANCH   4   5
ENDBRANCH   3   4
ENDBRANCH   2   3
ENDBRANCH   1   2
BRANCH   1  12
ATOM     12  C   UNL     1      10.928  14.879  -2.370  1.00  0.00     0.000 C 
BRANCH  12  13
ATOM     13  C   UNL     1      10.768  14.124  -3.698  1.00  0.00    -0.000 C 
BRANCH  13  14
ATOM     14  C   UNL     1      10.856  15.050  -4.924  1.00  0.00    -0.000 C 
BRANCH  14  15
ATOM     15  C   UNL     1      11.983  16.098  -4.789  1.00  0.00    -0.000 C 
BRANCH  15  16
ATOM     16  C   UNL     1      12.003  17.135  -5.930  1.00  0.00    -0.000 C 
BRANCH  16  17
ATOM     17  C   UNL     1      13.252  18.034  -5.968  1.00  0.00    -0.000 C 
BRANCH  17  18
ATOM     18  C   UNL     1      14.374  17.545  -6.905  1.00  0.00    -0.000 C 
BRANCH  18  19
ATOM     19  C   UNL     1      13.941  16.370  -7.793  1.00  0.00    -0.003 C 
ATOM     20  C   UNL     1      15.079  15.371  -7.977  1.00  0.00     0.004 C 
ENDBRANCH  18  19
ENDBRANCH  17  18
ENDBRANCH  16  17
ENDBRANCH  15  16
ENDBRANCH  14  15
ENDBRANCH  13  14
ENDBRANCH  12  13
ENDBRANCH   1  12
TORSDOF 16
ENDMDL
MODEL 2
REMARK VINA RESULT:     6.021      3.016      7.759
REMARK INTER + INTRA:          10.888
REMARK INTER:                  10.719
REMARK INTRA:                   0.168
REMARK UNBOUND:                -0.766
REMARK SMILES CCCCCCCCCCCCCCCCCC(=O)[O-]
REMARK SMILES IDX 10 1 11 2 12 3 13 4 14 5 15 6 16 7 17 8 18 9 19 10 20 11
REMARK SMILES IDX 9 12 8 13 7 14 6 15 5 16 4 17 3 18 2 19 1 20
REMARK H PARENT
REMARK Flexibility Score: inf
ROOT
ATOM      1  C   UNL     1      12.533  13.368  -0.063  1.00  0.00     0.000 C 
ENDROOT
BRANCH   1   2
ATOM      2  C   UNL     1      11.240  14.057  -0.531  1.00  0.00     0.000 C 
BRANCH   2   3
ATOM      3  C   UNL     1      10.414  13.178  -1.487  1.00  0.00     0.000 C 
BRANCH   3   4
ATOM      4  C   UNL     1       9.978  13.930  -2.757  1.00  0.00     0.000 C 
BRANCH   4   5
ATOM      5  C   UNL     1      11.171  14.337  -3.638  1.00  0.00     0.000 C 
BRANCH   5   6
ATOM      6  C   UNL     1      10.801  14.467  -5.127  1.00  0.00     0.000 C 
BRANCH   6   7
ATOM      7  C   UNL     1      11.081  15.846  -5.753  1.00  0.00     0.006 C 
BRANCH   7   8
ATOM      8  C   UNL     1      12.036  16.703  -4.913  1.00  0.00     0.053 C 
BRANCH   8   9
ATOM      9  C   UNL     1      12.850  17.597  -5.794  1.00  0.00     0.041 C 
ATOM     10  O   UNL     1      12.325  18.611  -6.327  1.00  0.00    -0.550 OA
ATOM     11  O   UNL     1      14.202  17.339  -5.989  1.00  0.00    -0.550 OA
ENDBRANCH   8   9
ENDBRANCH   7   8
ENDBRANCH   6   7
ENDBRANCH   5   6
ENDBRANCH   4   5
ENDBRANCH   3   4
ENDBRANCH   2   3
ENDBRANCH   1   2
BRANCH   1  12
ATOM     12  C   UNL     1      12.699  13.402   1.466  1.00  0.00     0.000 C 
BRANCH  12  13
ATOM     13  C   UNL     1      11.887  14.528   2.125  1.00  0.00    -0.000 C 
BRANCH  13  14
ATOM     14  C   UNL     1      12.235  15.919   1.569  1.00  0.00    -0.000 C 
BRANCH  14  15
ATOM     15  C   UNL     1      10.992  16.827   1.438  1.00  0.00    -0.000 C 
BRANCH  15  16
ATOM     16  C   UNL     1       9.724  16.237   2.088  1.00  0.00    -0.000 C 
BRANCH  16  17
ATOM     17  C   UNL     1       9.035  15.126   1.275  1.00  0.00    -0.000 C 
BRANCH  17  18
ATOM     18  C   UNL     1       7.912  14.379   2.022  1.00  0.00    -0.000 C 
BRANCH  18  19
ATOM     19  C   UNL     1       6.543  15.057   1.875  1.00  0.00    -0.003 C 
ATOM     20  C   UNL     1       5.452  14.033   1.573  1.00  0.00     0.004 C 
ENDBRANCH  18  19
ENDBRANCH  17  18
ENDBRANCH  16  17
ENDBRANCH  15  16
ENDBRANCH  14  15
ENDBRANCH  13  14
ENDBRANCH  12  13
ENDBRANCH   1  12
TORSDOF 16
ENDMDL
MODEL 3
REMARK VINA RESULT:     6.103      3.731      8.447
REMARK INTER + INTRA:          11.045
REMARK INTER:                  11.891
REMARK INTRA:                  -0.846
REMARK UNBOUND:                -0.766
REMARK SMILES CCCCCCCCCCCCCCCCCC(=O)[O-]
REMARK SMILES IDX 10 1 11 2 12 3 13 4 14 5 15 6 16 7 17 8 18 9 19 10 20 11
REMARK SMILES IDX 9 12 8 13 7 14 6 15 5 16 4 17 3 18 2 19 1 20
REMARK H PARENT
REMARK Flexibility Score: inf
ROOT
ATOM      1  C   UNL     1      10.312  14.372  -1.642  1.00  0.00     0.000 C 
ENDROOT
BRANCH   1   2
ATOM      2  C   UNL     1      11.371  14.435  -2.756  1.00  0.00     0.000 C 
BRANCH   2   3
ATOM      3  C   UNL     1      10.780  14.163  -4.151  1.00  0.00     0.000 C 
BRANCH   3   4
ATOM      4  C   UNL     1      10.818  15.401  -5.063  1.00  0.00     0.000 C 
BRANCH   4   5
ATOM      5  C   UNL     1      11.993  16.339  -4.736  1.00  0.00     0.000 C 
BRANCH   5   6
ATOM      6  C   UNL     1      12.234  17.401  -5.824  1.00  0.00     0.000 C 
BRANCH   6   7
ATOM      7  C   UNL     1      12.941  16.888  -7.092  1.00  0.00     0.006 C 
BRANCH   7   8
ATOM      8  C   UNL     1      14.464  16.790  -6.932  1.00  0.00     0.053 C 
BRANCH   8   9
ATOM      9  C   UNL     1      15.041  15.875  -7.966  1.00  0.00     0.041 C 
ATOM     10  O   UNL     1      16.088  16.199  -8.586  1.00  0.00    -0.550 OA
ATOM     11  O   UNL     1      14.450  14.640  -8.209  1.00  0.00    -0.550 OA
ENDBRANCH   8   9
ENDBRANCH   7   8
ENDBRANCH   6   7
ENDBRANCH   5   6
ENDBRANCH   4   5
ENDBRANCH   3   4
ENDBRANCH   2   3
ENDBRANCH   1   2
BRANCH   1  12
ATOM     12  C   UNL     1      10.558  13.213  -0.660  1.00  0.00     0.000 C 
BRANCH  12  13
ATOM     13  C   UNL     1      11.605  13.556   0.411  1.00  0.00    -0.000 C 
BRANCH  13  14
ATOM     14  C   UNL     1      11.059  14.497   1.498  1.00  0.00    -0.000 C 
BRANCH  14  15
ATOM     15  C   UNL     1      11.301  15.985   1.162  1.00  0.00    -0.000 C 
BRANCH  15  16
ATOM     16  C   UNL     1      10.007  16.774   0.878  1.00  0.00    -0.000 C 
BRANCH  16  17
ATOM     17  C   UNL     1       9.144  17.074   2.118  1.00  0.00    -0.000 C 
BRANCH  17  18
ATOM     18  C   UNL     1       7.757  16.404   2.120  1.00  0.00    -0.000 C 
BRANCH  18  19
ATOM     19  C   UNL     1       7.834  14.871   2.125  1.00  0.00    -0.003 C 
ATOM     20  C   UNL     1       6.448  14.251   1.973  1.00  0.00     0.004 C 
ENDBRANCH  18  19
ENDBRANCH  17  18
ENDBRANCH  16  17
ENDBRANCH  15  16
ENDBRANCH  14  15
ENDBRANCH  13  14
ENDBRANCH  12  13
ENDBRANCH   1  12
TORSDOF 16
ENDMDL
MODEL 4
REMARK VINA RESULT:     6.226      1.553      2.297
REMARK INTER + INTRA:          11.285
REMARK INTER:                  12.113
REMARK INTRA:                  -0.828
REMARK UNBOUND:                -0.766
REMARK SMILES CCCCCCCCCCCCCCCCCC(=O)[O-]
REMARK SMILES IDX 10 1 11 2 12 3 13 4 14 5 15 6 16 7 17 8 18 9 19 10 20 11
REMARK SMILES IDX 9 12 8 13 7 14 6 15 5 16 4 17 3 18 2 19 1 20
REMARK H PARENT
REMARK Flexibility Score: inf
ROOT
ATOM      1  C   UNL     1       9.990  14.612  -1.680  1.00  0.00     0.000 C 
ENDROOT
BRANCH   1   2
ATOM      2  C   UNL     1      10.460  13.476  -0.756  1.00  0.00     0.000 C 
BRANCH   2   3
ATOM      3  C   UNL     1       9.855  13.571   0.656  1.00  0.00     0.000 C 
BRANCH   3   4
ATOM      4  C   UNL     1       8.554  14.390   0.690  1.00  0.00     0.000 C 
BRANCH   4   5
ATOM      5  C   UNL     1       8.217  14.901   2.102  1.00  0.00     0.000 C 
BRANCH   5   6
ATOM      6  C   UNL     1       7.709  16.355   2.108  1.00  0.00     0.000 C 
BRANCH   6   7
ATOM      7  C   UNL     1       8.810  17.431   2.124  1.00  0.00     0.006 C 
BRANCH   7   8
ATOM      8  C   UNL     1       9.853  17.240   1.016  1.00  0.00     0.053 C 
BRANCH   8   9
ATOM      9  C   UNL     1      11.201  16.969   1.606  1.00  0.00     0.041 C 
ATOM     10  O   UNL     1      11.453  15.849   2.124  1.00  0.00    -0.550 OA
ATOM     11  O   UNL     1      12.196  17.937   1.540  1.00  0.00    -0.550 OA
ENDBRANCH   8   9
ENDBRANCH   7   8
ENDBRANCH   6   7
ENDBRANCH   5   6
ENDBRANCH   4   5
ENDBRANCH   3   4
ENDBRANCH   2   3
ENDBRANCH   1   2
BRANCH   1  12
ATOM     12  C   UNL     1      11.021  14.950  -2.770  1.00  0.00     0.000 C 
BRANCH  12  13
ATOM     13  C   UNL     1      10.772  14.185  -4.079  1.00  0.00    -0.000 C 
BRANCH  13  14
ATOM     14  C   UNL     1      11.263  14.950  -5.320  1.00  0.00    -0.000 C 
BRANCH  14  15
ATOM     15  C   UNL     1      11.886  16.316  -4.959  1.00  0.00    -0.000 C 
BRANCH  15  16
ATOM     16  C   UNL     1      12.001  17.279  -6.157  1.00  0.00    -0.000 C 
BRANCH  16  17
ATOM     17  C   UNL     1      13.274  18.146  -6.173  1.00  0.00    -0.000 C 
BRANCH  17  18
ATOM     18  C   UNL     1      14.514  17.466  -6.785  1.00  0.00    -0.000 C 
BRANCH  18  19
ATOM     19  C   UNL     1      14.173  16.575  -7.989  1.00  0.00    -0.003 C 
ATOM     20  C   UNL     1      15.074  15.344  -8.035  1.00  0.00     0.004 C 
ENDBRANCH  18  19
ENDBRANCH  17  18
ENDBRANCH  16  17
ENDBRANCH  15  16
ENDBRANCH  14  15
ENDBRANCH  13  14
ENDBRANCH  12  13
ENDBRANCH   1  12
TORSDOF 16
ENDMDL
MODEL 5
REMARK VINA RESULT:     6.578      3.227      7.542
REMARK INTER + INTRA:          11.965
REMARK INTER:                  12.187
REMARK INTRA:                  -0.222
REMARK UNBOUND:                -0.766
REMARK SMILES CCCCCCCCCCCCCCCCCC(=O)[O-]
REMARK SMILES IDX 10 1 11 2 12 3 13 4 14 5 15 6 16 7 17 8 18 9 19 10 20 11
REMARK SMILES IDX 9 12 8 13 7 14 6 15 5 16 4 17 3 18 2 19 1 20
REMARK H PARENT
REMARK Flexibility Score: inf
ROOT
ATOM      1  C   UNL     1      12.120  14.101  -0.821  1.00  0.00     0.000 C 
ENDROOT
BRANCH   1   2
ATOM      2  C   UNL     1      10.730  14.759  -0.843  1.00  0.00     0.000 C 
BRANCH   2   3
ATOM      3  C   UNL     1       9.912  14.374  -2.089  1.00  0.00     0.000 C 
BRANCH   3   4
ATOM      4  C   UNL     1      10.791  13.860  -3.241  1.00  0.00     0.000 C 
BRANCH   4   5
ATOM      5  C   UNL     1      10.354  14.414  -4.608  1.00  0.00     0.000 C 
BRANCH   5   6
ATOM      6  C   UNL     1      11.503  15.095  -5.375  1.00  0.00     0.000 C 
BRANCH   6   7
ATOM      7  C   UNL     1      11.867  16.510  -4.885  1.00  0.00     0.006 C 
BRANCH   7   8
ATOM      8  C   UNL     1      12.149  17.487  -6.033  1.00  0.00     0.053 C 
BRANCH   8   9
ATOM      9  C   UNL     1      13.603  17.474  -6.386  1.00  0.00     0.041 C 
ATOM     10  O   UNL     1      14.133  16.430  -6.850  1.00  0.00    -0.550 OA
ATOM     11  O   UNL     1      14.363  18.630  -6.250  1.00  0.00    -0.550 OA
ENDBRANCH   8   9
ENDBRANCH   7   8
ENDBRANCH   6   7
ENDBRANCH   5   6
ENDBRANCH   4   5
ENDBRANCH   3   4
ENDBRANCH   2   3
ENDBRANCH   1   2
BRANCH   1  12
ATOM     12  C   UNL     1      12.178  12.878   0.111  1.00  0.00     0.000 C 
BRANCH  12  13
ATOM     13  C   UNL     1      12.183  13.265   1.597  1.00  0.00    -0.000 C 
BRANCH  13  14
ATOM     14  C   UNL     1      13.351  14.195   1.968  1.00  0.00    -0.000 C 
BRANCH  14  15
ATOM     15  C   UNL     1      12.940  15.684   1.959  1.00  0.00    -0.000 C 
BRANCH  15  16
ATOM     16  C   UNL     1      11.424  15.909   2.124  1.00  0.00    -0.000 C 
BRANCH  16  17
ATOM     17  C   UNL     1      10.936  17.326   1.771  1.00  0.00    -0.000 C 
BRANCH  17  18
ATOM     18  C   UNL     1       9.615  17.378   0.979  1.00  0.00    -0.000 C 
BRANCH  18  19
ATOM     19  C   UNL     1       8.473  16.622   1.673  1.00  0.00    -0.003 C 
ATOM     20  C   UNL     1       8.653  15.112   1.542  1.00  0.00     0.004 C 
ENDBRANCH  18  19
ENDBRANCH  17  18
ENDBRANCH  16  17
ENDBRANCH  15  16
ENDBRANCH  14  15
ENDBRANCH  13  14
ENDBRANCH  12  13
ENDBRANCH   1  12
TORSDOF 16
ENDMDL
MODEL 6
REMARK VINA RESULT:     7.685      1.999      3.777
REMARK INTER + INTRA:          14.107
REMARK INTER:                  14.823
REMARK INTRA:                  -0.716
REMARK UNBOUND:                -0.766
REMARK SMILES CCCCCCCCCCCCCCCCCC(=O)[O-]
REMARK SMILES IDX 10 1 11 2 12 3 13 4 14 5 15 6 16 7 17 8 18 9 19 10 20 11
REMARK SMILES IDX 9 12 8 13 7 14 6 15 5 16 4 17 3 18 2 19 1 20
REMARK H PARENT
REMARK Flexibility Score: inf
ROOT
ATOM      1  C   UNL     1      11.609  15.895  -4.369  1.00  0.00     0.000 C 
ENDROOT
BRANCH   1   2
ATOM      2  C   UNL     1      10.777  14.609  -4.233  1.00  0.00     0.000 C 
BRANCH   2   3
ATOM      3  C   UNL     1      11.122  13.812  -2.962  1.00  0.00     0.000 C 
BRANCH   3   4
ATOM      4  C   UNL     1      10.769  14.571  -1.671  1.00  0.00     0.000 C 
BRANCH   4   5
ATOM      5  C   UNL     1      10.407  13.627  -0.512  1.00  0.00     0.000 C 
BRANCH   5   6
ATOM      6  C   UNL     1      11.532  13.499   0.531  1.00  0.00     0.000 C 
BRANCH   6   7
ATOM      7  C   UNL     1      11.511  14.559   1.648  1.00  0.00     0.006 C 
BRANCH   7   8
ATOM      8  C   UNL     1      10.130  15.197   1.845  1.00  0.00     0.053 C 
BRANCH   8   9
ATOM      9  C   UNL     1      10.188  16.666   1.566  1.00  0.00     0.041 C 
ATOM     10  O   UNL     1       9.132  17.353   1.567  1.00  0.00    -0.550 OA
ATOM     11  O   UNL     1      11.413  17.286   1.354  1.00  0.00    -0.550 OA
ENDBRANCH   8   9
ENDBRANCH   7   8
ENDBRANCH   6   7
ENDBRANCH   5   6
ENDBRANCH   4   5
ENDBRANCH   3   4
ENDBRANCH   2   3
ENDBRANCH   1   2
BRANCH   1  12
ATOM     12  C   UNL     1      11.865  16.278  -5.837  1.00  0.00     0.000 C 
BRANCH  12  13
ATOM     13  C   UNL     1      12.643  17.595  -5.980  1.00  0.00    -0.000 C 
BRANCH  13  14
ATOM     14  C   UNL     1      13.863  17.469  -6.908  1.00  0.00    -0.000 C 
BRANCH  14  15
ATOM     15  C   UNL     1      14.154  16.003  -7.300  1.00  0.00    -0.000 C 
BRANCH  15  16
ATOM     16  C   UNL     1      15.140  15.862  -8.477  1.00  0.00    -0.000 C 
BRANCH  16  17
ATOM     17  C   UNL     1      14.491  15.513  -9.829  1.00  0.00    -0.000 C 
BRANCH  17  18
ATOM     18  C   UNL     1      15.333  15.881 -11.066  1.00  0.00    -0.000 C 
BRANCH  18  19
ATOM     19  C   UNL     1      15.310  14.794 -12.150  1.00  0.00    -0.003 C 
ATOM     20  C   UNL     1      16.347  15.076 -13.233  1.00  0.00     0.004 C 
ENDBRANCH  18  19
ENDBRANCH  17  18
ENDBRANCH  16  17
ENDBRANCH  15  16
ENDBRANCH  14  15
ENDBRANCH  13  14
ENDBRANCH  12  13
ENDBRANCH   1  12
TORSDOF 16
ENDMDL
