MODEL 1
REMARK VINA RESULT:    -4.404      0.000      0.000
REMARK INTER + INTRA:         -14.709
REMARK INTER:                 -11.613
REMARK INTRA:                  -3.096
REMARK UNBOUND:                -3.096
REMARK SMILES CCCCCCCCCCCCCCCCCCCCCCCCCCCCCC(=O)[O-]
REMARK SMILES IDX 16 1 17 2 18 3 19 4 20 5 21 6 22 7 23 8 24 9 25 10 26 11
REMARK SMILES IDX 27 12 28 13 29 14 30 15 31 16 32 17 15 18 14 19 13 20 12 21
REMARK SMILES IDX 11 22 10 23 9 24 8 25 7 26 6 27 5 28 4 29 3 30 2 31 1 32
REMARK H PARENT
REMARK Flexibility Score: inf
ROOT
ATOM      1  C   UNL     1      39.046  18.932  10.963  1.00  0.00     0.000 C 
ENDROOT
BRANCH   1   2
ATOM      2  C   UNL     1      39.731  19.564   9.737  1.00  0.00     0.000 C 
BRANCH   2   3
ATOM      3  C   UNL     1      39.877  21.095   9.787  1.00  0.00     0.000 C 
BRANCH   3   4
ATOM      4  C   UNL     1      40.818  21.642   8.699  1.00  0.00     0.000 C 
BRANCH   4   5
ATOM      5  C   UNL     1      41.895  20.628   8.277  1.00  0.00     0.000 C 
BRANCH   5   6
ATOM      6  C   UNL     1      43.010  21.183   7.369  1.00  0.00     0.000 C 
BRANCH   6   7
ATOM      7  C   UNL     1      43.352  20.283   6.163  1.00  0.00     0.000 C 
BRANCH   7   8
ATOM      8  C   UNL     1      44.350  20.943   5.194  1.00  0.00     0.000 C 
BRANCH   8   9
ATOM      9  C   UNL     1      44.453  22.463   5.392  1.00  0.00     0.000 C 
BRANCH   9  10
ATOM     10  C   UNL     1      45.832  23.023   4.998  1.00  0.00     0.000 C 
BRANCH  10  11
ATOM     11  C   UNL     1      46.491  22.232   3.856  1.00  0.00     0.000 C 
BRANCH  11  12
ATOM     12  C   UNL     1      47.769  22.903   3.327  1.00  0.00     0.000 C 
BRANCH  12  13
ATOM     13  C   UNL     1      48.938  22.795   4.320  1.00  0.00     0.006 C 
BRANCH  13  14
ATOM     14  C   UNL     1      49.103  21.375   4.877  1.00  0.00     0.053 C 
BRANCH  14  15
ATOM     15  C   UNL     1      48.914  21.353   6.364  1.00  0.00     0.041 C 
ATOM     16  O   UNL     1      49.047  20.279   7.007  1.00  0.00    -0.550 OA
ATOM     17  O   UNL     1      48.626  22.532   7.044  1.00  0.00    -0.550 OA
ENDBRANCH  14  15
ENDBRANCH  13  14
ENDBRANCH  12  13
ENDBRANCH  11  12
ENDBRANCH  10  11
ENDBRANCH   9  10
ENDBRANCH   8   9
ENDBRANCH   7   8
ENDBRANCH   6   7
ENDBRANCH   5   6
ENDBRANCH   4   5
ENDBRANCH   3   4
ENDBRANCH   2   3
ENDBRANCH   1   2
BRANCH   1  18
ATOM     18  C   UNL     1      39.887  17.815  11.607  1.00  0.00     0.000 C 
BRANCH  18  19
ATOM     19  C   UNL     1      41.370  17.883  11.200  1.00  0.00     0.000 C 
BRANCH  19  20
ATOM     20  C   UNL     1      42.349  17.395  12.284  1.00  0.00     0.000 C 
BRANCH  20  21
ATOM     21  C   UNL     1      43.794  17.866  12.033  1.00  0.00     0.000 C 
BRANCH  21  22
ATOM     22  C   UNL     1      43.991  19.360  12.334  1.00  0.00     0.000 C 
BRANCH  22  23
ATOM     23  C   UNL     1      43.407  20.267  11.238  1.00  0.00     0.000 C 
BRANCH  23  24
ATOM     24  C   UNL     1      43.068  21.657  11.802  1.00  0.00    -0.000 C 
BRANCH  24  25
ATOM     25  C   UNL     1      43.464  21.813  13.278  1.00  0.00    -0.000 C 
BRANCH  25  26
ATOM     26  C   UNL     1      42.363  22.484  14.120  1.00  0.00    -0.000 C 
BRANCH  26  27
ATOM     27  C   UNL     1      41.591  21.484  15.001  1.00  0.00    -0.000 C 
BRANCH  27  28
ATOM     28  C   UNL     1      41.021  20.263  14.257  1.00  0.00    -0.000 C 
BRANCH  28  29
ATOM     29  C   UNL     1      39.914  19.543  15.041  1.00  0.00    -0.000 C 
BRANCH  29  30
ATOM     30  C   UNL     1      39.728  20.171  16.429  1.00  0.00    -0.000 C 
BRANCH  30  31
ATOM     31  C   UNL     1      38.250  20.284  16.832  1.00  0.00    -0.003 C 
ATOM     32  C   UNL     1      38.059  20.919  18.210  1.00  0.00     0.004 C 
ENDBRANCH  30  31
ENDBRANCH  29  30
ENDBRANCH  28  29
ENDBRANCH  27  28
ENDBRANCH  26  27
ENDBRANCH  25  26
ENDBRANCH  24  25
ENDBRANCH  23  24
ENDBRANCH  22  23
ENDBRANCH  21  22
ENDBRANCH  20  21
ENDBRANCH  19  20
ENDBRANCH  18  19
ENDBRANCH   1  18
TORSDOF 28
ENDMDL
MODEL 2
REMARK VINA RESULT:    -4.285      3.771     10.068
REMARK INTER + INTRA:         -14.396
REMARK INTER:                 -10.879
REMARK INTRA:                  -3.517
REMARK UNBOUND:                -3.096
REMARK SMILES CCCCCCCCCCCCCCCCCCCCCCCCCCCCCC(=O)[O-]
REMARK SMILES IDX 16 1 17 2 18 3 19 4 20 5 21 6 22 7 23 8 24 9 25 10 26 11
REMARK SMILES IDX 27 12 28 13 29 14 30 15 31 16 32 17 15 18 14 19 13 20 12 21
REMARK SMILES IDX 11 22 10 23 9 24 8 25 7 26 6 27 5 28 4 29 3 30 2 31 1 32
REMARK H PARENT
REMARK Flexibility Score: inf
ROOT
ATOM      1  C   UNL     1      38.903  19.179  10.876  1.00  0.00     0.000 C 
ENDROOT
BRANCH   1   2
ATOM      2  C   UNL     1      39.646  17.936  11.405  1.00  0.00     0.000 C 
BRANCH   2   3
ATOM      3  C   UNL     1      40.896  18.233  12.250  1.00  0.00     0.000 C 
BRANCH   3   4
ATOM      4  C   UNL     1      41.947  17.111  12.177  1.00  0.00     0.000 C 
BRANCH   4   5
ATOM      5  C   UNL     1      43.262  17.478  12.887  1.00  0.00     0.000 C 
BRANCH   5   6
ATOM      6  C   UNL     1      44.267  18.288  12.045  1.00  0.00     0.000 C 
BRANCH   6   7
ATOM      7  C   UNL     1      44.281  19.800  12.356  1.00  0.00     0.000 C 
BRANCH   7   8
ATOM      8  C   UNL     1      43.540  20.632  11.294  1.00  0.00     0.000 C 
BRANCH   8   9
ATOM      9  C   UNL     1      42.453  21.534  11.900  1.00  0.00     0.000 C 
BRANCH   9  10
ATOM     10  C   UNL     1      43.022  22.578  12.879  1.00  0.00     0.000 C 
BRANCH  10  11
ATOM     11  C   UNL     1      42.593  22.324  14.333  1.00  0.00     0.000 C 
BRANCH  11  12
ATOM     12  C   UNL     1      41.682  21.093  14.480  1.00  0.00     0.000 C 
BRANCH  12  13
ATOM     13  C   UNL     1      40.604  21.291  15.558  1.00  0.00     0.006 C 
BRANCH  13  14
ATOM     14  C   UNL     1      40.039  19.959  16.071  1.00  0.00     0.053 C 
BRANCH  14  15
ATOM     15  C   UNL     1      38.674  20.144  16.662  1.00  0.00     0.041 C 
ATOM     16  O   UNL     1      37.772  19.289  16.463  1.00  0.00    -0.550 OA
ATOM     17  O   UNL     1      38.410  21.248  17.466  1.00  0.00    -0.550 OA
ENDBRANCH  14  15
ENDBRANCH  13  14
ENDBRANCH  12  13
ENDBRANCH  11  12
ENDBRANCH  10  11
ENDBRANCH   9  10
ENDBRANCH   8   9
ENDBRANCH   7   8
ENDBRANCH   6   7
ENDBRANCH   5   6
ENDBRANCH   4   5
ENDBRANCH   3   4
ENDBRANCH   2   3
ENDBRANCH   1   2
BRANCH   1  18
ATOM     18  C   UNL     1      39.794  20.080  10.001  1.00  0.00     0.000 C 
BRANCH  18  19
ATOM     19  C   UNL     1      40.311  19.356   8.744  1.00  0.00     0.000 C 
BRANCH  19  20
ATOM     20  C   UNL     1      41.823  19.516   8.497  1.00  0.00     0.000 C 
BRANCH  20  21
ATOM     21  C   UNL     1      42.169  20.833   7.778  1.00  0.00     0.000 C 
BRANCH  21  22
ATOM     22  C   UNL     1      43.333  20.681   6.788  1.00  0.00     0.000 C 
BRANCH  22  23
ATOM     23  C   UNL     1      44.230  21.928   6.730  1.00  0.00     0.000 C 
BRANCH  23  24
ATOM     24  C   UNL     1      44.695  22.202   5.290  1.00  0.00    -0.000 C 
BRANCH  24  25
ATOM     25  C   UNL     1      44.855  20.917   4.462  1.00  0.00    -0.000 C 
BRANCH  25  26
ATOM     26  C   UNL     1      45.933  21.047   3.370  1.00  0.00    -0.000 C 
BRANCH  26  27
ATOM     27  C   UNL     1      46.650  22.410   3.397  1.00  0.00    -0.000 C 
BRANCH  27  28
ATOM     28  C   UNL     1      48.176  22.348   3.211  1.00  0.00    -0.000 C 
BRANCH  28  29
ATOM     29  C   UNL     1      48.950  22.994   4.370  1.00  0.00    -0.000 C 
BRANCH  29  30
ATOM     30  C   UNL     1      48.470  22.450   5.722  1.00  0.00    -0.000 C 
BRANCH  30  31
ATOM     31  C   UNL     1      48.766  20.952   5.895  1.00  0.00    -0.003 C 
ATOM     32  C   UNL     1      48.921  20.545   7.360  1.00  0.00     0.004 C 
ENDBRANCH  30  31
ENDBRANCH  29  30
ENDBRANCH  28  29
ENDBRANCH  27  28
ENDBRANCH  26  27
ENDBRANCH  25  26
ENDBRANCH  24  25
ENDBRANCH  23  24
ENDBRANCH  22  23
ENDBRANCH  21  22
ENDBRANCH  20  21
ENDBRANCH  19  20
ENDBRANCH  18  19
ENDBRANCH   1  18
TORSDOF 28
ENDMDL
MODEL 3
REMARK VINA RESULT:    -3.964      2.867      4.503
REMARK INTER + INTRA:         -13.548
REMARK INTER:                  -9.687
REMARK INTRA:                  -3.862
REMARK UNBOUND:                -3.096
REMARK SMILES CCCCCCCCCCCCCCCCCCCCCCCCCCCCCC(=O)[O-]
REMARK SMILES IDX 16 1 17 2 18 3 19 4 20 5 21 6 22 7 23 8 24 9 25 10 26 11
REMARK SMILES IDX 27 12 28 13 29 14 30 15 31 16 32 17 15 18 14 19 13 20 12 21
REMARK SMILES IDX 11 22 10 23 9 24 8 25 7 26 6 27 5 28 4 29 3 30 2 31 1 32
REMARK H PARENT
REMARK Flexibility Score: inf
ROOT
ATOM      1  C   UNL     1      39.638  20.203   9.674  1.00  0.00     0.000 C 
ENDROOT
BRANCH   1   2
ATOM      2  C   UNL     1      39.993  21.690   9.482  1.00  0.00     0.000 C 
BRANCH   2   3
ATOM      3  C   UNL     1      41.360  21.956   8.829  1.00  0.00     0.000 C 
BRANCH   3   4
ATOM      4  C   UNL     1      42.286  22.813   9.710  1.00  0.00     0.000 C 
BRANCH   4   5
ATOM      5  C   UNL     1      43.748  22.796   9.232  1.00  0.00     0.000 C 
BRANCH   5   6
ATOM      6  C   UNL     1      43.962  23.124   7.741  1.00  0.00     0.000 C 
BRANCH   6   7
ATOM      7  C   UNL     1      44.824  22.092   6.983  1.00  0.00     0.000 C 
BRANCH   7   8
ATOM      8  C   UNL     1      44.217  21.694   5.625  1.00  0.00     0.000 C 
BRANCH   8   9
ATOM      9  C   UNL     1      43.901  20.193   5.533  1.00  0.00     0.000 C 
BRANCH   9  10
ATOM     10  C   UNL     1      42.564  19.823   6.200  1.00  0.00     0.000 C 
BRANCH  10  11
ATOM     11  C   UNL     1      42.737  19.320   7.642  1.00  0.00     0.000 C 
BRANCH  11  12
ATOM     12  C   UNL     1      41.717  18.234   8.021  1.00  0.00     0.000 C 
BRANCH  12  13
ATOM     13  C   UNL     1      42.345  16.832   8.060  1.00  0.00     0.006 C 
BRANCH  13  14
ATOM     14  C   UNL     1      42.457  16.202   6.664  1.00  0.00     0.053 C 
BRANCH  14  15
ATOM     15  C   UNL     1      43.249  14.930   6.708  1.00  0.00     0.041 C 
ATOM     16  O   UNL     1      43.935  14.572   5.715  1.00  0.00    -0.550 OA
ATOM     17  O   UNL     1      43.257  14.157   7.865  1.00  0.00    -0.550 OA
ENDBRANCH  14  15
ENDBRANCH  13  14
ENDBRANCH  12  13
ENDBRANCH  11  12
ENDBRANCH  10  11
ENDBRANCH   9  10
ENDBRANCH   8   9
ENDBRANCH   7   8
ENDBRANCH   6   7
ENDBRANCH   5   6
ENDBRANCH   4   5
ENDBRANCH   3   4
ENDBRANCH   2   3
ENDBRANCH   1   2
BRANCH   1  18
ATOM     18  C   UNL     1      39.441  19.822  11.152  1.00  0.00     0.000 C 
BRANCH  18  19
ATOM     19  C   UNL     1      38.937  18.377  11.328  1.00  0.00     0.000 C 
BRANCH  19  20
ATOM     20  C   UNL     1      40.056  17.329  11.479  1.00  0.00     0.000 C 
BRANCH  20  21
ATOM     21  C   UNL     1      41.451  17.969  11.612  1.00  0.00     0.000 C 
BRANCH  21  22
ATOM     22  C   UNL     1      42.442  17.076  12.375  1.00  0.00     0.000 C 
BRANCH  22  23
ATOM     23  C   UNL     1      43.668  17.851  12.883  1.00  0.00     0.000 C 
BRANCH  23  24
ATOM     24  C   UNL     1      43.907  19.114  12.038  1.00  0.00    -0.000 C 
BRANCH  24  25
ATOM     25  C   UNL     1      44.006  20.389  12.889  1.00  0.00    -0.000 C 
BRANCH  25  26
ATOM     26  C   UNL     1      42.896  21.406  12.564  1.00  0.00    -0.000 C 
BRANCH  26  27
ATOM     27  C   UNL     1      42.488  22.255  13.783  1.00  0.00    -0.000 C 
BRANCH  27  28
ATOM     28  C   UNL     1      41.675  21.509  14.856  1.00  0.00    -0.000 C 
BRANCH  28  29
ATOM     29  C   UNL     1      41.146  20.150  14.374  1.00  0.00    -0.000 C 
BRANCH  29  30
ATOM     30  C   UNL     1      39.836  19.787  15.085  1.00  0.00    -0.000 C 
BRANCH  30  31
ATOM     31  C   UNL     1      39.675  20.509  16.432  1.00  0.00    -0.003 C 
ATOM     32  C   UNL     1      38.334  20.215  17.104  1.00  0.00     0.004 C 
ENDBRANCH  30  31
ENDBRANCH  29  30
ENDBRANCH  28  29
ENDBRANCH  27  28
ENDBRANCH  26  27
ENDBRANCH  25  26
ENDBRANCH  24  25
ENDBRANCH  23  24
ENDBRANCH  22  23
ENDBRANCH  21  22
ENDBRANCH  20  21
ENDBRANCH  19  20
ENDBRANCH  18  19
ENDBRANCH   1  18
TORSDOF 28
ENDMDL
MODEL 4
REMARK VINA RESULT:    -3.870      2.016      3.967
REMARK INTER + INTRA:         -13.301
REMARK INTER:                 -10.195
REMARK INTRA:                  -3.106
REMARK UNBOUND:                -3.096
REMARK SMILES CCCCCCCCCCCCCCCCCCCCCCCCCCCCCC(=O)[O-]
REMARK SMILES IDX 16 1 17 2 18 3 19 4 20 5 21 6 22 7 23 8 24 9 25 10 26 11
REMARK SMILES IDX 27 12 28 13 29 14 30 15 31 16 32 17 15 18 14 19 13 20 12 21
REMARK SMILES IDX 11 22 10 23 9 24 8 25 7 26 6 27 5 28 4 29 3 30 2 31 1 32
REMARK H PARENT
REMARK Flexibility Score: inf
ROOT
ATOM      1  C   UNL     1      40.150  17.909  10.379  1.00  0.00     0.000 C 
ENDROOT
BRANCH   1   2
ATOM      2  C   UNL     1      41.543  18.276   9.830  1.00  0.00     0.000 C 
BRANCH   2   3
ATOM      3  C   UNL     1      41.751  17.989   8.333  1.00  0.00     0.000 C 
BRANCH   3   4
ATOM      4  C   UNL     1      41.509  19.225   7.449  1.00  0.00     0.000 C 
BRANCH   4   5
ATOM      5  C   UNL     1      42.794  19.736   6.774  1.00  0.00     0.000 C 
BRANCH   5   6
ATOM      6  C   UNL     1      43.034  21.256   6.871  1.00  0.00     0.000 C 
BRANCH   6   7
ATOM      7  C   UNL     1      44.492  21.648   7.193  1.00  0.00     0.000 C 
BRANCH   7   8
ATOM      8  C   UNL     1      45.475  21.242   6.080  1.00  0.00     0.000 C 
BRANCH   8   9
ATOM      9  C   UNL     1      45.085  21.811   4.707  1.00  0.00     0.000 C 
BRANCH   9  10
ATOM     10  C   UNL     1      45.471  20.879   3.544  1.00  0.00     0.000 C 
BRANCH  10  11
ATOM     11  C   UNL     1      46.807  21.268   2.889  1.00  0.00     0.000 C 
BRANCH  11  12
ATOM     12  C   UNL     1      47.236  22.707   3.221  1.00  0.00     0.000 C 
BRANCH  12  13
ATOM     13  C   UNL     1      48.632  22.765   3.864  1.00  0.00     0.006 C 
BRANCH  13  14
ATOM     14  C   UNL     1      49.020  21.442   4.540  1.00  0.00     0.053 C 
BRANCH  14  15
ATOM     15  C   UNL     1      48.873  21.533   6.029  1.00  0.00     0.041 C 
ATOM     16  O   UNL     1      48.935  20.495   6.739  1.00  0.00    -0.550 OA
ATOM     17  O   UNL     1      48.702  22.773   6.635  1.00  0.00    -0.550 OA
ENDBRANCH  14  15
ENDBRANCH  13  14
ENDBRANCH  12  13
ENDBRANCH  11  12
ENDBRANCH  10  11
ENDBRANCH   9  10
ENDBRANCH   8   9
ENDBRANCH   7   8
ENDBRANCH   6   7
ENDBRANCH   5   6
ENDBRANCH   4   5
ENDBRANCH   3   4
ENDBRANCH   2   3
ENDBRANCH   1   2
BRANCH   1  18
ATOM     18  C   UNL     1      39.059  18.909   9.956  1.00  0.00     0.000 C 
BRANCH  18  19
ATOM     19  C   UNL     1      39.257  20.300  10.586  1.00  0.00     0.000 C 
BRANCH  19  20
ATOM     20  C   UNL     1      39.768  21.374   9.606  1.00  0.00     0.000 C 
BRANCH  20  21
ATOM     21  C   UNL     1      41.299  21.528   9.644  1.00  0.00     0.000 C 
BRANCH  21  22
ATOM     22  C   UNL     1      41.746  22.870  10.243  1.00  0.00     0.000 C 
BRANCH  22  23
ATOM     23  C   UNL     1      43.043  22.753  11.060  1.00  0.00     0.000 C 
BRANCH  23  24
ATOM     24  C   UNL     1      43.406  21.278  11.302  1.00  0.00    -0.000 C 
BRANCH  24  25
ATOM     25  C   UNL     1      43.289  20.872  12.780  1.00  0.00    -0.000 C 
BRANCH  25  26
ATOM     26  C   UNL     1      41.916  20.266  13.122  1.00  0.00    -0.000 C 
BRANCH  26  27
ATOM     27  C   UNL     1      41.977  18.747  13.366  1.00  0.00    -0.000 C 
BRANCH  27  28
ATOM     28  C   UNL     1      43.343  18.095  13.086  1.00  0.00    -0.000 C 
BRANCH  28  29
ATOM     29  C   UNL     1      43.270  16.963  12.050  1.00  0.00    -0.000 C 
BRANCH  29  30
ATOM     30  C   UNL     1      44.652  16.337  11.822  1.00  0.00    -0.000 C 
BRANCH  30  31
ATOM     31  C   UNL     1      44.656  14.817  12.045  1.00  0.00    -0.003 C 
ATOM     32  C   UNL     1      46.046  14.270  12.368  1.00  0.00     0.004 C 
ENDBRANCH  30  31
ENDBRANCH  29  30
ENDBRANCH  28  29
ENDBRANCH  27  28
ENDBRANCH  26  27
ENDBRANCH  25  26
ENDBRANCH  24  25
ENDBRANCH  23  24
ENDBRANCH  22  23
ENDBRANCH  21  22
ENDBRANCH  20  21
ENDBRANCH  19  20
ENDBRANCH  18  19
ENDBRANCH   1  18
TORSDOF 28
ENDMDL
MODEL 5
REMARK VINA RESULT:    -3.796      3.172      5.615
REMARK INTER + INTRA:         -13.106
REMARK INTER:                  -9.308
REMARK INTRA:                  -3.798
REMARK UNBOUND:                -3.096
REMARK SMILES CCCCCCCCCCCCCCCCCCCCCCCCCCCCCC(=O)[O-]
REMARK SMILES IDX 16 1 17 2 18 3 19 4 20 5 21 6 22 7 23 8 24 9 25 10 26 11
REMARK SMILES IDX 27 12 28 13 29 14 30 15 31 16 32 17 15 18 14 19 13 20 12 21
REMARK SMILES IDX 11 22 10 23 9 24 8 25 7 26 6 27 5 28 4 29 3 30 2 31 1 32
REMARK H PARENT
REMARK Flexibility Score: inf
ROOT
ATOM      1  C   UNL     1      39.679  20.226   9.587  1.00  0.00     0.000 C 
ENDROOT
BRANCH   1   2
ATOM      2  C   UNL     1      40.203  21.673   9.513  1.00  0.00     0.000 C 
BRANCH   2   3
ATOM      3  C   UNL     1      41.603  21.891  10.112  1.00  0.00     0.000 C 
BRANCH   3   4
ATOM      4  C   UNL     1      42.404  22.982   9.379  1.00  0.00     0.000 C 
BRANCH   4   5
ATOM      5  C   UNL     1      43.796  22.504   8.935  1.00  0.00     0.000 C 
BRANCH   5   6
ATOM      6  C   UNL     1      44.231  22.947   7.524  1.00  0.00     0.000 C 
BRANCH   6   7
ATOM      7  C   UNL     1      45.006  21.872   6.733  1.00  0.00     0.000 C 
BRANCH   7   8
ATOM      8  C   UNL     1      44.222  21.349   5.516  1.00  0.00     0.000 C 
BRANCH   8   9
ATOM      9  C   UNL     1      43.606  19.962   5.758  1.00  0.00     0.000 C 
BRANCH   9  10
ATOM     10  C   UNL     1      42.349  20.014   6.644  1.00  0.00     0.000 C 
BRANCH  10  11
ATOM     11  C   UNL     1      42.530  19.273   7.978  1.00  0.00     0.000 C 
BRANCH  11  12
ATOM     12  C   UNL     1      41.596  18.059   8.118  1.00  0.00     0.000 C 
BRANCH  12  13
ATOM     13  C   UNL     1      42.365  16.727   8.100  1.00  0.00     0.006 C 
BRANCH  13  14
ATOM     14  C   UNL     1      42.575  16.193   6.676  1.00  0.00     0.053 C 
BRANCH  14  15
ATOM     15  C   UNL     1      43.268  14.864   6.695  1.00  0.00     0.041 C 
ATOM     16  O   UNL     1      43.321  14.189   7.757  1.00  0.00    -0.550 OA
ATOM     17  O   UNL     1      43.824  14.355   5.527  1.00  0.00    -0.550 OA
ENDBRANCH  14  15
ENDBRANCH  13  14
ENDBRANCH  12  13
ENDBRANCH  11  12
ENDBRANCH  10  11
ENDBRANCH   9  10
ENDBRANCH   8   9
ENDBRANCH   7   8
ENDBRANCH   6   7
ENDBRANCH   5   6
ENDBRANCH   4   5
ENDBRANCH   3   4
ENDBRANCH   2   3
ENDBRANCH   1   2
BRANCH   1  18
ATOM     18  C   UNL     1      38.558  20.049  10.627  1.00  0.00     0.000 C 
BRANCH  18  19
ATOM     19  C   UNL     1      38.530  18.631  11.228  1.00  0.00     0.000 C 
BRANCH  19  20
ATOM     20  C   UNL     1      39.922  18.012  11.458  1.00  0.00     0.000 C 
BRANCH  20  21
ATOM     21  C   UNL     1      40.875  18.962  12.206  1.00  0.00     0.000 C 
BRANCH  21  22
ATOM     22  C   UNL     1      40.452  19.201  13.664  1.00  0.00     0.000 C 
BRANCH  22  23
ATOM     23  C   UNL     1      41.124  20.438  14.281  1.00  0.00     0.000 C 
BRANCH  23  24
ATOM     24  C   UNL     1      41.882  21.241  13.211  1.00  0.00    -0.000 C 
BRANCH  24  25
ATOM     25  C   UNL     1      43.334  21.543  13.612  1.00  0.00    -0.000 C 
BRANCH  25  26
ATOM     26  C   UNL     1      44.240  20.300  13.539  1.00  0.00    -0.000 C 
BRANCH  26  27
ATOM     27  C   UNL     1      44.452  19.800  12.098  1.00  0.00    -0.000 C 
BRANCH  27  28
ATOM     28  C   UNL     1      43.892  18.396  11.804  1.00  0.00    -0.000 C 
BRANCH  28  29
ATOM     29  C   UNL     1      43.902  17.475  13.034  1.00  0.00    -0.000 C 
BRANCH  29  30
ATOM     30  C   UNL     1      43.775  16.004  12.618  1.00  0.00    -0.000 C 
BRANCH  30  31
ATOM     31  C   UNL     1      45.023  15.486  11.887  1.00  0.00    -0.003 C 
ATOM     32  C   UNL     1      45.453  14.098  12.359  1.00  0.00     0.004 C 
ENDBRANCH  30  31
ENDBRANCH  29  30
ENDBRANCH  28  29
ENDBRANCH  27  28
ENDBRANCH  26  27
ENDBRANCH  25  26
ENDBRANCH  24  25
ENDBRANCH  23  24
ENDBRANCH  22  23
ENDBRANCH  21  22
ENDBRANCH  20  21
ENDBRANCH  19  20
ENDBRANCH  18  19
ENDBRANCH   1  18
TORSDOF 28
ENDMDL
MODEL 6
REMARK VINA RESULT:    -3.634      1.655      4.678
REMARK INTER + INTRA:         -12.678
REMARK INTER:                  -9.021
REMARK INTRA:                  -3.657
REMARK UNBOUND:                -3.096
REMARK SMILES CCCCCCCCCCCCCCCCCCCCCCCCCCCCCC(=O)[O-]
REMARK SMILES IDX 16 1 17 2 18 3 19 4 20 5 21 6 22 7 23 8 24 9 25 10 26 11
REMARK SMILES IDX 27 12 28 13 29 14 30 15 31 16 32 17 15 18 14 19 13 20 12 21
REMARK SMILES IDX 11 22 10 23 9 24 8 25 7 26 6 27 5 28 4 29 3 30 2 31 1 32
REMARK H PARENT
REMARK Flexibility Score: inf
ROOT
ATOM      1  C   UNL     1      40.815  19.501  13.520  1.00  0.00     0.000 C 
ENDROOT
BRANCH   1   2
ATOM      2  C   UNL     1      39.932  19.081  12.329  1.00  0.00     0.000 C 
BRANCH   2   3
ATOM      3  C   UNL     1      40.595  18.116  11.332  1.00  0.00     0.000 C 
BRANCH   3   4
ATOM      4  C   UNL     1      40.325  18.493   9.865  1.00  0.00     0.000 C 
BRANCH   4   5
ATOM      5  C   UNL     1      41.569  18.344   8.972  1.00  0.00     0.000 C 
BRANCH   5   6
ATOM      6  C   UNL     1      41.714  19.397   7.856  1.00  0.00     0.000 C 
BRANCH   6   7
ATOM      7  C   UNL     1      41.543  20.855   8.334  1.00  0.00     0.000 C 
BRANCH   7   8
ATOM      8  C   UNL     1      42.756  21.738   7.994  1.00  0.00     0.000 C 
BRANCH   8   9
ATOM      9  C   UNL     1      43.625  21.147   6.873  1.00  0.00     0.000 C 
BRANCH   9  10
ATOM     10  C   UNL     1      44.405  22.222   6.094  1.00  0.00     0.000 C 
BRANCH  10  11
ATOM     11  C   UNL     1      44.900  21.723   4.727  1.00  0.00     0.000 C 
BRANCH  11  12
ATOM     12  C   UNL     1      46.173  22.445   4.254  1.00  0.00     0.000 C 
BRANCH  12  13
ATOM     13  C   UNL     1      47.347  21.475   4.040  1.00  0.00     0.006 C 
BRANCH  13  14
ATOM     14  C   UNL     1      48.614  21.918   4.785  1.00  0.00     0.053 C 
BRANCH  14  15
ATOM     15  C   UNL     1      48.506  21.631   6.252  1.00  0.00     0.041 C 
ATOM     16  O   UNL     1      48.805  22.514   7.097  1.00  0.00    -0.550 OA
ATOM     17  O   UNL     1      48.037  20.395   6.685  1.00  0.00    -0.550 OA
ENDBRANCH  14  15
ENDBRANCH  13  14
ENDBRANCH  12  13
ENDBRANCH  11  12
ENDBRANCH  10  11
ENDBRANCH   9  10
ENDBRANCH   8   9
ENDBRANCH   7   8
ENDBRANCH   6   7
ENDBRANCH   5   6
ENDBRANCH   4   5
ENDBRANCH   3   4
ENDBRANCH   2   3
ENDBRANCH   1   2
BRANCH   1  18
ATOM     18  C   UNL     1      40.006  19.746  14.806  1.00  0.00     0.000 C 
BRANCH  18  19
ATOM     19  C   UNL     1      40.558  20.921  15.636  1.00  0.00     0.000 C 
BRANCH  19  20
ATOM     20  C   UNL     1      41.949  21.412  15.192  1.00  0.00     0.000 C 
BRANCH  20  21
ATOM     21  C   UNL     1      41.952  22.901  14.798  1.00  0.00     0.000 C 
BRANCH  21  22
ATOM     22  C   UNL     1      42.339  23.125  13.328  1.00  0.00     0.000 C 
BRANCH  22  23
ATOM     23  C   UNL     1      43.373  22.105  12.826  1.00  0.00     0.000 C 
BRANCH  23  24
ATOM     24  C   UNL     1      42.939  21.502  11.479  1.00  0.00    -0.000 C 
BRANCH  24  25
ATOM     25  C   UNL     1      43.669  20.189  11.153  1.00  0.00    -0.000 C 
BRANCH  25  26
ATOM     26  C   UNL     1      44.170  19.460  12.413  1.00  0.00    -0.000 C 
BRANCH  26  27
ATOM     27  C   UNL     1      44.575  18.000  12.137  1.00  0.00    -0.000 C 
BRANCH  27  28
ATOM     28  C   UNL     1      43.578  16.940  12.638  1.00  0.00    -0.000 C 
BRANCH  28  29
ATOM     29  C   UNL     1      43.829  15.547  12.040  1.00  0.00    -0.000 C 
BRANCH  29  30
ATOM     30  C   UNL     1      44.910  14.797  12.831  1.00  0.00    -0.000 C 
BRANCH  30  31
ATOM     31  C   UNL     1      45.777  13.897  11.938  1.00  0.00    -0.003 C 
ATOM     32  C   UNL     1      47.271  14.184  12.082  1.00  0.00     0.004 C 
ENDBRANCH  30  31
ENDBRANCH  29  30
ENDBRANCH  28  29
ENDBRANCH  27  28
ENDBRANCH  26  27
ENDBRANCH  25  26
ENDBRANCH  24  25
ENDBRANCH  23  24
ENDBRANCH  22  23
ENDBRANCH  21  22
ENDBRANCH  20  21
ENDBRANCH  19  20
ENDBRANCH  18  19
ENDBRANCH   1  18
TORSDOF 28
ENDMDL
MODEL 7
REMARK VINA RESULT:    -3.577      1.736      3.490
REMARK INTER + INTRA:         -12.527
REMARK INTER:                  -9.266
REMARK INTRA:                  -3.261
REMARK UNBOUND:                -3.096
REMARK SMILES CCCCCCCCCCCCCCCCCCCCCCCCCCCCCC(=O)[O-]
REMARK SMILES IDX 16 1 17 2 18 3 19 4 20 5 21 6 22 7 23 8 24 9 25 10 26 11
REMARK SMILES IDX 27 12 28 13 29 14 30 15 31 16 32 17 15 18 14 19 13 20 12 21
REMARK SMILES IDX 11 22 10 23 9 24 8 25 7 26 6 27 5 28 4 29 3 30 2 31 1 32
REMARK H PARENT
REMARK Flexibility Score: inf
ROOT
ATOM      1  C   UNL     1      42.482  17.471  12.547  1.00  0.00     0.000 C 
ENDROOT
BRANCH   1   2
ATOM      2  C   UNL     1      41.682  17.553  11.233  1.00  0.00     0.000 C 
BRANCH   2   3
ATOM      3  C   UNL     1      42.378  18.314  10.092  1.00  0.00     0.000 C 
BRANCH   3   4
ATOM      4  C   UNL     1      41.930  17.842   8.697  1.00  0.00     0.000 C 
BRANCH   4   5
ATOM      5  C   UNL     1      41.665  19.007   7.729  1.00  0.00     0.000 C 
BRANCH   5   6
ATOM      6  C   UNL     1      42.722  19.205   6.624  1.00  0.00     0.000 C 
BRANCH   6   7
ATOM      7  C   UNL     1      43.068  20.681   6.335  1.00  0.00     0.000 C 
BRANCH   7   8
ATOM      8  C   UNL     1      44.556  20.998   6.564  1.00  0.00     0.000 C 
BRANCH   8   9
ATOM      9  C   UNL     1      45.324  21.219   5.251  1.00  0.00     0.000 C 
BRANCH   9  10
ATOM     10  C   UNL     1      45.557  22.709   4.940  1.00  0.00     0.000 C 
BRANCH  10  11
ATOM     11  C   UNL     1      46.562  22.928   3.798  1.00  0.00     0.000 C 
BRANCH  11  12
ATOM     12  C   UNL     1      47.269  21.632   3.369  1.00  0.00     0.000 C 
BRANCH  12  13
ATOM     13  C   UNL     1      48.777  21.665   3.666  1.00  0.00     0.006 C 
BRANCH  13  14
ATOM     14  C   UNL     1      49.125  22.608   4.826  1.00  0.00     0.053 C 
BRANCH  14  15
ATOM     15  C   UNL     1      49.034  21.899   6.143  1.00  0.00     0.041 C 
ATOM     16  O   UNL     1      49.115  20.643   6.197  1.00  0.00    -0.550 OA
ATOM     17  O   UNL     1      48.894  22.631   7.318  1.00  0.00    -0.550 OA
ENDBRANCH  14  15
ENDBRANCH  13  14
ENDBRANCH  12  13
ENDBRANCH  11  12
ENDBRANCH  10  11
ENDBRANCH   9  10
ENDBRANCH   8   9
ENDBRANCH   7   8
ENDBRANCH   6   7
ENDBRANCH   5   6
ENDBRANCH   4   5
ENDBRANCH   3   4
ENDBRANCH   2   3
ENDBRANCH   1   2
BRANCH   1  18
ATOM     18  C   UNL     1      42.853  18.855  13.109  1.00  0.00     0.000 C 
BRANCH  18  19
ATOM     19  C   UNL     1      41.627  19.773  13.273  1.00  0.00     0.000 C 
BRANCH  19  20
ATOM     20  C   UNL     1      41.820  20.913  14.292  1.00  0.00     0.000 C 
BRANCH  20  21
ATOM     21  C   UNL     1      42.909  21.913  13.860  1.00  0.00     0.000 C 
BRANCH  21  22
ATOM     22  C   UNL     1      42.404  22.928  12.823  1.00  0.00     0.000 C 
BRANCH  22  23
ATOM     23  C   UNL     1      43.332  23.042  11.604  1.00  0.00     0.000 C 
BRANCH  23  24
ATOM     24  C   UNL     1      43.233  21.787  10.721  1.00  0.00    -0.000 C 
BRANCH  24  25
ATOM     25  C   UNL     1      42.493  22.048   9.399  1.00  0.00    -0.000 C 
BRANCH  25  26
ATOM     26  C   UNL     1      40.993  22.328   9.603  1.00  0.00    -0.000 C 
BRANCH  26  27
ATOM     27  C   UNL     1      40.112  21.096   9.325  1.00  0.00    -0.000 C 
BRANCH  27  28
ATOM     28  C   UNL     1      38.951  20.887  10.313  1.00  0.00    -0.000 C 
BRANCH  28  29
ATOM     29  C   UNL     1      39.023  19.542  11.052  1.00  0.00    -0.000 C 
BRANCH  29  30
ATOM     30  C   UNL     1      37.865  18.624  10.635  1.00  0.00    -0.000 C 
BRANCH  30  31
ATOM     31  C   UNL     1      37.017  18.163  11.829  1.00  0.00    -0.003 C 
ATOM     32  C   UNL     1      35.593  18.718  11.794  1.00  0.00     0.004 C 
ENDBRANCH  30  31
ENDBRANCH  29  30
ENDBRANCH  28  29
ENDBRANCH  27  28
ENDBRANCH  26  27
ENDBRANCH  25  26
ENDBRANCH  24  25
ENDBRANCH  23  24
ENDBRANCH  22  23
ENDBRANCH  21  22
ENDBRANCH  20  21
ENDBRANCH  19  20
ENDBRANCH  18  19
ENDBRANCH   1  18
TORSDOF 28
ENDMDL
MODEL 8
REMARK VINA RESULT:    -3.464      2.201      5.565
REMARK INTER + INTRA:         -12.231
REMARK INTER:                  -9.253
REMARK INTRA:                  -2.978
REMARK UNBOUND:                -3.096
REMARK SMILES CCCCCCCCCCCCCCCCCCCCCCCCCCCCCC(=O)[O-]
REMARK SMILES IDX 16 1 17 2 18 3 19 4 20 5 21 6 22 7 23 8 24 9 25 10 26 11
REMARK SMILES IDX 27 12 28 13 29 14 30 15 31 16 32 17 15 18 14 19 13 20 12 21
REMARK SMILES IDX 11 22 10 23 9 24 8 25 7 26 6 27 5 28 4 29 3 30 2 31 1 32
REMARK H PARENT
REMARK Flexibility Score: inf
ROOT
ATOM      1  C   UNL     1      40.598  19.703  12.343  1.00  0.00     0.000 C 
ENDROOT
BRANCH   1   2
ATOM      2  C   UNL     1      39.233  18.988  12.319  1.00  0.00     0.000 C 
BRANCH   2   3
ATOM      3  C   UNL     1      38.361  19.286  11.088  1.00  0.00     0.000 C 
BRANCH   3   4
ATOM      4  C   UNL     1      39.189  19.556   9.820  1.00  0.00     0.000 C 
BRANCH   4   5
ATOM      5  C   UNL     1      39.496  21.049   9.614  1.00  0.00     0.000 C 
BRANCH   5   6
ATOM      6  C   UNL     1      40.904  21.369   9.075  1.00  0.00     0.000 C 
BRANCH   6   7
ATOM      7  C   UNL     1      41.719  22.333   9.963  1.00  0.00     0.000 C 
BRANCH   7   8
ATOM      8  C   UNL     1      43.142  22.574   9.427  1.00  0.00     0.000 C 
BRANCH   8   9
ATOM      9  C   UNL     1      43.495  21.657   8.246  1.00  0.00     0.000 C 
BRANCH   9  10
ATOM     10  C   UNL     1      44.324  22.372   7.164  1.00  0.00     0.000 C 
BRANCH  10  11
ATOM     11  C   UNL     1      44.236  21.679   5.794  1.00  0.00     0.000 C 
BRANCH  11  12
ATOM     12  C   UNL     1      45.173  22.306   4.748  1.00  0.00     0.000 C 
BRANCH  12  13
ATOM     13  C   UNL     1      46.252  21.321   4.268  1.00  0.00     0.006 C 
BRANCH  13  14
ATOM     14  C   UNL     1      47.671  21.786   4.629  1.00  0.00     0.053 C 
BRANCH  14  15
ATOM     15  C   UNL     1      47.965  21.546   6.078  1.00  0.00     0.041 C 
ATOM     16  O   UNL     1      48.573  22.415   6.757  1.00  0.00    -0.550 OA
ATOM     17  O   UNL     1      47.533  20.373   6.689  1.00  0.00    -0.550 OA
ENDBRANCH  14  15
ENDBRANCH  13  14
ENDBRANCH  12  13
ENDBRANCH  11  12
ENDBRANCH  10  11
ENDBRANCH   9  10
ENDBRANCH   8   9
ENDBRANCH   7   8
ENDBRANCH   6   7
ENDBRANCH   5   6
ENDBRANCH   4   5
ENDBRANCH   3   4
ENDBRANCH   2   3
ENDBRANCH   1   2
BRANCH   1  18
ATOM     18  C   UNL     1      41.201  19.794  13.756  1.00  0.00     0.000 C 
BRANCH  18  19
ATOM     19  C   UNL     1      41.946  21.120  13.996  1.00  0.00     0.000 C 
BRANCH  19  20
ATOM     20  C   UNL     1      43.351  21.181  13.368  1.00  0.00     0.000 C 
BRANCH  20  21
ATOM     21  C   UNL     1      43.544  20.141  12.249  1.00  0.00     0.000 C 
BRANCH  21  22
ATOM     22  C   UNL     1      44.880  19.391  12.361  1.00  0.00     0.000 C 
BRANCH  22  23
ATOM     23  C   UNL     1      44.718  17.868  12.230  1.00  0.00     0.000 C 
BRANCH  23  24
ATOM     24  C   UNL     1      43.496  17.377  13.024  1.00  0.00    -0.000 C 
BRANCH  24  25
ATOM     25  C   UNL     1      42.356  16.887  12.118  1.00  0.00    -0.000 C 
BRANCH  25  26
ATOM     26  C   UNL     1      42.754  16.850  10.631  1.00  0.00    -0.000 C 
BRANCH  26  27
ATOM     27  C   UNL     1      41.996  17.889   9.783  1.00  0.00    -0.000 C 
BRANCH  27  28
ATOM     28  C   UNL     1      41.996  17.620   8.268  1.00  0.00    -0.000 C 
BRANCH  28  29
ATOM     29  C   UNL     1      42.094  16.126   7.921  1.00  0.00    -0.000 C 
BRANCH  29  30
ATOM     30  C   UNL     1      42.834  15.919   6.593  1.00  0.00    -0.000 C 
BRANCH  30  31
ATOM     31  C   UNL     1      43.533  14.553   6.513  1.00  0.00    -0.003 C 
ATOM     32  C   UNL     1      44.109  14.263   5.127  1.00  0.00     0.004 C 
ENDBRANCH  30  31
ENDBRANCH  29  30
ENDBRANCH  28  29
ENDBRANCH  27  28
ENDBRANCH  26  27
ENDBRANCH  25  26
ENDBRANCH  24  25
ENDBRANCH  23  24
ENDBRANCH  22  23
ENDBRANCH  21  22
ENDBRANCH  20  21
ENDBRANCH  19  20
ENDBRANCH  18  19
ENDBRANCH   1  18
TORSDOF 28
ENDMDL
MODEL 9
REMARK VINA RESULT:    -3.454      4.221      9.723
REMARK INTER + INTRA:         -12.204
REMARK INTER:                  -9.381
REMARK INTRA:                  -2.823
REMARK UNBOUND:                -3.096
REMARK SMILES CCCCCCCCCCCCCCCCCCCCCCCCCCCCCC(=O)[O-]
REMARK SMILES IDX 16 1 17 2 18 3 19 4 20 5 21 6 22 7 23 8 24 9 25 10 26 11
REMARK SMILES IDX 27 12 28 13 29 14 30 15 31 16 32 17 15 18 14 19 13 20 12 21
REMARK SMILES IDX 11 22 10 23 9 24 8 25 7 26 6 27 5 28 4 29 3 30 2 31 1 32
REMARK H PARENT
REMARK Flexibility Score: inf
ROOT
ATOM      1  C   UNL     1      43.445  17.059  11.760  1.00  0.00     0.000 C 
ENDROOT
BRANCH   1   2
ATOM      2  C   UNL     1      44.306  18.008  12.616  1.00  0.00     0.000 C 
BRANCH   2   3
ATOM      3  C   UNL     1      44.227  19.493  12.225  1.00  0.00     0.000 C 
BRANCH   3   4
ATOM      4  C   UNL     1      43.662  20.378  13.350  1.00  0.00     0.000 C 
BRANCH   4   5
ATOM      5  C   UNL     1      42.498  21.268  12.880  1.00  0.00     0.000 C 
BRANCH   5   6
ATOM      6  C   UNL     1      42.897  22.667  12.368  1.00  0.00     0.000 C 
BRANCH   6   7
ATOM      7  C   UNL     1      43.046  22.761  10.835  1.00  0.00     0.000 C 
BRANCH   7   8
ATOM      8  C   UNL     1      42.279  21.651  10.094  1.00  0.00     0.000 C 
BRANCH   8   9
ATOM      9  C   UNL     1      40.954  22.144   9.492  1.00  0.00     0.000 C 
BRANCH   9  10
ATOM     10  C   UNL     1      39.961  21.000   9.218  1.00  0.00     0.000 C 
BRANCH  10  11
ATOM     11  C   UNL     1      39.015  20.738  10.401  1.00  0.00     0.000 C 
BRANCH  11  12
ATOM     12  C   UNL     1      39.496  19.594  11.308  1.00  0.00     0.000 C 
BRANCH  12  13
ATOM     13  C   UNL     1      38.337  18.711  11.798  1.00  0.00     0.006 C 
BRANCH  13  14
ATOM     14  C   UNL     1      37.005  19.065  11.122  1.00  0.00     0.053 C 
BRANCH  14  15
ATOM     15  C   UNL     1      35.858  18.376  11.795  1.00  0.00     0.041 C 
ATOM     16  O   UNL     1      36.002  17.221  12.276  1.00  0.00    -0.550 OA
ATOM     17  O   UNL     1      34.635  19.028  11.924  1.00  0.00    -0.550 OA
ENDBRANCH  14  15
ENDBRANCH  13  14
ENDBRANCH  12  13
ENDBRANCH  11  12
ENDBRANCH  10  11
ENDBRANCH   9  10
ENDBRANCH   8   9
ENDBRANCH   7   8
ENDBRANCH   6   7
ENDBRANCH   5   6
ENDBRANCH   4   5
ENDBRANCH   3   4
ENDBRANCH   2   3
ENDBRANCH   1   2
BRANCH   1  18
ATOM     18  C   UNL     1      41.938  17.347  11.880  1.00  0.00     0.000 C 
BRANCH  18  19
ATOM     19  C   UNL     1      41.279  17.625  10.515  1.00  0.00     0.000 C 
BRANCH  19  20
ATOM     20  C   UNL     1      42.273  17.973   9.391  1.00  0.00     0.000 C 
BRANCH  20  21
ATOM     21  C   UNL     1      41.575  18.532   8.137  1.00  0.00     0.000 C 
BRANCH  21  22
ATOM     22  C   UNL     1      42.570  18.979   7.054  1.00  0.00     0.000 C 
BRANCH  22  23
ATOM     23  C   UNL     1      42.514  20.491   6.786  1.00  0.00     0.000 C 
BRANCH  23  24
ATOM     24  C   UNL     1      43.858  21.001   6.240  1.00  0.00    -0.000 C 
BRANCH  24  25
ATOM     25  C   UNL     1      44.460  20.069   5.176  1.00  0.00    -0.000 C 
BRANCH  25  26
ATOM     26  C   UNL     1      45.029  20.837   3.969  1.00  0.00    -0.000 C 
BRANCH  26  27
ATOM     27  C   UNL     1      45.806  22.102   4.378  1.00  0.00    -0.000 C 
BRANCH  27  28
ATOM     28  C   UNL     1      47.029  22.429   3.502  1.00  0.00    -0.000 C 
BRANCH  28  29
ATOM     29  C   UNL     1      48.302  22.694   4.321  1.00  0.00    -0.000 C 
BRANCH  29  30
ATOM     30  C   UNL     1      48.922  21.379   4.812  1.00  0.00    -0.000 C 
BRANCH  30  31
ATOM     31  C   UNL     1      48.931  21.266   6.344  1.00  0.00    -0.003 C 
ATOM     32  C   UNL     1      47.816  20.366   6.877  1.00  0.00     0.004 C 
ENDBRANCH  30  31
ENDBRANCH  29  30
ENDBRANCH  28  29
ENDBRANCH  27  28
ENDBRANCH  26  27
ENDBRANCH  25  26
ENDBRANCH  24  25
ENDBRANCH  23  24
ENDBRANCH  22  23
ENDBRANCH  21  22
ENDBRANCH  20  21
ENDBRANCH  19  20
ENDBRANCH  18  19
ENDBRANCH   1  18
TORSDOF 28
ENDMDL
