MODEL 1
REMARK VINA RESULT:    -3.600      0.000      0.000
REMARK INTER + INTRA:          -8.026
REMARK INTER:                  -6.125
REMARK INTRA:                  -1.901
REMARK UNBOUND:                -1.901
REMARK SMILES CCCCCCCCCCCCCC(=O)[O-]
REMARK SMILES IDX 8 1 9 2 10 3 11 4 12 5 13 6 14 7 15 8 16 9 7 10 6 11 5 12
REMARK SMILES IDX 4 13 3 14 2 15 1 16
REMARK H PARENT
REMARK Flexibility Score: inf
ROOT
ATOM      1  C   UNL     1      10.647  -7.402  34.679  1.00  0.00     0.000 C 
ENDROOT
BRANCH   1   2
ATOM      2  C   UNL     1      10.423  -7.480  36.198  1.00  0.00     0.000 C 
BRANCH   2   3
ATOM      3  C   UNL     1      11.370  -6.557  36.986  1.00  0.00     0.000 C 
BRANCH   3   4
ATOM      4  C   UNL     1      10.618  -5.470  37.769  1.00  0.00     0.000 C 
BRANCH   4   5
ATOM      5  C   UNL     1      10.921  -4.054  37.256  1.00  0.00     0.006 C 
BRANCH   5   6
ATOM      6  C   UNL     1      11.839  -4.100  36.031  1.00  0.00     0.053 C 
BRANCH   6   7
ATOM      7  C   UNL     1      13.042  -3.237  36.246  1.00  0.00     0.041 C 
ATOM      8  O   UNL     1      12.951  -1.986  36.148  1.00  0.00    -0.550 OA
ATOM      9  O   UNL     1      14.277  -3.819  36.507  1.00  0.00    -0.550 OA
ENDBRANCH   6   7
ENDBRANCH   5   6
ENDBRANCH   4   5
ENDBRANCH   3   4
ENDBRANCH   2   3
ENDBRANCH   1   2
BRANCH   1  10
ATOM     10  C   UNL     1       9.389  -7.776  33.877  1.00  0.00     0.000 C 
BRANCH  10  11
ATOM     11  C   UNL     1       8.759  -6.566  33.168  1.00  0.00    -0.000 C 
BRANCH  11  12
ATOM     12  C   UNL     1       9.334  -5.228  33.656  1.00  0.00    -0.000 C 
BRANCH  12  13
ATOM     13  C   UNL     1       8.217  -4.293  34.136  1.00  0.00    -0.000 C 
BRANCH  13  14
ATOM     14  C   UNL     1       7.795  -4.629  35.573  1.00  0.00    -0.000 C 
BRANCH  14  15
ATOM     15  C   UNL     1       6.569  -5.553  35.628  1.00  0.00    -0.003 C 
ATOM     16  C   UNL     1       6.707  -6.659  36.675  1.00  0.00     0.004 C 
ENDBRANCH  14  15
ENDBRANCH  13  14
ENDBRANCH  12  13
ENDBRANCH  11  12
ENDBRANCH  10  11
ENDBRANCH   1  10
TORSDOF 12
ENDMDL
MODEL 2
REMARK VINA RESULT:    -3.600      8.132     10.315
REMARK INTER + INTRA:          -8.026
REMARK INTER:                  -7.186
REMARK INTRA:                  -0.840
REMARK UNBOUND:                -1.901
REMARK SMILES CCCCCCCCCCCCCC(=O)[O-]
REMARK SMILES IDX 8 1 9 2 10 3 11 4 12 5 13 6 14 7 15 8 16 9 7 10 6 11 5 12
REMARK SMILES IDX 4 13 3 14 2 15 1 16
REMARK H PARENT
REMARK Flexibility Score: inf
ROOT
ATOM      1  C   UNL     1      17.468 -10.827  35.595  1.00  0.00     0.000 C 
ENDROOT
BRANCH   1   2
ATOM      2  C   UNL     1      17.299 -10.824  37.124  1.00  0.00     0.000 C 
BRANCH   2   3
ATOM      3  C   UNL     1      16.896  -9.443  37.673  1.00  0.00     0.000 C 
BRANCH   3   4
ATOM      4  C   UNL     1      15.518  -9.458  38.353  1.00  0.00     0.000 C 
BRANCH   4   5
ATOM      5  C   UNL     1      15.023  -8.051  38.717  1.00  0.00     0.006 C 
BRANCH   5   6
ATOM      6  C   UNL     1      13.493  -8.008  38.781  1.00  0.00     0.053 C 
BRANCH   6   7
ATOM      7  C   UNL     1      13.012  -6.593  38.853  1.00  0.00     0.041 C 
ATOM      8  O   UNL     1      11.792  -6.348  39.044  1.00  0.00    -0.550 OA
ATOM      9  O   UNL     1      13.904  -5.544  38.663  1.00  0.00    -0.550 OA
ENDBRANCH   6   7
ENDBRANCH   5   6
ENDBRANCH   4   5
ENDBRANCH   3   4
ENDBRANCH   2   3
ENDBRANCH   1   2
BRANCH   1  10
ATOM     10  C   UNL     1      17.976 -12.178  35.062  1.00  0.00     0.000 C 
BRANCH  10  11
ATOM     11  C   UNL     1      19.051 -12.015  33.974  1.00  0.00    -0.000 C 
BRANCH  11  12
ATOM     12  C   UNL     1      20.174 -13.055  34.090  1.00  0.00    -0.000 C 
BRANCH  12  13
ATOM     13  C   UNL     1      21.552 -12.394  33.956  1.00  0.00    -0.000 C 
BRANCH  13  14
ATOM     14  C   UNL     1      22.123 -12.025  35.333  1.00  0.00    -0.000 C 
BRANCH  14  15
ATOM     15  C   UNL     1      21.858 -10.559  35.709  1.00  0.00    -0.003 C 
ATOM     16  C   UNL     1      20.953 -10.416  36.932  1.00  0.00     0.004 C 
ENDBRANCH  14  15
ENDBRANCH  13  14
ENDBRANCH  12  13
ENDBRANCH  11  12
ENDBRANCH  10  11
ENDBRANCH   1  10
TORSDOF 12
ENDMDL
MODEL 3
REMARK VINA RESULT:    -3.587      1.142      1.813
REMARK INTER + INTRA:          -8.005
REMARK INTER:                  -5.977
REMARK INTRA:                  -2.028
REMARK UNBOUND:                -1.901
REMARK SMILES CCCCCCCCCCCCCC(=O)[O-]
REMARK SMILES IDX 8 1 9 2 10 3 11 4 12 5 13 6 14 7 15 8 16 9 7 10 6 11 5 12
REMARK SMILES IDX 4 13 3 14 2 15 1 16
REMARK H PARENT
REMARK Flexibility Score: inf
ROOT
ATOM      1  C   UNL     1       9.785  -8.626  35.765  1.00  0.00     0.000 C 
ENDROOT
BRANCH   1   2
ATOM      2  C   UNL     1      10.699  -7.991  36.827  1.00  0.00     0.000 C 
BRANCH   2   3
ATOM      3  C   UNL     1      10.225  -6.591  37.257  1.00  0.00     0.000 C 
BRANCH   3   4
ATOM      4  C   UNL     1      11.291  -5.510  37.024  1.00  0.00     0.000 C 
BRANCH   4   5
ATOM      5  C   UNL     1      11.546  -5.243  35.533  1.00  0.00     0.006 C 
BRANCH   5   6
ATOM      6  C   UNL     1      11.558  -3.740  35.239  1.00  0.00     0.053 C 
BRANCH   6   7
ATOM      7  C   UNL     1      12.797  -3.108  35.789  1.00  0.00     0.041 C 
ATOM      8  O   UNL     1      13.897  -3.718  35.735  1.00  0.00    -0.550 OA
ATOM      9  O   UNL     1      12.730  -1.864  36.405  1.00  0.00    -0.550 OA
ENDBRANCH   6   7
ENDBRANCH   5   6
ENDBRANCH   4   5
ENDBRANCH   3   4
ENDBRANCH   2   3
ENDBRANCH   1   2
BRANCH   1  10
ATOM     10  C   UNL     1      10.420  -8.625  34.364  1.00  0.00     0.000 C 
BRANCH  10  11
ATOM     11  C   UNL     1       9.549  -7.902  33.323  1.00  0.00    -0.000 C 
BRANCH  11  12
ATOM     12  C   UNL     1       8.251  -7.341  33.923  1.00  0.00    -0.000 C 
BRANCH  12  13
ATOM     13  C   UNL     1       8.286  -5.808  33.968  1.00  0.00    -0.000 C 
BRANCH  13  14
ATOM     14  C   UNL     1       7.508  -5.275  35.180  1.00  0.00    -0.000 C 
BRANCH  14  15
ATOM     15  C   UNL     1       7.754  -3.778  35.428  1.00  0.00    -0.003 C 
ATOM     16  C   UNL     1       8.079  -3.466  36.889  1.00  0.00     0.004 C 
ENDBRANCH  14  15
ENDBRANCH  13  14
ENDBRANCH  12  13
ENDBRANCH  11  12
ENDBRANCH  10  11
ENDBRANCH   1  10
TORSDOF 12
ENDMDL
MODEL 4
REMARK VINA RESULT:    -3.585      3.760      6.816
REMARK INTER + INTRA:          -8.002
REMARK INTER:                  -7.284
REMARK INTRA:                  -0.718
REMARK UNBOUND:                -1.901
REMARK SMILES CCCCCCCCCCCCCC(=O)[O-]
REMARK SMILES IDX 8 1 9 2 10 3 11 4 12 5 13 6 14 7 15 8 16 9 7 10 6 11 5 12
REMARK SMILES IDX 4 13 3 14 2 15 1 16
REMARK H PARENT
REMARK Flexibility Score: inf
ROOT
ATOM      1  C   UNL     1      14.325  -4.219  37.218  1.00  0.00     0.000 C 
ENDROOT
BRANCH   1   2
ATOM      2  C   UNL     1      13.647  -3.666  35.954  1.00  0.00     0.000 C 
BRANCH   2   3
ATOM      3  C   UNL     1      12.120  -3.542  36.106  1.00  0.00     0.000 C 
BRANCH   3   4
ATOM      4  C   UNL     1      11.356  -4.189  34.940  1.00  0.00     0.000 C 
BRANCH   4   5
ATOM      5  C   UNL     1      10.907  -5.624  35.251  1.00  0.00     0.006 C 
BRANCH   5   6
ATOM      6  C   UNL     1       9.380  -5.741  35.215  1.00  0.00     0.053 C 
BRANCH   6   7
ATOM      7  C   UNL     1       8.832  -5.061  34.001  1.00  0.00     0.041 C 
ATOM      8  O   UNL     1       8.938  -5.602  32.869  1.00  0.00    -0.550 OA
ATOM      9  O   UNL     1       8.244  -3.806  34.112  1.00  0.00    -0.550 OA
ENDBRANCH   6   7
ENDBRANCH   5   6
ENDBRANCH   4   5
ENDBRANCH   3   4
ENDBRANCH   2   3
ENDBRANCH   1   2
BRANCH   1  10
ATOM     10  C   UNL     1      13.364  -5.042  38.092  1.00  0.00     0.000 C 
BRANCH  10  11
ATOM     11  C   UNL     1      14.027  -6.301  38.675  1.00  0.00    -0.000 C 
BRANCH  11  12
ATOM     12  C   UNL     1      13.110  -7.532  38.624  1.00  0.00    -0.000 C 
BRANCH  12  13
ATOM     13  C   UNL     1      13.921  -8.827  38.756  1.00  0.00    -0.000 C 
BRANCH  13  14
ATOM     14  C   UNL     1      15.402  -8.585  38.430  1.00  0.00    -0.000 C 
BRANCH  14  15
ATOM     15  C   UNL     1      16.190  -9.893  38.257  1.00  0.00    -0.003 C 
ATOM     16  C   UNL     1      17.468  -9.710  37.439  1.00  0.00     0.004 C 
ENDBRANCH  14  15
ENDBRANCH  13  14
ENDBRANCH  12  13
ENDBRANCH  11  12
ENDBRANCH  10  11
ENDBRANCH   1  10
TORSDOF 12
ENDMDL
MODEL 5
REMARK VINA RESULT:    -3.531      1.518      3.252
REMARK INTER + INTRA:          -7.909
REMARK INTER:                  -6.047
REMARK INTRA:                  -1.861
REMARK UNBOUND:                -1.901
REMARK SMILES CCCCCCCCCCCCCC(=O)[O-]
REMARK SMILES IDX 8 1 9 2 10 3 11 4 12 5 13 6 14 7 15 8 16 9 7 10 6 11 5 12
REMARK SMILES IDX 4 13 3 14 2 15 1 16
REMARK H PARENT
REMARK Flexibility Score: inf
ROOT
ATOM      1  C   UNL     1       8.549  -7.438  33.501  1.00  0.00     0.000 C 
ENDROOT
BRANCH   1   2
ATOM      2  C   UNL     1       8.780  -5.973  33.094  1.00  0.00     0.000 C 
BRANCH   2   3
ATOM      3  C   UNL     1       8.514  -4.988  34.247  1.00  0.00     0.000 C 
BRANCH   3   4
ATOM      4  C   UNL     1       9.787  -4.259  34.705  1.00  0.00     0.000 C 
BRANCH   4   5
ATOM      5  C   UNL     1      11.021  -5.173  34.714  1.00  0.00     0.006 C 
BRANCH   5   6
ATOM      6  C   UNL     1      12.313  -4.351  34.669  1.00  0.00     0.053 C 
BRANCH   6   7
ATOM      7  C   UNL     1      12.554  -3.683  35.986  1.00  0.00     0.041 C 
ATOM      8  O   UNL     1      12.454  -4.338  37.056  1.00  0.00    -0.550 OA
ATOM      9  O   UNL     1      12.842  -2.324  36.034  1.00  0.00    -0.550 OA
ENDBRANCH   6   7
ENDBRANCH   5   6
ENDBRANCH   4   5
ENDBRANCH   3   4
ENDBRANCH   2   3
ENDBRANCH   1   2
BRANCH   1  10
ATOM     10  C   UNL     1       9.686  -8.364  33.037  1.00  0.00     0.000 C 
BRANCH  10  11
ATOM     11  C   UNL     1      10.467  -8.973  34.213  1.00  0.00    -0.000 C 
BRANCH  11  12
ATOM     12  C   UNL     1       9.701  -8.888  35.541  1.00  0.00    -0.000 C 
BRANCH  12  13
ATOM     13  C   UNL     1      10.667  -8.745  36.724  1.00  0.00    -0.000 C 
BRANCH  13  14
ATOM     14  C   UNL     1      10.445  -7.415  37.458  1.00  0.00    -0.000 C 
BRANCH  14  15
ATOM     15  C   UNL     1       8.956  -7.063  37.607  1.00  0.00    -0.003 C 
ATOM     16  C   UNL     1       8.728  -5.594  37.964  1.00  0.00     0.004 C 
ENDBRANCH  14  15
ENDBRANCH  13  14
ENDBRANCH  12  13
ENDBRANCH  11  12
ENDBRANCH  10  11
ENDBRANCH   1  10
TORSDOF 12
ENDMDL
MODEL 6
REMARK VINA RESULT:    -3.496      1.092      3.580
REMARK INTER + INTRA:          -7.849
REMARK INTER:                  -5.764
REMARK INTRA:                  -2.086
REMARK UNBOUND:                -1.901
REMARK SMILES CCCCCCCCCCCCCC(=O)[O-]
REMARK SMILES IDX 8 1 9 2 10 3 11 4 12 5 13 6 14 7 15 8 16 9 7 10 6 11 5 12
REMARK SMILES IDX 4 13 3 14 2 15 1 16
REMARK H PARENT
REMARK Flexibility Score: inf
ROOT
ATOM      1  C   UNL     1       7.615  -6.239  36.918  1.00  0.00     0.000 C 
ENDROOT
BRANCH   1   2
ATOM      2  C   UNL     1       7.534  -5.095  35.893  1.00  0.00     0.000 C 
BRANCH   2   3
ATOM      3  C   UNL     1       8.827  -4.263  35.829  1.00  0.00     0.000 C 
BRANCH   3   4
ATOM      4  C   UNL     1       9.577  -4.441  34.500  1.00  0.00     0.000 C 
BRANCH   4   5
ATOM      5  C   UNL     1      11.094  -4.249  34.646  1.00  0.00     0.006 C 
BRANCH   5   6
ATOM      6  C   UNL     1      11.461  -3.858  36.081  1.00  0.00     0.053 C 
BRANCH   6   7
ATOM      7  C   UNL     1      12.750  -3.098  36.103  1.00  0.00     0.041 C 
ATOM      8  O   UNL     1      12.757  -1.870  36.380  1.00  0.00    -0.550 OA
ATOM      9  O   UNL     1      13.939  -3.735  35.770  1.00  0.00    -0.550 OA
ENDBRANCH   6   7
ENDBRANCH   5   6
ENDBRANCH   4   5
ENDBRANCH   3   4
ENDBRANCH   2   3
ENDBRANCH   1   2
BRANCH   1  10
ATOM     10  C   UNL     1       8.805  -6.085  37.880  1.00  0.00     0.000 C 
BRANCH  10  11
ATOM     11  C   UNL     1       9.691  -7.340  37.927  1.00  0.00    -0.000 C 
BRANCH  11  12
ATOM     12  C   UNL     1      10.758  -7.355  36.822  1.00  0.00    -0.000 C 
BRANCH  12  13
ATOM     13  C   UNL     1      10.444  -8.425  35.769  1.00  0.00    -0.000 C 
BRANCH  13  14
ATOM     14  C   UNL     1      10.649  -7.877  34.349  1.00  0.00    -0.000 C 
BRANCH  14  15
ATOM     15  C   UNL     1       9.627  -8.438  33.347  1.00  0.00    -0.003 C 
ATOM     16  C   UNL     1       8.243  -7.808  33.498  1.00  0.00     0.004 C 
ENDBRANCH  14  15
ENDBRANCH  13  14
ENDBRANCH  12  13
ENDBRANCH  11  12
ENDBRANCH  10  11
ENDBRANCH   1  10
TORSDOF 12
ENDMDL
MODEL 7
REMARK VINA RESULT:    -3.430      1.843      4.267
REMARK INTER + INTRA:          -7.738
REMARK INTER:                  -6.192
REMARK INTRA:                  -1.546
REMARK UNBOUND:                -1.901
REMARK SMILES CCCCCCCCCCCCCC(=O)[O-]
REMARK SMILES IDX 8 1 9 2 10 3 11 4 12 5 13 6 14 7 15 8 16 9 7 10 6 11 5 12
REMARK SMILES IDX 4 13 3 14 2 15 1 16
REMARK H PARENT
REMARK Flexibility Score: inf
ROOT
ATOM      1  C   UNL     1       9.746  -8.247  33.075  1.00  0.00     0.000 C 
ENDROOT
BRANCH   1   2
ATOM      2  C   UNL     1       8.318  -7.927  33.546  1.00  0.00     0.000 C 
BRANCH   2   3
ATOM      3  C   UNL     1       8.236  -6.615  34.347  1.00  0.00     0.000 C 
BRANCH   3   4
ATOM      4  C   UNL     1       9.006  -5.467  33.677  1.00  0.00     0.000 C 
BRANCH   4   5
ATOM      5  C   UNL     1       9.745  -4.580  34.689  1.00  0.00     0.006 C 
BRANCH   5   6
ATOM      6  C   UNL     1      11.210  -5.006  34.825  1.00  0.00     0.053 C 
BRANCH   6   7
ATOM      7  C   UNL     1      11.887  -4.217  35.900  1.00  0.00     0.041 C 
ATOM      8  O   UNL     1      11.966  -4.675  37.070  1.00  0.00    -0.550 OA
ATOM      9  O   UNL     1      12.391  -2.951  35.621  1.00  0.00    -0.550 OA
ENDBRANCH   6   7
ENDBRANCH   5   6
ENDBRANCH   4   5
ENDBRANCH   3   4
ENDBRANCH   2   3
ENDBRANCH   1   2
BRANCH   1  10
ATOM     10  C   UNL     1      10.658  -8.704  34.227  1.00  0.00     0.000 C 
BRANCH  10  11
ATOM     11  C   UNL     1       9.991  -9.760  35.124  1.00  0.00    -0.000 C 
BRANCH  11  12
ATOM     12  C   UNL     1      10.147  -9.452  36.620  1.00  0.00    -0.000 C 
BRANCH  12  13
ATOM     13  C   UNL     1      10.766  -8.065  36.834  1.00  0.00    -0.000 C 
BRANCH  13  14
ATOM     14  C   UNL     1      11.304  -7.915  38.264  1.00  0.00    -0.000 C 
BRANCH  14  15
ATOM     15  C   UNL     1      12.828  -8.098  38.344  1.00  0.00    -0.003 C 
ATOM     16  C   UNL     1      13.233  -9.509  38.771  1.00  0.00     0.004 C 
ENDBRANCH  14  15
ENDBRANCH  13  14
ENDBRANCH  12  13
ENDBRANCH  11  12
ENDBRANCH  10  11
ENDBRANCH   1  10
TORSDOF 12
ENDMDL
MODEL 8
REMARK VINA RESULT:    -3.378      1.471      3.137
REMARK INTER + INTRA:          -7.649
REMARK INTER:                  -5.557
REMARK INTRA:                  -2.092
REMARK UNBOUND:                -1.901
REMARK SMILES CCCCCCCCCCCCCC(=O)[O-]
REMARK SMILES IDX 8 1 9 2 10 3 11 4 12 5 13 6 14 7 15 8 16 9 7 10 6 11 5 12
REMARK SMILES IDX 4 13 3 14 2 15 1 16
REMARK H PARENT
REMARK Flexibility Score: inf
ROOT
ATOM      1  C   UNL     1      10.521  -8.640  33.975  1.00  0.00     0.000 C 
ENDROOT
BRANCH   1   2
ATOM      2  C   UNL     1       9.463  -8.113  32.991  1.00  0.00     0.000 C 
BRANCH   2   3
ATOM      3  C   UNL     1       8.538  -7.058  33.623  1.00  0.00     0.000 C 
BRANCH   3   4
ATOM      4  C   UNL     1       9.059  -5.626  33.431  1.00  0.00     0.000 C 
BRANCH   4   5
ATOM      5  C   UNL     1       9.605  -5.016  34.731  1.00  0.00     0.006 C 
BRANCH   5   6
ATOM      6  C   UNL     1      11.136  -5.034  34.745  1.00  0.00     0.053 C 
BRANCH   6   7
ATOM      7  C   UNL     1      11.659  -4.229  35.892  1.00  0.00     0.041 C 
ATOM      8  O   UNL     1      12.170  -3.096  35.691  1.00  0.00    -0.550 OA
ATOM      9  O   UNL     1      11.626  -4.750  37.180  1.00  0.00    -0.550 OA
ENDBRANCH   6   7
ENDBRANCH   5   6
ENDBRANCH   4   5
ENDBRANCH   3   4
ENDBRANCH   2   3
ENDBRANCH   1   2
BRANCH   1  10
ATOM     10  C   UNL     1       9.918  -9.039  35.332  1.00  0.00     0.000 C 
BRANCH  10  11
ATOM     11  C   UNL     1      10.580  -8.306  36.510  1.00  0.00    -0.000 C 
BRANCH  11  12
ATOM     12  C   UNL     1       9.560  -7.617  37.429  1.00  0.00    -0.000 C 
BRANCH  12  13
ATOM     13  C   UNL     1       8.125  -7.977  37.025  1.00  0.00    -0.000 C 
BRANCH  13  14
ATOM     14  C   UNL     1       7.146  -6.858  37.410  1.00  0.00    -0.000 C 
BRANCH  14  15
ATOM     15  C   UNL     1       6.038  -6.656  36.365  1.00  0.00    -0.003 C 
ATOM     16  C   UNL     1       6.062  -5.261  35.740  1.00  0.00     0.004 C 
ENDBRANCH  14  15
ENDBRANCH  13  14
ENDBRANCH  12  13
ENDBRANCH  11  12
ENDBRANCH  10  11
ENDBRANCH   1  10
TORSDOF 12
ENDMDL
MODEL 9
REMARK VINA RESULT:    -3.374      1.986      3.506
REMARK INTER + INTRA:          -7.643
REMARK INTER:                  -6.018
REMARK INTRA:                  -1.625
REMARK UNBOUND:                -1.901
REMARK SMILES CCCCCCCCCCCCCC(=O)[O-]
REMARK SMILES IDX 8 1 9 2 10 3 11 4 12 5 13 6 14 7 15 8 16 9 7 10 6 11 5 12
REMARK SMILES IDX 4 13 3 14 2 15 1 16
REMARK H PARENT
REMARK Flexibility Score: inf
ROOT
ATOM      1  C   UNL     1      10.434  -8.476  33.905  1.00  0.00     0.000 C 
ENDROOT
BRANCH   1   2
ATOM      2  C   UNL     1      10.274  -9.551  34.992  1.00  0.00     0.000 C 
BRANCH   2   3
ATOM      3  C   UNL     1       9.964  -8.953  36.377  1.00  0.00     0.000 C 
BRANCH   3   4
ATOM      4  C   UNL     1      10.983  -7.883  36.798  1.00  0.00     0.000 C 
BRANCH   4   5
ATOM      5  C   UNL     1      11.638  -8.190  38.152  1.00  0.00     0.006 C 
BRANCH   5   6
ATOM      6  C   UNL     1      12.144  -6.908  38.820  1.00  0.00     0.053 C 
BRANCH   6   7
ATOM      7  C   UNL     1      13.635  -6.822  38.726  1.00  0.00     0.041 C 
ATOM      8  O   UNL     1      14.338  -7.860  38.834  1.00  0.00    -0.550 OA
ATOM      9  O   UNL     1      14.252  -5.586  38.568  1.00  0.00    -0.550 OA
ENDBRANCH   6   7
ENDBRANCH   5   6
ENDBRANCH   4   5
ENDBRANCH   3   4
ENDBRANCH   2   3
ENDBRANCH   1   2
BRANCH   1  10
ATOM     10  C   UNL     1       9.083  -7.985  33.357  1.00  0.00     0.000 C 
BRANCH  10  11
ATOM     11  C   UNL     1       8.988  -6.451  33.310  1.00  0.00    -0.000 C 
BRANCH  11  12
ATOM     12  C   UNL     1       8.658  -5.835  34.678  1.00  0.00    -0.000 C 
BRANCH  12  13
ATOM     13  C   UNL     1       9.399  -4.507  34.875  1.00  0.00    -0.000 C 
BRANCH  13  14
ATOM     14  C   UNL     1      10.904  -4.672  34.621  1.00  0.00    -0.000 C 
BRANCH  14  15
ATOM     15  C   UNL     1      11.742  -4.500  35.898  1.00  0.00    -0.003 C 
ATOM     16  C   UNL     1      10.980  -3.781  37.012  1.00  0.00     0.004 C 
ENDBRANCH  14  15
ENDBRANCH  13  14
ENDBRANCH  12  13
ENDBRANCH  11  12
ENDBRANCH  10  11
ENDBRANCH   1  10
TORSDOF 12
ENDMDL
