MODEL 1
REMARK VINA RESULT:    -4.708      0.000      0.000
REMARK INTER + INTRA:         -15.337
REMARK INTER:                 -11.863
REMARK INTRA:                  -3.474
REMARK UNBOUND:                -3.474
REMARK SMILES CCCCCCCCCCCCCCCCCCCCCCCCCCCC(=O)[O-]
REMARK SMILES IDX 15 1 16 2 17 3 18 4 19 5 20 6 21 7 22 8 23 9 24 10 25 11
REMARK SMILES IDX 26 12 27 13 28 14 29 15 30 16 14 17 13 18 12 19 11 20 10 21
REMARK SMILES IDX 9 22 8 23 7 24 6 25 5 26 4 27 3 28 2 29 1 30
REMARK H PARENT
REMARK Flexibility Score: inf
ROOT
ATOM      1  C   UNL     1       3.861  82.419  63.355  1.00  0.00     0.000 C 
ENDROOT
BRANCH   1   2
ATOM      2  C   UNL     1       2.677  81.438  63.286  1.00  0.00     0.000 C 
BRANCH   2   3
ATOM      3  C   UNL     1       3.107  80.034  62.825  1.00  0.00     0.000 C 
BRANCH   3   4
ATOM      4  C   UNL     1       4.637  79.812  62.856  1.00  0.00     0.000 C 
BRANCH   4   5
ATOM      5  C   UNL     1       5.057  78.477  63.502  1.00  0.00     0.000 C 
BRANCH   5   6
ATOM      6  C   UNL     1       6.047  78.607  64.677  1.00  0.00     0.000 C 
BRANCH   6   7
ATOM      7  C   UNL     1       6.522  77.267  65.278  1.00  0.00     0.000 C 
BRANCH   7   8
ATOM      8  C   UNL     1       7.275  77.389  66.616  1.00  0.00     0.000 C 
BRANCH   8   9
ATOM      9  C   UNL     1       6.584  78.325  67.635  1.00  0.00     0.000 C 
BRANCH   9  10
ATOM     10  C   UNL     1       5.373  77.684  68.336  1.00  0.00     0.000 C 
BRANCH  10  11
ATOM     11  C   UNL     1       4.222  78.685  68.537  1.00  0.00     0.000 C 
BRANCH  11  12
ATOM     12  C   UNL     1       4.256  79.838  67.523  1.00  0.00     0.006 C 
BRANCH  12  13
ATOM     13  C   UNL     1       3.021  79.859  66.611  1.00  0.00     0.053 C 
BRANCH  13  14
ATOM     14  C   UNL     1       1.938  80.693  67.218  1.00  0.00     0.041 C 
ATOM     15  O   UNL     1       0.886  80.936  66.570  1.00  0.00    -0.550 OA
ATOM     16  O   UNL     1       2.112  81.245  68.481  1.00  0.00    -0.550 OA
ENDBRANCH  13  14
ENDBRANCH  12  13
ENDBRANCH  11  12
ENDBRANCH  10  11
ENDBRANCH   9  10
ENDBRANCH   8   9
ENDBRANCH   7   8
ENDBRANCH   6   7
ENDBRANCH   5   6
ENDBRANCH   4   5
ENDBRANCH   3   4
ENDBRANCH   2   3
ENDBRANCH   1   2
BRANCH   1  17
ATOM     17  C   UNL     1       3.792  83.332  64.592  1.00  0.00     0.000 C 
BRANCH  17  18
ATOM     18  C   UNL     1       4.422  84.713  64.341  1.00  0.00     0.000 C 
BRANCH  18  19
ATOM     19  C   UNL     1       4.513  85.069  62.845  1.00  0.00     0.000 C 
BRANCH  19  20
ATOM     20  C   UNL     1       4.070  86.499  62.482  1.00  0.00     0.000 C 
BRANCH  20  21
ATOM     21  C   UNL     1       4.036  86.749  60.965  1.00  0.00     0.000 C 
BRANCH  21  22
ATOM     22  C   UNL     1       4.397  88.197  60.598  1.00  0.00    -0.000 C 
BRANCH  22  23
ATOM     23  C   UNL     1       3.702  89.232  61.496  1.00  0.00    -0.000 C 
BRANCH  23  24
ATOM     24  C   UNL     1       2.865  90.209  60.657  1.00  0.00    -0.000 C 
BRANCH  24  25
ATOM     25  C   UNL     1       1.354  89.974  60.807  1.00  0.00    -0.000 C 
BRANCH  25  26
ATOM     26  C   UNL     1       1.007  89.109  62.031  1.00  0.00    -0.000 C 
BRANCH  26  27
ATOM     27  C   UNL     1      -0.074  88.054  61.731  1.00  0.00    -0.000 C 
BRANCH  27  28
ATOM     28  C   UNL     1       0.375  86.594  61.928  1.00  0.00    -0.000 C 
BRANCH  28  29
ATOM     29  C   UNL     1      -0.223  85.950  63.188  1.00  0.00    -0.003 C 
ATOM     30  C   UNL     1       0.688  84.854  63.730  1.00  0.00     0.004 C 
ENDBRANCH  28  29
ENDBRANCH  27  28
ENDBRANCH  26  27
ENDBRANCH  25  26
ENDBRANCH  24  25
ENDBRANCH  23  24
ENDBRANCH  22  23
ENDBRANCH  21  22
ENDBRANCH  20  21
ENDBRANCH  19  20
ENDBRANCH  18  19
ENDBRANCH  17  18
ENDBRANCH   1  17
TORSDOF 26
ENDMDL
MODEL 2
REMARK VINA RESULT:    -4.704      1.701      4.562
REMARK INTER + INTRA:         -15.328
REMARK INTER:                 -11.456
REMARK INTRA:                  -3.872
REMARK UNBOUND:                -3.474
REMARK SMILES CCCCCCCCCCCCCCCCCCCCCCCCCCCC(=O)[O-]
REMARK SMILES IDX 15 1 16 2 17 3 18 4 19 5 20 6 21 7 22 8 23 9 24 10 25 11
REMARK SMILES IDX 26 12 27 13 28 14 29 15 30 16 14 17 13 18 12 19 11 20 10 21
REMARK SMILES IDX 9 22 8 23 7 24 6 25 5 26 4 27 3 28 2 29 1 30
REMARK H PARENT
REMARK Flexibility Score: inf
ROOT
ATOM      1  C   UNL     1       4.768  80.196  62.693  1.00  0.00     0.000 C 
ENDROOT
BRANCH   1   2
ATOM      2  C   UNL     1       5.658  78.957  62.489  1.00  0.00     0.000 C 
BRANCH   2   3
ATOM      3  C   UNL     1       7.046  79.122  63.133  1.00  0.00     0.000 C 
BRANCH   3   4
ATOM      4  C   UNL     1       7.211  78.346  64.460  1.00  0.00     0.000 C 
BRANCH   4   5
ATOM      5  C   UNL     1       6.330  77.085  64.555  1.00  0.00     0.000 C 
BRANCH   5   6
ATOM      6  C   UNL     1       5.650  76.870  65.921  1.00  0.00     0.000 C 
BRANCH   6   7
ATOM      7  C   UNL     1       6.618  76.658  67.104  1.00  0.00     0.000 C 
BRANCH   7   8
ATOM      8  C   UNL     1       6.462  77.666  68.257  1.00  0.00     0.000 C 
BRANCH   8   9
ATOM      9  C   UNL     1       5.664  78.933  67.871  1.00  0.00     0.000 C 
BRANCH   9  10
ATOM     10  C   UNL     1       4.394  79.141  68.716  1.00  0.00     0.000 C 
BRANCH  10  11
ATOM     11  C   UNL     1       3.421  77.955  68.602  1.00  0.00     0.000 C 
BRANCH  11  12
ATOM     12  C   UNL     1       2.269  78.035  69.615  1.00  0.00     0.006 C 
BRANCH  12  13
ATOM     13  C   UNL     1       1.002  78.665  69.020  1.00  0.00     0.053 C 
BRANCH  13  14
ATOM     14  C   UNL     1       0.678  79.947  69.720  1.00  0.00     0.041 C 
ATOM     15  O   UNL     1       1.312  80.281  70.756  1.00  0.00    -0.550 OA
ATOM     16  O   UNL     1      -0.357  80.749  69.258  1.00  0.00    -0.550 OA
ENDBRANCH  13  14
ENDBRANCH  12  13
ENDBRANCH  11  12
ENDBRANCH  10  11
ENDBRANCH   9  10
ENDBRANCH   8   9
ENDBRANCH   7   8
ENDBRANCH   6   7
ENDBRANCH   5   6
ENDBRANCH   4   5
ENDBRANCH   3   4
ENDBRANCH   2   3
ENDBRANCH   1   2
BRANCH   1  17
ATOM     17  C   UNL     1       3.454  79.860  63.420  1.00  0.00     0.000 C 
BRANCH  17  18
ATOM     18  C   UNL     1       3.611  79.851  64.950  1.00  0.00     0.000 C 
BRANCH  18  19
ATOM     19  C   UNL     1       2.265  79.955  65.692  1.00  0.00     0.000 C 
BRANCH  19  20
ATOM     20  C   UNL     1       2.107  81.191  66.596  1.00  0.00     0.000 C 
BRANCH  20  21
ATOM     21  C   UNL     1       1.162  82.250  66.004  1.00  0.00     0.000 C 
BRANCH  21  22
ATOM     22  C   UNL     1       1.869  83.588  65.736  1.00  0.00    -0.000 C 
BRANCH  22  23
ATOM     23  C   UNL     1       2.386  83.712  64.294  1.00  0.00    -0.000 C 
BRANCH  23  24
ATOM     24  C   UNL     1       3.903  83.480  64.236  1.00  0.00    -0.000 C 
BRANCH  24  25
ATOM     25  C   UNL     1       4.671  84.711  63.731  1.00  0.00    -0.000 C 
BRANCH  25  26
ATOM     26  C   UNL     1       3.753  85.920  63.477  1.00  0.00    -0.000 C 
BRANCH  26  27
ATOM     27  C   UNL     1       3.627  86.273  61.984  1.00  0.00    -0.000 C 
BRANCH  27  28
ATOM     28  C   UNL     1       4.144  87.672  61.604  1.00  0.00    -0.000 C 
BRANCH  28  29
ATOM     29  C   UNL     1       3.088  88.772  61.796  1.00  0.00    -0.003 C 
ATOM     30  C   UNL     1       3.556  90.093  61.195  1.00  0.00     0.004 C 
ENDBRANCH  28  29
ENDBRANCH  27  28
ENDBRANCH  26  27
ENDBRANCH  25  26
ENDBRANCH  24  25
ENDBRANCH  23  24
ENDBRANCH  22  23
ENDBRANCH  21  22
ENDBRANCH  20  21
ENDBRANCH  19  20
ENDBRANCH  18  19
ENDBRANCH  17  18
ENDBRANCH   1  17
TORSDOF 26
ENDMDL
MODEL 3
REMARK VINA RESULT:    -4.695      3.216      8.999
REMARK INTER + INTRA:         -15.306
REMARK INTER:                 -10.576
REMARK INTRA:                  -4.729
REMARK UNBOUND:                -3.474
REMARK SMILES CCCCCCCCCCCCCCCCCCCCCCCCCCCC(=O)[O-]
REMARK SMILES IDX 15 1 16 2 17 3 18 4 19 5 20 6 21 7 22 8 23 9 24 10 25 11
REMARK SMILES IDX 26 12 27 13 28 14 29 15 30 16 14 17 13 18 12 19 11 20 10 21
REMARK SMILES IDX 9 22 8 23 7 24 6 25 5 26 4 27 3 28 2 29 1 30
REMARK H PARENT
REMARK Flexibility Score: inf
ROOT
ATOM      1  C   UNL     1       6.083  78.581  67.943  1.00  0.00     0.000 C 
ENDROOT
BRANCH   1   2
ATOM      2  C   UNL     1       6.958  77.559  67.197  1.00  0.00     0.000 C 
BRANCH   2   3
ATOM      3  C   UNL     1       7.245  77.984  65.746  1.00  0.00     0.000 C 
BRANCH   3   4
ATOM      4  C   UNL     1       6.376  77.249  64.699  1.00  0.00     0.000 C 
BRANCH   4   5
ATOM      5  C   UNL     1       5.649  78.194  63.723  1.00  0.00     0.000 C 
BRANCH   5   6
ATOM      6  C   UNL     1       4.611  79.129  64.377  1.00  0.00     0.000 C 
BRANCH   6   7
ATOM      7  C   UNL     1       3.701  79.884  63.386  1.00  0.00     0.000 C 
BRANCH   7   8
ATOM      8  C   UNL     1       3.795  81.419  63.461  1.00  0.00     0.000 C 
BRANCH   8   9
ATOM      9  C   UNL     1       2.561  82.086  64.112  1.00  0.00     0.000 C 
BRANCH   9  10
ATOM     10  C   UNL     1       2.864  83.457  64.743  1.00  0.00     0.000 C 
BRANCH  10  11
ATOM     11  C   UNL     1       4.200  84.040  64.251  1.00  0.00     0.000 C 
BRANCH  11  12
ATOM     12  C   UNL     1       4.059  85.473  63.716  1.00  0.00     0.006 C 
BRANCH  12  13
ATOM     13  C   UNL     1       4.609  85.629  62.291  1.00  0.00     0.053 C 
BRANCH  13  14
ATOM     14  C   UNL     1       4.099  84.532  61.412  1.00  0.00     0.041 C 
ATOM     15  O   UNL     1       2.871  84.457  61.139  1.00  0.00    -0.550 OA
ATOM     16  O   UNL     1       4.970  83.562  60.934  1.00  0.00    -0.550 OA
ENDBRANCH  13  14
ENDBRANCH  12  13
ENDBRANCH  11  12
ENDBRANCH  10  11
ENDBRANCH   9  10
ENDBRANCH   8   9
ENDBRANCH   7   8
ENDBRANCH   6   7
ENDBRANCH   5   6
ENDBRANCH   4   5
ENDBRANCH   3   4
ENDBRANCH   2   3
ENDBRANCH   1   2
BRANCH   1  17
ATOM     17  C   UNL     1       4.918  77.915  68.697  1.00  0.00     0.000 C 
BRANCH  17  18
ATOM     18  C   UNL     1       4.210  76.838  67.856  1.00  0.00     0.000 C 
BRANCH  18  19
ATOM     19  C   UNL     1       3.756  75.626  68.693  1.00  0.00     0.000 C 
BRANCH  19  20
ATOM     20  C   UNL     1       2.335  75.116  68.392  1.00  0.00     0.000 C 
BRANCH  20  21
ATOM     21  C   UNL     1       1.337  76.252  68.113  1.00  0.00     0.000 C 
BRANCH  21  22
ATOM     22  C   UNL     1       0.388  76.507  69.295  1.00  0.00    -0.000 C 
BRANCH  22  23
ATOM     23  C   UNL     1       0.368  77.978  69.739  1.00  0.00    -0.000 C 
BRANCH  23  24
ATOM     24  C   UNL     1       1.718  78.383  70.349  1.00  0.00    -0.000 C 
BRANCH  24  25
ATOM     25  C   UNL     1       1.987  79.892  70.241  1.00  0.00    -0.000 C 
BRANCH  25  26
ATOM     26  C   UNL     1       1.371  80.516  68.977  1.00  0.00    -0.000 C 
BRANCH  26  27
ATOM     27  C   UNL     1       2.345  80.538  67.785  1.00  0.00    -0.000 C 
BRANCH  27  28
ATOM     28  C   UNL     1       2.040  79.510  66.681  1.00  0.00    -0.000 C 
BRANCH  28  29
ATOM     29  C   UNL     1       0.541  79.410  66.355  1.00  0.00    -0.003 C 
ATOM     30  C   UNL     1       0.315  79.249  64.855  1.00  0.00     0.004 C 
ENDBRANCH  28  29
ENDBRANCH  27  28
ENDBRANCH  26  27
ENDBRANCH  25  26
ENDBRANCH  24  25
ENDBRANCH  23  24
ENDBRANCH  22  23
ENDBRANCH  21  22
ENDBRANCH  20  21
ENDBRANCH  19  20
ENDBRANCH  18  19
ENDBRANCH  17  18
ENDBRANCH   1  17
TORSDOF 26
ENDMDL
MODEL 4
REMARK VINA RESULT:    -4.694      3.038      9.045
REMARK INTER + INTRA:         -15.302
REMARK INTER:                 -10.543
REMARK INTRA:                  -4.759
REMARK UNBOUND:                -3.474
REMARK SMILES CCCCCCCCCCCCCCCCCCCCCCCCCCCC(=O)[O-]
REMARK SMILES IDX 15 1 16 2 17 3 18 4 19 5 20 6 21 7 22 8 23 9 24 10 25 11
REMARK SMILES IDX 26 12 27 13 28 14 29 15 30 16 14 17 13 18 12 19 11 20 10 21
REMARK SMILES IDX 9 22 8 23 7 24 6 25 5 26 4 27 3 28 2 29 1 30
REMARK H PARENT
REMARK Flexibility Score: inf
ROOT
ATOM      1  C   UNL     1       2.273  81.488  60.975  1.00  0.00     0.000 C 
ENDROOT
BRANCH   1   2
ATOM      2  C   UNL     1       1.711  82.907  60.773  1.00  0.00     0.000 C 
BRANCH   2   3
ATOM      3  C   UNL     1       0.616  83.253  61.796  1.00  0.00     0.000 C 
BRANCH   3   4
ATOM      4  C   UNL     1       0.677  84.713  62.302  1.00  0.00     0.000 C 
BRANCH   4   5
ATOM      5  C   UNL     1       0.583  84.843  63.835  1.00  0.00     0.000 C 
BRANCH   5   6
ATOM      6  C   UNL     1       0.964  83.571  64.618  1.00  0.00     0.000 C 
BRANCH   6   7
ATOM      7  C   UNL     1       2.349  83.616  65.297  1.00  0.00     0.000 C 
BRANCH   7   8
ATOM      8  C   UNL     1       3.417  82.715  64.649  1.00  0.00     0.000 C 
BRANCH   8   9
ATOM      9  C   UNL     1       4.168  83.386  63.475  1.00  0.00     0.000 C 
BRANCH   9  10
ATOM     10  C   UNL     1       4.312  84.911  63.630  1.00  0.00     0.000 C 
BRANCH  10  11
ATOM     11  C   UNL     1       4.306  85.635  62.272  1.00  0.00     0.000 C 
BRANCH  11  12
ATOM     12  C   UNL     1       3.805  87.083  62.377  1.00  0.00     0.006 C 
BRANCH  12  13
ATOM     13  C   UNL     1       4.183  87.929  61.153  1.00  0.00     0.053 C 
BRANCH  13  14
ATOM     14  C   UNL     1       3.493  89.255  61.202  1.00  0.00     0.041 C 
ATOM     15  O   UNL     1       2.886  89.616  62.245  1.00  0.00    -0.550 OA
ATOM     16  O   UNL     1       3.476  90.072  60.078  1.00  0.00    -0.550 OA
ENDBRANCH  13  14
ENDBRANCH  12  13
ENDBRANCH  11  12
ENDBRANCH  10  11
ENDBRANCH   9  10
ENDBRANCH   8   9
ENDBRANCH   7   8
ENDBRANCH   6   7
ENDBRANCH   5   6
ENDBRANCH   4   5
ENDBRANCH   3   4
ENDBRANCH   2   3
ENDBRANCH   1   2
BRANCH   1  17
ATOM     17  C   UNL     1       1.524  80.713  62.073  1.00  0.00     0.000 C 
BRANCH  17  18
ATOM     18  C   UNL     1       2.440  79.747  62.844  1.00  0.00     0.000 C 
BRANCH  18  19
ATOM     19  C   UNL     1       3.792  79.513  62.142  1.00  0.00     0.000 C 
BRANCH  19  20
ATOM     20  C   UNL     1       5.032  79.646  63.045  1.00  0.00     0.000 C 
BRANCH  20  21
ATOM     21  C   UNL     1       4.835  79.010  64.431  1.00  0.00     0.000 C 
BRANCH  21  22
ATOM     22  C   UNL     1       5.642  77.713  64.606  1.00  0.00    -0.000 C 
BRANCH  22  23
ATOM     23  C   UNL     1       6.980  77.936  65.328  1.00  0.00    -0.000 C 
BRANCH  23  24
ATOM     24  C   UNL     1       6.961  77.294  66.723  1.00  0.00    -0.000 C 
BRANCH  24  25
ATOM     25  C   UNL     1       6.696  78.316  67.841  1.00  0.00    -0.000 C 
BRANCH  25  26
ATOM     26  C   UNL     1       5.250  78.258  68.365  1.00  0.00    -0.000 C 
BRANCH  26  27
ATOM     27  C   UNL     1       4.537  79.621  68.306  1.00  0.00    -0.000 C 
BRANCH  27  28
ATOM     28  C   UNL     1       2.999  79.548  68.339  1.00  0.00    -0.000 C 
BRANCH  28  29
ATOM     29  C   UNL     1       2.337  80.412  67.255  1.00  0.00    -0.003 C 
ATOM     30  C   UNL     1       1.489  79.560  66.316  1.00  0.00     0.004 C 
ENDBRANCH  28  29
ENDBRANCH  27  28
ENDBRANCH  26  27
ENDBRANCH  25  26
ENDBRANCH  24  25
ENDBRANCH  23  24
ENDBRANCH  22  23
ENDBRANCH  21  22
ENDBRANCH  20  21
ENDBRANCH  19  20
ENDBRANCH  18  19
ENDBRANCH  17  18
ENDBRANCH   1  17
TORSDOF 26
ENDMDL
MODEL 5
REMARK VINA RESULT:    -4.687      2.578      6.169
REMARK INTER + INTRA:         -15.286
REMARK INTER:                 -11.700
REMARK INTRA:                  -3.586
REMARK UNBOUND:                -3.474
REMARK SMILES CCCCCCCCCCCCCCCCCCCCCCCCCCCC(=O)[O-]
REMARK SMILES IDX 15 1 16 2 17 3 18 4 19 5 20 6 21 7 22 8 23 9 24 10 25 11
REMARK SMILES IDX 26 12 27 13 28 14 29 15 30 16 14 17 13 18 12 19 11 20 10 21
REMARK SMILES IDX 9 22 8 23 7 24 6 25 5 26 4 27 3 28 2 29 1 30
REMARK H PARENT
REMARK Flexibility Score: inf
ROOT
ATOM      1  C   UNL     1       7.101  77.956  64.966  1.00  0.00     0.000 C 
ENDROOT
BRANCH   1   2
ATOM      2  C   UNL     1       7.175  77.937  66.503  1.00  0.00     0.000 C 
BRANCH   2   3
ATOM      3  C   UNL     1       6.563  76.659  67.102  1.00  0.00     0.000 C 
BRANCH   3   4
ATOM      4  C   UNL     1       5.531  76.929  68.221  1.00  0.00     0.000 C 
BRANCH   4   5
ATOM      5  C   UNL     1       5.539  78.382  68.734  1.00  0.00     0.000 C 
BRANCH   5   6
ATOM      6  C   UNL     1       4.502  79.310  68.072  1.00  0.00     0.000 C 
BRANCH   6   7
ATOM      7  C   UNL     1       3.760  80.253  69.042  1.00  0.00     0.000 C 
BRANCH   7   8
ATOM      8  C   UNL     1       2.421  79.710  69.577  1.00  0.00     0.000 C 
BRANCH   8   9
ATOM      9  C   UNL     1       1.180  80.384  68.946  1.00  0.00     0.000 C 
BRANCH   9  10
ATOM     10  C   UNL     1       0.208  79.388  68.289  1.00  0.00     0.000 C 
BRANCH  10  11
ATOM     11  C   UNL     1       0.941  78.324  67.454  1.00  0.00     0.000 C 
BRANCH  11  12
ATOM     12  C   UNL     1       0.681  76.896  67.955  1.00  0.00     0.006 C 
BRANCH  12  13
ATOM     13  C   UNL     1       1.938  76.236  68.538  1.00  0.00     0.053 C 
BRANCH  13  14
ATOM     14  C   UNL     1       1.993  74.790  68.156  1.00  0.00     0.041 C 
ATOM     15  O   UNL     1       0.961  74.208  67.730  1.00  0.00    -0.550 OA
ATOM     16  O   UNL     1       3.171  74.073  68.320  1.00  0.00    -0.550 OA
ENDBRANCH  13  14
ENDBRANCH  12  13
ENDBRANCH  11  12
ENDBRANCH  10  11
ENDBRANCH   9  10
ENDBRANCH   8   9
ENDBRANCH   7   8
ENDBRANCH   6   7
ENDBRANCH   5   6
ENDBRANCH   4   5
ENDBRANCH   3   4
ENDBRANCH   2   3
ENDBRANCH   1   2
BRANCH   1  17
ATOM     17  C   UNL     1       5.817  77.297  64.434  1.00  0.00     0.000 C 
BRANCH  17  18
ATOM     18  C   UNL     1       5.240  78.030  63.210  1.00  0.00     0.000 C 
BRANCH  18  19
ATOM     19  C   UNL     1       5.236  79.561  63.375  1.00  0.00     0.000 C 
BRANCH  19  20
ATOM     20  C   UNL     1       3.842  80.216  63.396  1.00  0.00     0.000 C 
BRANCH  20  21
ATOM     21  C   UNL     1       3.043  79.884  64.668  1.00  0.00     0.000 C 
BRANCH  21  22
ATOM     22  C   UNL     1       2.943  81.079  65.630  1.00  0.00    -0.000 C 
BRANCH  22  23
ATOM     23  C   UNL     1       1.610  81.833  65.508  1.00  0.00    -0.000 C 
BRANCH  23  24
ATOM     24  C   UNL     1       1.849  83.342  65.348  1.00  0.00    -0.000 C 
BRANCH  24  25
ATOM     25  C   UNL     1       2.622  83.687  64.066  1.00  0.00    -0.000 C 
BRANCH  25  26
ATOM     26  C   UNL     1       3.966  84.379  64.353  1.00  0.00    -0.000 C 
BRANCH  26  27
ATOM     27  C   UNL     1       4.117  85.722  63.614  1.00  0.00    -0.000 C 
BRANCH  27  28
ATOM     28  C   UNL     1       4.652  85.611  62.175  1.00  0.00    -0.000 C 
BRANCH  28  29
ATOM     29  C   UNL     1       4.473  86.907  61.369  1.00  0.00    -0.003 C 
ATOM     30  C   UNL     1       3.535  87.873  62.084  1.00  0.00     0.004 C 
ENDBRANCH  28  29
ENDBRANCH  27  28
ENDBRANCH  26  27
ENDBRANCH  25  26
ENDBRANCH  24  25
ENDBRANCH  23  24
ENDBRANCH  22  23
ENDBRANCH  21  22
ENDBRANCH  20  21
ENDBRANCH  19  20
ENDBRANCH  18  19
ENDBRANCH  17  18
ENDBRANCH   1  17
TORSDOF 26
ENDMDL
MODEL 6
REMARK VINA RESULT:    -4.673      2.403      3.762
REMARK INTER + INTRA:         -15.250
REMARK INTER:                 -11.590
REMARK INTRA:                  -3.660
REMARK UNBOUND:                -3.474
REMARK SMILES CCCCCCCCCCCCCCCCCCCCCCCCCCCC(=O)[O-]
REMARK SMILES IDX 15 1 16 2 17 3 18 4 19 5 20 6 21 7 22 8 23 9 24 10 25 11
REMARK SMILES IDX 26 12 27 13 28 14 29 15 30 16 14 17 13 18 12 19 11 20 10 21
REMARK SMILES IDX 9 22 8 23 7 24 6 25 5 26 4 27 3 28 2 29 1 30
REMARK H PARENT
REMARK Flexibility Score: inf
ROOT
ATOM      1  C   UNL     1       4.032  81.847  62.979  1.00  0.00     0.000 C 
ENDROOT
BRANCH   1   2
ATOM      2  C   UNL     1       3.603  80.369  63.018  1.00  0.00     0.000 C 
BRANCH   2   3
ATOM      3  C   UNL     1       2.711  80.052  64.232  1.00  0.00     0.000 C 
BRANCH   3   4
ATOM      4  C   UNL     1       3.474  80.040  65.577  1.00  0.00     0.000 C 
BRANCH   4   5
ATOM      5  C   UNL     1       2.558  80.152  66.811  1.00  0.00     0.000 C 
BRANCH   5   6
ATOM      6  C   UNL     1       3.015  79.334  68.035  1.00  0.00     0.000 C 
BRANCH   6   7
ATOM      7  C   UNL     1       4.493  79.530  68.432  1.00  0.00     0.000 C 
BRANCH   7   8
ATOM      8  C   UNL     1       5.330  78.237  68.465  1.00  0.00     0.000 C 
BRANCH   8   9
ATOM      9  C   UNL     1       6.745  78.398  67.861  1.00  0.00     0.000 C 
BRANCH   9  10
ATOM     10  C   UNL     1       7.090  77.326  66.812  1.00  0.00     0.000 C 
BRANCH  10  11
ATOM     11  C   UNL     1       5.934  77.086  65.825  1.00  0.00     0.000 C 
BRANCH  11  12
ATOM     12  C   UNL     1       6.184  77.730  64.453  1.00  0.00     0.006 C 
BRANCH  12  13
ATOM     13  C   UNL     1       7.589  78.335  64.331  1.00  0.00     0.053 C 
BRANCH  13  14
ATOM     14  C   UNL     1       7.782  78.939  62.976  1.00  0.00     0.041 C 
ATOM     15  O   UNL     1       6.784  79.221  62.260  1.00  0.00    -0.550 OA
ATOM     16  O   UNL     1       9.064  79.142  62.481  1.00  0.00    -0.550 OA
ENDBRANCH  13  14
ENDBRANCH  12  13
ENDBRANCH  11  12
ENDBRANCH  10  11
ENDBRANCH   9  10
ENDBRANCH   8   9
ENDBRANCH   7   8
ENDBRANCH   6   7
ENDBRANCH   5   6
ENDBRANCH   4   5
ENDBRANCH   3   4
ENDBRANCH   2   3
ENDBRANCH   1   2
BRANCH   1  17
ATOM     17  C   UNL     1       2.879  82.801  63.333  1.00  0.00     0.000 C 
BRANCH  17  18
ATOM     18  C   UNL     1       3.191  83.675  64.560  1.00  0.00     0.000 C 
BRANCH  18  19
ATOM     19  C   UNL     1       4.156  84.833  64.243  1.00  0.00     0.000 C 
BRANCH  19  20
ATOM     20  C   UNL     1       3.681  85.801  63.144  1.00  0.00     0.000 C 
BRANCH  20  21
ATOM     21  C   UNL     1       4.677  85.920  61.978  1.00  0.00     0.000 C 
BRANCH  21  22
ATOM     22  C   UNL     1       4.029  85.621  60.616  1.00  0.00    -0.000 C 
BRANCH  22  23
ATOM     23  C   UNL     1       3.884  86.872  59.737  1.00  0.00    -0.000 C 
BRANCH  23  24
ATOM     24  C   UNL     1       4.582  88.078  60.383  1.00  0.00    -0.000 C 
BRANCH  24  25
ATOM     25  C   UNL     1       3.642  89.280  60.565  1.00  0.00    -0.000 C 
BRANCH  25  26
ATOM     26  C   UNL     1       3.117  89.409  62.005  1.00  0.00    -0.000 C 
BRANCH  26  27
ATOM     27  C   UNL     1       1.656  88.945  62.153  1.00  0.00    -0.000 C 
BRANCH  27  28
ATOM     28  C   UNL     1       0.756  89.246  60.941  1.00  0.00    -0.000 C 
BRANCH  28  29
ATOM     29  C   UNL     1       0.040  87.996  60.404  1.00  0.00    -0.003 C 
ATOM     30  C   UNL     1       0.490  86.743  61.147  1.00  0.00     0.004 C 
ENDBRANCH  28  29
ENDBRANCH  27  28
ENDBRANCH  26  27
ENDBRANCH  25  26
ENDBRANCH  24  25
ENDBRANCH  23  24
ENDBRANCH  22  23
ENDBRANCH  21  22
ENDBRANCH  20  21
ENDBRANCH  19  20
ENDBRANCH  18  19
ENDBRANCH  17  18
ENDBRANCH   1  17
TORSDOF 26
ENDMDL
MODEL 7
REMARK VINA RESULT:    -4.671      1.688      4.596
REMARK INTER + INTRA:         -15.245
REMARK INTER:                 -10.866
REMARK INTRA:                  -4.378
REMARK UNBOUND:                -3.474
REMARK SMILES CCCCCCCCCCCCCCCCCCCCCCCCCCCC(=O)[O-]
REMARK SMILES IDX 15 1 16 2 17 3 18 4 19 5 20 6 21 7 22 8 23 9 24 10 25 11
REMARK SMILES IDX 26 12 27 13 28 14 29 15 30 16 14 17 13 18 12 19 11 20 10 21
REMARK SMILES IDX 9 22 8 23 7 24 6 25 5 26 4 27 3 28 2 29 1 30
REMARK H PARENT
REMARK Flexibility Score: inf
ROOT
ATOM      1  C   UNL     1       5.089  78.337  63.373  1.00  0.00     0.000 C 
ENDROOT
BRANCH   1   2
ATOM      2  C   UNL     1       5.933  77.376  64.229  1.00  0.00     0.000 C 
BRANCH   2   3
ATOM      3  C   UNL     1       7.161  78.067  64.845  1.00  0.00     0.000 C 
BRANCH   3   4
ATOM      4  C   UNL     1       7.331  77.799  66.359  1.00  0.00     0.000 C 
BRANCH   4   5
ATOM      5  C   UNL     1       6.753  76.446  66.817  1.00  0.00     0.000 C 
BRANCH   5   6
ATOM      6  C   UNL     1       6.082  76.463  68.205  1.00  0.00     0.000 C 
BRANCH   6   7
ATOM      7  C   UNL     1       4.785  77.295  68.290  1.00  0.00     0.000 C 
BRANCH   7   8
ATOM      8  C   UNL     1       4.969  78.726  68.831  1.00  0.00     0.000 C 
BRANCH   8   9
ATOM      9  C   UNL     1       4.174  79.794  68.043  1.00  0.00     0.000 C 
BRANCH   9  10
ATOM     10  C   UNL     1       4.043  79.480  66.542  1.00  0.00     0.000 C 
BRANCH  10  11
ATOM     11  C   UNL     1       3.275  80.577  65.784  1.00  0.00     0.000 C 
BRANCH  11  12
ATOM     12  C   UNL     1       2.116  80.017  64.946  1.00  0.00     0.006 C 
BRANCH  12  13
ATOM     13  C   UNL     1       0.859  79.744  65.784  1.00  0.00     0.053 C 
BRANCH  13  14
ATOM     14  C   UNL     1       0.602  80.880  66.723  1.00  0.00     0.041 C 
ATOM     15  O   UNL     1       0.724  80.714  67.966  1.00  0.00    -0.550 OA
ATOM     16  O   UNL     1       0.178  82.107  66.230  1.00  0.00    -0.550 OA
ENDBRANCH  13  14
ENDBRANCH  12  13
ENDBRANCH  11  12
ENDBRANCH  10  11
ENDBRANCH   9  10
ENDBRANCH   8   9
ENDBRANCH   7   8
ENDBRANCH   6   7
ENDBRANCH   5   6
ENDBRANCH   4   5
ENDBRANCH   3   4
ENDBRANCH   2   3
ENDBRANCH   1   2
BRANCH   1  17
ATOM     17  C   UNL     1       5.918  79.510  62.821  1.00  0.00     0.000 C 
BRANCH  17  18
ATOM     18  C   UNL     1       5.191  80.268  61.696  1.00  0.00     0.000 C 
BRANCH  18  19
ATOM     19  C   UNL     1       4.370  81.465  62.212  1.00  0.00     0.000 C 
BRANCH  19  20
ATOM     20  C   UNL     1       2.884  81.463  61.810  1.00  0.00     0.000 C 
BRANCH  20  21
ATOM     21  C   UNL     1       2.256  82.867  61.832  1.00  0.00     0.000 C 
BRANCH  21  22
ATOM     22  C   UNL     1       1.323  83.077  63.036  1.00  0.00    -0.000 C 
BRANCH  22  23
ATOM     23  C   UNL     1       1.712  84.296  63.887  1.00  0.00    -0.000 C 
BRANCH  23  24
ATOM     24  C   UNL     1       2.900  83.968  64.803  1.00  0.00    -0.000 C 
BRANCH  24  25
ATOM     25  C   UNL     1       4.186  84.702  64.392  1.00  0.00    -0.000 C 
BRANCH  25  26
ATOM     26  C   UNL     1       3.928  85.821  63.369  1.00  0.00    -0.000 C 
BRANCH  26  27
ATOM     27  C   UNL     1       4.736  85.643  62.070  1.00  0.00    -0.000 C 
BRANCH  27  28
ATOM     28  C   UNL     1       4.077  86.238  60.812  1.00  0.00    -0.000 C 
BRANCH  28  29
ATOM     29  C   UNL     1       4.669  87.600  60.416  1.00  0.00    -0.003 C 
ATOM     30  C   UNL     1       3.879  88.745  61.040  1.00  0.00     0.004 C 
ENDBRANCH  28  29
ENDBRANCH  27  28
ENDBRANCH  26  27
ENDBRANCH  25  26
ENDBRANCH  24  25
ENDBRANCH  23  24
ENDBRANCH  22  23
ENDBRANCH  21  22
ENDBRANCH  20  21
ENDBRANCH  19  20
ENDBRANCH  18  19
ENDBRANCH  17  18
ENDBRANCH   1  17
TORSDOF 26
ENDMDL
MODEL 8
REMARK VINA RESULT:    -4.640      2.221      4.215
REMARK INTER + INTRA:         -15.166
REMARK INTER:                 -11.339
REMARK INTRA:                  -3.827
REMARK UNBOUND:                -3.474
REMARK SMILES CCCCCCCCCCCCCCCCCCCCCCCCCCCC(=O)[O-]
REMARK SMILES IDX 15 1 16 2 17 3 18 4 19 5 20 6 21 7 22 8 23 9 24 10 25 11
REMARK SMILES IDX 26 12 27 13 28 14 29 15 30 16 14 17 13 18 12 19 11 20 10 21
REMARK SMILES IDX 9 22 8 23 7 24 6 25 5 26 4 27 3 28 2 29 1 30
REMARK H PARENT
REMARK Flexibility Score: inf
ROOT
ATOM      1  C   UNL     1       3.377  82.436  64.260  1.00  0.00     0.000 C 
ENDROOT
BRANCH   1   2
ATOM      2  C   UNL     1       2.841  81.495  65.354  1.00  0.00     0.000 C 
BRANCH   2   3
ATOM      3  C   UNL     1       3.801  80.328  65.644  1.00  0.00     0.000 C 
BRANCH   3   4
ATOM      4  C   UNL     1       3.361  79.442  66.832  1.00  0.00     0.000 C 
BRANCH   4   5
ATOM      5  C   UNL     1       4.280  79.556  68.064  1.00  0.00     0.000 C 
BRANCH   5   6
ATOM      6  C   UNL     1       5.143  78.310  68.347  1.00  0.00     0.000 C 
BRANCH   6   7
ATOM      7  C   UNL     1       6.644  78.474  68.032  1.00  0.00     0.000 C 
BRANCH   7   8
ATOM      8  C   UNL     1       7.187  77.519  66.951  1.00  0.00     0.000 C 
BRANCH   8   9
ATOM      9  C   UNL     1       6.087  76.696  66.241  1.00  0.00     0.000 C 
BRANCH   9  10
ATOM     10  C   UNL     1       5.798  77.167  64.804  1.00  0.00     0.000 C 
BRANCH  10  11
ATOM     11  C   UNL     1       6.854  78.164  64.297  1.00  0.00     0.000 C 
BRANCH  11  12
ATOM     12  C   UNL     1       6.406  78.906  63.029  1.00  0.00     0.006 C 
BRANCH  12  13
ATOM     13  C   UNL     1       4.978  78.539  62.602  1.00  0.00     0.053 C 
BRANCH  13  14
ATOM     14  C   UNL     1       4.647  79.172  61.288  1.00  0.00     0.041 C 
ATOM     15  O   UNL     1       3.704  80.002  61.204  1.00  0.00    -0.550 OA
ATOM     16  O   UNL     1       5.347  78.808  60.145  1.00  0.00    -0.550 OA
ENDBRANCH  13  14
ENDBRANCH  12  13
ENDBRANCH  11  12
ENDBRANCH  10  11
ENDBRANCH   9  10
ENDBRANCH   8   9
ENDBRANCH   7   8
ENDBRANCH   6   7
ENDBRANCH   5   6
ENDBRANCH   4   5
ENDBRANCH   3   4
ENDBRANCH   2   3
ENDBRANCH   1   2
BRANCH   1  17
ATOM     17  C   UNL     1       3.266  83.918  64.657  1.00  0.00     0.000 C 
BRANCH  17  18
ATOM     18  C   UNL     1       4.469  84.750  64.177  1.00  0.00     0.000 C 
BRANCH  18  19
ATOM     19  C   UNL     1       4.057  85.962  63.320  1.00  0.00     0.000 C 
BRANCH  19  20
ATOM     20  C   UNL     1       4.538  85.925  61.858  1.00  0.00     0.000 C 
BRANCH  20  21
ATOM     21  C   UNL     1       4.096  84.654  61.113  1.00  0.00     0.000 C 
BRANCH  21  22
ATOM     22  C   UNL     1       2.680  84.777  60.526  1.00  0.00    -0.000 C 
BRANCH  22  23
ATOM     23  C   UNL     1       1.637  83.966  61.310  1.00  0.00    -0.000 C 
BRANCH  23  24
ATOM     24  C   UNL     1       0.728  84.894  62.130  1.00  0.00    -0.000 C 
BRANCH  24  25
ATOM     25  C   UNL     1       0.635  86.308  61.536  1.00  0.00    -0.000 C 
BRANCH  25  26
ATOM     26  C   UNL     1       0.281  87.372  62.590  1.00  0.00    -0.000 C 
BRANCH  26  27
ATOM     27  C   UNL     1       0.885  88.752  62.273  1.00  0.00    -0.000 C 
BRANCH  27  28
ATOM     28  C   UNL     1       2.236  88.714  61.536  1.00  0.00    -0.000 C 
BRANCH  28  29
ATOM     29  C   UNL     1       2.541  90.016  60.779  1.00  0.00    -0.003 C 
ATOM     30  C   UNL     1       4.044  90.215  60.613  1.00  0.00     0.004 C 
ENDBRANCH  28  29
ENDBRANCH  27  28
ENDBRANCH  26  27
ENDBRANCH  25  26
ENDBRANCH  24  25
ENDBRANCH  23  24
ENDBRANCH  22  23
ENDBRANCH  21  22
ENDBRANCH  20  21
ENDBRANCH  19  20
ENDBRANCH  18  19
ENDBRANCH  17  18
ENDBRANCH   1  17
TORSDOF 26
ENDMDL
MODEL 9
REMARK VINA RESULT:    -4.622      2.427      6.413
REMARK INTER + INTRA:         -15.122
REMARK INTER:                 -10.912
REMARK INTRA:                  -4.210
REMARK UNBOUND:                -3.474
REMARK SMILES CCCCCCCCCCCCCCCCCCCCCCCCCCCC(=O)[O-]
REMARK SMILES IDX 15 1 16 2 17 3 18 4 19 5 20 6 21 7 22 8 23 9 24 10 25 11
REMARK SMILES IDX 26 12 27 13 28 14 29 15 30 16 14 17 13 18 12 19 11 20 10 21
REMARK SMILES IDX 9 22 8 23 7 24 6 25 5 26 4 27 3 28 2 29 1 30
REMARK H PARENT
REMARK Flexibility Score: inf
ROOT
ATOM      1  C   UNL     1       6.975  76.937  67.623  1.00  0.00     0.000 C 
ENDROOT
BRANCH   1   2
ATOM      2  C   UNL     1       5.451  76.972  67.834  1.00  0.00     0.000 C 
BRANCH   2   3
ATOM      3  C   UNL     1       5.012  78.141  68.733  1.00  0.00     0.000 C 
BRANCH   3   4
ATOM      4  C   UNL     1       4.771  79.460  67.962  1.00  0.00     0.000 C 
BRANCH   4   5
ATOM      5  C   UNL     1       3.736  79.334  66.827  1.00  0.00     0.000 C 
BRANCH   5   6
ATOM      6  C   UNL     1       2.870  80.588  66.596  1.00  0.00     0.000 C 
BRANCH   6   7
ATOM      7  C   UNL     1       1.353  80.322  66.501  1.00  0.00     0.000 C 
BRANCH   7   8
ATOM      8  C   UNL     1       0.556  80.652  67.777  1.00  0.00     0.000 C 
BRANCH   8   9
ATOM      9  C   UNL     1       1.430  80.740  69.050  1.00  0.00     0.000 C 
BRANCH   9  10
ATOM     10  C   UNL     1       1.007  79.756  70.156  1.00  0.00     0.000 C 
BRANCH  10  11
ATOM     11  C   UNL     1       1.797  78.437  70.093  1.00  0.00     0.000 C 
BRANCH  11  12
ATOM     12  C   UNL     1       0.966  77.276  69.528  1.00  0.00     0.006 C 
BRANCH  12  13
ATOM     13  C   UNL     1       1.492  76.775  68.176  1.00  0.00     0.053 C 
BRANCH  13  14
ATOM     14  C   UNL     1       1.782  75.309  68.241  1.00  0.00     0.041 C 
ATOM     15  O   UNL     1       2.851  74.896  68.764  1.00  0.00    -0.550 OA
ATOM     16  O   UNL     1       0.896  74.399  67.677  1.00  0.00    -0.550 OA
ENDBRANCH  13  14
ENDBRANCH  12  13
ENDBRANCH  11  12
ENDBRANCH  10  11
ENDBRANCH   9  10
ENDBRANCH   8   9
ENDBRANCH   7   8
ENDBRANCH   6   7
ENDBRANCH   5   6
ENDBRANCH   4   5
ENDBRANCH   3   4
ENDBRANCH   2   3
ENDBRANCH   1   2
BRANCH   1  17
ATOM     17  C   UNL     1       7.402  77.649  66.327  1.00  0.00     0.000 C 
BRANCH  17  18
ATOM     18  C   UNL     1       6.508  77.283  65.130  1.00  0.00     0.000 C 
BRANCH  18  19
ATOM     19  C   UNL     1       6.306  78.456  64.151  1.00  0.00     0.000 C 
BRANCH  19  20
ATOM     20  C   UNL     1       4.896  78.567  63.541  1.00  0.00     0.000 C 
BRANCH  20  21
ATOM     21  C   UNL     1       4.914  79.006  62.068  1.00  0.00     0.000 C 
BRANCH  21  22
ATOM     22  C   UNL     1       4.024  80.232  61.807  1.00  0.00    -0.000 C 
BRANCH  22  23
ATOM     23  C   UNL     1       2.875  80.362  62.819  1.00  0.00    -0.000 C 
BRANCH  23  24
ATOM     24  C   UNL     1       2.611  81.835  63.160  1.00  0.00    -0.000 C 
BRANCH  24  25
ATOM     25  C   UNL     1       3.898  82.607  63.490  1.00  0.00    -0.000 C 
BRANCH  25  26
ATOM     26  C   UNL     1       3.675  83.713  64.536  1.00  0.00    -0.000 C 
BRANCH  26  27
ATOM     27  C   UNL     1       4.050  85.113  64.017  1.00  0.00    -0.000 C 
BRANCH  27  28
ATOM     28  C   UNL     1       4.373  85.180  62.513  1.00  0.00    -0.000 C 
BRANCH  28  29
ATOM     29  C   UNL     1       4.419  86.618  61.975  1.00  0.00    -0.003 C 
ATOM     30  C   UNL     1       3.052  87.286  62.074  1.00  0.00     0.004 C 
ENDBRANCH  28  29
ENDBRANCH  27  28
ENDBRANCH  26  27
ENDBRANCH  25  26
ENDBRANCH  24  25
ENDBRANCH  23  24
ENDBRANCH  22  23
ENDBRANCH  21  22
ENDBRANCH  20  21
ENDBRANCH  19  20
ENDBRANCH  18  19
ENDBRANCH  17  18
ENDBRANCH   1  17
TORSDOF 26
ENDMDL
