MODEL 1
REMARK VINA RESULT:    -7.130      0.000      0.000
REMARK INTER + INTRA:          -8.625
REMARK INTER:                  -8.380
REMARK INTRA:                  -0.244
REMARK UNBOUND:                -0.244
REMARK SMILES O=c1c(O)c(-c2ccc(O)cc2)oc2cc(O)cc(O)c12
REMARK SMILES IDX 5 1 3 2 2 3 1 4 21 5 19 6 18 7 16 8 15 9 14 10 13 11 6 12
REMARK SMILES IDX 7 13 8 14 9 15 12 16 11 17 10 18 4 20 20 22 17 24
REMARK H PARENT 10 19 4 21 20 23 17 25
REMARK Flexibility Score: inf
ROOT
ATOM      1  C   UNL     1      27.064 -16.818  23.238  1.00  0.00     0.180 A 
ATOM      2  C   UNL     1      26.726 -16.950  21.880  1.00  0.00     0.208 A 
ATOM      3  C   UNL     1      27.275 -18.009  21.140  1.00  0.00     0.238 A 
ATOM      4  O   UNL     1      26.926 -18.154  19.939  1.00  0.00    -0.285 OA
ATOM      5  C   UNL     1      28.168 -18.913  21.763  1.00  0.00     0.111 A 
ATOM      6  C   UNL     1      28.815 -19.999  21.100  1.00  0.00     0.134 A 
ATOM      7  C   UNL     1      29.577 -20.909  21.844  1.00  0.00     0.093 A 
ATOM      8  C   UNL     1      29.769 -20.734  23.214  1.00  0.00     0.123 A 
ATOM      9  C   UNL     1      29.189 -19.643  23.863  1.00  0.00     0.094 A 
ATOM     10  C   UNL     1      28.394 -18.739  23.153  1.00  0.00     0.146 A 
ATOM     11  O   UNL     1      27.853 -17.720  23.809  1.00  0.00    -0.452 OA
ENDROOT
BRANCH   1  12
ATOM     12  C   UNL     1      26.545 -15.712  24.076  1.00  0.00     0.021 A 
ATOM     13  C   UNL     1      25.472 -15.908  24.964  1.00  0.00     0.016 A 
ATOM     14  C   UNL     1      24.982 -14.843  25.726  1.00  0.00     0.047 A 
ATOM     15  C   UNL     1      25.549 -13.569  25.602  1.00  0.00     0.115 A 
ATOM     16  C   UNL     1      27.093 -14.426  23.941  1.00  0.00     0.016 A 
ATOM     17  C   UNL     1      26.602 -13.364  24.706  1.00  0.00     0.047 A 
BRANCH  15  18
ATOM     18  O   UNL     1      25.070 -12.501  26.357  1.00  0.00    -0.508 OA
ATOM     19  H   UNL     1      24.231 -12.584  26.919  1.00  0.00     0.293 HD
ENDBRANCH  15  18
ENDBRANCH   1  12
BRANCH   2  20
ATOM     20  O   UNL     1      25.825 -16.058  21.290  1.00  0.00    -0.502 OA
ATOM     21  H   UNL     1      25.728 -15.099  21.599  1.00  0.00     0.293 HD
ENDBRANCH   2  20
BRANCH   6  22
ATOM     22  O   UNL     1      28.765 -20.212  19.719  1.00  0.00    -0.507 OA
ATOM     23  H   UNL     1      29.514 -20.000  19.077  1.00  0.00     0.293 HD
ENDBRANCH   6  22
BRANCH   8  24
ATOM     24  O   UNL     1      30.546 -21.650  23.921  1.00  0.00    -0.508 OA
ATOM     25  H   UNL     1      31.353 -21.356  24.459  1.00  0.00     0.293 HD
ENDBRANCH   8  24
TORSDOF 5
ENDMDL
MODEL 2
REMARK VINA RESULT:    -6.759      5.232      7.771
REMARK INTER + INTRA:          -8.189
REMARK INTER:                  -8.090
REMARK INTRA:                  -0.099
REMARK UNBOUND:                -0.244
REMARK SMILES O=c1c(O)c(-c2ccc(O)cc2)oc2cc(O)cc(O)c12
REMARK SMILES IDX 5 1 3 2 2 3 1 4 21 5 19 6 18 7 16 8 15 9 14 10 13 11 6 12
REMARK SMILES IDX 7 13 8 14 9 15 12 16 11 17 10 18 4 20 20 22 17 24
REMARK H PARENT 10 19 4 21 20 23 17 25
REMARK Flexibility Score: inf
ROOT
ATOM      1  C   UNL     1      27.622 -12.699  25.586  1.00  0.00     0.180 A 
ATOM      2  C   UNL     1      28.285 -12.219  26.729  1.00  0.00     0.208 A 
ATOM      3  C   UNL     1      29.400 -11.381  26.569  1.00  0.00     0.238 A 
ATOM      4  O   UNL     1      29.956 -10.911  27.595  1.00  0.00    -0.285 OA
ATOM      5  C   UNL     1      29.847 -11.045  25.268  1.00  0.00     0.111 A 
ATOM      6  C   UNL     1      30.988 -10.235  24.988  1.00  0.00     0.134 A 
ATOM      7  C   UNL     1      31.261  -9.859  23.667  1.00  0.00     0.093 A 
ATOM      8  C   UNL     1      30.474 -10.317  22.611  1.00  0.00     0.123 A 
ATOM      9  C   UNL     1      29.390 -11.157  22.868  1.00  0.00     0.094 A 
ATOM     10  C   UNL     1      29.070 -11.519  24.179  1.00  0.00     0.146 A 
ATOM     11  O   UNL     1      28.026 -12.312  24.381  1.00  0.00    -0.452 OA
ENDROOT
BRANCH   1  12
ATOM     12  C   UNL     1      26.455 -13.607  25.674  1.00  0.00     0.021 A 
ATOM     13  C   UNL     1      25.262 -13.208  26.304  1.00  0.00     0.016 A 
ATOM     14  C   UNL     1      24.183 -14.092  26.397  1.00  0.00     0.047 A 
ATOM     15  C   UNL     1      24.287 -15.387  25.875  1.00  0.00     0.115 A 
ATOM     16  C   UNL     1      26.558 -14.915  25.173  1.00  0.00     0.016 A 
ATOM     17  C   UNL     1      25.476 -15.796  25.266  1.00  0.00     0.047 A 
BRANCH  15  18
ATOM     18  O   UNL     1      23.217 -16.276  25.961  1.00  0.00    -0.508 OA
ATOM     19  H   UNL     1      22.314 -16.060  25.555  1.00  0.00     0.293 HD
ENDBRANCH  15  18
ENDBRANCH   1  12
BRANCH   2  20
ATOM     20  O   UNL     1      27.814 -12.546  28.004  1.00  0.00    -0.502 OA
ATOM     21  H   UNL     1      28.349 -13.111  28.652  1.00  0.00     0.293 HD
ENDBRANCH   2  20
BRANCH   6  22
ATOM     22  O   UNL     1      31.894  -9.800  25.959  1.00  0.00    -0.507 OA
ATOM     23  H   UNL     1      31.706  -9.773  26.950  1.00  0.00     0.293 HD
ENDBRANCH   6  22
BRANCH   8  24
ATOM     24  O   UNL     1      30.784  -9.936  21.306  1.00  0.00    -0.508 OA
ATOM     25  H   UNL     1      31.362 -10.515  20.709  1.00  0.00     0.293 HD
ENDBRANCH   8  24
TORSDOF 5
ENDMDL
MODEL 3
REMARK VINA RESULT:    -6.655      4.841     11.152
REMARK INTER + INTRA:          -8.067
REMARK INTER:                  -7.804
REMARK INTRA:                  -0.263
REMARK UNBOUND:                -0.244
REMARK SMILES O=c1c(O)c(-c2ccc(O)cc2)oc2cc(O)cc(O)c12
REMARK SMILES IDX 5 1 3 2 2 3 1 4 21 5 19 6 18 7 16 8 15 9 14 10 13 11 6 12
REMARK SMILES IDX 7 13 8 14 9 15 12 16 11 17 10 18 4 20 20 22 17 24
REMARK H PARENT 10 19 4 21 20 23 17 25
REMARK Flexibility Score: inf
ROOT
ATOM      1  C   UNL     1      24.321 -11.446  27.503  1.00  0.00     0.180 A 
ATOM      2  C   UNL     1      24.892 -11.015  28.713  1.00  0.00     0.208 A 
ATOM      3  C   UNL     1      24.204 -10.071  29.493  1.00  0.00     0.238 A 
ATOM      4  O   UNL     1      24.695  -9.729  30.601  1.00  0.00    -0.285 OA
ATOM      5  C   UNL     1      22.963  -9.559  29.046  1.00  0.00     0.111 A 
ATOM      6  C   UNL     1      22.198  -8.571  29.735  1.00  0.00     0.134 A 
ATOM      7  C   UNL     1      20.922  -8.233  29.268  1.00  0.00     0.093 A 
ATOM      8  C   UNL     1      20.410  -8.799  28.101  1.00  0.00     0.123 A 
ATOM      9  C   UNL     1      21.173  -9.724  27.386  1.00  0.00     0.094 A 
ATOM     10  C   UNL     1      22.435 -10.107  27.848  1.00  0.00     0.146 A 
ATOM     11  O   UNL     1      23.124 -10.996  27.144  1.00  0.00    -0.452 OA
ENDROOT
BRANCH   1  12
ATOM     12  C   UNL     1      24.997 -12.420  26.615  1.00  0.00     0.021 A 
ATOM     13  C   UNL     1      26.055 -12.031  25.773  1.00  0.00     0.016 A 
ATOM     14  C   UNL     1      26.662 -12.963  24.925  1.00  0.00     0.047 A 
ATOM     15  C   UNL     1      26.211 -14.289  24.898  1.00  0.00     0.115 A 
ATOM     16  C   UNL     1      24.537 -13.746  26.566  1.00  0.00     0.016 A 
ATOM     17  C   UNL     1      25.148 -14.676  25.718  1.00  0.00     0.047 A 
BRANCH  15  18
ATOM     18  O   UNL     1      26.809 -15.226  24.059  1.00  0.00    -0.508 OA
ATOM     19  H   UNL     1      27.466 -14.949  23.339  1.00  0.00     0.293 HD
ENDBRANCH  15  18
ENDBRANCH   1  12
BRANCH   2  20
ATOM     20  O   UNL     1      26.109 -11.550  29.146  1.00  0.00    -0.502 OA
ATOM     21  H   UNL     1      26.912 -10.971  29.359  1.00  0.00     0.293 HD
ENDBRANCH   2  20
BRANCH   6  22
ATOM     22  O   UNL     1      22.654  -7.875  30.859  1.00  0.00    -0.507 OA
ATOM     23  H   UNL     1      22.582  -6.877  30.986  1.00  0.00     0.293 HD
ENDBRANCH   6  22
BRANCH   8  24
ATOM     24  O   UNL     1      19.143  -8.429  27.656  1.00  0.00    -0.508 OA
ATOM     25  H   UNL     1      18.459  -9.119  27.370  1.00  0.00     0.293 HD
ENDBRANCH   8  24
TORSDOF 5
ENDMDL
MODEL 4
REMARK VINA RESULT:    -6.573      3.723      9.914
REMARK INTER + INTRA:          -7.970
REMARK INTER:                  -7.759
REMARK INTRA:                  -0.212
REMARK UNBOUND:                -0.244
REMARK SMILES O=c1c(O)c(-c2ccc(O)cc2)oc2cc(O)cc(O)c12
REMARK SMILES IDX 5 1 3 2 2 3 1 4 21 5 19 6 18 7 16 8 15 9 14 10 13 11 6 12
REMARK SMILES IDX 7 13 8 14 9 15 12 16 11 17 10 18 4 20 20 22 17 24
REMARK H PARENT 10 19 4 21 20 23 17 25
REMARK Flexibility Score: inf
ROOT
ATOM      1  C   UNL     1      25.782 -12.600  27.024  1.00  0.00     0.180 A 
ATOM      2  C   UNL     1      26.691 -12.185  28.013  1.00  0.00     0.208 A 
ATOM      3  C   UNL     1      26.262 -11.280  28.996  1.00  0.00     0.238 A 
ATOM      4  O   UNL     1      27.064 -10.955  29.910  1.00  0.00    -0.285 OA
ATOM      5  C   UNL     1      24.934 -10.790  28.970  1.00  0.00     0.111 A 
ATOM      6  C   UNL     1      24.404  -9.840  29.894  1.00  0.00     0.134 A 
ATOM      7  C   UNL     1      23.040  -9.524  29.854  1.00  0.00     0.093 A 
ATOM      8  C   UNL     1      22.203 -10.072  28.883  1.00  0.00     0.123 A 
ATOM      9  C   UNL     1      22.723 -10.957  27.938  1.00  0.00     0.094 A 
ATOM     10  C   UNL     1      24.072 -11.320  27.976  1.00  0.00     0.146 A 
ATOM     11  O   UNL     1      24.525 -12.172  27.065  1.00  0.00    -0.452 OA
ENDROOT
BRANCH   1  12
ATOM     12  C   UNL     1      26.167 -13.532  25.939  1.00  0.00     0.021 A 
ATOM     13  C   UNL     1      27.039 -13.137  24.909  1.00  0.00     0.016 A 
ATOM     14  C   UNL     1      27.369 -14.027  23.881  1.00  0.00     0.047 A 
ATOM     15  C   UNL     1      26.823 -15.316  23.865  1.00  0.00     0.115 A 
ATOM     16  C   UNL     1      25.607 -14.820  25.903  1.00  0.00     0.016 A 
ATOM     17  C   UNL     1      25.940 -15.708  24.875  1.00  0.00     0.047 A 
BRANCH  15  18
ATOM     18  O   UNL     1      27.145 -16.211  22.848  1.00  0.00    -0.508 OA
ATOM     19  H   UNL     1      26.744 -17.141  22.813  1.00  0.00     0.293 HD
ENDBRANCH  15  18
ENDBRANCH   1  12
BRANCH   2  20
ATOM     20  O   UNL     1      27.991 -12.699  28.032  1.00  0.00    -0.502 OA
ATOM     21  H   UNL     1      28.390 -13.136  28.854  1.00  0.00     0.293 HD
ENDBRANCH   2  20
BRANCH   6  22
ATOM     22  O   UNL     1      25.172  -9.162  30.845  1.00  0.00    -0.507 OA
ATOM     23  H   UNL     1      24.886  -8.985  31.796  1.00  0.00     0.293 HD
ENDBRANCH   6  22
BRANCH   8  24
ATOM     24  O   UNL     1      20.853  -9.723  28.862  1.00  0.00    -0.508 OA
ATOM     25  H   UNL     1      20.284  -9.757  29.699  1.00  0.00     0.293 HD
ENDBRANCH   8  24
TORSDOF 5
ENDMDL
MODEL 5
REMARK VINA RESULT:    -6.521      1.782      6.898
REMARK INTER + INTRA:          -7.908
REMARK INTER:                  -7.623
REMARK INTRA:                  -0.286
REMARK UNBOUND:                -0.244
REMARK SMILES O=c1c(O)c(-c2ccc(O)cc2)oc2cc(O)cc(O)c12
REMARK SMILES IDX 5 1 3 2 2 3 1 4 21 5 19 6 18 7 16 8 15 9 14 10 13 11 6 12
REMARK SMILES IDX 7 13 8 14 9 15 12 16 11 17 10 18 4 20 20 22 17 24
REMARK H PARENT 10 19 4 21 20 23 17 25
REMARK Flexibility Score: inf
ROOT
ATOM      1  C   UNL     1      27.719 -16.258  22.816  1.00  0.00     0.180 A 
ATOM      2  C   UNL     1      28.467 -15.068  22.766  1.00  0.00     0.208 A 
ATOM      3  C   UNL     1      28.050 -13.968  23.532  1.00  0.00     0.238 A 
ATOM      4  O   UNL     1      28.754 -12.925  23.525  1.00  0.00    -0.285 OA
ATOM      5  C   UNL     1      26.882 -14.065  24.325  1.00  0.00     0.111 A 
ATOM      6  C   UNL     1      26.345 -13.001  25.111  1.00  0.00     0.134 A 
ATOM      7  C   UNL     1      25.258 -13.248  25.959  1.00  0.00     0.093 A 
ATOM      8  C   UNL     1      24.649 -14.501  26.001  1.00  0.00     0.123 A 
ATOM      9  C   UNL     1      25.129 -15.533  25.194  1.00  0.00     0.094 A 
ATOM     10  C   UNL     1      26.235 -15.327  24.365  1.00  0.00     0.146 A 
ATOM     11  O   UNL     1      26.666 -16.338  23.621  1.00  0.00    -0.452 OA
ENDROOT
BRANCH   1  12
ATOM     12  C   UNL     1      28.082 -17.451  22.018  1.00  0.00     0.021 A 
ATOM     13  C   UNL     1      27.709 -17.570  20.666  1.00  0.00     0.016 A 
ATOM     14  C   UNL     1      28.041 -18.718  19.940  1.00  0.00     0.047 A 
ATOM     15  C   UNL     1      28.737 -19.765  20.557  1.00  0.00     0.115 A 
ATOM     16  C   UNL     1      28.760 -18.515  22.635  1.00  0.00     0.016 A 
ATOM     17  C   UNL     1      29.092 -19.661  21.905  1.00  0.00     0.047 A 
BRANCH  15  18
ATOM     18  O   UNL     1      29.075 -20.912  19.843  1.00  0.00    -0.508 OA
ATOM     19  H   UNL     1      29.786 -21.553  20.175  1.00  0.00     0.293 HD
ENDBRANCH  15  18
ENDBRANCH   1  12
BRANCH   2  20
ATOM     20  O   UNL     1      29.629 -15.002  21.993  1.00  0.00    -0.502 OA
ATOM     21  H   UNL     1      29.677 -14.477  21.128  1.00  0.00     0.293 HD
ENDBRANCH   2  20
BRANCH   6  22
ATOM     22  O   UNL     1      26.820 -11.687  25.073  1.00  0.00    -0.507 OA
ATOM     23  H   UNL     1      27.666 -11.368  25.521  1.00  0.00     0.293 HD
ENDBRANCH   6  22
BRANCH   8  24
ATOM     24  O   UNL     1      23.559 -14.708  26.846  1.00  0.00    -0.508 OA
ATOM     25  H   UNL     1      23.404 -14.127  27.662  1.00  0.00     0.293 HD
ENDBRANCH   8  24
TORSDOF 5
ENDMDL
MODEL 6
REMARK VINA RESULT:    -6.479      5.648      9.219
REMARK INTER + INTRA:          -7.859
REMARK INTER:                  -7.563
REMARK INTRA:                  -0.296
REMARK UNBOUND:                -0.244
REMARK SMILES O=c1c(O)c(-c2ccc(O)cc2)oc2cc(O)cc(O)c12
REMARK SMILES IDX 5 1 3 2 2 3 1 4 21 5 19 6 18 7 16 8 15 9 14 10 13 11 6 12
REMARK SMILES IDX 7 13 8 14 9 15 12 16 11 17 10 18 4 20 20 22 17 24
REMARK H PARENT 10 19 4 21 20 23 17 25
REMARK Flexibility Score: inf
ROOT
ATOM      1  C   UNL     1      23.420 -10.661  28.077  1.00  0.00     0.180 A 
ATOM      2  C   UNL     1      24.383 -10.480  29.086  1.00  0.00     0.208 A 
ATOM      3  C   UNL     1      25.630 -11.114  28.959  1.00  0.00     0.238 A 
ATOM      4  O   UNL     1      26.506 -10.905  29.838  1.00  0.00    -0.285 OA
ATOM      5  C   UNL     1      25.892 -11.932  27.834  1.00  0.00     0.111 A 
ATOM      6  C   UNL     1      27.106 -12.653  27.623  1.00  0.00     0.134 A 
ATOM      7  C   UNL     1      27.307 -13.327  26.411  1.00  0.00     0.093 A 
ATOM      8  C   UNL     1      26.315 -13.360  25.433  1.00  0.00     0.123 A 
ATOM      9  C   UNL     1      25.101 -12.707  25.653  1.00  0.00     0.094 A 
ATOM     10  C   UNL     1      24.885 -11.996  26.837  1.00  0.00     0.146 A 
ATOM     11  O   UNL     1      23.721 -11.381  27.003  1.00  0.00    -0.452 OA
ENDROOT
BRANCH   1  12
ATOM     12  C   UNL     1      22.075 -10.046  28.153  1.00  0.00     0.021 A 
ATOM     13  C   UNL     1      21.020 -10.674  28.838  1.00  0.00     0.016 A 
ATOM     14  C   UNL     1      19.751 -10.086  28.874  1.00  0.00     0.047 A 
ATOM     15  C   UNL     1      19.519  -8.872  28.217  1.00  0.00     0.115 A 
ATOM     16  C   UNL     1      21.828  -8.839  27.478  1.00  0.00     0.016 A 
ATOM     17  C   UNL     1      20.559  -8.253  27.518  1.00  0.00     0.047 A 
BRANCH  15  18
ATOM     18  O   UNL     1      18.260  -8.276  28.247  1.00  0.00    -0.508 OA
ATOM     19  H   UNL     1      17.702  -8.175  27.408  1.00  0.00     0.293 HD
ENDBRANCH  15  18
ENDBRANCH   1  12
BRANCH   2  20
ATOM     20  O   UNL     1      24.111  -9.651  30.177  1.00  0.00    -0.502 OA
ATOM     21  H   UNL     1      23.353  -8.979  30.174  1.00  0.00     0.293 HD
ENDBRANCH   2  20
BRANCH   6  22
ATOM     22  O   UNL     1      28.125 -12.762  28.573  1.00  0.00    -0.507 OA
ATOM     23  H   UNL     1      29.082 -13.004  28.365  1.00  0.00     0.293 HD
ENDBRANCH   6  22
BRANCH   8  24
ATOM     24  O   UNL     1      26.543 -14.053  24.245  1.00  0.00    -0.508 OA
ATOM     25  H   UNL     1      26.072 -14.927  24.044  1.00  0.00     0.293 HD
ENDBRANCH   8  24
TORSDOF 5
ENDMDL
MODEL 7
REMARK VINA RESULT:    -6.197      4.126      6.402
REMARK INTER + INTRA:          -7.528
REMARK INTER:                  -7.509
REMARK INTRA:                  -0.019
REMARK UNBOUND:                -0.244
REMARK SMILES O=c1c(O)c(-c2ccc(O)cc2)oc2cc(O)cc(O)c12
REMARK SMILES IDX 5 1 3 2 2 3 1 4 21 5 19 6 18 7 16 8 15 9 14 10 13 11 6 12
REMARK SMILES IDX 7 13 8 14 9 15 12 16 11 17 10 18 4 20 20 22 17 24
REMARK H PARENT 10 19 4 21 20 23 17 25
REMARK Flexibility Score: inf
ROOT
ATOM      1  C   UNL     1      25.520 -12.463  26.656  1.00  0.00     0.180 A 
ATOM      2  C   UNL     1      25.012 -13.702  26.228  1.00  0.00     0.208 A 
ATOM      3  C   UNL     1      25.686 -14.402  25.214  1.00  0.00     0.238 A 
ATOM      4  O   UNL     1      25.258 -15.535  24.874  1.00  0.00    -0.285 OA
ATOM      5  C   UNL     1      26.850 -13.847  24.631  1.00  0.00     0.111 A 
ATOM      6  C   UNL     1      27.591 -14.450  23.570  1.00  0.00     0.134 A 
ATOM      7  C   UNL     1      28.801 -13.876  23.158  1.00  0.00     0.093 A 
ATOM      8  C   UNL     1      29.262 -12.688  23.723  1.00  0.00     0.123 A 
ATOM      9  C   UNL     1      28.517 -12.058  24.721  1.00  0.00     0.094 A 
ATOM     10  C   UNL     1      27.325 -12.626  25.178  1.00  0.00     0.146 A 
ATOM     11  O   UNL     1      26.650 -12.001  26.134  1.00  0.00    -0.452 OA
ENDROOT
BRANCH   1  12
ATOM     12  C   UNL     1      24.851 -11.655  27.702  1.00  0.00     0.021 A 
ATOM     13  C   UNL     1      23.484 -11.332  27.616  1.00  0.00     0.016 A 
ATOM     14  C   UNL     1      22.880 -10.547  28.603  1.00  0.00     0.047 A 
ATOM     15  C   UNL     1      23.636 -10.065  29.679  1.00  0.00     0.115 A 
ATOM     16  C   UNL     1      25.606 -11.150  28.773  1.00  0.00     0.016 A 
ATOM     17  C   UNL     1      24.998 -10.366  29.759  1.00  0.00     0.047 A 
BRANCH  15  18
ATOM     18  O   UNL     1      23.044  -9.283  30.668  1.00  0.00    -0.508 OA
ATOM     19  H   UNL     1      22.147  -9.528  31.072  1.00  0.00     0.293 HD
ENDBRANCH  15  18
ENDBRANCH   1  12
BRANCH   2  20
ATOM     20  O   UNL     1      23.873 -14.241  26.833  1.00  0.00    -0.502 OA
ATOM     21  H   UNL     1      22.944 -13.875  26.667  1.00  0.00     0.293 HD
ENDBRANCH   2  20
BRANCH   6  22
ATOM     22  O   UNL     1      27.172 -15.587  22.873  1.00  0.00    -0.507 OA
ATOM     23  H   UNL     1      26.431 -16.203  23.172  1.00  0.00     0.293 HD
ENDBRANCH   6  22
BRANCH   8  24
ATOM     24  O   UNL     1      30.463 -12.137  23.278  1.00  0.00    -0.508 OA
ATOM     25  H   UNL     1      30.484 -11.281  22.737  1.00  0.00     0.293 HD
ENDBRANCH   8  24
TORSDOF 5
ENDMDL
MODEL 8
REMARK VINA RESULT:    -6.119      4.262      7.038
REMARK INTER + INTRA:          -7.436
REMARK INTER:                  -7.379
REMARK INTRA:                  -0.056
REMARK UNBOUND:                -0.244
REMARK SMILES O=c1c(O)c(-c2ccc(O)cc2)oc2cc(O)cc(O)c12
REMARK SMILES IDX 5 1 3 2 2 3 1 4 21 5 19 6 18 7 16 8 15 9 14 10 13 11 6 12
REMARK SMILES IDX 7 13 8 14 9 15 12 16 11 17 10 18 4 20 20 22 17 24
REMARK H PARENT 10 19 4 21 20 23 17 25
REMARK Flexibility Score: inf
ROOT
ATOM      1  C   UNL     1      28.351 -11.663  26.504  1.00  0.00     0.180 A 
ATOM      2  C   UNL     1      29.165 -11.915  25.385  1.00  0.00     0.208 A 
ATOM      3  C   UNL     1      28.748 -12.865  24.439  1.00  0.00     0.238 A 
ATOM      4  O   UNL     1      29.454 -13.047  23.413  1.00  0.00    -0.285 OA
ATOM      5  C   UNL     1      27.531 -13.563  24.632  1.00  0.00     0.111 A 
ATOM      6  C   UNL     1      27.031 -14.574  23.758  1.00  0.00     0.134 A 
ATOM      7  C   UNL     1      25.753 -15.105  23.975  1.00  0.00     0.093 A 
ATOM      8  C   UNL     1      24.986 -14.709  25.071  1.00  0.00     0.123 A 
ATOM      9  C   UNL     1      25.490 -13.763  25.964  1.00  0.00     0.094 A 
ATOM     10  C   UNL     1      26.746 -13.189  25.753  1.00  0.00     0.146 A 
ATOM     11  O   UNL     1      27.185 -12.286  26.621  1.00  0.00    -0.452 OA
ENDROOT
BRANCH   1  12
ATOM     12  C   UNL     1      28.736 -10.695  27.556  1.00  0.00     0.021 A 
ATOM     13  C   UNL     1      28.981  -9.343  27.253  1.00  0.00     0.016 A 
ATOM     14  C   UNL     1      29.368  -8.452  28.260  1.00  0.00     0.047 A 
ATOM     15  C   UNL     1      29.526  -8.903  29.576  1.00  0.00     0.115 A 
ATOM     16  C   UNL     1      28.919 -11.143  28.875  1.00  0.00     0.016 A 
ATOM     17  C   UNL     1      29.304 -10.249  29.879  1.00  0.00     0.047 A 
BRANCH  15  18
ATOM     18  O   UNL     1      29.910  -8.025  30.587  1.00  0.00    -0.508 OA
ATOM     19  H   UNL     1      29.237  -7.426  31.052  1.00  0.00     0.293 HD
ENDBRANCH  15  18
ENDBRANCH   1  12
BRANCH   2  20
ATOM     20  O   UNL     1      30.352 -11.199  25.204  1.00  0.00    -0.502 OA
ATOM     21  H   UNL     1      31.241 -11.522  25.565  1.00  0.00     0.293 HD
ENDBRANCH   2  20
BRANCH   6  22
ATOM     22  O   UNL     1      27.754 -15.109  22.687  1.00  0.00    -0.507 OA
ATOM     23  H   UNL     1      27.358 -15.354  21.792  1.00  0.00     0.293 HD
ENDBRANCH   6  22
BRANCH   8  24
ATOM     24  O   UNL     1      23.725 -15.270  25.266  1.00  0.00    -0.508 OA
ATOM     25  H   UNL     1      23.600 -16.117  25.807  1.00  0.00     0.293 HD
ENDBRANCH   8  24
TORSDOF 5
ENDMDL
MODEL 9
REMARK VINA RESULT:    -6.112      4.893      8.101
REMARK INTER + INTRA:          -7.428
REMARK INTER:                  -7.703
REMARK INTRA:                   0.274
REMARK UNBOUND:                -0.244
REMARK SMILES O=c1c(O)c(-c2ccc(O)cc2)oc2cc(O)cc(O)c12
REMARK SMILES IDX 5 1 3 2 2 3 1 4 21 5 19 6 18 7 16 8 15 9 14 10 13 11 6 12
REMARK SMILES IDX 7 13 8 14 9 15 12 16 11 17 10 18 4 20 20 22 17 24
REMARK H PARENT 10 19 4 21 20 23 17 25
REMARK Flexibility Score: inf
ROOT
ATOM      1  C   UNL     1      27.485 -12.561  25.610  1.00  0.00     0.180 A 
ATOM      2  C   UNL     1      28.347 -12.554  24.500  1.00  0.00     0.208 A 
ATOM      3  C   UNL     1      29.358 -11.582  24.429  1.00  0.00     0.238 A 
ATOM      4  O   UNL     1      30.161 -11.614  23.460  1.00  0.00    -0.285 OA
ATOM      5  C   UNL     1      29.485 -10.621  25.461  1.00  0.00     0.111 A 
ATOM      6  C   UNL     1      30.447  -9.568  25.473  1.00  0.00     0.134 A 
ATOM      7  C   UNL     1      30.568  -8.754  26.607  1.00  0.00     0.093 A 
ATOM      8  C   UNL     1      29.717  -8.914  27.700  1.00  0.00     0.123 A 
ATOM      9  C   UNL     1      28.733  -9.903  27.675  1.00  0.00     0.094 A 
ATOM     10  C   UNL     1      28.613 -10.754  26.573  1.00  0.00     0.146 A 
ATOM     11  O   UNL     1      27.671 -11.688  26.592  1.00  0.00    -0.452 OA
ENDROOT
BRANCH   1  12
ATOM     12  C   UNL     1      26.380 -13.538  25.743  1.00  0.00     0.021 A 
ATOM     13  C   UNL     1      26.492 -14.846  25.236  1.00  0.00     0.016 A 
ATOM     14  C   UNL     1      25.426 -15.743  25.351  1.00  0.00     0.047 A 
ATOM     15  C   UNL     1      24.231 -15.341  25.961  1.00  0.00     0.115 A 
ATOM     16  C   UNL     1      25.170 -13.137  26.334  1.00  0.00     0.016 A 
ATOM     17  C   UNL     1      24.106 -14.038  26.449  1.00  0.00     0.047 A 
BRANCH  15  18
ATOM     18  O   UNL     1      23.163 -16.227  26.082  1.00  0.00    -0.508 OA
ATOM     19  H   UNL     1      23.116 -16.900  26.838  1.00  0.00     0.293 HD
ENDBRANCH  15  18
ENDBRANCH   1  12
BRANCH   2  20
ATOM     20  O   UNL     1      28.218 -13.525  23.503  1.00  0.00    -0.502 OA
ATOM     21  H   UNL     1      27.318 -13.824  23.148  1.00  0.00     0.293 HD
ENDBRANCH   2  20
BRANCH   6  22
ATOM     22  O   UNL     1      31.284  -9.263  24.396  1.00  0.00    -0.507 OA
ATOM     23  H   UNL     1      32.269  -9.480  24.353  1.00  0.00     0.293 HD
ENDBRANCH   6  22
BRANCH   8  24
ATOM     24  O   UNL     1      29.853  -8.076  28.805  1.00  0.00    -0.508 OA
ATOM     25  H   UNL     1      30.734  -7.989  29.298  1.00  0.00     0.293 HD
ENDBRANCH   8  24
TORSDOF 5
ENDMDL
