MODEL 1
REMARK VINA RESULT:    -3.954      0.000      0.000
REMARK INTER + INTRA:         -14.870
REMARK INTER:                  -9.963
REMARK INTRA:                  -4.907
REMARK UNBOUND:                -4.907
REMARK SMILES CCCCCCCCCCCCCCCCCCCCCCCCCCCC(=O)[O-]
REMARK SMILES IDX 15 1 16 2 17 3 18 4 19 5 20 6 21 7 22 8 23 9 24 10 25 11
REMARK SMILES IDX 26 12 27 13 28 14 29 15 30 16 14 17 13 18 12 19 11 20 10 21
REMARK SMILES IDX 9 22 8 23 7 24 6 25 5 26 4 27 3 28 2 29 1 30
REMARK H PARENT
REMARK Flexibility Score: inf
ROOT
ATOM      1  C   UNL     1    -108.928 -43.413 -64.523  1.00  0.00     0.000 C 
ENDROOT
BRANCH   1   2
ATOM      2  C   UNL     1    -109.015 -43.291 -62.990  1.00  0.00     0.000 C 
BRANCH   2   3
ATOM      3  C   UNL     1    -107.643 -43.428 -62.309  1.00  0.00     0.000 C 
BRANCH   3   4
ATOM      4  C   UNL     1    -107.206 -42.146 -61.585  1.00  0.00     0.000 C 
BRANCH   4   5
ATOM      5  C   UNL     1    -106.002 -41.501 -62.291  1.00  0.00     0.000 C 
BRANCH   5   6
ATOM      6  C   UNL     1    -106.158 -39.984 -62.472  1.00  0.00     0.000 C 
BRANCH   6   7
ATOM      7  C   UNL     1    -107.436 -39.602 -63.239  1.00  0.00     0.000 C 
BRANCH   7   8
ATOM      8  C   UNL     1    -107.414 -40.097 -64.697  1.00  0.00     0.000 C 
BRANCH   8   9
ATOM      9  C   UNL     1    -108.621 -39.637 -65.536  1.00  0.00     0.000 C 
BRANCH   9  10
ATOM     10  C   UNL     1    -108.682 -40.341 -66.903  1.00  0.00     0.000 C 
BRANCH  10  11
ATOM     11  C   UNL     1    -107.589 -41.409 -67.072  1.00  0.00     0.000 C 
BRANCH  11  12
ATOM     12  C   UNL     1    -108.034 -42.616 -67.928  1.00  0.00     0.006 C 
BRANCH  12  13
ATOM     13  C   UNL     1    -106.853 -43.516 -68.311  1.00  0.00     0.053 C 
BRANCH  13  14
ATOM     14  C   UNL     1    -106.608 -43.468 -69.787  1.00  0.00     0.041 C 
ATOM     15  O   UNL     1    -107.528 -43.115 -70.573  1.00  0.00    -0.550 OA
ATOM     16  O   UNL     1    -105.361 -43.805 -70.298  1.00  0.00    -0.550 OA
ENDBRANCH  13  14
ENDBRANCH  12  13
ENDBRANCH  11  12
ENDBRANCH  10  11
ENDBRANCH   9  10
ENDBRANCH   8   9
ENDBRANCH   7   8
ENDBRANCH   6   7
ENDBRANCH   5   6
ENDBRANCH   4   5
ENDBRANCH   3   4
ENDBRANCH   2   3
ENDBRANCH   1   2
BRANCH   1  17
ATOM     17  C   UNL     1    -110.309 -43.353 -65.210  1.00  0.00     0.000 C 
BRANCH  17  18
ATOM     18  C   UNL     1    -111.491 -43.202 -64.234  1.00  0.00     0.000 C 
BRANCH  18  19
ATOM     19  C   UNL     1    -112.587 -42.217 -64.682  1.00  0.00     0.000 C 
BRANCH  19  20
ATOM     20  C   UNL     1    -112.073 -40.942 -65.381  1.00  0.00     0.000 C 
BRANCH  20  21
ATOM     21  C   UNL     1    -112.420 -40.833 -66.881  1.00  0.00     0.000 C 
BRANCH  21  22
ATOM     22  C   UNL     1    -113.854 -41.257 -67.249  1.00  0.00    -0.000 C 
BRANCH  22  23
ATOM     23  C   UNL     1    -113.900 -42.543 -68.086  1.00  0.00    -0.000 C 
BRANCH  23  24
ATOM     24  C   UNL     1    -112.487 -43.110 -68.299  1.00  0.00    -0.000 C 
BRANCH  24  25
ATOM     25  C   UNL     1    -112.323 -43.806 -69.660  1.00  0.00    -0.000 C 
BRANCH  25  26
ATOM     26  C   UNL     1    -113.123 -43.117 -70.779  1.00  0.00    -0.000 C 
BRANCH  26  27
ATOM     27  C   UNL     1    -112.268 -42.130 -71.592  1.00  0.00    -0.000 C 
BRANCH  27  28
ATOM     28  C   UNL     1    -112.568 -40.661 -71.246  1.00  0.00    -0.000 C 
BRANCH  28  29
ATOM     29  C   UNL     1    -111.531 -40.061 -70.282  1.00  0.00    -0.003 C 
ATOM     30  C   UNL     1    -110.187 -40.787 -70.328  1.00  0.00     0.004 C 
ENDBRANCH  28  29
ENDBRANCH  27  28
ENDBRANCH  26  27
ENDBRANCH  25  26
ENDBRANCH  24  25
ENDBRANCH  23  24
ENDBRANCH  22  23
ENDBRANCH  21  22
ENDBRANCH  20  21
ENDBRANCH  19  20
ENDBRANCH  18  19
ENDBRANCH  17  18
ENDBRANCH   1  17
TORSDOF 26
ENDMDL
MODEL 2
REMARK VINA RESULT:    -3.942      4.216      7.015
REMARK INTER + INTRA:         -14.840
REMARK INTER:                 -10.344
REMARK INTRA:                  -4.497
REMARK UNBOUND:                -4.907
REMARK SMILES CCCCCCCCCCCCCCCCCCCCCCCCCCCC(=O)[O-]
REMARK SMILES IDX 15 1 16 2 17 3 18 4 19 5 20 6 21 7 22 8 23 9 24 10 25 11
REMARK SMILES IDX 26 12 27 13 28 14 29 15 30 16 14 17 13 18 12 19 11 20 10 21
REMARK SMILES IDX 9 22 8 23 7 24 6 25 5 26 4 27 3 28 2 29 1 30
REMARK H PARENT
REMARK Flexibility Score: inf
ROOT
ATOM      1  C   UNL     1    -112.084 -40.535 -65.782  1.00  0.00     0.000 C 
ENDROOT
BRANCH   1   2
ATOM      2  C   UNL     1    -110.766 -41.323 -65.659  1.00  0.00     0.000 C 
BRANCH   2   3
ATOM      3  C   UNL     1    -110.960 -42.698 -64.999  1.00  0.00     0.000 C 
BRANCH   3   4
ATOM      4  C   UNL     1    -109.926 -43.734 -65.464  1.00  0.00     0.000 C 
BRANCH   4   5
ATOM      5  C   UNL     1    -108.623 -43.606 -64.658  1.00  0.00     0.000 C 
BRANCH   5   6
ATOM      6  C   UNL     1    -108.863 -43.208 -63.193  1.00  0.00     0.000 C 
BRANCH   6   7
ATOM      7  C   UNL     1    -107.769 -42.279 -62.639  1.00  0.00     0.000 C 
BRANCH   7   8
ATOM      8  C   UNL     1    -106.371 -42.636 -63.177  1.00  0.00     0.000 C 
BRANCH   8   9
ATOM      9  C   UNL     1    -105.288 -41.588 -62.858  1.00  0.00     0.000 C 
BRANCH   9  10
ATOM     10  C   UNL     1    -105.576 -40.833 -61.549  1.00  0.00     0.000 C 
BRANCH  10  11
ATOM     11  C   UNL     1    -104.996 -41.542 -60.313  1.00  0.00     0.000 C 
BRANCH  11  12
ATOM     12  C   UNL     1    -104.772 -40.599 -59.111  1.00  0.00     0.006 C 
BRANCH  12  13
ATOM     13  C   UNL     1    -104.362 -41.366 -57.847  1.00  0.00     0.053 C 
BRANCH  13  14
ATOM     14  C   UNL     1    -103.943 -40.419 -56.767  1.00  0.00     0.041 C 
ATOM     15  O   UNL     1    -103.894 -40.803 -55.568  1.00  0.00    -0.550 OA
ATOM     16  O   UNL     1    -103.598 -39.111 -57.083  1.00  0.00    -0.550 OA
ENDBRANCH  13  14
ENDBRANCH  12  13
ENDBRANCH  11  12
ENDBRANCH  10  11
ENDBRANCH   9  10
ENDBRANCH   8   9
ENDBRANCH   7   8
ENDBRANCH   6   7
ENDBRANCH   5   6
ENDBRANCH   4   5
ENDBRANCH   3   4
ENDBRANCH   2   3
ENDBRANCH   1   2
BRANCH   1  17
ATOM     17  C   UNL     1    -113.312 -41.335 -65.298  1.00  0.00     0.000 C 
BRANCH  17  18
ATOM     18  C   UNL     1    -114.292 -41.722 -66.422  1.00  0.00     0.000 C 
BRANCH  18  19
ATOM     19  C   UNL     1    -113.649 -41.939 -67.804  1.00  0.00     0.000 C 
BRANCH  19  20
ATOM     20  C   UNL     1    -113.053 -43.344 -68.034  1.00  0.00     0.000 C 
BRANCH  20  21
ATOM     21  C   UNL     1    -111.730 -43.371 -68.827  1.00  0.00     0.000 C 
BRANCH  21  22
ATOM     22  C   UNL     1    -111.585 -42.264 -69.888  1.00  0.00    -0.000 C 
BRANCH  22  23
ATOM     23  C   UNL     1    -110.141 -41.763 -70.033  1.00  0.00    -0.000 C 
BRANCH  23  24
ATOM     24  C   UNL     1    -109.239 -42.364 -68.943  1.00  0.00    -0.000 C 
BRANCH  24  25
ATOM     25  C   UNL     1    -108.570 -41.294 -68.066  1.00  0.00    -0.000 C 
BRANCH  25  26
ATOM     26  C   UNL     1    -107.273 -41.794 -67.406  1.00  0.00    -0.000 C 
BRANCH  26  27
ATOM     27  C   UNL     1    -106.701 -40.786 -66.393  1.00  0.00    -0.000 C 
BRANCH  27  28
ATOM     28  C   UNL     1    -107.638 -39.589 -66.156  1.00  0.00    -0.000 C 
BRANCH  28  29
ATOM     29  C   UNL     1    -107.807 -39.262 -64.663  1.00  0.00    -0.003 C 
ATOM     30  C   UNL     1    -106.693 -38.365 -64.122  1.00  0.00     0.004 C 
ENDBRANCH  28  29
ENDBRANCH  27  28
ENDBRANCH  26  27
ENDBRANCH  25  26
ENDBRANCH  24  25
ENDBRANCH  23  24
ENDBRANCH  22  23
ENDBRANCH  21  22
ENDBRANCH  20  21
ENDBRANCH  19  20
ENDBRANCH  18  19
ENDBRANCH  17  18
ENDBRANCH   1  17
TORSDOF 26
ENDMDL
MODEL 3
REMARK VINA RESULT:    -3.914      4.122      5.978
REMARK INTER + INTRA:         -14.770
REMARK INTER:                 -10.263
REMARK INTRA:                  -4.507
REMARK UNBOUND:                -4.907
REMARK SMILES CCCCCCCCCCCCCCCCCCCCCCCCCCCC(=O)[O-]
REMARK SMILES IDX 15 1 16 2 17 3 18 4 19 5 20 6 21 7 22 8 23 9 24 10 25 11
REMARK SMILES IDX 26 12 27 13 28 14 29 15 30 16 14 17 13 18 12 19 11 20 10 21
REMARK SMILES IDX 9 22 8 23 7 24 6 25 5 26 4 27 3 28 2 29 1 30
REMARK H PARENT
REMARK Flexibility Score: inf
ROOT
ATOM      1  C   UNL     1    -109.930 -40.594 -65.784  1.00  0.00     0.000 C 
ENDROOT
BRANCH   1   2
ATOM      2  C   UNL     1    -108.514 -40.043 -65.535  1.00  0.00     0.000 C 
BRANCH   2   3
ATOM      3  C   UNL     1    -107.419 -40.935 -66.141  1.00  0.00     0.000 C 
BRANCH   3   4
ATOM      4  C   UNL     1    -106.106 -40.894 -65.344  1.00  0.00     0.000 C 
BRANCH   4   5
ATOM      5  C   UNL     1    -105.686 -42.307 -64.909  1.00  0.00     0.000 C 
BRANCH   5   6
ATOM      6  C   UNL     1    -106.853 -43.307 -64.918  1.00  0.00     0.000 C 
BRANCH   6   7
ATOM      7  C   UNL     1    -107.306 -43.710 -63.504  1.00  0.00     0.000 C 
BRANCH   7   8
ATOM      8  C   UNL     1    -108.226 -42.655 -62.862  1.00  0.00     0.000 C 
BRANCH   8   9
ATOM      9  C   UNL     1    -107.536 -41.783 -61.797  1.00  0.00     0.000 C 
BRANCH   9  10
ATOM     10  C   UNL     1    -106.264 -42.443 -61.238  1.00  0.00     0.000 C 
BRANCH  10  11
ATOM     11  C   UNL     1    -105.193 -41.419 -60.827  1.00  0.00     0.000 C 
BRANCH  11  12
ATOM     12  C   UNL     1    -105.136 -41.164 -59.305  1.00  0.00     0.006 C 
BRANCH  12  13
ATOM     13  C   UNL     1    -103.818 -40.504 -58.881  1.00  0.00     0.053 C 
BRANCH  13  14
ATOM     14  C   UNL     1    -103.982 -39.784 -57.579  1.00  0.00     0.041 C 
ATOM     15  O   UNL     1    -103.395 -38.687 -57.381  1.00  0.00    -0.550 OA
ATOM     16  O   UNL     1    -104.789 -40.321 -56.584  1.00  0.00    -0.550 OA
ENDBRANCH  13  14
ENDBRANCH  12  13
ENDBRANCH  11  12
ENDBRANCH  10  11
ENDBRANCH   9  10
ENDBRANCH   8   9
ENDBRANCH   7   8
ENDBRANCH   6   7
ENDBRANCH   5   6
ENDBRANCH   4   5
ENDBRANCH   3   4
ENDBRANCH   2   3
ENDBRANCH   1   2
BRANCH   1  17
ATOM     17  C   UNL     1    -109.933 -41.901 -66.605  1.00  0.00     0.000 C 
BRANCH  17  18
ATOM     18  C   UNL     1    -110.737 -43.046 -65.960  1.00  0.00     0.000 C 
BRANCH  18  19
ATOM     19  C   UNL     1    -111.322 -42.733 -64.571  1.00  0.00     0.000 C 
BRANCH  19  20
ATOM     20  C   UNL     1    -112.861 -42.638 -64.516  1.00  0.00     0.000 C 
BRANCH  20  21
ATOM     21  C   UNL     1    -113.475 -41.484 -65.336  1.00  0.00     0.000 C 
BRANCH  21  22
ATOM     22  C   UNL     1    -114.539 -41.910 -66.364  1.00  0.00    -0.000 C 
BRANCH  22  23
ATOM     23  C   UNL     1    -113.937 -42.280 -67.727  1.00  0.00    -0.000 C 
BRANCH  23  24
ATOM     24  C   UNL     1    -113.036 -41.151 -68.254  1.00  0.00    -0.000 C 
BRANCH  24  25
ATOM     25  C   UNL     1    -112.655 -41.333 -69.731  1.00  0.00    -0.000 C 
BRANCH  25  26
ATOM     26  C   UNL     1    -111.700 -42.518 -69.956  1.00  0.00    -0.000 C 
BRANCH  26  27
ATOM     27  C   UNL     1    -110.397 -42.098 -70.658  1.00  0.00    -0.000 C 
BRANCH  27  28
ATOM     28  C   UNL     1    -109.149 -42.730 -70.017  1.00  0.00    -0.000 C 
BRANCH  28  29
ATOM     29  C   UNL     1    -108.002 -41.720 -69.842  1.00  0.00    -0.003 C 
ATOM     30  C   UNL     1    -108.497 -40.285 -69.663  1.00  0.00     0.004 C 
ENDBRANCH  28  29
ENDBRANCH  27  28
ENDBRANCH  26  27
ENDBRANCH  25  26
ENDBRANCH  24  25
ENDBRANCH  23  24
ENDBRANCH  22  23
ENDBRANCH  21  22
ENDBRANCH  20  21
ENDBRANCH  19  20
ENDBRANCH  18  19
ENDBRANCH  17  18
ENDBRANCH   1  17
TORSDOF 26
ENDMDL
MODEL 4
REMARK VINA RESULT:    -3.897      2.193      4.601
REMARK INTER + INTRA:         -14.728
REMARK INTER:                 -10.079
REMARK INTRA:                  -4.649
REMARK UNBOUND:                -4.907
REMARK SMILES CCCCCCCCCCCCCCCCCCCCCCCCCCCC(=O)[O-]
REMARK SMILES IDX 15 1 16 2 17 3 18 4 19 5 20 6 21 7 22 8 23 9 24 10 25 11
REMARK SMILES IDX 26 12 27 13 28 14 29 15 30 16 14 17 13 18 12 19 11 20 10 21
REMARK SMILES IDX 9 22 8 23 7 24 6 25 5 26 4 27 3 28 2 29 1 30
REMARK H PARENT
REMARK Flexibility Score: inf
ROOT
ATOM      1  C   UNL     1    -105.982 -38.997 -64.061  1.00  0.00     0.000 C 
ENDROOT
BRANCH   1   2
ATOM      2  C   UNL     1    -105.102 -40.246 -63.868  1.00  0.00     0.000 C 
BRANCH   2   3
ATOM      3  C   UNL     1    -104.154 -40.120 -62.664  1.00  0.00     0.000 C 
BRANCH   3   4
ATOM      4  C   UNL     1    -104.708 -39.205 -61.561  1.00  0.00     0.000 C 
BRANCH   4   5
ATOM      5  C   UNL     1    -104.272 -39.697 -60.171  1.00  0.00     0.000 C 
BRANCH   5   6
ATOM      6  C   UNL     1    -104.037 -41.215 -60.122  1.00  0.00     0.000 C 
BRANCH   6   7
ATOM      7  C   UNL     1    -104.787 -41.899 -58.967  1.00  0.00     0.000 C 
BRANCH   7   8
ATOM      8  C   UNL     1    -105.925 -42.809 -59.467  1.00  0.00     0.000 C 
BRANCH   8   9
ATOM      9  C   UNL     1    -106.124 -42.787 -60.994  1.00  0.00     0.000 C 
BRANCH   9  10
ATOM     10  C   UNL     1    -107.356 -41.964 -61.409  1.00  0.00     0.000 C 
BRANCH  10  11
ATOM     11  C   UNL     1    -108.087 -42.560 -62.623  1.00  0.00     0.000 C 
BRANCH  11  12
ATOM     12  C   UNL     1    -107.317 -43.715 -63.302  1.00  0.00     0.006 C 
BRANCH  12  13
ATOM     13  C   UNL     1    -106.972 -43.396 -64.762  1.00  0.00     0.053 C 
BRANCH  13  14
ATOM     14  C   UNL     1    -105.569 -43.810 -65.076  1.00  0.00     0.041 C 
ATOM     15  O   UNL     1    -105.246 -44.125 -66.252  1.00  0.00    -0.550 OA
ATOM     16  O   UNL     1    -104.611 -43.842 -64.069  1.00  0.00    -0.550 OA
ENDBRANCH  13  14
ENDBRANCH  12  13
ENDBRANCH  11  12
ENDBRANCH  10  11
ENDBRANCH   9  10
ENDBRANCH   8   9
ENDBRANCH   7   8
ENDBRANCH   6   7
ENDBRANCH   5   6
ENDBRANCH   4   5
ENDBRANCH   3   4
ENDBRANCH   2   3
ENDBRANCH   1   2
BRANCH   1  17
ATOM     17  C   UNL     1    -107.490 -39.297 -63.927  1.00  0.00     0.000 C 
BRANCH  17  18
ATOM     18  C   UNL     1    -108.288 -39.100 -65.231  1.00  0.00     0.000 C 
BRANCH  18  19
ATOM     19  C   UNL     1    -107.944 -40.087 -66.362  1.00  0.00     0.000 C 
BRANCH  19  20
ATOM     20  C   UNL     1    -109.068 -41.079 -66.728  1.00  0.00     0.000 C 
BRANCH  20  21
ATOM     21  C   UNL     1    -110.243 -41.133 -65.730  1.00  0.00     0.000 C 
BRANCH  21  22
ATOM     22  C   UNL     1    -110.648 -42.548 -65.279  1.00  0.00    -0.000 C 
BRANCH  22  23
ATOM     23  C   UNL     1    -112.051 -42.597 -64.657  1.00  0.00    -0.000 C 
BRANCH  23  24
ATOM     24  C   UNL     1    -112.857 -41.339 -65.021  1.00  0.00    -0.000 C 
BRANCH  24  25
ATOM     25  C   UNL     1    -114.154 -41.661 -65.779  1.00  0.00    -0.000 C 
BRANCH  25  26
ATOM     26  C   UNL     1    -113.990 -41.559 -67.306  1.00  0.00    -0.000 C 
BRANCH  26  27
ATOM     27  C   UNL     1    -113.449 -42.857 -67.928  1.00  0.00    -0.000 C 
BRANCH  27  28
ATOM     28  C   UNL     1    -112.084 -42.664 -68.611  1.00  0.00    -0.000 C 
BRANCH  28  29
ATOM     29  C   UNL     1    -111.534 -43.970 -69.208  1.00  0.00    -0.003 C 
ATOM     30  C   UNL     1    -110.017 -43.947 -69.390  1.00  0.00     0.004 C 
ENDBRANCH  28  29
ENDBRANCH  27  28
ENDBRANCH  26  27
ENDBRANCH  25  26
ENDBRANCH  24  25
ENDBRANCH  23  24
ENDBRANCH  22  23
ENDBRANCH  21  22
ENDBRANCH  20  21
ENDBRANCH  19  20
ENDBRANCH  18  19
ENDBRANCH  17  18
ENDBRANCH   1  17
TORSDOF 26
ENDMDL
MODEL 5
REMARK VINA RESULT:    -3.871      2.678      8.351
REMARK INTER + INTRA:         -14.661
REMARK INTER:                 -11.603
REMARK INTRA:                  -3.057
REMARK UNBOUND:                -4.907
REMARK SMILES CCCCCCCCCCCCCCCCCCCCCCCCCCCC(=O)[O-]
REMARK SMILES IDX 15 1 16 2 17 3 18 4 19 5 20 6 21 7 22 8 23 9 24 10 25 11
REMARK SMILES IDX 26 12 27 13 28 14 29 15 30 16 14 17 13 18 12 19 11 20 10 21
REMARK SMILES IDX 9 22 8 23 7 24 6 25 5 26 4 27 3 28 2 29 1 30
REMARK H PARENT
REMARK Flexibility Score: inf
ROOT
ATOM      1  C   UNL     1    -107.388 -42.188 -61.731  1.00  0.00     0.000 C 
ENDROOT
BRANCH   1   2
ATOM      2  C   UNL     1    -107.198 -43.561 -62.403  1.00  0.00     0.000 C 
BRANCH   2   3
ATOM      3  C   UNL     1    -107.554 -43.541 -63.898  1.00  0.00     0.000 C 
BRANCH   3   4
ATOM      4  C   UNL     1    -108.787 -42.677 -64.206  1.00  0.00     0.000 C 
BRANCH   4   5
ATOM      5  C   UNL     1    -109.866 -43.501 -64.927  1.00  0.00     0.000 C 
BRANCH   5   6
ATOM      6  C   UNL     1    -111.190 -42.738 -65.091  1.00  0.00     0.000 C 
BRANCH   6   7
ATOM      7  C   UNL     1    -111.000 -41.332 -65.685  1.00  0.00     0.000 C 
BRANCH   7   8
ATOM      8  C   UNL     1    -112.300 -40.507 -65.662  1.00  0.00     0.000 C 
BRANCH   8   9
ATOM      9  C   UNL     1    -113.584 -41.357 -65.640  1.00  0.00     0.000 C 
BRANCH   9  10
ATOM     10  C   UNL     1    -114.124 -41.633 -67.054  1.00  0.00     0.000 C 
BRANCH  10  11
ATOM     11  C   UNL     1    -113.798 -43.052 -67.549  1.00  0.00     0.000 C 
BRANCH  11  12
ATOM     12  C   UNL     1    -113.171 -43.083 -68.960  1.00  0.00     0.006 C 
BRANCH  12  13
ATOM     13  C   UNL     1    -111.710 -43.550 -68.930  1.00  0.00     0.053 C 
BRANCH  13  14
ATOM     14  C   UNL     1    -110.780 -42.380 -69.013  1.00  0.00     0.041 C 
ATOM     15  O   UNL     1    -111.219 -41.240 -69.320  1.00  0.00    -0.550 OA
ATOM     16  O   UNL     1    -109.427 -42.546 -68.743  1.00  0.00    -0.550 OA
ENDBRANCH  13  14
ENDBRANCH  12  13
ENDBRANCH  11  12
ENDBRANCH  10  11
ENDBRANCH   9  10
ENDBRANCH   8   9
ENDBRANCH   7   8
ENDBRANCH   6   7
ENDBRANCH   5   6
ENDBRANCH   4   5
ENDBRANCH   3   4
ENDBRANCH   2   3
ENDBRANCH   1   2
BRANCH   1  17
ATOM     17  C   UNL     1    -106.254 -41.838 -60.744  1.00  0.00     0.000 C 
BRANCH  17  18
ATOM     18  C   UNL     1    -105.714 -43.046 -59.954  1.00  0.00     0.000 C 
BRANCH  18  19
ATOM     19  C   UNL     1    -105.782 -42.909 -58.422  1.00  0.00     0.000 C 
BRANCH  19  20
ATOM     20  C   UNL     1    -104.527 -42.299 -57.764  1.00  0.00     0.000 C 
BRANCH  20  21
ATOM     21  C   UNL     1    -104.801 -41.136 -56.788  1.00  0.00     0.000 C 
BRANCH  21  22
ATOM     22  C   UNL     1    -104.042 -39.833 -57.100  1.00  0.00    -0.000 C 
BRANCH  22  23
ATOM     23  C   UNL     1    -103.292 -39.886 -58.439  1.00  0.00    -0.000 C 
BRANCH  23  24
ATOM     24  C   UNL     1    -103.691 -38.706 -59.339  1.00  0.00    -0.000 C 
BRANCH  24  25
ATOM     25  C   UNL     1    -103.966 -39.130 -60.791  1.00  0.00    -0.000 C 
BRANCH  25  26
ATOM     26  C   UNL     1    -104.434 -37.958 -61.672  1.00  0.00    -0.000 C 
BRANCH  26  27
ATOM     27  C   UNL     1    -104.705 -38.386 -63.125  1.00  0.00    -0.000 C 
BRANCH  27  28
ATOM     28  C   UNL     1    -106.140 -38.899 -63.333  1.00  0.00    -0.000 C 
BRANCH  28  29
ATOM     29  C   UNL     1    -106.656 -38.642 -64.759  1.00  0.00    -0.003 C 
ATOM     30  C   UNL     1    -108.095 -39.114 -64.964  1.00  0.00     0.004 C 
ENDBRANCH  28  29
ENDBRANCH  27  28
ENDBRANCH  26  27
ENDBRANCH  25  26
ENDBRANCH  24  25
ENDBRANCH  23  24
ENDBRANCH  22  23
ENDBRANCH  21  22
ENDBRANCH  20  21
ENDBRANCH  19  20
ENDBRANCH  18  19
ENDBRANCH  17  18
ENDBRANCH   1  17
TORSDOF 26
ENDMDL
MODEL 6
REMARK VINA RESULT:    -3.870      3.182      8.596
REMARK INTER + INTRA:         -14.659
REMARK INTER:                  -9.509
REMARK INTRA:                  -5.151
REMARK UNBOUND:                -4.907
REMARK SMILES CCCCCCCCCCCCCCCCCCCCCCCCCCCC(=O)[O-]
REMARK SMILES IDX 15 1 16 2 17 3 18 4 19 5 20 6 21 7 22 8 23 9 24 10 25 11
REMARK SMILES IDX 26 12 27 13 28 14 29 15 30 16 14 17 13 18 12 19 11 20 10 21
REMARK SMILES IDX 9 22 8 23 7 24 6 25 5 26 4 27 3 28 2 29 1 30
REMARK H PARENT
REMARK Flexibility Score: inf
ROOT
ATOM      1  C   UNL     1    -107.376 -38.890 -63.797  1.00  0.00     0.000 C 
ENDROOT
BRANCH   1   2
ATOM      2  C   UNL     1    -106.683 -39.686 -62.676  1.00  0.00     0.000 C 
BRANCH   2   3
ATOM      3  C   UNL     1    -107.415 -40.997 -62.344  1.00  0.00     0.000 C 
BRANCH   3   4
ATOM      4  C   UNL     1    -106.531 -42.238 -62.534  1.00  0.00     0.000 C 
BRANCH   4   5
ATOM      5  C   UNL     1    -107.386 -43.475 -62.856  1.00  0.00     0.000 C 
BRANCH   5   6
ATOM      6  C   UNL     1    -107.903 -43.483 -64.303  1.00  0.00     0.000 C 
BRANCH   6   7
ATOM      7  C   UNL     1    -109.414 -43.215 -64.400  1.00  0.00     0.000 C 
BRANCH   7   8
ATOM      8  C   UNL     1    -109.984 -43.571 -65.786  1.00  0.00     0.000 C 
BRANCH   8   9
ATOM      9  C   UNL     1    -109.172 -43.002 -66.965  1.00  0.00     0.000 C 
BRANCH   9  10
ATOM     10  C   UNL     1    -109.974 -41.973 -67.781  1.00  0.00     0.000 C 
BRANCH  10  11
ATOM     11  C   UNL     1    -110.647 -40.908 -66.899  1.00  0.00     0.000 C 
BRANCH  11  12
ATOM     12  C   UNL     1    -112.181 -40.842 -67.077  1.00  0.00     0.006 C 
BRANCH  12  13
ATOM     13  C   UNL     1    -112.913 -40.785 -65.730  1.00  0.00     0.053 C 
BRANCH  13  14
ATOM     14  C   UNL     1    -113.271 -42.161 -65.265  1.00  0.00     0.041 C 
ATOM     15  O   UNL     1    -112.974 -42.536 -64.099  1.00  0.00    -0.550 OA
ATOM     16  O   UNL     1    -113.940 -43.032 -66.116  1.00  0.00    -0.550 OA
ENDBRANCH  13  14
ENDBRANCH  12  13
ENDBRANCH  11  12
ENDBRANCH  10  11
ENDBRANCH   9  10
ENDBRANCH   8   9
ENDBRANCH   7   8
ENDBRANCH   6   7
ENDBRANCH   5   6
ENDBRANCH   4   5
ENDBRANCH   3   4
ENDBRANCH   2   3
ENDBRANCH   1   2
BRANCH   1  17
ATOM     17  C   UNL     1    -107.947 -39.791 -64.912  1.00  0.00     0.000 C 
BRANCH  17  18
ATOM     18  C   UNL     1    -107.063 -39.869 -66.171  1.00  0.00     0.000 C 
BRANCH  18  19
ATOM     19  C   UNL     1    -106.001 -40.984 -66.156  1.00  0.00     0.000 C 
BRANCH  19  20
ATOM     20  C   UNL     1    -104.541 -40.495 -66.049  1.00  0.00     0.000 C 
BRANCH  20  21
ATOM     21  C   UNL     1    -103.894 -40.666 -64.659  1.00  0.00     0.000 C 
BRANCH  21  22
ATOM     22  C   UNL     1    -103.220 -39.402 -64.095  1.00  0.00    -0.000 C 
BRANCH  22  23
ATOM     23  C   UNL     1    -103.864 -38.105 -64.605  1.00  0.00    -0.000 C 
BRANCH  23  24
ATOM     24  C   UNL     1    -104.187 -37.156 -63.439  1.00  0.00    -0.000 C 
BRANCH  24  25
ATOM     25  C   UNL     1    -103.288 -37.388 -62.215  1.00  0.00    -0.000 C 
BRANCH  25  26
ATOM     26  C   UNL     1    -104.091 -37.619 -60.923  1.00  0.00    -0.000 C 
BRANCH  26  27
ATOM     27  C   UNL     1    -103.526 -38.773 -60.077  1.00  0.00    -0.000 C 
BRANCH  27  28
ATOM     28  C   UNL     1    -104.137 -40.135 -60.449  1.00  0.00    -0.000 C 
BRANCH  28  29
ATOM     29  C   UNL     1    -104.696 -40.883 -59.228  1.00  0.00    -0.003 C 
ATOM     30  C   UNL     1    -104.459 -40.137 -57.915  1.00  0.00     0.004 C 
ENDBRANCH  28  29
ENDBRANCH  27  28
ENDBRANCH  26  27
ENDBRANCH  25  26
ENDBRANCH  24  25
ENDBRANCH  23  24
ENDBRANCH  22  23
ENDBRANCH  21  22
ENDBRANCH  20  21
ENDBRANCH  19  20
ENDBRANCH  18  19
ENDBRANCH  17  18
ENDBRANCH   1  17
TORSDOF 26
ENDMDL
MODEL 7
REMARK VINA RESULT:    -3.868      2.255      4.030
REMARK INTER + INTRA:         -14.653
REMARK INTER:                  -9.321
REMARK INTRA:                  -5.332
REMARK UNBOUND:                -4.907
REMARK SMILES CCCCCCCCCCCCCCCCCCCCCCCCCCCC(=O)[O-]
REMARK SMILES IDX 15 1 16 2 17 3 18 4 19 5 20 6 21 7 22 8 23 9 24 10 25 11
REMARK SMILES IDX 26 12 27 13 28 14 29 15 30 16 14 17 13 18 12 19 11 20 10 21
REMARK SMILES IDX 9 22 8 23 7 24 6 25 5 26 4 27 3 28 2 29 1 30
REMARK H PARENT
REMARK Flexibility Score: inf
ROOT
ATOM      1  C   UNL     1    -110.836 -40.824 -65.762  1.00  0.00     0.000 C 
ENDROOT
BRANCH   1   2
ATOM      2  C   UNL     1    -109.768 -40.791 -66.871  1.00  0.00     0.000 C 
BRANCH   2   3
ATOM      3  C   UNL     1    -109.044 -42.137 -67.033  1.00  0.00     0.000 C 
BRANCH   3   4
ATOM      4  C   UNL     1    -107.526 -41.981 -67.205  1.00  0.00     0.000 C 
BRANCH   4   5
ATOM      5  C   UNL     1    -106.767 -42.813 -66.157  1.00  0.00     0.000 C 
BRANCH   5   6
ATOM      6  C   UNL     1    -107.698 -43.685 -65.300  1.00  0.00     0.000 C 
BRANCH   6   7
ATOM      7  C   UNL     1    -107.358 -43.626 -63.801  1.00  0.00     0.000 C 
BRANCH   7   8
ATOM      8  C   UNL     1    -108.126 -42.509 -63.070  1.00  0.00     0.000 C 
BRANCH   8   9
ATOM      9  C   UNL     1    -107.261 -41.679 -62.103  1.00  0.00     0.000 C 
BRANCH   9  10
ATOM     10  C   UNL     1    -106.935 -40.284 -62.665  1.00  0.00     0.000 C 
BRANCH  10  11
ATOM     11  C   UNL     1    -107.751 -39.943 -63.922  1.00  0.00     0.000 C 
BRANCH  11  12
ATOM     12  C   UNL     1    -107.257 -38.674 -64.652  1.00  0.00     0.006 C 
BRANCH  12  13
ATOM     13  C   UNL     1    -106.040 -38.959 -65.542  1.00  0.00     0.053 C 
BRANCH  13  14
ATOM     14  C   UNL     1    -106.048 -38.073 -66.747  1.00  0.00     0.041 C 
ATOM     15  O   UNL     1    -105.881 -36.830 -66.623  1.00  0.00    -0.550 OA
ATOM     16  O   UNL     1    -106.233 -38.618 -68.012  1.00  0.00    -0.550 OA
ENDBRANCH  13  14
ENDBRANCH  12  13
ENDBRANCH  11  12
ENDBRANCH  10  11
ENDBRANCH   9  10
ENDBRANCH   8   9
ENDBRANCH   7   8
ENDBRANCH   6   7
ENDBRANCH   5   6
ENDBRANCH   4   5
ENDBRANCH   3   4
ENDBRANCH   2   3
ENDBRANCH   1   2
BRANCH   1  17
ATOM     17  C   UNL     1    -111.199 -42.256 -65.317  1.00  0.00     0.000 C 
BRANCH  17  18
ATOM     18  C   UNL     1    -112.626 -42.396 -64.753  1.00  0.00     0.000 C 
BRANCH  18  19
ATOM     19  C   UNL     1    -113.652 -41.396 -65.317  1.00  0.00     0.000 C 
BRANCH  19  20
ATOM     20  C   UNL     1    -114.508 -41.926 -66.486  1.00  0.00     0.000 C 
BRANCH  20  21
ATOM     21  C   UNL     1    -113.768 -42.050 -67.834  1.00  0.00     0.000 C 
BRANCH  21  22
ATOM     22  C   UNL     1    -113.371 -43.484 -68.230  1.00  0.00    -0.000 C 
BRANCH  22  23
ATOM     23  C   UNL     1    -112.141 -43.531 -69.148  1.00  0.00    -0.000 C 
BRANCH  23  24
ATOM     24  C   UNL     1    -111.776 -42.125 -69.649  1.00  0.00    -0.000 C 
BRANCH  24  25
ATOM     25  C   UNL     1    -111.465 -42.090 -71.154  1.00  0.00    -0.000 C 
BRANCH  25  26
ATOM     26  C   UNL     1    -110.160 -42.825 -71.507  1.00  0.00    -0.000 C 
BRANCH  26  27
ATOM     27  C   UNL     1    -108.961 -42.326 -70.682  1.00  0.00    -0.000 C 
BRANCH  27  28
ATOM     28  C   UNL     1    -108.339 -41.042 -71.258  1.00  0.00    -0.000 C 
BRANCH  28  29
ATOM     29  C   UNL     1    -108.537 -39.828 -70.335  1.00  0.00    -0.003 C 
ATOM     30  C   UNL     1    -109.430 -38.751 -70.952  1.00  0.00     0.004 C 
ENDBRANCH  28  29
ENDBRANCH  27  28
ENDBRANCH  26  27
ENDBRANCH  25  26
ENDBRANCH  24  25
ENDBRANCH  23  24
ENDBRANCH  22  23
ENDBRANCH  21  22
ENDBRANCH  20  21
ENDBRANCH  19  20
ENDBRANCH  18  19
ENDBRANCH  17  18
ENDBRANCH   1  17
TORSDOF 26
ENDMDL
MODEL 8
REMARK VINA RESULT:    -3.821      3.631      7.287
REMARK INTER + INTRA:         -14.536
REMARK INTER:                  -9.957
REMARK INTRA:                  -4.579
REMARK UNBOUND:                -4.907
REMARK SMILES CCCCCCCCCCCCCCCCCCCCCCCCCCCC(=O)[O-]
REMARK SMILES IDX 15 1 16 2 17 3 18 4 19 5 20 6 21 7 22 8 23 9 24 10 25 11
REMARK SMILES IDX 26 12 27 13 28 14 29 15 30 16 14 17 13 18 12 19 11 20 10 21
REMARK SMILES IDX 9 22 8 23 7 24 6 25 5 26 4 27 3 28 2 29 1 30
REMARK H PARENT
REMARK Flexibility Score: inf
ROOT
ATOM      1  C   UNL     1    -113.128 -40.772 -66.780  1.00  0.00     0.000 C 
ENDROOT
BRANCH   1   2
ATOM      2  C   UNL     1    -112.566 -41.010 -65.367  1.00  0.00     0.000 C 
BRANCH   2   3
ATOM      3  C   UNL     1    -113.319 -42.115 -64.609  1.00  0.00     0.000 C 
BRANCH   3   4
ATOM      4  C   UNL     1    -112.391 -42.993 -63.757  1.00  0.00     0.000 C 
BRANCH   4   5
ATOM      5  C   UNL     1    -111.160 -43.434 -64.565  1.00  0.00     0.000 C 
BRANCH   5   6
ATOM      6  C   UNL     1    -109.834 -43.107 -63.860  1.00  0.00     0.000 C 
BRANCH   6   7
ATOM      7  C   UNL     1    -108.619 -43.766 -64.535  1.00  0.00     0.000 C 
BRANCH   7   8
ATOM      8  C   UNL     1    -107.288 -43.339 -63.889  1.00  0.00     0.000 C 
BRANCH   8   9
ATOM      9  C   UNL     1    -107.332 -43.259 -62.351  1.00  0.00     0.000 C 
BRANCH   9  10
ATOM     10  C   UNL     1    -107.122 -41.825 -61.836  1.00  0.00     0.000 C 
BRANCH  10  11
ATOM     11  C   UNL     1    -106.069 -41.742 -60.718  1.00  0.00     0.000 C 
BRANCH  11  12
ATOM     12  C   UNL     1    -105.849 -43.080 -59.979  1.00  0.00     0.006 C 
BRANCH  12  13
ATOM     13  C   UNL     1    -105.828 -42.899 -58.455  1.00  0.00     0.053 C 
BRANCH  13  14
ATOM     14  C   UNL     1    -104.676 -42.039 -58.041  1.00  0.00     0.041 C 
ATOM     15  O   UNL     1    -104.865 -41.026 -57.317  1.00  0.00    -0.550 OA
ATOM     16  O   UNL     1    -103.386 -42.359 -58.449  1.00  0.00    -0.550 OA
ENDBRANCH  13  14
ENDBRANCH  12  13
ENDBRANCH  11  12
ENDBRANCH  10  11
ENDBRANCH   9  10
ENDBRANCH   8   9
ENDBRANCH   7   8
ENDBRANCH   6   7
ENDBRANCH   5   6
ENDBRANCH   4   5
ENDBRANCH   3   4
ENDBRANCH   2   3
ENDBRANCH   1   2
BRANCH   1  17
ATOM     17  C   UNL     1    -114.069 -41.901 -67.251  1.00  0.00     0.000 C 
BRANCH  17  18
ATOM     18  C   UNL     1    -113.527 -42.716 -68.442  1.00  0.00     0.000 C 
BRANCH  18  19
ATOM     19  C   UNL     1    -112.173 -42.236 -68.998  1.00  0.00     0.000 C 
BRANCH  19  20
ATOM     20  C   UNL     1    -111.042 -43.285 -68.960  1.00  0.00     0.000 C 
BRANCH  20  21
ATOM     21  C   UNL     1    -110.007 -43.089 -67.833  1.00  0.00     0.000 C 
BRANCH  21  22
ATOM     22  C   UNL     1    -108.618 -42.615 -68.301  1.00  0.00    -0.000 C 
BRANCH  22  23
ATOM     23  C   UNL     1    -108.136 -41.359 -67.561  1.00  0.00    -0.000 C 
BRANCH  23  24
ATOM     24  C   UNL     1    -109.275 -40.737 -66.736  1.00  0.00    -0.000 C 
BRANCH  24  25
ATOM     25  C   UNL     1    -108.811 -40.248 -65.355  1.00  0.00    -0.000 C 
BRANCH  25  26
ATOM     26  C   UNL     1    -108.093 -38.888 -65.417  1.00  0.00    -0.000 C 
BRANCH  26  27
ATOM     27  C   UNL     1    -106.799 -38.867 -64.586  1.00  0.00    -0.000 C 
BRANCH  27  28
ATOM     28  C   UNL     1    -105.878 -40.061 -64.893  1.00  0.00    -0.000 C 
BRANCH  28  29
ATOM     29  C   UNL     1    -104.644 -40.104 -63.976  1.00  0.00    -0.003 C 
ATOM     30  C   UNL     1    -104.025 -41.498 -63.878  1.00  0.00     0.004 C 
ENDBRANCH  28  29
ENDBRANCH  27  28
ENDBRANCH  26  27
ENDBRANCH  25  26
ENDBRANCH  24  25
ENDBRANCH  23  24
ENDBRANCH  22  23
ENDBRANCH  21  22
ENDBRANCH  20  21
ENDBRANCH  19  20
ENDBRANCH  18  19
ENDBRANCH  17  18
ENDBRANCH   1  17
TORSDOF 26
ENDMDL
MODEL 9
REMARK VINA RESULT:    -3.810      3.211      6.562
REMARK INTER + INTRA:         -14.508
REMARK INTER:                  -8.446
REMARK INTRA:                  -6.062
REMARK UNBOUND:                -4.907
REMARK SMILES CCCCCCCCCCCCCCCCCCCCCCCCCCCC(=O)[O-]
REMARK SMILES IDX 15 1 16 2 17 3 18 4 19 5 20 6 21 7 22 8 23 9 24 10 25 11
REMARK SMILES IDX 26 12 27 13 28 14 29 15 30 16 14 17 13 18 12 19 11 20 10 21
REMARK SMILES IDX 9 22 8 23 7 24 6 25 5 26 4 27 3 28 2 29 1 30
REMARK H PARENT
REMARK Flexibility Score: inf
ROOT
ATOM      1  C   UNL     1    -107.565 -38.630 -65.090  1.00  0.00     0.000 C 
ENDROOT
BRANCH   1   2
ATOM      2  C   UNL     1    -106.670 -38.482 -63.847  1.00  0.00     0.000 C 
BRANCH   2   3
ATOM      3  C   UNL     1    -106.921 -39.584 -62.804  1.00  0.00     0.000 C 
BRANCH   3   4
ATOM      4  C   UNL     1    -105.627 -40.106 -62.162  1.00  0.00     0.000 C 
BRANCH   4   5
ATOM      5  C   UNL     1    -105.922 -41.277 -61.210  1.00  0.00     0.000 C 
BRANCH   5   6
ATOM      6  C   UNL     1    -107.072 -42.170 -61.700  1.00  0.00     0.000 C 
BRANCH   6   7
ATOM      7  C   UNL     1    -106.580 -43.420 -62.450  1.00  0.00     0.000 C 
BRANCH   7   8
ATOM      8  C   UNL     1    -107.447 -43.742 -63.681  1.00  0.00     0.000 C 
BRANCH   8   9
ATOM      9  C   UNL     1    -108.904 -43.255 -63.570  1.00  0.00     0.000 C 
BRANCH   9  10
ATOM     10  C   UNL     1    -109.760 -43.698 -64.769  1.00  0.00     0.000 C 
BRANCH  10  11
ATOM     11  C   UNL     1    -111.098 -42.944 -64.857  1.00  0.00     0.000 C 
BRANCH  11  12
ATOM     12  C   UNL     1    -111.336 -42.268 -66.225  1.00  0.00     0.006 C 
BRANCH  12  13
ATOM     13  C   UNL     1    -111.977 -40.882 -66.078  1.00  0.00     0.053 C 
BRANCH  13  14
ATOM     14  C   UNL     1    -113.469 -40.983 -66.132  1.00  0.00     0.041 C 
ATOM     15  O   UNL     1    -114.140 -41.072 -65.070  1.00  0.00    -0.550 OA
ATOM     16  O   UNL     1    -114.124 -40.971 -67.358  1.00  0.00    -0.550 OA
ENDBRANCH  13  14
ENDBRANCH  12  13
ENDBRANCH  11  12
ENDBRANCH  10  11
ENDBRANCH   9  10
ENDBRANCH   8   9
ENDBRANCH   7   8
ENDBRANCH   6   7
ENDBRANCH   5   6
ENDBRANCH   4   5
ENDBRANCH   3   4
ENDBRANCH   2   3
ENDBRANCH   1   2
BRANCH   1  17
ATOM     17  C   UNL     1    -108.289 -39.991 -65.154  1.00  0.00     0.000 C 
BRANCH  17  18
ATOM     18  C   UNL     1    -107.794 -40.913 -66.286  1.00  0.00     0.000 C 
BRANCH  18  19
ATOM     19  C   UNL     1    -108.133 -40.437 -67.711  1.00  0.00     0.000 C 
BRANCH  19  20
ATOM     20  C   UNL     1    -106.935 -40.374 -68.681  1.00  0.00     0.000 C 
BRANCH  20  21
ATOM     21  C   UNL     1    -105.664 -39.714 -68.109  1.00  0.00     0.000 C 
BRANCH  21  22
ATOM     22  C   UNL     1    -104.348 -40.445 -68.435  1.00  0.00    -0.000 C 
BRANCH  22  23
ATOM     23  C   UNL     1    -103.495 -40.721 -67.189  1.00  0.00    -0.000 C 
BRANCH  23  24
ATOM     24  C   UNL     1    -104.344 -40.630 -65.911  1.00  0.00    -0.000 C 
BRANCH  24  25
ATOM     25  C   UNL     1    -104.509 -41.987 -65.208  1.00  0.00    -0.000 C 
BRANCH  25  26
ATOM     26  C   UNL     1    -104.189 -43.176 -66.130  1.00  0.00    -0.000 C 
BRANCH  26  27
ATOM     27  C   UNL     1    -105.454 -43.812 -66.732  1.00  0.00    -0.000 C 
BRANCH  27  28
ATOM     28  C   UNL     1    -105.363 -43.982 -68.258  1.00  0.00    -0.000 C 
BRANCH  28  29
ATOM     29  C   UNL     1    -106.746 -44.084 -68.922  1.00  0.00    -0.003 C 
ATOM     30  C   UNL     1    -107.890 -44.125 -67.909  1.00  0.00     0.004 C 
ENDBRANCH  28  29
ENDBRANCH  27  28
ENDBRANCH  26  27
ENDBRANCH  25  26
ENDBRANCH  24  25
ENDBRANCH  23  24
ENDBRANCH  22  23
ENDBRANCH  21  22
ENDBRANCH  20  21
ENDBRANCH  19  20
ENDBRANCH  18  19
ENDBRANCH  17  18
ENDBRANCH   1  17
TORSDOF 26
ENDMDL
