MODEL 1
REMARK VINA RESULT:    -5.093      0.000      0.000
REMARK INTER + INTRA:          -9.887
REMARK INTER:                  -8.666
REMARK INTRA:                  -1.220
REMARK UNBOUND:                -1.220
REMARK SMILES CCCCCCCCCCCCCC(=O)[O-]
REMARK SMILES IDX 8 1 9 2 10 3 11 4 12 5 13 6 14 7 15 8 16 9 7 10 6 11 5 12
REMARK SMILES IDX 4 13 3 14 2 15 1 16
REMARK H PARENT
REMARK Flexibility Score: inf
ROOT
ATOM      1  C   UNL     1      18.018  16.359  34.842  1.00  0.00     0.000 C 
ENDROOT
BRANCH   1   2
ATOM      2  C   UNL     1      17.291  16.382  36.196  1.00  0.00     0.000 C 
BRANCH   2   3
ATOM      3  C   UNL     1      16.927  17.805  36.655  1.00  0.00     0.000 C 
BRANCH   3   4
ATOM      4  C   UNL     1      16.070  17.879  37.936  1.00  0.00     0.000 C 
BRANCH   4   5
ATOM      5  C   UNL     1      14.572  17.582  37.737  1.00  0.00     0.006 C 
BRANCH   5   6
ATOM      6  C   UNL     1      14.092  16.375  38.553  1.00  0.00     0.053 C 
BRANCH   6   7
ATOM      7  C   UNL     1      14.378  15.103  37.819  1.00  0.00     0.041 C 
ATOM      8  O   UNL     1      13.969  14.946  36.638  1.00  0.00    -0.550 OA
ATOM      9  O   UNL     1      15.141  14.109  38.422  1.00  0.00    -0.550 OA
ENDBRANCH   6   7
ENDBRANCH   5   6
ENDBRANCH   4   5
ENDBRANCH   3   4
ENDBRANCH   2   3
ENDBRANCH   1   2
BRANCH   1  10
ATOM     10  C   UNL     1      18.001  17.748  34.188  1.00  0.00     0.000 C 
BRANCH  10  11
ATOM     11  C   UNL     1      18.751  17.785  32.845  1.00  0.00    -0.000 C 
BRANCH  11  12
ATOM     12  C   UNL     1      19.697  18.988  32.662  1.00  0.00    -0.000 C 
BRANCH  12  13
ATOM     13  C   UNL     1      20.469  19.413  33.928  1.00  0.00    -0.000 C 
BRANCH  13  14
ATOM     14  C   UNL     1      21.820  18.704  34.132  1.00  0.00    -0.000 C 
BRANCH  14  15
ATOM     15  C   UNL     1      21.709  17.456  35.019  1.00  0.00    -0.003 C 
ATOM     16  C   UNL     1      21.804  16.181  34.186  1.00  0.00     0.004 C 
ENDBRANCH  14  15
ENDBRANCH  13  14
ENDBRANCH  12  13
ENDBRANCH  11  12
ENDBRANCH  10  11
ENDBRANCH   1  10
TORSDOF 12
ENDMDL
MODEL 2
REMARK VINA RESULT:    -5.026      1.210      2.171
REMARK INTER + INTRA:          -9.772
REMARK INTER:                  -8.541
REMARK INTRA:                  -1.231
REMARK UNBOUND:                -1.220
REMARK SMILES CCCCCCCCCCCCCC(=O)[O-]
REMARK SMILES IDX 8 1 9 2 10 3 11 4 12 5 13 6 14 7 15 8 16 9 7 10 6 11 5 12
REMARK SMILES IDX 4 13 3 14 2 15 1 16
REMARK H PARENT
REMARK Flexibility Score: inf
ROOT
ATOM      1  C   UNL     1      17.316  17.704  34.621  1.00  0.00     0.000 C 
ENDROOT
BRANCH   1   2
ATOM      2  C   UNL     1      16.328  18.334  35.614  1.00  0.00     0.000 C 
BRANCH   2   3
ATOM      3  C   UNL     1      16.677  18.027  37.081  1.00  0.00     0.000 C 
BRANCH   3   4
ATOM      4  C   UNL     1      15.480  18.034  38.054  1.00  0.00     0.000 C 
BRANCH   4   5
ATOM      5  C   UNL     1      15.170  16.679  38.717  1.00  0.00     0.006 C 
BRANCH   5   6
ATOM      6  C   UNL     1      15.643  15.484  37.879  1.00  0.00     0.053 C 
BRANCH   6   7
ATOM      7  C   UNL     1      14.482  14.838  37.192  1.00  0.00     0.041 C 
ATOM      8  O   UNL     1      13.843  15.462  36.303  1.00  0.00    -0.550 OA
ATOM      9  O   UNL     1      14.135  13.527  37.497  1.00  0.00    -0.550 OA
ENDBRANCH   6   7
ENDBRANCH   5   6
ENDBRANCH   4   5
ENDBRANCH   3   4
ENDBRANCH   2   3
ENDBRANCH   1   2
BRANCH   1  10
ATOM     10  C   UNL     1      18.618  17.298  35.326  1.00  0.00     0.000 C 
BRANCH  10  11
ATOM     11  C   UNL     1      19.378  16.184  34.583  1.00  0.00    -0.000 C 
BRANCH  11  12
ATOM     12  C   UNL     1      20.839  16.520  34.227  1.00  0.00    -0.000 C 
BRANCH  12  13
ATOM     13  C   UNL     1      21.079  16.927  32.758  1.00  0.00    -0.000 C 
BRANCH  13  14
ATOM     14  C   UNL     1      21.430  18.410  32.545  1.00  0.00    -0.000 C 
BRANCH  14  15
ATOM     15  C   UNL     1      20.215  19.337  32.690  1.00  0.00    -0.003 C 
ATOM     16  C   UNL     1      20.376  20.270  33.887  1.00  0.00     0.004 C 
ENDBRANCH  14  15
ENDBRANCH  13  14
ENDBRANCH  12  13
ENDBRANCH  11  12
ENDBRANCH  10  11
ENDBRANCH   1  10
TORSDOF 12
ENDMDL
MODEL 3
REMARK VINA RESULT:    -5.005      1.608      2.448
REMARK INTER + INTRA:          -9.736
REMARK INTER:                  -8.531
REMARK INTRA:                  -1.205
REMARK UNBOUND:                -1.220
REMARK SMILES CCCCCCCCCCCCCC(=O)[O-]
REMARK SMILES IDX 8 1 9 2 10 3 11 4 12 5 13 6 14 7 15 8 16 9 7 10 6 11 5 12
REMARK SMILES IDX 4 13 3 14 2 15 1 16
REMARK H PARENT
REMARK Flexibility Score: inf
ROOT
ATOM      1  C   UNL     1      17.419  17.618  36.485  1.00  0.00     0.000 C 
ENDROOT
BRANCH   1   2
ATOM      2  C   UNL     1      16.057  18.278  36.225  1.00  0.00     0.000 C 
BRANCH   2   3
ATOM      3  C   UNL     1      15.113  17.392  35.392  1.00  0.00     0.000 C 
BRANCH   3   4
ATOM      4  C   UNL     1      13.620  17.498  35.763  1.00  0.00     0.000 C 
BRANCH   4   5
ATOM      5  C   UNL     1      13.062  16.309  36.567  1.00  0.00     0.006 C 
BRANCH   5   6
ATOM      6  C   UNL     1      14.059  15.148  36.682  1.00  0.00     0.053 C 
BRANCH   6   7
ATOM      7  C   UNL     1      14.583  15.048  38.080  1.00  0.00     0.041 C 
ATOM      8  O   UNL     1      14.711  16.083  38.785  1.00  0.00    -0.550 OA
ATOM      9  O   UNL     1      14.883  13.804  38.622  1.00  0.00    -0.550 OA
ENDBRANCH   6   7
ENDBRANCH   5   6
ENDBRANCH   4   5
ENDBRANCH   3   4
ENDBRANCH   2   3
ENDBRANCH   1   2
BRANCH   1  10
ATOM     10  C   UNL     1      17.483  16.222  35.849  1.00  0.00     0.000 C 
BRANCH  10  11
ATOM     11  C   UNL     1      18.685  16.051  34.902  1.00  0.00    -0.000 C 
BRANCH  11  12
ATOM     12  C   UNL     1      19.366  17.365  34.472  1.00  0.00    -0.000 C 
BRANCH  12  13
ATOM     13  C   UNL     1      18.943  17.900  33.088  1.00  0.00    -0.000 C 
BRANCH  13  14
ATOM     14  C   UNL     1      19.904  17.552  31.937  1.00  0.00    -0.000 C 
BRANCH  14  15
ATOM     15  C   UNL     1      21.381  17.654  32.343  1.00  0.00    -0.003 C 
ATOM     16  C   UNL     1      21.860  19.102  32.311  1.00  0.00     0.004 C 
ENDBRANCH  14  15
ENDBRANCH  13  14
ENDBRANCH  12  13
ENDBRANCH  11  12
ENDBRANCH  10  11
ENDBRANCH   1  10
TORSDOF 12
ENDMDL
MODEL 4
REMARK VINA RESULT:    -4.971      3.447      7.178
REMARK INTER + INTRA:          -9.678
REMARK INTER:                  -8.389
REMARK INTRA:                  -1.289
REMARK UNBOUND:                -1.220
REMARK SMILES CCCCCCCCCCCCCC(=O)[O-]
REMARK SMILES IDX 8 1 9 2 10 3 11 4 12 5 13 6 14 7 15 8 16 9 7 10 6 11 5 12
REMARK SMILES IDX 4 13 3 14 2 15 1 16
REMARK H PARENT
REMARK Flexibility Score: inf
ROOT
ATOM      1  C   UNL     1      17.230  17.033  36.475  1.00  0.00     0.000 C 
ENDROOT
BRANCH   1   2
ATOM      2  C   UNL     1      17.052  16.918  34.953  1.00  0.00     0.000 C 
BRANCH   2   3
ATOM      3  C   UNL     1      18.388  16.787  34.202  1.00  0.00     0.000 C 
BRANCH   3   4
ATOM      4  C   UNL     1      18.632  17.849  33.111  1.00  0.00     0.000 C 
BRANCH   4   5
ATOM      5  C   UNL     1      19.819  18.794  33.374  1.00  0.00     0.006 C 
BRANCH   5   6
ATOM      6  C   UNL     1      20.792  18.249  34.428  1.00  0.00     0.053 C 
BRANCH   6   7
ATOM      7  C   UNL     1      21.847  17.411  33.779  1.00  0.00     0.041 C 
ATOM      8  O   UNL     1      22.360  17.771  32.686  1.00  0.00    -0.550 OA
ATOM      9  O   UNL     1      22.302  16.257  34.405  1.00  0.00    -0.550 OA
ENDBRANCH   6   7
ENDBRANCH   5   6
ENDBRANCH   4   5
ENDBRANCH   3   4
ENDBRANCH   2   3
ENDBRANCH   1   2
BRANCH   1  10
ATOM     10  C   UNL     1      16.487  18.260  37.022  1.00  0.00     0.000 C 
BRANCH  10  11
ATOM     11  C   UNL     1      15.620  17.933  38.252  1.00  0.00    -0.000 C 
BRANCH  11  12
ATOM     12  C   UNL     1      15.401  16.430  38.512  1.00  0.00    -0.000 C 
BRANCH  12  13
ATOM     13  C   UNL     1      14.000  15.899  38.143  1.00  0.00    -0.000 C 
BRANCH  13  14
ATOM     14  C   UNL     1      13.904  15.230  36.760  1.00  0.00    -0.000 C 
BRANCH  14  15
ATOM     15  C   UNL     1      13.536  16.218  35.645  1.00  0.00    -0.003 C 
ATOM     16  C   UNL     1      12.495  17.225  36.125  1.00  0.00     0.004 C 
ENDBRANCH  14  15
ENDBRANCH  13  14
ENDBRANCH  12  13
ENDBRANCH  11  12
ENDBRANCH  10  11
ENDBRANCH   1  10
TORSDOF 12
ENDMDL
MODEL 5
REMARK VINA RESULT:    -4.908      2.383      3.676
REMARK INTER + INTRA:          -9.571
REMARK INTER:                  -8.182
REMARK INTRA:                  -1.390
REMARK UNBOUND:                -1.220
REMARK SMILES CCCCCCCCCCCCCC(=O)[O-]
REMARK SMILES IDX 8 1 9 2 10 3 11 4 12 5 13 6 14 7 15 8 16 9 7 10 6 11 5 12
REMARK SMILES IDX 4 13 3 14 2 15 1 16
REMARK H PARENT
REMARK Flexibility Score: inf
ROOT
ATOM      1  C   UNL     1      16.667  16.386  37.219  1.00  0.00     0.000 C 
ENDROOT
BRANCH   1   2
ATOM      2  C   UNL     1      15.673  15.835  38.252  1.00  0.00     0.000 C 
BRANCH   2   3
ATOM      3  C   UNL     1      14.610  14.913  37.627  1.00  0.00     0.000 C 
BRANCH   3   4
ATOM      4  C   UNL     1      13.838  15.518  36.438  1.00  0.00     0.000 C 
BRANCH   4   5
ATOM      5  C   UNL     1      12.977  16.749  36.777  1.00  0.00     0.006 C 
BRANCH   5   6
ATOM      6  C   UNL     1      13.021  17.825  35.685  1.00  0.00     0.053 C 
BRANCH   6   7
ATOM      7  C   UNL     1      11.676  18.459  35.522  1.00  0.00     0.041 C 
ATOM      8  O   UNL     1      11.019  18.821  36.533  1.00  0.00    -0.550 OA
ATOM      9  O   UNL     1      11.167  18.694  34.250  1.00  0.00    -0.550 OA
ENDBRANCH   6   7
ENDBRANCH   5   6
ENDBRANCH   4   5
ENDBRANCH   3   4
ENDBRANCH   2   3
ENDBRANCH   1   2
BRANCH   1  10
ATOM     10  C   UNL     1      16.605  17.919  37.163  1.00  0.00     0.000 C 
BRANCH  10  11
ATOM     11  C   UNL     1      16.664  18.467  35.725  1.00  0.00    -0.000 C 
BRANCH  11  12
ATOM     12  C   UNL     1      16.957  17.413  34.640  1.00  0.00    -0.000 C 
BRANCH  12  13
ATOM     13  C   UNL     1      18.155  17.733  33.721  1.00  0.00    -0.000 C 
BRANCH  13  14
ATOM     14  C   UNL     1      19.269  18.569  34.376  1.00  0.00    -0.000 C 
BRANCH  14  15
ATOM     15  C   UNL     1      20.275  17.712  35.158  1.00  0.00    -0.003 C 
ATOM     16  C   UNL     1      21.564  17.518  34.364  1.00  0.00     0.004 C 
ENDBRANCH  14  15
ENDBRANCH  13  14
ENDBRANCH  12  13
ENDBRANCH  11  12
ENDBRANCH  10  11
ENDBRANCH   1  10
TORSDOF 12
ENDMDL
MODEL 6
REMARK VINA RESULT:    -4.898      2.236      3.015
REMARK INTER + INTRA:          -9.555
REMARK INTER:                  -8.554
REMARK INTRA:                  -1.001
REMARK UNBOUND:                -1.220
REMARK SMILES CCCCCCCCCCCCCC(=O)[O-]
REMARK SMILES IDX 8 1 9 2 10 3 11 4 12 5 13 6 14 7 15 8 16 9 7 10 6 11 5 12
REMARK SMILES IDX 4 13 3 14 2 15 1 16
REMARK H PARENT
REMARK Flexibility Score: inf
ROOT
ATOM      1  C   UNL     1      16.442  18.410  36.369  1.00  0.00     0.000 C 
ENDROOT
BRANCH   1   2
ATOM      2  C   UNL     1      16.118  17.876  37.773  1.00  0.00     0.000 C 
BRANCH   2   3
ATOM      3  C   UNL     1      15.909  16.351  37.799  1.00  0.00     0.000 C 
BRANCH   3   4
ATOM      4  C   UNL     1      14.553  15.887  38.368  1.00  0.00     0.000 C 
BRANCH   4   5
ATOM      5  C   UNL     1      13.419  16.925  38.282  1.00  0.00     0.006 C 
BRANCH   5   6
ATOM      6  C   UNL     1      12.568  16.772  37.015  1.00  0.00     0.053 C 
BRANCH   6   7
ATOM      7  C   UNL     1      11.167  17.229  37.270  1.00  0.00     0.041 C 
ATOM      8  O   UNL     1      10.940  18.145  38.104  1.00  0.00    -0.550 OA
ATOM      9  O   UNL     1      10.113  16.679  36.549  1.00  0.00    -0.550 OA
ENDBRANCH   6   7
ENDBRANCH   5   6
ENDBRANCH   4   5
ENDBRANCH   3   4
ENDBRANCH   2   3
ENDBRANCH   1   2
BRANCH   1  10
ATOM     10  C   UNL     1      16.294  17.305  35.314  1.00  0.00     0.000 C 
BRANCH  10  11
ATOM     11  C   UNL     1      17.489  17.237  34.347  1.00  0.00    -0.000 C 
BRANCH  11  12
ATOM     12  C   UNL     1      18.854  17.581  34.975  1.00  0.00    -0.000 C 
BRANCH  12  13
ATOM     13  C   UNL     1      19.610  18.745  34.304  1.00  0.00    -0.000 C 
BRANCH  13  14
ATOM     14  C   UNL     1      19.583  18.735  32.765  1.00  0.00    -0.000 C 
BRANCH  14  15
ATOM     15  C   UNL     1      20.344  17.545  32.164  1.00  0.00    -0.003 C 
ATOM     16  C   UNL     1      21.849  17.703  32.354  1.00  0.00     0.004 C 
ENDBRANCH  14  15
ENDBRANCH  13  14
ENDBRANCH  12  13
ENDBRANCH  11  12
ENDBRANCH  10  11
ENDBRANCH   1  10
TORSDOF 12
ENDMDL
MODEL 7
REMARK VINA RESULT:    -4.894      8.286      9.603
REMARK INTER + INTRA:          -9.547
REMARK INTER:                  -8.028
REMARK INTRA:                  -1.519
REMARK UNBOUND:                -1.220
REMARK SMILES CCCCCCCCCCCCCC(=O)[O-]
REMARK SMILES IDX 8 1 9 2 10 3 11 4 12 5 13 6 14 7 15 8 16 9 7 10 6 11 5 12
REMARK SMILES IDX 4 13 3 14 2 15 1 16
REMARK H PARENT
REMARK Flexibility Score: inf
ROOT
ATOM      1  C   UNL     1       9.999  18.828  32.461  1.00  0.00     0.000 C 
ENDROOT
BRANCH   1   2
ATOM      2  C   UNL     1       9.680  17.722  33.479  1.00  0.00     0.000 C 
BRANCH   2   3
ATOM      3  C   UNL     1       8.504  18.083  34.404  1.00  0.00     0.000 C 
BRANCH   3   4
ATOM      4  C   UNL     1       8.348  19.586  34.709  1.00  0.00     0.000 C 
BRANCH   4   5
ATOM      5  C   UNL     1       9.002  20.058  36.021  1.00  0.00     0.006 C 
BRANCH   5   6
ATOM      6  C   UNL     1       8.425  19.358  37.258  1.00  0.00     0.053 C 
BRANCH   6   7
ATOM      7  C   UNL     1       9.508  18.654  38.012  1.00  0.00     0.041 C 
ATOM      8  O   UNL     1       9.388  18.446  39.249  1.00  0.00    -0.550 OA
ATOM      9  O   UNL     1      10.630  18.182  37.340  1.00  0.00    -0.550 OA
ENDBRANCH   6   7
ENDBRANCH   5   6
ENDBRANCH   4   5
ENDBRANCH   3   4
ENDBRANCH   2   3
ENDBRANCH   1   2
BRANCH   1  10
ATOM     10  C   UNL     1       9.438  18.475  31.076  1.00  0.00     0.000 C 
BRANCH  10  11
ATOM     11  C   UNL     1       8.592  19.608  30.468  1.00  0.00    -0.000 C 
BRANCH  11  12
ATOM     12  C   UNL     1       8.239  20.750  31.441  1.00  0.00    -0.000 C 
BRANCH  12  13
ATOM     13  C   UNL     1       8.396  22.173  30.866  1.00  0.00    -0.000 C 
BRANCH  13  14
ATOM     14  C   UNL     1       9.483  23.029  31.541  1.00  0.00    -0.000 C 
BRANCH  14  15
ATOM     15  C   UNL     1       9.918  22.472  32.904  1.00  0.00    -0.003 C 
ATOM     16  C   UNL     1      11.415  22.177  32.923  1.00  0.00     0.004 C 
ENDBRANCH  14  15
ENDBRANCH  13  14
ENDBRANCH  12  13
ENDBRANCH  11  12
ENDBRANCH  10  11
ENDBRANCH   1  10
TORSDOF 12
ENDMDL
MODEL 8
REMARK VINA RESULT:    -4.858      1.708      2.697
REMARK INTER + INTRA:          -9.486
REMARK INTER:                  -8.138
REMARK INTRA:                  -1.347
REMARK UNBOUND:                -1.220
REMARK SMILES CCCCCCCCCCCCCC(=O)[O-]
REMARK SMILES IDX 8 1 9 2 10 3 11 4 12 5 13 6 14 7 15 8 16 9 7 10 6 11 5 12
REMARK SMILES IDX 4 13 3 14 2 15 1 16
REMARK H PARENT
REMARK Flexibility Score: inf
ROOT
ATOM      1  C   UNL     1      17.426  18.192  35.329  1.00  0.00     0.000 C 
ENDROOT
BRANCH   1   2
ATOM      2  C   UNL     1      16.486  18.617  36.468  1.00  0.00     0.000 C 
BRANCH   2   3
ATOM      3  C   UNL     1      16.467  17.612  37.634  1.00  0.00     0.000 C 
BRANCH   3   4
ATOM      4  C   UNL     1      15.111  17.471  38.354  1.00  0.00     0.000 C 
BRANCH   4   5
ATOM      5  C   UNL     1      14.524  16.048  38.366  1.00  0.00     0.006 C 
BRANCH   5   6
ATOM      6  C   UNL     1      14.266  15.499  36.957  1.00  0.00     0.053 C 
BRANCH   6   7
ATOM      7  C   UNL     1      13.270  16.352  36.239  1.00  0.00     0.041 C 
ATOM      8  O   UNL     1      12.105  16.491  36.698  1.00  0.00    -0.550 OA
ATOM      9  O   UNL     1      13.641  17.036  35.087  1.00  0.00    -0.550 OA
ENDBRANCH   6   7
ENDBRANCH   5   6
ENDBRANCH   4   5
ENDBRANCH   3   4
ENDBRANCH   2   3
ENDBRANCH   1   2
BRANCH   1  10
ATOM     10  C   UNL     1      17.173  16.732  34.926  1.00  0.00     0.000 C 
BRANCH  10  11
ATOM     11  C   UNL     1      18.453  15.878  34.939  1.00  0.00    -0.000 C 
BRANCH  11  12
ATOM     12  C   UNL     1      19.761  16.665  34.724  1.00  0.00    -0.000 C 
BRANCH  12  13
ATOM     13  C   UNL     1      20.287  16.678  33.273  1.00  0.00    -0.000 C 
BRANCH  13  14
ATOM     14  C   UNL     1      19.825  17.878  32.427  1.00  0.00    -0.000 C 
BRANCH  14  15
ATOM     15  C   UNL     1      20.853  19.017  32.397  1.00  0.00    -0.003 C 
ATOM     16  C   UNL     1      20.356  20.226  33.183  1.00  0.00     0.004 C 
ENDBRANCH  14  15
ENDBRANCH  13  14
ENDBRANCH  12  13
ENDBRANCH  11  12
ENDBRANCH  10  11
ENDBRANCH   1  10
TORSDOF 12
ENDMDL
MODEL 9
REMARK VINA RESULT:    -4.820      3.261      4.880
REMARK INTER + INTRA:          -9.422
REMARK INTER:                  -8.221
REMARK INTRA:                  -1.201
REMARK UNBOUND:                -1.220
REMARK SMILES CCCCCCCCCCCCCC(=O)[O-]
REMARK SMILES IDX 8 1 9 2 10 3 11 4 12 5 13 6 14 7 15 8 16 9 7 10 6 11 5 12
REMARK SMILES IDX 4 13 3 14 2 15 1 16
REMARK H PARENT
REMARK Flexibility Score: inf
ROOT
ATOM      1  C   UNL     1      13.919  16.207  37.887  1.00  0.00     0.000 C 
ENDROOT
BRANCH   1   2
ATOM      2  C   UNL     1      13.760  15.605  36.483  1.00  0.00     0.000 C 
BRANCH   2   3
ATOM      3  C   UNL     1      13.300  16.636  35.438  1.00  0.00     0.000 C 
BRANCH   3   4
ATOM      4  C   UNL     1      12.670  17.919  36.019  1.00  0.00     0.000 C 
BRANCH   4   5
ATOM      5  C   UNL     1      11.330  18.333  35.384  1.00  0.00     0.006 C 
BRANCH   5   6
ATOM      6  C   UNL     1      10.366  17.152  35.205  1.00  0.00     0.053 C 
BRANCH   6   7
ATOM      7  C   UNL     1       9.191  17.296  36.119  1.00  0.00     0.041 C 
ATOM      8  O   UNL     1       9.275  18.009  37.154  1.00  0.00    -0.550 OA
ATOM      9  O   UNL     1       7.984  16.682  35.803  1.00  0.00    -0.550 OA
ENDBRANCH   6   7
ENDBRANCH   5   6
ENDBRANCH   4   5
ENDBRANCH   3   4
ENDBRANCH   2   3
ENDBRANCH   1   2
BRANCH   1  10
ATOM     10  C   UNL     1      15.381  16.136  38.352  1.00  0.00     0.000 C 
BRANCH  10  11
ATOM     11  C   UNL     1      16.384  16.260  37.192  1.00  0.00    -0.000 C 
BRANCH  11  12
ATOM     12  C   UNL     1      16.882  17.692  36.913  1.00  0.00    -0.000 C 
BRANCH  12  13
ATOM     13  C   UNL     1      16.773  18.149  35.444  1.00  0.00    -0.000 C 
BRANCH  13  14
ATOM     14  C   UNL     1      17.486  17.241  34.426  1.00  0.00    -0.000 C 
BRANCH  14  15
ATOM     15  C   UNL     1      18.692  17.922  33.763  1.00  0.00    -0.003 C 
ATOM     16  C   UNL     1      19.926  17.845  34.657  1.00  0.00     0.004 C 
ENDBRANCH  14  15
ENDBRANCH  13  14
ENDBRANCH  12  13
ENDBRANCH  11  12
ENDBRANCH  10  11
ENDBRANCH   1  10
TORSDOF 12
ENDMDL
