MODEL 1
REMARK VINA RESULT:    -7.114      0.000      0.000
REMARK INTER + INTRA:         -10.435
REMARK INTER:                  -9.401
REMARK INTRA:                  -1.034
REMARK UNBOUND:                -1.034
REMARK SMILES CC[C@H](C=C[C@@H](C)[C@H]1CC[C@H]2[C@@H]3CC=C4C[C@H](O)CC[C@]4(C)[C@@H]3CC[C@@]12C)C(C)C
REMARK SMILES IDX 6 1 7 2 5 3 4 4 3 5 2 6 1 7 28 8 29 9 30 10 8 11 9 12 26 13
REMARK SMILES IDX 10 14 11 15 25 16 27 17 12 18 24 19 23 20 13 21 21 22 14 23
REMARK SMILES IDX 15 24 20 25 22 26 16 27 19 28 17 29 18 30
REMARK H PARENT 18 31
REMARK Flexibility Score: inf
ROOT
ATOM      1  C   UNL     1     170.620 179.000 179.695  1.00  0.00     0.012 C 
ATOM      2  C   UNL     1     171.096 179.420 178.294  1.00  0.00     0.012 C 
ENDROOT
BRANCH   1   3
ATOM      3  C   UNL     1     171.813 178.965 180.634  1.00  0.00    -0.028 C 
ATOM      4  C   UNL     1     172.993 178.424 180.281  1.00  0.00    -0.027 C 
BRANCH   4   5
ATOM      5  C   UNL     1     174.226 178.384 181.169  1.00  0.00     0.014 C 
BRANCH   5   6
ATOM      6  C   UNL     1     174.652 176.932 181.524  1.00  0.00     0.004 C 
ATOM      7  C   UNL     1     173.751 175.828 180.961  1.00  0.00     0.004 C 
ENDBRANCH   5   6
BRANCH   5   8
ATOM      8  C   UNL     1     175.386 179.358 180.751  1.00  0.00    -0.011 C 
ATOM      9  C   UNL     1     175.731 179.360 179.249  1.00  0.00     0.008 C 
ATOM     10  C   UNL     1     176.665 179.064 181.554  1.00  0.00     0.008 C 
ENDBRANCH   5   8
ENDBRANCH   4   5
ENDBRANCH   1   3
BRANCH   1  11
ATOM     11  C   UNL     1     169.848 177.637 179.705  1.00  0.00     0.002 C 
ATOM     12  C   UNL     1     169.719 177.077 181.122  1.00  0.00     0.005 C 
ATOM     13  C   UNL     1     168.409 177.568 179.076  1.00  0.00    -0.026 C 
ATOM     14  C   UNL     1     168.520 176.146 181.133  1.00  0.00     0.005 C 
ATOM     15  C   UNL     1     167.734 176.371 179.827  1.00  0.00    -0.001 C 
ATOM     16  C   UNL     1     167.562 178.875 179.232  1.00  0.00     0.007 C 
ATOM     17  C   UNL     1     168.523 177.230 177.563  1.00  0.00     0.012 C 
ATOM     18  C   UNL     1     166.201 176.508 180.107  1.00  0.00     0.000 C 
ATOM     19  C   UNL     1     166.854 178.975 180.584  1.00  0.00     0.005 C 
ATOM     20  C   UNL     1     165.780 177.869 180.760  1.00  0.00     0.003 C 
ATOM     21  C   UNL     1     165.361 176.187 178.875  1.00  0.00     0.031 C 
ATOM     22  C   UNL     1     164.268 178.334 180.486  1.00  0.00    -0.008 C 
ATOM     23  C   UNL     1     163.915 176.180 179.254  1.00  0.00    -0.027 C 
ATOM     24  C   UNL     1     163.389 177.176 179.995  1.00  0.00    -0.065 C 
ATOM     25  C   UNL     1     164.109 179.439 179.390  1.00  0.00     0.014 C 
ATOM     26  C   UNL     1     163.722 178.879 181.837  1.00  0.00     0.016 C 
ATOM     27  C   UNL     1     161.910 177.447 179.836  1.00  0.00     0.063 C 
ATOM     28  C   UNL     1     162.633 179.801 179.072  1.00  0.00     0.033 C 
ATOM     29  C   UNL     1     161.715 178.579 178.807  1.00  0.00     0.118 C 
BRANCH  29  30
ATOM     30  O   UNL     1     161.874 178.097 177.495  1.00  0.00    -0.393 OA
ATOM     31  H   UNL     1     161.177 177.410 177.331  1.00  0.00     0.210 HD
ENDBRANCH  29  30
ENDBRANCH   1  11
TORSDOF 6
ENDMDL
MODEL 2
REMARK VINA RESULT:    -6.787      5.987      8.778
REMARK INTER + INTRA:         -10.004
REMARK INTER:                  -8.450
REMARK INTRA:                  -1.553
REMARK UNBOUND:                -1.034
REMARK SMILES CC[C@H](C=C[C@@H](C)[C@H]1CC[C@H]2[C@@H]3CC=C4C[C@H](O)CC[C@]4(C)[C@@H]3CC[C@@]12C)C(C)C
REMARK SMILES IDX 6 1 7 2 5 3 4 4 3 5 2 6 1 7 28 8 29 9 30 10 8 11 9 12 26 13
REMARK SMILES IDX 10 14 11 15 25 16 27 17 12 18 24 19 23 20 13 21 21 22 14 23
REMARK SMILES IDX 15 24 20 25 22 26 16 27 19 28 17 29 18 30
REMARK H PARENT 18 31
REMARK Flexibility Score: inf
ROOT
ATOM      1  C   UNL     1     162.327 178.314 180.736  1.00  0.00     0.012 C 
ATOM      2  C   UNL     1     162.522 179.163 182.005  1.00  0.00     0.012 C 
ENDROOT
BRANCH   1   3
ATOM      3  C   UNL     1     162.603 176.858 181.068  1.00  0.00    -0.028 C 
ATOM      4  C   UNL     1     161.644 175.915 181.031  1.00  0.00    -0.027 C 
BRANCH   4   5
ATOM      5  C   UNL     1     161.868 174.441 181.329  1.00  0.00     0.014 C 
BRANCH   5   6
ATOM      6  C   UNL     1     161.221 173.517 180.261  1.00  0.00     0.004 C 
ATOM      7  C   UNL     1     160.279 174.214 179.273  1.00  0.00     0.004 C 
ENDBRANCH   5   6
BRANCH   5   8
ATOM      8  C   UNL     1     163.325 174.061 181.775  1.00  0.00    -0.011 C 
ATOM      9  C   UNL     1     164.361 173.987 180.637  1.00  0.00     0.008 C 
ATOM     10  C   UNL     1     163.334 172.728 182.542  1.00  0.00     0.008 C 
ENDBRANCH   5   8
ENDBRANCH   4   5
ENDBRANCH   1   3
BRANCH   1  11
ATOM     11  C   UNL     1     163.196 178.797 179.527  1.00  0.00     0.002 C 
ATOM     12  C   UNL     1     164.511 178.022 179.437  1.00  0.00     0.005 C 
ATOM     13  C   UNL     1     162.577 178.775 178.082  1.00  0.00    -0.026 C 
ATOM     14  C   UNL     1     164.986 178.104 177.998  1.00  0.00     0.005 C 
ATOM     15  C   UNL     1     163.827 178.652 177.146  1.00  0.00    -0.001 C 
ATOM     16  C   UNL     1     161.566 177.609 177.820  1.00  0.00     0.007 C 
ATOM     17  C   UNL     1     161.857 180.124 177.808  1.00  0.00     0.012 C 
ATOM     18  C   UNL     1     163.633 177.808 175.844  1.00  0.00     0.000 C 
ATOM     19  C   UNL     1     162.249 176.295 177.437  1.00  0.00     0.005 C 
ATOM     20  C   UNL     1     162.984 176.399 176.074  1.00  0.00     0.003 C 
ATOM     21  C   UNL     1     162.912 178.592 174.752  1.00  0.00     0.031 C 
ATOM     22  C   UNL     1     162.191 175.785 174.820  1.00  0.00    -0.008 C 
ATOM     23  C   UNL     1     162.905 177.787 173.493  1.00  0.00    -0.027 C 
ATOM     24  C   UNL     1     162.563 176.483 173.505  1.00  0.00    -0.065 C 
ATOM     25  C   UNL     1     160.633 175.909 174.903  1.00  0.00     0.014 C 
ATOM     26  C   UNL     1     162.576 174.279 174.751  1.00  0.00     0.016 C 
ATOM     27  C   UNL     1     161.994 175.906 172.229  1.00  0.00     0.063 C 
ATOM     28  C   UNL     1     159.895 175.399 173.637  1.00  0.00     0.033 C 
ATOM     29  C   UNL     1     160.454 175.953 172.300  1.00  0.00     0.118 C 
BRANCH  29  30
ATOM     30  O   UNL     1     159.979 177.252 172.047  1.00  0.00    -0.393 OA
ATOM     31  H   UNL     1     159.056 177.319 172.402  1.00  0.00     0.210 HD
ENDBRANCH  29  30
ENDBRANCH   1  11
TORSDOF 6
ENDMDL
MODEL 3
REMARK VINA RESULT:    -6.760      4.340     10.262
REMARK INTER + INTRA:          -9.967
REMARK INTER:                  -8.775
REMARK INTRA:                  -1.192
REMARK UNBOUND:                -1.034
REMARK SMILES CC[C@H](C=C[C@@H](C)[C@H]1CC[C@H]2[C@@H]3CC=C4C[C@H](O)CC[C@]4(C)[C@@H]3CC[C@@]12C)C(C)C
REMARK SMILES IDX 6 1 7 2 5 3 4 4 3 5 2 6 1 7 28 8 29 9 30 10 8 11 9 12 26 13
REMARK SMILES IDX 10 14 11 15 25 16 27 17 12 18 24 19 23 20 13 21 21 22 14 23
REMARK SMILES IDX 15 24 20 25 22 26 16 27 19 28 17 29 18 30
REMARK H PARENT 18 31
REMARK Flexibility Score: inf
ROOT
ATOM      1  C   UNL     1     172.752 178.858 177.998  1.00  0.00     0.012 C 
ATOM      2  C   UNL     1     172.896 179.728 176.737  1.00  0.00     0.012 C 
ENDROOT
BRANCH   1   3
ATOM      3  C   UNL     1     171.474 179.244 178.722  1.00  0.00    -0.028 C 
ATOM      4  C   UNL     1     170.545 178.338 179.078  1.00  0.00    -0.027 C 
BRANCH   4   5
ATOM      5  C   UNL     1     169.261 178.663 179.824  1.00  0.00     0.014 C 
BRANCH   5   6
ATOM      6  C   UNL     1     167.993 178.315 178.998  1.00  0.00     0.004 C 
ATOM      7  C   UNL     1     166.658 178.669 179.662  1.00  0.00     0.004 C 
ENDBRANCH   5   6
BRANCH   5   8
ATOM      8  C   UNL     1     169.236 178.235 181.336  1.00  0.00    -0.011 C 
ATOM      9  C   UNL     1     170.245 178.968 182.241  1.00  0.00     0.008 C 
ATOM     10  C   UNL     1     169.450 176.719 181.480  1.00  0.00     0.008 C 
ENDBRANCH   5   8
ENDBRANCH   4   5
ENDBRANCH   1   3
BRANCH   1  11
ATOM     11  C   UNL     1     173.993 178.937 178.951  1.00  0.00     0.002 C 
ATOM     12  C   UNL     1     173.574 178.880 180.421  1.00  0.00     0.005 C 
ATOM     13  C   UNL     1     175.152 177.888 178.787  1.00  0.00    -0.026 C 
ATOM     14  C   UNL     1     174.768 178.375 181.211  1.00  0.00     0.005 C 
ATOM     15  C   UNL     1     175.803 177.831 180.210  1.00  0.00    -0.001 C 
ATOM     16  C   UNL     1     174.689 176.465 178.326  1.00  0.00     0.007 C 
ATOM     17  C   UNL     1     176.192 178.424 177.764  1.00  0.00     0.012 C 
ATOM     18  C   UNL     1     176.349 176.437 180.662  1.00  0.00     0.000 C 
ATOM     19  C   UNL     1     174.199 175.590 179.480  1.00  0.00     0.005 C 
ATOM     20  C   UNL     1     175.339 175.253 180.478  1.00  0.00     0.003 C 
ATOM     21  C   UNL     1     177.709 176.123 180.046  1.00  0.00     0.031 C 
ATOM     22  C   UNL     1     175.996 173.799 180.300  1.00  0.00    -0.008 C 
ATOM     23  C   UNL     1     178.240 174.860 180.643  1.00  0.00    -0.027 C 
ATOM     24  C   UNL     1     177.460 173.767 180.760  1.00  0.00    -0.065 C 
ATOM     25  C   UNL     1     176.037 173.272 178.826  1.00  0.00     0.014 C 
ATOM     26  C   UNL     1     175.146 172.822 181.163  1.00  0.00     0.016 C 
ATOM     27  C   UNL     1     178.152 172.424 180.778  1.00  0.00     0.063 C 
ATOM     28  C   UNL     1     176.765 171.911 178.666  1.00  0.00     0.033 C 
ATOM     29  C   UNL     1     178.156 171.842 179.350  1.00  0.00     0.118 C 
BRANCH  29  30
ATOM     30  O   UNL     1     179.144 172.457 178.560  1.00  0.00    -0.393 OA
ATOM     31  H   UNL     1     179.734 172.983 179.158  1.00  0.00     0.210 HD
ENDBRANCH  29  30
ENDBRANCH   1  11
TORSDOF 6
ENDMDL
MODEL 4
REMARK VINA RESULT:    -6.730      3.271      9.746
REMARK INTER + INTRA:          -9.928
REMARK INTER:                  -8.825
REMARK INTRA:                  -1.103
REMARK UNBOUND:                -1.034
REMARK SMILES CC[C@H](C=C[C@@H](C)[C@H]1CC[C@H]2[C@@H]3CC=C4C[C@H](O)CC[C@]4(C)[C@@H]3CC[C@@]12C)C(C)C
REMARK SMILES IDX 6 1 7 2 5 3 4 4 3 5 2 6 1 7 28 8 29 9 30 10 8 11 9 12 26 13
REMARK SMILES IDX 10 14 11 15 25 16 27 17 12 18 24 19 23 20 13 21 21 22 14 23
REMARK SMILES IDX 15 24 20 25 22 26 16 27 19 28 17 29 18 30
REMARK H PARENT 18 31
REMARK Flexibility Score: inf
ROOT
ATOM      1  C   UNL     1     168.764 177.090 180.317  1.00  0.00     0.012 C 
ATOM      2  C   UNL     1     168.166 175.700 180.035  1.00  0.00     0.012 C 
ENDROOT
BRANCH   1   3
ATOM      3  C   UNL     1     167.652 178.025 180.760  1.00  0.00    -0.028 C 
ATOM      4  C   UNL     1     166.376 177.868 180.365  1.00  0.00    -0.027 C 
BRANCH   4   5
ATOM      5  C   UNL     1     165.221 178.757 180.796  1.00  0.00     0.014 C 
BRANCH   5   6
ATOM      6  C   UNL     1     164.674 179.623 179.628  1.00  0.00     0.004 C 
ATOM      7  C   UNL     1     164.612 178.924 178.266  1.00  0.00     0.004 C 
ENDBRANCH   5   6
BRANCH   5   8
ATOM      8  C   UNL     1     164.141 178.063 181.702  1.00  0.00    -0.011 C 
ATOM      9  C   UNL     1     163.994 176.542 181.498  1.00  0.00     0.008 C 
ATOM     10  C   UNL     1     162.764 178.723 181.519  1.00  0.00     0.008 C 
ENDBRANCH   5   8
ENDBRANCH   4   5
ENDBRANCH   1   3
BRANCH   1  11
ATOM     11  C   UNL     1     169.556 177.683 179.103  1.00  0.00     0.002 C 
ATOM     12  C   UNL     1     169.590 179.211 179.148  1.00  0.00     0.005 C 
ATOM     13  C   UNL     1     171.039 177.221 178.858  1.00  0.00    -0.026 C 
ATOM     14  C   UNL     1     170.801 179.660 178.350  1.00  0.00     0.005 C 
ATOM     15  C   UNL     1     171.677 178.422 178.082  1.00  0.00    -0.001 C 
ATOM     16  C   UNL     1     171.849 176.901 180.159  1.00  0.00     0.007 C 
ATOM     17  C   UNL     1     171.043 175.959 177.951  1.00  0.00     0.012 C 
ATOM     18  C   UNL     1     173.182 178.718 178.386  1.00  0.00     0.000 C 
ATOM     19  C   UNL     1     172.453 178.146 180.811  1.00  0.00     0.005 C 
ATOM     20  C   UNL     1     173.530 178.809 179.912  1.00  0.00     0.003 C 
ATOM     21  C   UNL     1     174.117 177.766 177.647  1.00  0.00     0.031 C 
ATOM     22  C   UNL     1     175.050 178.467 180.300  1.00  0.00    -0.008 C 
ATOM     23  C   UNL     1     175.530 178.205 177.855  1.00  0.00    -0.027 C 
ATOM     24  C   UNL     1     175.983 178.525 179.083  1.00  0.00    -0.065 C 
ATOM     25  C   UNL     1     175.271 177.036 180.895  1.00  0.00     0.014 C 
ATOM     26  C   UNL     1     175.484 179.525 181.354  1.00  0.00     0.016 C 
ATOM     27  C   UNL     1     177.464 178.363 179.336  1.00  0.00     0.063 C 
ATOM     28  C   UNL     1     176.759 176.693 181.170  1.00  0.00     0.033 C 
ATOM     29  C   UNL     1     177.715 176.986 179.984  1.00  0.00     0.118 C 
BRANCH  29  30
ATOM     30  O   UNL     1     177.663 175.962 179.020  1.00  0.00    -0.393 OA
ATOM     31  H   UNL     1     177.355 175.132 179.467  1.00  0.00     0.210 HD
ENDBRANCH  29  30
ENDBRANCH   1  11
TORSDOF 6
ENDMDL
MODEL 5
REMARK VINA RESULT:    -6.730      3.188      9.645
REMARK INTER + INTRA:          -9.928
REMARK INTER:                  -8.951
REMARK INTRA:                  -0.978
REMARK UNBOUND:                -1.034
REMARK SMILES CC[C@H](C=C[C@@H](C)[C@H]1CC[C@H]2[C@@H]3CC=C4C[C@H](O)CC[C@]4(C)[C@@H]3CC[C@@]12C)C(C)C
REMARK SMILES IDX 6 1 7 2 5 3 4 4 3 5 2 6 1 7 28 8 29 9 30 10 8 11 9 12 26 13
REMARK SMILES IDX 10 14 11 15 25 16 27 17 12 18 24 19 23 20 13 21 21 22 14 23
REMARK SMILES IDX 15 24 20 25 22 26 16 27 19 28 17 29 18 30
REMARK H PARENT 18 31
REMARK Flexibility Score: inf
ROOT
ATOM      1  C   UNL     1     168.295 177.580 179.620  1.00  0.00     0.012 C 
ATOM      2  C   UNL     1     167.804 177.964 178.213  1.00  0.00     0.012 C 
ENDROOT
BRANCH   1   3
ATOM      3  C   UNL     1     167.091 177.374 180.524  1.00  0.00    -0.028 C 
ATOM      4  C   UNL     1     165.955 178.081 180.385  1.00  0.00    -0.027 C 
BRANCH   4   5
ATOM      5  C   UNL     1     164.713 177.901 181.243  1.00  0.00     0.014 C 
BRANCH   5   6
ATOM      6  C   UNL     1     163.980 179.243 181.512  1.00  0.00     0.004 C 
ATOM      7  C   UNL     1     162.471 179.131 181.753  1.00  0.00     0.004 C 
ENDBRANCH   5   6
BRANCH   5   8
ATOM      8  C   UNL     1     163.799 176.684 180.852  1.00  0.00    -0.011 C 
ATOM      9  C   UNL     1     164.107 175.369 181.594  1.00  0.00     0.008 C 
ATOM     10  C   UNL     1     163.850 176.423 179.337  1.00  0.00     0.008 C 
ENDBRANCH   5   8
ENDBRANCH   4   5
ENDBRANCH   1   3
BRANCH   1  11
ATOM     11  C   UNL     1     169.296 178.617 180.234  1.00  0.00     0.002 C 
ATOM     12  C   UNL     1     169.475 178.401 181.737  1.00  0.00     0.005 C 
ATOM     13  C   UNL     1     170.745 178.728 179.634  1.00  0.00    -0.026 C 
ATOM     14  C   UNL     1     170.820 178.991 182.121  1.00  0.00     0.005 C 
ATOM     15  C   UNL     1     171.596 179.285 180.824  1.00  0.00    -0.001 C 
ATOM     16  C   UNL     1     171.339 177.382 179.101  1.00  0.00     0.007 C 
ATOM     17  C   UNL     1     170.743 179.761 178.472  1.00  0.00     0.012 C 
ATOM     18  C   UNL     1     173.069 178.769 180.918  1.00  0.00     0.000 C 
ATOM     19  C   UNL     1     171.972 176.528 180.201  1.00  0.00     0.005 C 
ATOM     20  C   UNL     1     173.220 177.212 180.822  1.00  0.00     0.003 C 
ATOM     21  C   UNL     1     173.995 179.489 179.942  1.00  0.00     0.031 C 
ATOM     22  C   UNL     1     174.633 176.682 180.275  1.00  0.00    -0.008 C 
ATOM     23  C   UNL     1     175.404 179.065 180.197  1.00  0.00    -0.027 C 
ATOM     24  C   UNL     1     175.720 177.762 180.345  1.00  0.00    -0.065 C 
ATOM     25  C   UNL     1     174.630 176.225 178.778  1.00  0.00     0.014 C 
ATOM     26  C   UNL     1     175.027 175.473 181.172  1.00  0.00     0.016 C 
ATOM     27  C   UNL     1     177.131 177.351 179.993  1.00  0.00     0.063 C 
ATOM     28  C   UNL     1     176.027 175.811 178.245  1.00  0.00     0.033 C 
ATOM     29  C   UNL     1     177.156 176.832 178.541  1.00  0.00     0.118 C 
BRANCH  29  30
ATOM     30  O   UNL     1     177.130 177.901 177.627  1.00  0.00    -0.393 OA
ATOM     31  H   UNL     1     177.519 178.698 178.071  1.00  0.00     0.210 HD
ENDBRANCH  29  30
ENDBRANCH   1  11
TORSDOF 6
ENDMDL
MODEL 6
REMARK VINA RESULT:    -6.697      3.402      9.402
REMARK INTER + INTRA:          -9.884
REMARK INTER:                  -8.704
REMARK INTRA:                  -1.180
REMARK UNBOUND:                -1.034
REMARK SMILES CC[C@H](C=C[C@@H](C)[C@H]1CC[C@H]2[C@@H]3CC=C4C[C@H](O)CC[C@]4(C)[C@@H]3CC[C@@]12C)C(C)C
REMARK SMILES IDX 6 1 7 2 5 3 4 4 3 5 2 6 1 7 28 8 29 9 30 10 8 11 9 12 26 13
REMARK SMILES IDX 10 14 11 15 25 16 27 17 12 18 24 19 23 20 13 21 21 22 14 23
REMARK SMILES IDX 15 24 20 25 22 26 16 27 19 28 17 29 18 30
REMARK H PARENT 18 31
REMARK Flexibility Score: inf
ROOT
ATOM      1  C   UNL     1     161.504 175.376 177.972  1.00  0.00     0.012 C 
ATOM      2  C   UNL     1     160.693 175.771 176.725  1.00  0.00     0.012 C 
ENDROOT
BRANCH   1   3
ATOM      3  C   UNL     1     160.767 174.273 178.712  1.00  0.00    -0.028 C 
ATOM      4  C   UNL     1     161.383 173.156 179.141  1.00  0.00    -0.027 C 
BRANCH   4   5
ATOM      5  C   UNL     1     160.702 172.033 179.906  1.00  0.00     0.014 C 
BRANCH   5   6
ATOM      6  C   UNL     1     160.647 170.711 179.091  1.00  0.00     0.004 C 
ATOM      7  C   UNL     1     160.137 169.487 179.859  1.00  0.00     0.004 C 
ENDBRANCH   5   6
BRANCH   5   8
ATOM      8  C   UNL     1     161.124 171.895 181.413  1.00  0.00    -0.011 C 
ATOM      9  C   UNL     1     160.666 173.046 182.329  1.00  0.00     0.008 C 
ATOM     10  C   UNL     1     162.648 171.732 181.543  1.00  0.00     0.008 C 
ENDBRANCH   5   8
ENDBRANCH   4   5
ENDBRANCH   1   3
BRANCH   1  11
ATOM     11  C   UNL     1     161.816 176.585 178.917  1.00  0.00     0.002 C 
ATOM     12  C   UNL     1     161.746 176.178 180.390  1.00  0.00     0.005 C 
ATOM     13  C   UNL     1     163.172 177.362 178.744  1.00  0.00    -0.026 C 
ATOM     14  C   UNL     1     162.598 177.161 181.171  1.00  0.00     0.005 C 
ATOM     15  C   UNL     1     163.433 177.972 180.163  1.00  0.00    -0.001 C 
ATOM     16  C   UNL     1     164.379 176.478 178.284  1.00  0.00     0.007 C 
ATOM     17  C   UNL     1     162.980 178.511 177.715  1.00  0.00     0.012 C 
ATOM     18  C   UNL     1     164.929 178.061 180.609  1.00  0.00     0.000 C 
ATOM     19  C   UNL     1     165.064 175.748 179.440  1.00  0.00     0.005 C 
ATOM     20  C   UNL     1     165.741 176.733 180.429  1.00  0.00     0.003 C 
ATOM     21  C   UNL     1     165.646 179.254 179.984  1.00  0.00     0.031 C 
ATOM     22  C   UNL     1     167.327 176.907 180.245  1.00  0.00    -0.008 C 
ATOM     23  C   UNL     1     167.013 179.371 180.576  1.00  0.00    -0.027 C 
ATOM     24  C   UNL     1     167.811 178.291 180.695  1.00  0.00    -0.065 C 
ATOM     25  C   UNL     1     167.835 176.774 178.770  1.00  0.00     0.014 C 
ATOM     26  C   UNL     1     167.995 175.801 181.111  1.00  0.00     0.016 C 
ATOM     27  C   UNL     1     169.303 178.534 180.707  1.00  0.00     0.063 C 
ATOM     28  C   UNL     1     169.354 177.044 178.603  1.00  0.00     0.033 C 
ATOM     29  C   UNL     1     169.853 178.349 179.278  1.00  0.00     0.118 C 
BRANCH  29  30
ATOM     30  O   UNL     1     169.572 179.474 178.483  1.00  0.00    -0.393 OA
ATOM     31  H   UNL     1     169.094 180.138 179.043  1.00  0.00     0.210 HD
ENDBRANCH  29  30
ENDBRANCH   1  11
TORSDOF 6
ENDMDL
MODEL 7
REMARK VINA RESULT:    -6.591      7.401     11.021
REMARK INTER + INTRA:          -9.744
REMARK INTER:                  -8.752
REMARK INTRA:                  -0.992
REMARK UNBOUND:                -1.034
REMARK SMILES CC[C@H](C=C[C@@H](C)[C@H]1CC[C@H]2[C@@H]3CC=C4C[C@H](O)CC[C@]4(C)[C@@H]3CC[C@@]12C)C(C)C
REMARK SMILES IDX 6 1 7 2 5 3 4 4 3 5 2 6 1 7 28 8 29 9 30 10 8 11 9 12 26 13
REMARK SMILES IDX 10 14 11 15 25 16 27 17 12 18 24 19 23 20 13 21 21 22 14 23
REMARK SMILES IDX 15 24 20 25 22 26 16 27 19 28 17 29 18 30
REMARK H PARENT 18 31
REMARK Flexibility Score: inf
ROOT
ATOM      1  C   UNL     1     163.165 176.579 175.492  1.00  0.00     0.012 C 
ATOM      2  C   UNL     1     164.319 175.684 175.975  1.00  0.00     0.012 C 
ENDROOT
BRANCH   1   3
ATOM      3  C   UNL     1     162.474 177.189 176.700  1.00  0.00    -0.028 C 
ATOM      4  C   UNL     1     162.933 177.022 177.954  1.00  0.00    -0.027 C 
BRANCH   4   5
ATOM      5  C   UNL     1     162.298 177.627 179.195  1.00  0.00     0.014 C 
BRANCH   5   6
ATOM      6  C   UNL     1     162.404 176.691 180.430  1.00  0.00     0.004 C 
ATOM      7  C   UNL     1     161.075 176.130 180.946  1.00  0.00     0.004 C 
ENDBRANCH   5   6
BRANCH   5   8
ATOM      8  C   UNL     1     162.632 179.141 179.449  1.00  0.00    -0.011 C 
ATOM      9  C   UNL     1     162.647 179.569 180.929  1.00  0.00     0.008 C 
ATOM     10  C   UNL     1     161.663 180.054 178.678  1.00  0.00     0.008 C 
ENDBRANCH   5   8
ENDBRANCH   4   5
ENDBRANCH   1   3
BRANCH   1  11
ATOM     11  C   UNL     1     162.143 175.832 174.570  1.00  0.00     0.002 C 
ATOM     12  C   UNL     1     160.703 176.240 174.883  1.00  0.00     0.005 C 
ATOM     13  C   UNL     1     162.298 175.944 173.009  1.00  0.00    -0.026 C 
ATOM     14  C   UNL     1     159.876 175.970 173.639  1.00  0.00     0.005 C 
ATOM     15  C   UNL     1     160.847 175.697 172.475  1.00  0.00    -0.001 C 
ATOM     16  C   UNL     1     162.856 177.316 172.502  1.00  0.00     0.007 C 
ATOM     17  C   UNL     1     163.235 174.812 172.502  1.00  0.00     0.012 C 
ATOM     18  C   UNL     1     160.437 176.499 171.197  1.00  0.00     0.000 C 
ATOM     19  C   UNL     1     161.776 178.390 172.368  1.00  0.00     0.005 C 
ATOM     20  C   UNL     1     160.737 178.036 171.271  1.00  0.00     0.003 C 
ATOM     21  C   UNL     1     160.995 175.875 169.921  1.00  0.00     0.031 C 
ATOM     22  C   UNL     1     160.953 178.772 169.861  1.00  0.00    -0.008 C 
ATOM     23  C   UNL     1     160.435 176.594 168.737  1.00  0.00    -0.027 C 
ATOM     24  C   UNL     1     160.417 177.940 168.688  1.00  0.00    -0.065 C 
ATOM     25  C   UNL     1     162.447 179.056 169.490  1.00  0.00     0.014 C 
ATOM     26  C   UNL     1     160.188 180.124 169.947  1.00  0.00     0.016 C 
ATOM     27  C   UNL     1     160.430 178.582 167.320  1.00  0.00     0.063 C 
ATOM     28  C   UNL     1     162.637 179.677 168.080  1.00  0.00     0.033 C 
ATOM     29  C   UNL     1     161.884 178.935 166.945  1.00  0.00     0.118 C 
BRANCH  29  30
ATOM     30  O   UNL     1     162.587 177.790 166.529  1.00  0.00    -0.393 OA
ATOM     31  H   UNL     1     163.400 177.705 167.090  1.00  0.00     0.210 HD
ENDBRANCH  29  30
ENDBRANCH   1  11
TORSDOF 6
ENDMDL
MODEL 8
REMARK VINA RESULT:    -6.522      3.786      9.444
REMARK INTER + INTRA:          -9.653
REMARK INTER:                  -8.047
REMARK INTRA:                  -1.606
REMARK UNBOUND:                -1.034
REMARK SMILES CC[C@H](C=C[C@@H](C)[C@H]1CC[C@H]2[C@@H]3CC=C4C[C@H](O)CC[C@]4(C)[C@@H]3CC[C@@]12C)C(C)C
REMARK SMILES IDX 6 1 7 2 5 3 4 4 3 5 2 6 1 7 28 8 29 9 30 10 8 11 9 12 26 13
REMARK SMILES IDX 10 14 11 15 25 16 27 17 12 18 24 19 23 20 13 21 21 22 14 23
REMARK SMILES IDX 15 24 20 25 22 26 16 27 19 28 17 29 18 30
REMARK H PARENT 18 31
REMARK Flexibility Score: inf
ROOT
ATOM      1  C   UNL     1     170.672 176.815 175.323  1.00  0.00     0.012 C 
ATOM      2  C   UNL     1     170.100 176.306 173.988  1.00  0.00     0.012 C 
ENDROOT
BRANCH   1   3
ATOM      3  C   UNL     1     169.538 177.376 176.165  1.00  0.00    -0.028 C 
ATOM      4  C   UNL     1     169.306 176.967 177.426  1.00  0.00    -0.027 C 
BRANCH   4   5
ATOM      5  C   UNL     1     168.204 177.510 178.321  1.00  0.00     0.014 C 
BRANCH   5   6
ATOM      6  C   UNL     1     166.787 177.242 177.743  1.00  0.00     0.004 C 
ATOM      7  C   UNL     1     165.703 178.237 178.173  1.00  0.00     0.004 C 
ENDBRANCH   5   6
BRANCH   5   8
ATOM      8  C   UNL     1     168.385 177.225 179.856  1.00  0.00    -0.011 C 
ATOM      9  C   UNL     1     168.415 178.476 180.755  1.00  0.00     0.008 C 
ATOM     10  C   UNL     1     169.655 176.397 180.114  1.00  0.00     0.008 C 
ENDBRANCH   5   8
ENDBRANCH   4   5
ENDBRANCH   1   3
BRANCH   1  11
ATOM     11  C   UNL     1     171.822 177.864 175.146  1.00  0.00     0.002 C 
ATOM     12  C   UNL     1     171.335 179.284 175.437  1.00  0.00     0.005 C 
ATOM     13  C   UNL     1     173.153 177.684 175.963  1.00  0.00    -0.026 C 
ATOM     14  C   UNL     1     172.550 180.108 175.821  1.00  0.00     0.005 C 
ATOM     15  C   UNL     1     173.720 179.139 176.070  1.00  0.00    -0.001 C 
ATOM     16  C   UNL     1     172.971 177.048 177.382  1.00  0.00     0.007 C 
ATOM     17  C   UNL     1     174.142 176.802 175.150  1.00  0.00     0.012 C 
ATOM     18  C   UNL     1     174.473 179.490 177.396  1.00  0.00     0.000 C 
ATOM     19  C   UNL     1     172.574 178.068 178.451  1.00  0.00     0.005 C 
ATOM     20  C   UNL     1     173.696 179.110 178.703  1.00  0.00     0.003 C 
ATOM     21  C   UNL     1     175.900 178.951 177.408  1.00  0.00     0.031 C 
ATOM     22  C   UNL     1     174.605 178.838 179.998  1.00  0.00    -0.008 C 
ATOM     23  C   UNL     1     176.606 179.457 178.624  1.00  0.00    -0.027 C 
ATOM     24  C   UNL     1     176.022 179.403 179.837  1.00  0.00    -0.065 C 
ATOM     25  C   UNL     1     174.822 177.327 180.343  1.00  0.00     0.014 C 
ATOM     26  C   UNL     1     173.888 179.531 181.193  1.00  0.00     0.016 C 
ATOM     27  C   UNL     1     176.935 179.340 181.040  1.00  0.00     0.063 C 
ATOM     28  C   UNL     1     175.783 177.087 181.537  1.00  0.00     0.033 C 
ATOM     29  C   UNL     1     177.123 177.864 181.450  1.00  0.00     0.118 C 
BRANCH  29  30
ATOM     30  O   UNL     1     178.033 177.218 180.595  1.00  0.00    -0.393 OA
ATOM     31  H   UNL     1     178.409 176.437 181.076  1.00  0.00     0.210 HD
ENDBRANCH  29  30
ENDBRANCH   1  11
TORSDOF 6
ENDMDL
MODEL 9
REMARK VINA RESULT:    -6.506      6.293      9.748
REMARK INTER + INTRA:          -9.633
REMARK INTER:                  -8.003
REMARK INTRA:                  -1.629
REMARK UNBOUND:                -1.034
REMARK SMILES CC[C@H](C=C[C@@H](C)[C@H]1CC[C@H]2[C@@H]3CC=C4C[C@H](O)CC[C@]4(C)[C@@H]3CC[C@@]12C)C(C)C
REMARK SMILES IDX 6 1 7 2 5 3 4 4 3 5 2 6 1 7 28 8 29 9 30 10 8 11 9 12 26 13
REMARK SMILES IDX 10 14 11 15 25 16 27 17 12 18 24 19 23 20 13 21 21 22 14 23
REMARK SMILES IDX 15 24 20 25 22 26 16 27 19 28 17 29 18 30
REMARK H PARENT 18 31
REMARK Flexibility Score: inf
ROOT
ATOM      1  C   UNL     1     162.739 173.056 175.116  1.00  0.00     0.012 C 
ATOM      2  C   UNL     1     163.017 172.406 173.749  1.00  0.00     0.012 C 
ENDROOT
BRANCH   1   3
ATOM      3  C   UNL     1     161.846 172.135 175.929  1.00  0.00    -0.028 C 
ATOM      4  C   UNL     1     162.230 171.615 177.109  1.00  0.00    -0.027 C 
BRANCH   4   5
ATOM      5  C   UNL     1     161.370 170.708 177.975  1.00  0.00     0.014 C 
BRANCH   5   6
ATOM      6  C   UNL     1     162.013 169.310 178.186  1.00  0.00     0.004 C 
ATOM      7  C   UNL     1     161.386 168.170 177.376  1.00  0.00     0.004 C 
ENDBRANCH   5   6
BRANCH   5   8
ATOM      8  C   UNL     1     160.760 171.385 179.255  1.00  0.00    -0.011 C 
ATOM      9  C   UNL     1     161.788 171.999 180.225  1.00  0.00     0.008 C 
ATOM     10  C   UNL     1     159.876 170.394 180.031  1.00  0.00     0.008 C 
ENDBRANCH   5   8
ENDBRANCH   4   5
ENDBRANCH   1   3
BRANCH   1  11
ATOM     11  C   UNL     1     162.125 174.493 175.007  1.00  0.00     0.002 C 
ATOM     12  C   UNL     1     160.629 174.489 175.325  1.00  0.00     0.005 C 
ATOM     13  C   UNL     1     162.748 175.658 175.859  1.00  0.00    -0.026 C 
ATOM     14  C   UNL     1     160.259 175.891 175.772  1.00  0.00     0.005 C 
ATOM     15  C   UNL     1     161.563 176.667 176.028  1.00  0.00    -0.001 C 
ATOM     16  C   UNL     1     163.315 175.221 177.251  1.00  0.00     0.007 C 
ATOM     17  C   UNL     1     163.892 176.333 175.051  1.00  0.00     0.012 C 
ATOM     18  C   UNL     1     161.505 177.440 177.386  1.00  0.00     0.000 C 
ATOM     19  C   UNL     1     162.241 175.140 178.337  1.00  0.00     0.005 C 
ATOM     20  C   UNL     1     161.631 176.530 178.656  1.00  0.00     0.003 C 
ATOM     21  C   UNL     1     162.484 178.609 177.427  1.00  0.00     0.031 C 
ATOM     22  C   UNL     1     162.211 177.247 179.971  1.00  0.00    -0.008 C 
ATOM     23  C   UNL     1     162.261 179.394 178.679  1.00  0.00    -0.027 C 
ATOM     24  C   UNL     1     162.142 178.777 179.871  1.00  0.00    -0.065 C 
ATOM     25  C   UNL     1     163.716 176.942 180.276  1.00  0.00     0.014 C 
ATOM     26  C   UNL     1     161.343 176.752 181.163  1.00  0.00     0.016 C 
ATOM     27  C   UNL     1     162.525 179.570 181.099  1.00  0.00     0.063 C 
ATOM     28  C   UNL     1     164.281 177.723 181.492  1.00  0.00     0.033 C 
ATOM     29  C   UNL     1     163.987 179.246 181.470  1.00  0.00     0.118 C 
BRANCH  29  30
ATOM     30  O   UNL     1     164.881 179.927 180.625  1.00  0.00    -0.393 OA
ATOM     31  H   UNL     1     164.393 180.186 179.802  1.00  0.00     0.210 HD
ENDBRANCH  29  30
ENDBRANCH   1  11
TORSDOF 6
ENDMDL
