MODEL 1
REMARK VINA RESULT:    20.139      0.000      0.000
REMARK INTER + INTRA:          49.050
REMARK INTER:                  50.749
REMARK INTRA:                  -1.699
REMARK UNBOUND:                -1.699
REMARK SMILES CCCCCCCCCCCCCCCCCCCCCCCCCCCC(=O)[O-]
REMARK SMILES IDX 15 1 16 2 17 3 18 4 19 5 20 6 21 7 22 8 23 9 24 10 25 11
REMARK SMILES IDX 26 12 27 13 28 14 29 15 30 16 14 17 13 18 12 19 11 20 10 21
REMARK SMILES IDX 9 22 8 23 7 24 6 25 5 26 4 27 3 28 2 29 1 30
REMARK H PARENT
REMARK Flexibility Score: inf
ROOT
ATOM      1  C   UNL     1     -33.386  11.638  19.025  1.00  0.00     0.000 C 
ENDROOT
BRANCH   1   2
ATOM      2  C   UNL     1     -33.672  12.153  20.451  1.00  0.00     0.000 C 
BRANCH   2   3
ATOM      3  C   UNL     1     -34.047  11.060  21.473  1.00  0.00     0.000 C 
BRANCH   3   4
ATOM      4  C   UNL     1     -34.303   9.678  20.851  1.00  0.00     0.000 C 
BRANCH   4   5
ATOM      5  C   UNL     1     -33.381   8.595  21.428  1.00  0.00     0.000 C 
BRANCH   5   6
ATOM      6  C   UNL     1     -33.931   8.084  22.763  1.00  0.00     0.000 C 
BRANCH   6   7
ATOM      7  C   UNL     1     -34.242   6.585  22.703  1.00  0.00     0.000 C 
BRANCH   7   8
ATOM      8  C   UNL     1     -35.283   6.207  23.768  1.00  0.00     0.000 C 
BRANCH   8   9
ATOM      9  C   UNL     1     -34.858   6.642  25.184  1.00  0.00     0.000 C 
BRANCH   9  10
ATOM     10  C   UNL     1     -33.389   6.326  25.524  1.00  0.00     0.000 C 
BRANCH  10  11
ATOM     11  C   UNL     1     -32.935   6.988  26.840  1.00  0.00     0.000 C 
BRANCH  11  12
ATOM     12  C   UNL     1     -33.634   8.336  27.110  1.00  0.00     0.006 C 
BRANCH  12  13
ATOM     13  C   UNL     1     -33.216   9.472  26.162  1.00  0.00     0.053 C 
BRANCH  13  14
ATOM     14  C   UNL     1     -34.391  10.270  25.677  1.00  0.00     0.041 C 
ATOM     15  O   UNL     1     -35.561   9.938  26.007  1.00  0.00    -0.550 OA
ATOM     16  O   UNL     1     -34.189  11.420  24.923  1.00  0.00    -0.550 OA
ENDBRANCH  13  14
ENDBRANCH  12  13
ENDBRANCH  11  12
ENDBRANCH  10  11
ENDBRANCH   9  10
ENDBRANCH   8   9
ENDBRANCH   7   8
ENDBRANCH   6   7
ENDBRANCH   5   6
ENDBRANCH   4   5
ENDBRANCH   3   4
ENDBRANCH   2   3
ENDBRANCH   1   2
BRANCH   1  17
ATOM     17  C   UNL     1     -32.259  12.408  18.303  1.00  0.00     0.000 C 
BRANCH  17  18
ATOM     18  C   UNL     1     -32.617  12.741  16.834  1.00  0.00     0.000 C 
BRANCH  18  19
ATOM     19  C   UNL     1     -34.099  13.104  16.654  1.00  0.00     0.000 C 
BRANCH  19  20
ATOM     20  C   UNL     1     -34.515  14.355  17.451  1.00  0.00     0.000 C 
BRANCH  20  21
ATOM     21  C   UNL     1     -34.917  15.518  16.522  1.00  0.00     0.000 C 
BRANCH  21  22
ATOM     22  C   UNL     1     -34.914  16.874  17.253  1.00  0.00    -0.000 C 
BRANCH  22  23
ATOM     23  C   UNL     1     -35.808  16.880  18.505  1.00  0.00    -0.000 C 
BRANCH  23  24
ATOM     24  C   UNL     1     -37.295  17.092  18.166  1.00  0.00    -0.000 C 
BRANCH  24  25
ATOM     25  C   UNL     1     -38.123  15.803  18.334  1.00  0.00    -0.000 C 
BRANCH  25  26
ATOM     26  C   UNL     1     -39.647  16.008  18.190  1.00  0.00    -0.000 C 
BRANCH  26  27
ATOM     27  C   UNL     1     -40.455  14.888  18.864  1.00  0.00    -0.000 C 
BRANCH  27  28
ATOM     28  C   UNL     1     -39.545  13.712  19.248  1.00  0.00    -0.000 C 
BRANCH  28  29
ATOM     29  C   UNL     1     -40.375  12.469  19.589  1.00  0.00    -0.003 C 
ATOM     30  C   UNL     1     -39.921  11.262  18.779  1.00  0.00     0.004 C 
ENDBRANCH  28  29
ENDBRANCH  27  28
ENDBRANCH  26  27
ENDBRANCH  25  26
ENDBRANCH  24  25
ENDBRANCH  23  24
ENDBRANCH  22  23
ENDBRANCH  21  22
ENDBRANCH  20  21
ENDBRANCH  19  20
ENDBRANCH  18  19
ENDBRANCH  17  18
ENDBRANCH   1  17
TORSDOF 26
ENDMDL
MODEL 2
REMARK VINA RESULT:    20.564      1.705      3.328
REMARK INTER + INTRA:          50.122
REMARK INTER:                  51.297
REMARK INTRA:                  -1.175
REMARK UNBOUND:                -1.699
REMARK SMILES CCCCCCCCCCCCCCCCCCCCCCCCCCCC(=O)[O-]
REMARK SMILES IDX 15 1 16 2 17 3 18 4 19 5 20 6 21 7 22 8 23 9 24 10 25 11
REMARK SMILES IDX 26 12 27 13 28 14 29 15 30 16 14 17 13 18 12 19 11 20 10 21
REMARK SMILES IDX 9 22 8 23 7 24 6 25 5 26 4 27 3 28 2 29 1 30
REMARK H PARENT
REMARK Flexibility Score: inf
ROOT
ATOM      1  C   UNL     1     -32.269  12.656  17.027  1.00  0.00     0.000 C 
ENDROOT
BRANCH   1   2
ATOM      2  C   UNL     1     -31.601  12.309  18.375  1.00  0.00     0.000 C 
BRANCH   2   3
ATOM      3  C   UNL     1     -32.579  12.079  19.544  1.00  0.00     0.000 C 
BRANCH   3   4
ATOM      4  C   UNL     1     -33.304  10.724  19.502  1.00  0.00     0.000 C 
BRANCH   4   5
ATOM      5  C   UNL     1     -34.285  10.547  20.668  1.00  0.00     0.000 C 
BRANCH   5   6
ATOM      6  C   UNL     1     -33.622  10.950  21.988  1.00  0.00     0.000 C 
BRANCH   6   7
ATOM      7  C   UNL     1     -34.531  11.867  22.814  1.00  0.00     0.000 C 
BRANCH   7   8
ATOM      8  C   UNL     1     -34.104  11.859  24.291  1.00  0.00     0.000 C 
BRANCH   8   9
ATOM      9  C   UNL     1     -34.677  10.654  25.061  1.00  0.00     0.000 C 
BRANCH   9  10
ATOM     10  C   UNL     1     -33.670   9.977  26.009  1.00  0.00     0.000 C 
BRANCH  10  11
ATOM     11  C   UNL     1     -34.079   8.535  26.371  1.00  0.00     0.000 C 
BRANCH  11  12
ATOM     12  C   UNL     1     -35.142   7.953  25.416  1.00  0.00     0.006 C 
BRANCH  12  13
ATOM     13  C   UNL     1     -34.744   6.623  24.754  1.00  0.00     0.053 C 
BRANCH  13  14
ATOM     14  C   UNL     1     -34.634   6.741  23.262  1.00  0.00     0.041 C 
ATOM     15  O   UNL     1     -34.025   7.718  22.747  1.00  0.00    -0.550 OA
ATOM     16  O   UNL     1     -35.139   5.738  22.444  1.00  0.00    -0.550 OA
ENDBRANCH  13  14
ENDBRANCH  12  13
ENDBRANCH  11  12
ENDBRANCH  10  11
ENDBRANCH   9  10
ENDBRANCH   8   9
ENDBRANCH   7   8
ENDBRANCH   6   7
ENDBRANCH   5   6
ENDBRANCH   4   5
ENDBRANCH   3   4
ENDBRANCH   2   3
ENDBRANCH   1   2
BRANCH   1  17
ATOM     17  C   UNL     1     -33.651  11.997  16.834  1.00  0.00     0.000 C 
BRANCH  17  18
ATOM     18  C   UNL     1     -34.798  13.036  16.772  1.00  0.00     0.000 C 
BRANCH  18  19
ATOM     19  C   UNL     1     -34.394  14.398  17.358  1.00  0.00     0.000 C 
BRANCH  19  20
ATOM     20  C   UNL     1     -34.996  15.589  16.587  1.00  0.00     0.000 C 
BRANCH  20  21
ATOM     21  C   UNL     1     -34.491  16.938  17.135  1.00  0.00     0.000 C 
BRANCH  21  22
ATOM     22  C   UNL     1     -35.164  17.313  18.469  1.00  0.00    -0.000 C 
BRANCH  22  23
ATOM     23  C   UNL     1     -36.575  17.898  18.283  1.00  0.00    -0.000 C 
BRANCH  23  24
ATOM     24  C   UNL     1     -37.615  16.822  17.920  1.00  0.00    -0.000 C 
BRANCH  24  25
ATOM     25  C   UNL     1     -37.596  15.636  18.905  1.00  0.00    -0.000 C 
BRANCH  25  26
ATOM     26  C   UNL     1     -38.898  14.804  18.916  1.00  0.00    -0.000 C 
BRANCH  26  27
ATOM     27  C   UNL     1     -40.122  15.639  19.322  1.00  0.00    -0.000 C 
BRANCH  27  28
ATOM     28  C   UNL     1     -41.125  15.739  18.163  1.00  0.00    -0.000 C 
BRANCH  28  29
ATOM     29  C   UNL     1     -40.509  16.483  16.971  1.00  0.00    -0.003 C 
ATOM     30  C   UNL     1     -41.113  17.873  16.816  1.00  0.00     0.004 C 
ENDBRANCH  28  29
ENDBRANCH  27  28
ENDBRANCH  26  27
ENDBRANCH  25  26
ENDBRANCH  24  25
ENDBRANCH  23  24
ENDBRANCH  22  23
ENDBRANCH  21  22
ENDBRANCH  20  21
ENDBRANCH  19  20
ENDBRANCH  18  19
ENDBRANCH  17  18
ENDBRANCH   1  17
TORSDOF 26
ENDMDL
MODEL 3
REMARK VINA RESULT:    20.683      1.648      2.841
REMARK INTER + INTRA:          50.420
REMARK INTER:                  51.456
REMARK INTRA:                  -1.036
REMARK UNBOUND:                -1.699
REMARK SMILES CCCCCCCCCCCCCCCCCCCCCCCCCCCC(=O)[O-]
REMARK SMILES IDX 15 1 16 2 17 3 18 4 19 5 20 6 21 7 22 8 23 9 24 10 25 11
REMARK SMILES IDX 26 12 27 13 28 14 29 15 30 16 14 17 13 18 12 19 11 20 10 21
REMARK SMILES IDX 9 22 8 23 7 24 6 25 5 26 4 27 3 28 2 29 1 30
REMARK H PARENT
REMARK Flexibility Score: inf
ROOT
ATOM      1  C   UNL     1     -32.116  12.032  18.263  1.00  0.00     0.000 C 
ENDROOT
BRANCH   1   2
ATOM      2  C   UNL     1     -33.237  11.958  19.321  1.00  0.00     0.000 C 
BRANCH   2   3
ATOM      3  C   UNL     1     -33.368  10.598  20.036  1.00  0.00     0.000 C 
BRANCH   3   4
ATOM      4  C   UNL     1     -34.136  10.657  21.366  1.00  0.00     0.000 C 
BRANCH   4   5
ATOM      5  C   UNL     1     -34.345  12.095  21.859  1.00  0.00     0.000 C 
BRANCH   5   6
ATOM      6  C   UNL     1     -34.739  12.099  23.339  1.00  0.00     0.000 C 
BRANCH   6   7
ATOM      7  C   UNL     1     -33.937  11.064  24.134  1.00  0.00     0.000 C 
BRANCH   7   8
ATOM      8  C   UNL     1     -34.257  11.171  25.634  1.00  0.00     0.000 C 
BRANCH   8   9
ATOM      9  C   UNL     1     -33.395  10.221  26.487  1.00  0.00     0.000 C 
BRANCH   9  10
ATOM     10  C   UNL     1     -33.562   8.731  26.132  1.00  0.00     0.000 C 
BRANCH  10  11
ATOM     11  C   UNL     1     -34.990   8.218  26.404  1.00  0.00     0.000 C 
BRANCH  11  12
ATOM     12  C   UNL     1     -35.563   7.385  25.238  1.00  0.00     0.006 C 
BRANCH  12  13
ATOM     13  C   UNL     1     -34.531   6.499  24.521  1.00  0.00     0.053 C 
BRANCH  13  14
ATOM     14  C   UNL     1     -34.627   6.609  23.027  1.00  0.00     0.041 C 
ATOM     15  O   UNL     1     -33.868   7.397  22.400  1.00  0.00    -0.550 OA
ATOM     16  O   UNL     1     -35.502   5.791  22.323  1.00  0.00    -0.550 OA
ENDBRANCH  13  14
ENDBRANCH  12  13
ENDBRANCH  11  12
ENDBRANCH  10  11
ENDBRANCH   9  10
ENDBRANCH   8   9
ENDBRANCH   7   8
ENDBRANCH   6   7
ENDBRANCH   5   6
ENDBRANCH   4   5
ENDBRANCH   3   4
ENDBRANCH   2   3
ENDBRANCH   1   2
BRANCH   1  17
ATOM     17  C   UNL     1     -32.524  12.790  16.981  1.00  0.00     0.000 C 
BRANCH  17  18
ATOM     18  C   UNL     1     -34.055  12.999  16.880  1.00  0.00     0.000 C 
BRANCH  18  19
ATOM     19  C   UNL     1     -34.441  14.480  16.742  1.00  0.00     0.000 C 
BRANCH  19  20
ATOM     20  C   UNL     1     -35.262  15.003  17.937  1.00  0.00     0.000 C 
BRANCH  20  21
ATOM     21  C   UNL     1     -34.616  16.250  18.572  1.00  0.00     0.000 C 
BRANCH  21  22
ATOM     22  C   UNL     1     -35.156  17.559  17.964  1.00  0.00    -0.000 C 
BRANCH  22  23
ATOM     23  C   UNL     1     -36.668  17.739  18.182  1.00  0.00    -0.000 C 
BRANCH  23  24
ATOM     24  C   UNL     1     -37.429  16.401  18.166  1.00  0.00    -0.000 C 
BRANCH  24  25
ATOM     25  C   UNL     1     -38.866  16.553  17.629  1.00  0.00    -0.000 C 
BRANCH  25  26
ATOM     26  C   UNL     1     -39.952  15.965  18.558  1.00  0.00    -0.000 C 
BRANCH  26  27
ATOM     27  C   UNL     1     -39.380  14.953  19.561  1.00  0.00    -0.000 C 
BRANCH  27  28
ATOM     28  C   UNL     1     -39.239  13.565  18.919  1.00  0.00    -0.000 C 
BRANCH  28  29
ATOM     29  C   UNL     1     -40.450  12.684  19.250  1.00  0.00    -0.003 C 
ATOM     30  C   UNL     1     -40.098  11.205  19.165  1.00  0.00     0.004 C 
ENDBRANCH  28  29
ENDBRANCH  27  28
ENDBRANCH  26  27
ENDBRANCH  25  26
ENDBRANCH  24  25
ENDBRANCH  23  24
ENDBRANCH  22  23
ENDBRANCH  21  22
ENDBRANCH  20  21
ENDBRANCH  19  20
ENDBRANCH  18  19
ENDBRANCH  17  18
ENDBRANCH   1  17
TORSDOF 26
ENDMDL
MODEL 4
REMARK VINA RESULT:    20.733      1.773      3.143
REMARK INTER + INTRA:          50.547
REMARK INTER:                  51.394
REMARK INTRA:                  -0.847
REMARK UNBOUND:                -1.699
REMARK SMILES CCCCCCCCCCCCCCCCCCCCCCCCCCCC(=O)[O-]
REMARK SMILES IDX 15 1 16 2 17 3 18 4 19 5 20 6 21 7 22 8 23 9 24 10 25 11
REMARK SMILES IDX 26 12 27 13 28 14 29 15 30 16 14 17 13 18 12 19 11 20 10 21
REMARK SMILES IDX 9 22 8 23 7 24 6 25 5 26 4 27 3 28 2 29 1 30
REMARK H PARENT
REMARK Flexibility Score: inf
ROOT
ATOM      1  C   UNL     1     -32.979  12.187  19.506  1.00  0.00     0.000 C 
ENDROOT
BRANCH   1   2
ATOM      2  C   UNL     1     -33.470  10.791  19.944  1.00  0.00     0.000 C 
BRANCH   2   3
ATOM      3  C   UNL     1     -34.010  10.716  21.387  1.00  0.00     0.000 C 
BRANCH   3   4
ATOM      4  C   UNL     1     -34.385  12.080  21.990  1.00  0.00     0.000 C 
BRANCH   4   5
ATOM      5  C   UNL     1     -34.700  11.991  23.490  1.00  0.00     0.000 C 
BRANCH   5   6
ATOM      6  C   UNL     1     -33.969  10.801  24.117  1.00  0.00     0.000 C 
BRANCH   6   7
ATOM      7  C   UNL     1     -34.188  10.745  25.633  1.00  0.00     0.000 C 
BRANCH   7   8
ATOM      8  C   UNL     1     -32.861  10.474  26.360  1.00  0.00     0.000 C 
BRANCH   8   9
ATOM      9  C   UNL     1     -33.008   9.423  27.476  1.00  0.00     0.000 C 
BRANCH   9  10
ATOM     10  C   UNL     1     -33.209   7.985  26.963  1.00  0.00     0.000 C 
BRANCH  10  11
ATOM     11  C   UNL     1     -34.232   7.908  25.813  1.00  0.00     0.000 C 
BRANCH  11  12
ATOM     12  C   UNL     1     -34.356   6.494  25.209  1.00  0.00     0.006 C 
BRANCH  12  13
ATOM     13  C   UNL     1     -35.409   6.365  24.097  1.00  0.00     0.053 C 
BRANCH  13  14
ATOM     14  C   UNL     1     -34.796   6.394  22.727  1.00  0.00     0.041 C 
ATOM     15  O   UNL     1     -35.078   5.496  21.888  1.00  0.00    -0.550 OA
ATOM     16  O   UNL     1     -33.974   7.450  22.353  1.00  0.00    -0.550 OA
ENDBRANCH  13  14
ENDBRANCH  12  13
ENDBRANCH  11  12
ENDBRANCH  10  11
ENDBRANCH   9  10
ENDBRANCH   8   9
ENDBRANCH   7   8
ENDBRANCH   6   7
ENDBRANCH   5   6
ENDBRANCH   4   5
ENDBRANCH   3   4
ENDBRANCH   2   3
ENDBRANCH   1   2
BRANCH   1  17
ATOM     17  C   UNL     1     -32.674  12.290  17.996  1.00  0.00     0.000 C 
BRANCH  17  18
ATOM     18  C   UNL     1     -33.801  11.684  17.123  1.00  0.00     0.000 C 
BRANCH  18  19
ATOM     19  C   UNL     1     -34.746  12.753  16.554  1.00  0.00     0.000 C 
BRANCH  19  20
ATOM     20  C   UNL     1     -34.523  14.147  17.170  1.00  0.00     0.000 C 
BRANCH  20  21
ATOM     21  C   UNL     1     -34.209  15.205  16.094  1.00  0.00     0.000 C 
BRANCH  21  22
ATOM     22  C   UNL     1     -35.081  16.466  16.246  1.00  0.00    -0.000 C 
BRANCH  22  23
ATOM     23  C   UNL     1     -34.803  17.231  17.551  1.00  0.00    -0.000 C 
BRANCH  23  24
ATOM     24  C   UNL     1     -36.018  17.245  18.496  1.00  0.00    -0.000 C 
BRANCH  24  25
ATOM     25  C   UNL     1     -37.100  16.232  18.071  1.00  0.00    -0.000 C 
BRANCH  25  26
ATOM     26  C   UNL     1     -38.514  16.558  18.602  1.00  0.00    -0.000 C 
BRANCH  26  27
ATOM     27  C   UNL     1     -39.209  15.330  19.209  1.00  0.00    -0.000 C 
BRANCH  27  28
ATOM     28  C   UNL     1     -40.561  15.075  18.527  1.00  0.00    -0.000 C 
BRANCH  28  29
ATOM     29  C   UNL     1     -41.104  16.360  17.890  1.00  0.00    -0.003 C 
ATOM     30  C   UNL     1     -41.124  16.258  16.371  1.00  0.00     0.004 C 
ENDBRANCH  28  29
ENDBRANCH  27  28
ENDBRANCH  26  27
ENDBRANCH  25  26
ENDBRANCH  24  25
ENDBRANCH  23  24
ENDBRANCH  22  23
ENDBRANCH  21  22
ENDBRANCH  20  21
ENDBRANCH  19  20
ENDBRANCH  18  19
ENDBRANCH  17  18
ENDBRANCH   1  17
TORSDOF 26
ENDMDL
MODEL 5
REMARK VINA RESULT:    21.076      1.345      1.970
REMARK INTER + INTRA:          51.411
REMARK INTER:                  49.744
REMARK INTRA:                   1.666
REMARK UNBOUND:                -1.699
REMARK SMILES CCCCCCCCCCCCCCCCCCCCCCCCCCCC(=O)[O-]
REMARK SMILES IDX 15 1 16 2 17 3 18 4 19 5 20 6 21 7 22 8 23 9 24 10 25 11
REMARK SMILES IDX 26 12 27 13 28 14 29 15 30 16 14 17 13 18 12 19 11 20 10 21
REMARK SMILES IDX 9 22 8 23 7 24 6 25 5 26 4 27 3 28 2 29 1 30
REMARK H PARENT
REMARK Flexibility Score: inf
ROOT
ATOM      1  C   UNL     1     -32.176  11.478  19.146  1.00  0.00     0.000 C 
ENDROOT
BRANCH   1   2
ATOM      2  C   UNL     1     -33.495  12.043  19.713  1.00  0.00     0.000 C 
BRANCH   2   3
ATOM      3  C   UNL     1     -34.024  11.321  20.970  1.00  0.00     0.000 C 
BRANCH   3   4
ATOM      4  C   UNL     1     -34.146   9.796  20.815  1.00  0.00     0.000 C 
BRANCH   4   5
ATOM      5  C   UNL     1     -33.063   9.039  21.597  1.00  0.00     0.000 C 
BRANCH   5   6
ATOM      6  C   UNL     1     -33.526   7.612  21.901  1.00  0.00     0.000 C 
BRANCH   6   7
ATOM      7  C   UNL     1     -35.018   7.569  22.247  1.00  0.00     0.000 C 
BRANCH   7   8
ATOM      8  C   UNL     1     -35.260   6.687  23.482  1.00  0.00     0.000 C 
BRANCH   8   9
ATOM      9  C   UNL     1     -33.966   6.418  24.273  1.00  0.00     0.000 C 
BRANCH   9  10
ATOM     10  C   UNL     1     -34.114   6.583  25.797  1.00  0.00     0.000 C 
BRANCH  10  11
ATOM     11  C   UNL     1     -34.441   8.035  26.203  1.00  0.00     0.000 C 
BRANCH  11  12
ATOM     12  C   UNL     1     -33.217   8.796  26.753  1.00  0.00     0.006 C 
BRANCH  12  13
ATOM     13  C   UNL     1     -33.094  10.246  26.257  1.00  0.00     0.053 C 
BRANCH  13  14
ATOM     14  C   UNL     1     -34.272  10.666  25.427  1.00  0.00     0.041 C 
ATOM     15  O   UNL     1     -34.095  11.316  24.361  1.00  0.00    -0.550 OA
ATOM     16  O   UNL     1     -35.555  10.279  25.791  1.00  0.00    -0.550 OA
ENDBRANCH  13  14
ENDBRANCH  12  13
ENDBRANCH  11  12
ENDBRANCH  10  11
ENDBRANCH   9  10
ENDBRANCH   8   9
ENDBRANCH   7   8
ENDBRANCH   6   7
ENDBRANCH   5   6
ENDBRANCH   4   5
ENDBRANCH   3   4
ENDBRANCH   2   3
ENDBRANCH   1   2
BRANCH   1  17
ATOM     17  C   UNL     1     -31.438  12.455  18.206  1.00  0.00     0.000 C 
BRANCH  17  18
ATOM     18  C   UNL     1     -32.307  12.883  16.998  1.00  0.00     0.000 C 
BRANCH  18  19
ATOM     19  C   UNL     1     -33.704  12.242  17.018  1.00  0.00     0.000 C 
BRANCH  19  20
ATOM     20  C   UNL     1     -34.839  13.264  16.814  1.00  0.00     0.000 C 
BRANCH  20  21
ATOM     21  C   UNL     1     -34.561  14.584  17.560  1.00  0.00     0.000 C 
BRANCH  21  22
ATOM     22  C   UNL     1     -35.265  15.785  16.900  1.00  0.00    -0.000 C 
BRANCH  22  23
ATOM     23  C   UNL     1     -34.533  17.115  17.146  1.00  0.00    -0.000 C 
BRANCH  23  24
ATOM     24  C   UNL     1     -35.172  17.938  18.281  1.00  0.00    -0.000 C 
BRANCH  24  25
ATOM     25  C   UNL     1     -36.688  17.688  18.401  1.00  0.00    -0.000 C 
BRANCH  25  26
ATOM     26  C   UNL     1     -37.075  16.196  18.510  1.00  0.00    -0.000 C 
BRANCH  26  27
ATOM     27  C   UNL     1     -38.421  15.890  17.837  1.00  0.00    -0.000 C 
BRANCH  27  28
ATOM     28  C   UNL     1     -39.536  15.740  18.883  1.00  0.00    -0.000 C 
BRANCH  28  29
ATOM     29  C   UNL     1     -40.870  16.265  18.339  1.00  0.00    -0.003 C 
ATOM     30  C   UNL     1     -40.666  17.082  17.070  1.00  0.00     0.004 C 
ENDBRANCH  28  29
ENDBRANCH  27  28
ENDBRANCH  26  27
ENDBRANCH  25  26
ENDBRANCH  24  25
ENDBRANCH  23  24
ENDBRANCH  22  23
ENDBRANCH  21  22
ENDBRANCH  20  21
ENDBRANCH  19  20
ENDBRANCH  18  19
ENDBRANCH  17  18
ENDBRANCH   1  17
TORSDOF 26
ENDMDL
MODEL 6
REMARK VINA RESULT:    21.136      1.005      1.634
REMARK INTER + INTRA:          51.562
REMARK INTER:                  52.888
REMARK INTRA:                  -1.327
REMARK UNBOUND:                -1.699
REMARK SMILES CCCCCCCCCCCCCCCCCCCCCCCCCCCC(=O)[O-]
REMARK SMILES IDX 15 1 16 2 17 3 18 4 19 5 20 6 21 7 22 8 23 9 24 10 25 11
REMARK SMILES IDX 26 12 27 13 28 14 29 15 30 16 14 17 13 18 12 19 11 20 10 21
REMARK SMILES IDX 9 22 8 23 7 24 6 25 5 26 4 27 3 28 2 29 1 30
REMARK H PARENT
REMARK Flexibility Score: inf
ROOT
ATOM      1  C   UNL     1     -31.655  12.428  18.259  1.00  0.00     0.000 C 
ENDROOT
BRANCH   1   2
ATOM      2  C   UNL     1     -32.479  11.438  19.109  1.00  0.00     0.000 C 
BRANCH   2   3
ATOM      3  C   UNL     1     -33.638  12.072  19.904  1.00  0.00     0.000 C 
BRANCH   3   4
ATOM      4  C   UNL     1     -34.029  11.298  21.174  1.00  0.00     0.000 C 
BRANCH   4   5
ATOM      5  C   UNL     1     -34.349   9.825  20.887  1.00  0.00     0.000 C 
BRANCH   5   6
ATOM      6  C   UNL     1     -34.120   8.976  22.140  1.00  0.00     0.000 C 
BRANCH   6   7
ATOM      7  C   UNL     1     -33.252   7.751  21.836  1.00  0.00     0.000 C 
BRANCH   7   8
ATOM      8  C   UNL     1     -33.999   6.457  22.195  1.00  0.00     0.000 C 
BRANCH   8   9
ATOM      9  C   UNL     1     -35.397   6.731  22.782  1.00  0.00     0.000 C 
BRANCH   9  10
ATOM     10  C   UNL     1     -35.538   6.359  24.270  1.00  0.00     0.000 C 
BRANCH  10  11
ATOM     11  C   UNL     1     -34.419   6.968  25.138  1.00  0.00     0.000 C 
BRANCH  11  12
ATOM     12  C   UNL     1     -34.880   8.203  25.939  1.00  0.00     0.006 C 
BRANCH  12  13
ATOM     13  C   UNL     1     -33.841   8.742  26.935  1.00  0.00     0.053 C 
BRANCH  13  14
ATOM     14  C   UNL     1     -33.293  10.076  26.519  1.00  0.00     0.041 C 
ATOM     15  O   UNL     1     -32.317  10.580  27.139  1.00  0.00    -0.550 OA
ATOM     16  O   UNL     1     -33.810  10.726  25.406  1.00  0.00    -0.550 OA
ENDBRANCH  13  14
ENDBRANCH  12  13
ENDBRANCH  11  12
ENDBRANCH  10  11
ENDBRANCH   9  10
ENDBRANCH   8   9
ENDBRANCH   7   8
ENDBRANCH   6   7
ENDBRANCH   5   6
ENDBRANCH   4   5
ENDBRANCH   3   4
ENDBRANCH   2   3
ENDBRANCH   1   2
BRANCH   1  17
ATOM     17  C   UNL     1     -32.357  12.854  16.951  1.00  0.00     0.000 C 
BRANCH  17  18
ATOM     18  C   UNL     1     -33.847  13.216  17.171  1.00  0.00     0.000 C 
BRANCH  18  19
ATOM     19  C   UNL     1     -34.462  13.945  15.966  1.00  0.00     0.000 C 
BRANCH  19  20
ATOM     20  C   UNL     1     -34.918  15.379  16.297  1.00  0.00     0.000 C 
BRANCH  20  21
ATOM     21  C   UNL     1     -34.816  15.677  17.806  1.00  0.00     0.000 C 
BRANCH  21  22
ATOM     22  C   UNL     1     -35.082  17.161  18.125  1.00  0.00    -0.000 C 
BRANCH  22  23
ATOM     23  C   UNL     1     -36.579  17.482  18.273  1.00  0.00    -0.000 C 
BRANCH  23  24
ATOM     24  C   UNL     1     -37.465  16.230  18.139  1.00  0.00    -0.000 C 
BRANCH  24  25
ATOM     25  C   UNL     1     -38.901  16.575  17.697  1.00  0.00    -0.000 C 
BRANCH  25  26
ATOM     26  C   UNL     1     -40.002  15.849  18.502  1.00  0.00    -0.000 C 
BRANCH  26  27
ATOM     27  C   UNL     1     -39.422  14.909  19.569  1.00  0.00    -0.000 C 
BRANCH  27  28
ATOM     28  C   UNL     1     -40.259  13.626  19.681  1.00  0.00    -0.000 C 
BRANCH  28  29
ATOM     29  C   UNL     1     -39.633  12.493  18.860  1.00  0.00    -0.003 C 
ATOM     30  C   UNL     1     -40.376  11.180  19.072  1.00  0.00     0.004 C 
ENDBRANCH  28  29
ENDBRANCH  27  28
ENDBRANCH  26  27
ENDBRANCH  25  26
ENDBRANCH  24  25
ENDBRANCH  23  24
ENDBRANCH  22  23
ENDBRANCH  21  22
ENDBRANCH  20  21
ENDBRANCH  19  20
ENDBRANCH  18  19
ENDBRANCH  17  18
ENDBRANCH   1  17
TORSDOF 26
ENDMDL
MODEL 7
REMARK VINA RESULT:    21.537      4.724      7.577
REMARK INTER + INTRA:          52.572
REMARK INTER:                  49.560
REMARK INTRA:                   3.012
REMARK UNBOUND:                -1.699
REMARK SMILES CCCCCCCCCCCCCCCCCCCCCCCCCCCC(=O)[O-]
REMARK SMILES IDX 15 1 16 2 17 3 18 4 19 5 20 6 21 7 22 8 23 9 24 10 25 11
REMARK SMILES IDX 26 12 27 13 28 14 29 15 30 16 14 17 13 18 12 19 11 20 10 21
REMARK SMILES IDX 9 22 8 23 7 24 6 25 5 26 4 27 3 28 2 29 1 30
REMARK H PARENT
REMARK Flexibility Score: inf
ROOT
ATOM      1  C   UNL     1     -32.920  11.836  19.320  1.00  0.00     0.000 C 
ENDROOT
BRANCH   1   2
ATOM      2  C   UNL     1     -32.206  12.625  18.202  1.00  0.00     0.000 C 
BRANCH   2   3
ATOM      3  C   UNL     1     -30.764  12.167  17.902  1.00  0.00     0.000 C 
BRANCH   3   4
ATOM      4  C   UNL     1     -30.160  12.783  16.630  1.00  0.00     0.000 C 
BRANCH   4   5
ATOM      5  C   UNL     1     -28.701  13.220  16.825  1.00  0.00     0.000 C 
BRANCH   5   6
ATOM      6  C   UNL     1     -28.344  14.337  15.841  1.00  0.00     0.000 C 
BRANCH   6   7
ATOM      7  C   UNL     1     -27.668  15.515  16.552  1.00  0.00     0.000 C 
BRANCH   7   8
ATOM      8  C   UNL     1     -26.686  15.007  17.620  1.00  0.00     0.000 C 
BRANCH   8   9
ATOM      9  C   UNL     1     -25.664  16.082  18.035  1.00  0.00     0.000 C 
BRANCH   9  10
ATOM     10  C   UNL     1     -26.034  16.835  19.327  1.00  0.00     0.000 C 
BRANCH  10  11
ATOM     11  C   UNL     1     -26.338  15.880  20.499  1.00  0.00     0.000 C 
BRANCH  11  12
ATOM     12  C   UNL     1     -26.669  16.622  21.810  1.00  0.00     0.006 C 
BRANCH  12  13
ATOM     13  C   UNL     1     -27.836  16.017  22.607  1.00  0.00     0.053 C 
BRANCH  13  14
ATOM     14  C   UNL     1     -27.983  14.542  22.371  1.00  0.00     0.041 C 
ATOM     15  O   UNL     1     -27.090  13.745  22.770  1.00  0.00    -0.550 OA
ATOM     16  O   UNL     1     -29.135  14.042  21.777  1.00  0.00    -0.550 OA
ENDBRANCH  13  14
ENDBRANCH  12  13
ENDBRANCH  11  12
ENDBRANCH  10  11
ENDBRANCH   9  10
ENDBRANCH   8   9
ENDBRANCH   7   8
ENDBRANCH   6   7
ENDBRANCH   5   6
ENDBRANCH   4   5
ENDBRANCH   3   4
ENDBRANCH   2   3
ENDBRANCH   1   2
BRANCH   1  17
ATOM     17  C   UNL     1     -34.029  10.895  18.802  1.00  0.00     0.000 C 
BRANCH  17  18
ATOM     18  C   UNL     1     -34.360  11.138  17.309  1.00  0.00     0.000 C 
BRANCH  18  19
ATOM     19  C   UNL     1     -33.896  12.517  16.817  1.00  0.00     0.000 C 
BRANCH  19  20
ATOM     20  C   UNL     1     -35.033  13.555  16.767  1.00  0.00     0.000 C 
BRANCH  20  21
ATOM     21  C   UNL     1     -34.646  14.862  17.488  1.00  0.00     0.000 C 
BRANCH  21  22
ATOM     22  C   UNL     1     -35.061  16.112  16.689  1.00  0.00    -0.000 C 
BRANCH  22  23
ATOM     23  C   UNL     1     -34.739  17.425  17.424  1.00  0.00    -0.000 C 
BRANCH  23  24
ATOM     24  C   UNL     1     -35.555  17.590  18.719  1.00  0.00    -0.000 C 
BRANCH  24  25
ATOM     25  C   UNL     1     -37.057  17.321  18.501  1.00  0.00    -0.000 C 
BRANCH  25  26
ATOM     26  C   UNL     1     -37.356  16.153  17.536  1.00  0.00    -0.000 C 
BRANCH  26  27
ATOM     27  C   UNL     1     -38.246  15.077  18.176  1.00  0.00    -0.000 C 
BRANCH  27  28
ATOM     28  C   UNL     1     -39.092  15.672  19.311  1.00  0.00    -0.000 C 
BRANCH  28  29
ATOM     29  C   UNL     1     -40.398  16.263  18.767  1.00  0.00    -0.003 C 
ATOM     30  C   UNL     1     -40.425  16.236  17.245  1.00  0.00     0.004 C 
ENDBRANCH  28  29
ENDBRANCH  27  28
ENDBRANCH  26  27
ENDBRANCH  25  26
ENDBRANCH  24  25
ENDBRANCH  23  24
ENDBRANCH  22  23
ENDBRANCH  21  22
ENDBRANCH  20  21
ENDBRANCH  19  20
ENDBRANCH  18  19
ENDBRANCH  17  18
ENDBRANCH   1  17
TORSDOF 26
ENDMDL
MODEL 8
REMARK VINA RESULT:    21.708      2.590      9.628
REMARK INTER + INTRA:          53.004
REMARK INTER:                  53.373
REMARK INTRA:                  -0.369
REMARK UNBOUND:                -1.699
REMARK SMILES CCCCCCCCCCCCCCCCCCCCCCCCCCCC(=O)[O-]
REMARK SMILES IDX 15 1 16 2 17 3 18 4 19 5 20 6 21 7 22 8 23 9 24 10 25 11
REMARK SMILES IDX 26 12 27 13 28 14 29 15 30 16 14 17 13 18 12 19 11 20 10 21
REMARK SMILES IDX 9 22 8 23 7 24 6 25 5 26 4 27 3 28 2 29 1 30
REMARK H PARENT
REMARK Flexibility Score: inf
ROOT
ATOM      1  C   UNL     1     -34.167  10.121  20.392  1.00  0.00     0.000 C 
ENDROOT
BRANCH   1   2
ATOM      2  C   UNL     1     -32.960  10.571  19.542  1.00  0.00     0.000 C 
BRANCH   2   3
ATOM      3  C   UNL     1     -33.005  12.041  19.077  1.00  0.00     0.000 C 
BRANCH   3   4
ATOM      4  C   UNL     1     -32.033  12.369  17.932  1.00  0.00     0.000 C 
BRANCH   4   5
ATOM      5  C   UNL     1     -32.750  12.926  16.695  1.00  0.00     0.000 C 
BRANCH   5   6
ATOM      6  C   UNL     1     -34.262  12.718  16.818  1.00  0.00     0.000 C 
BRANCH   6   7
ATOM      7  C   UNL     1     -34.991  14.045  17.055  1.00  0.00     0.000 C 
BRANCH   7   8
ATOM      8  C   UNL     1     -34.484  15.121  16.083  1.00  0.00     0.000 C 
BRANCH   8   9
ATOM      9  C   UNL     1     -35.182  16.478  16.293  1.00  0.00     0.000 C 
BRANCH   9  10
ATOM     10  C   UNL     1     -34.652  17.278  17.497  1.00  0.00     0.000 C 
BRANCH  10  11
ATOM     11  C   UNL     1     -35.668  17.342  18.655  1.00  0.00     0.000 C 
BRANCH  11  12
ATOM     12  C   UNL     1     -37.124  17.129  18.191  1.00  0.00     0.006 C 
BRANCH  12  13
ATOM     13  C   UNL     1     -37.586  15.662  18.196  1.00  0.00     0.053 C 
BRANCH  13  14
ATOM     14  C   UNL     1     -39.007  15.515  18.656  1.00  0.00     0.041 C 
ATOM     15  O   UNL     1     -39.275  14.800  19.660  1.00  0.00    -0.550 OA
ATOM     16  O   UNL     1     -40.021  16.222  18.025  1.00  0.00    -0.550 OA
ENDBRANCH  13  14
ENDBRANCH  12  13
ENDBRANCH  11  12
ENDBRANCH  10  11
ENDBRANCH   9  10
ENDBRANCH   8   9
ENDBRANCH   7   8
ENDBRANCH   6   7
ENDBRANCH   5   6
ENDBRANCH   4   5
ENDBRANCH   3   4
ENDBRANCH   2   3
ENDBRANCH   1   2
BRANCH   1  17
ATOM     17  C   UNL     1     -34.065  10.530  21.877  1.00  0.00     0.000 C 
BRANCH  17  18
ATOM     18  C   UNL     1     -34.319  12.043  22.092  1.00  0.00     0.000 C 
BRANCH  18  19
ATOM     19  C   UNL     1     -34.740  12.373  23.532  1.00  0.00     0.000 C 
BRANCH  19  20
ATOM     20  C   UNL     1     -34.610  11.173  24.489  1.00  0.00     0.000 C 
BRANCH  20  21
ATOM     21  C   UNL     1     -33.487  11.385  25.523  1.00  0.00     0.000 C 
BRANCH  21  22
ATOM     22  C   UNL     1     -32.715  10.085  25.819  1.00  0.00    -0.000 C 
BRANCH  22  23
ATOM     23  C   UNL     1     -33.106   9.450  27.164  1.00  0.00    -0.000 C 
BRANCH  23  24
ATOM     24  C   UNL     1     -34.116   8.299  27.000  1.00  0.00    -0.000 C 
BRANCH  24  25
ATOM     25  C   UNL     1     -35.224   8.634  25.983  1.00  0.00    -0.000 C 
BRANCH  25  26
ATOM     26  C   UNL     1     -36.302   7.537  25.839  1.00  0.00    -0.000 C 
BRANCH  26  27
ATOM     27  C   UNL     1     -36.167   6.752  24.526  1.00  0.00    -0.000 C 
BRANCH  27  28
ATOM     28  C   UNL     1     -34.693   6.625  24.113  1.00  0.00    -0.000 C 
BRANCH  28  29
ATOM     29  C   UNL     1     -34.549   6.643  22.587  1.00  0.00    -0.003 C 
ATOM     30  C   UNL     1     -33.420   7.566  22.148  1.00  0.00     0.004 C 
ENDBRANCH  28  29
ENDBRANCH  27  28
ENDBRANCH  26  27
ENDBRANCH  25  26
ENDBRANCH  24  25
ENDBRANCH  23  24
ENDBRANCH  22  23
ENDBRANCH  21  22
ENDBRANCH  20  21
ENDBRANCH  19  20
ENDBRANCH  18  19
ENDBRANCH  17  18
ENDBRANCH   1  17
TORSDOF 26
ENDMDL
MODEL 9
REMARK VINA RESULT:    21.751      4.833      7.183
REMARK INTER + INTRA:          53.111
REMARK INTER:                  53.955
REMARK INTRA:                  -0.844
REMARK UNBOUND:                -1.699
REMARK SMILES CCCCCCCCCCCCCCCCCCCCCCCCCCCC(=O)[O-]
REMARK SMILES IDX 15 1 16 2 17 3 18 4 19 5 20 6 21 7 22 8 23 9 24 10 25 11
REMARK SMILES IDX 26 12 27 13 28 14 29 15 30 16 14 17 13 18 12 19 11 20 10 21
REMARK SMILES IDX 9 22 8 23 7 24 6 25 5 26 4 27 3 28 2 29 1 30
REMARK H PARENT
REMARK Flexibility Score: inf
ROOT
ATOM      1  C   UNL     1     -33.959  11.430  17.923  1.00  0.00     0.000 C 
ENDROOT
BRANCH   1   2
ATOM      2  C   UNL     1     -33.027  11.964  19.031  1.00  0.00     0.000 C 
BRANCH   2   3
ATOM      3  C   UNL     1     -31.531  11.998  18.661  1.00  0.00     0.000 C 
BRANCH   3   4
ATOM      4  C   UNL     1     -31.226  12.710  17.333  1.00  0.00     0.000 C 
BRANCH   4   5
ATOM      5  C   UNL     1     -29.752  12.586  16.926  1.00  0.00     0.000 C 
BRANCH   5   6
ATOM      6  C   UNL     1     -29.187  13.957  16.546  1.00  0.00     0.000 C 
BRANCH   6   7
ATOM      7  C   UNL     1     -27.678  14.033  16.804  1.00  0.00     0.000 C 
BRANCH   7   8
ATOM      8  C   UNL     1     -27.234  15.493  16.983  1.00  0.00     0.000 C 
BRANCH   8   9
ATOM      9  C   UNL     1     -26.007  15.625  17.905  1.00  0.00     0.000 C 
BRANCH   9  10
ATOM     10  C   UNL     1     -26.250  16.491  19.155  1.00  0.00     0.000 C 
BRANCH  10  11
ATOM     11  C   UNL     1     -26.458  15.644  20.427  1.00  0.00     0.000 C 
BRANCH  11  12
ATOM     12  C   UNL     1     -26.702  16.500  21.687  1.00  0.00     0.006 C 
BRANCH  12  13
ATOM     13  C   UNL     1     -27.945  16.099  22.499  1.00  0.00     0.053 C 
BRANCH  13  14
ATOM     14  C   UNL     1     -28.218  14.625  22.429  1.00  0.00     0.041 C 
ATOM     15  O   UNL     1     -27.281  13.798  22.596  1.00  0.00    -0.550 OA
ATOM     16  O   UNL     1     -29.517  14.164  22.254  1.00  0.00    -0.550 OA
ENDBRANCH  13  14
ENDBRANCH  12  13
ENDBRANCH  11  12
ENDBRANCH  10  11
ENDBRANCH   9  10
ENDBRANCH   8   9
ENDBRANCH   7   8
ENDBRANCH   6   7
ENDBRANCH   5   6
ENDBRANCH   4   5
ENDBRANCH   3   4
ENDBRANCH   2   3
ENDBRANCH   1   2
BRANCH   1  17
ATOM     17  C   UNL     1     -34.111  12.391  16.725  1.00  0.00     0.000 C 
BRANCH  17  18
ATOM     18  C   UNL     1     -34.632  13.787  17.149  1.00  0.00     0.000 C 
BRANCH  18  19
ATOM     19  C   UNL     1     -35.038  14.656  15.949  1.00  0.00     0.000 C 
BRANCH  19  20
ATOM     20  C   UNL     1     -35.008  16.165  16.259  1.00  0.00     0.000 C 
BRANCH  20  21
ATOM     21  C   UNL     1     -34.584  16.441  17.715  1.00  0.00     0.000 C 
BRANCH  21  22
ATOM     22  C   UNL     1     -35.147  17.775  18.242  1.00  0.00    -0.000 C 
BRANCH  22  23
ATOM     23  C   UNL     1     -36.685  17.812  18.252  1.00  0.00    -0.000 C 
BRANCH  23  24
ATOM     24  C   UNL     1     -37.304  16.472  18.689  1.00  0.00    -0.000 C 
BRANCH  24  25
ATOM     25  C   UNL     1     -38.319  15.934  17.661  1.00  0.00    -0.000 C 
BRANCH  25  26
ATOM     26  C   UNL     1     -39.785  16.319  17.961  1.00  0.00    -0.000 C 
BRANCH  26  27
ATOM     27  C   UNL     1     -40.583  15.156  18.571  1.00  0.00    -0.000 C 
BRANCH  27  28
ATOM     28  C   UNL     1     -39.727  14.373  19.576  1.00  0.00    -0.000 C 
BRANCH  28  29
ATOM     29  C   UNL     1     -40.284  12.959  19.784  1.00  0.00    -0.003 C 
ATOM     30  C   UNL     1     -39.843  12.022  18.667  1.00  0.00     0.004 C 
ENDBRANCH  28  29
ENDBRANCH  27  28
ENDBRANCH  26  27
ENDBRANCH  25  26
ENDBRANCH  24  25
ENDBRANCH  23  24
ENDBRANCH  22  23
ENDBRANCH  21  22
ENDBRANCH  20  21
ENDBRANCH  19  20
ENDBRANCH  18  19
ENDBRANCH  17  18
ENDBRANCH   1  17
TORSDOF 26
ENDMDL
