MODEL 1
REMARK VINA RESULT:    -4.942      0.000      0.000
REMARK INTER + INTRA:          -6.114
REMARK INTER:                  -5.809
REMARK INTRA:                  -0.306
REMARK UNBOUND:                -0.306
REMARK SMILES O=c1cc(-c2ccc(O)c(O)c2)oc2cc(O)cc(O)c12
REMARK SMILES IDX 4 1 3 2 2 3 1 4 21 5 19 6 18 7 16 8 15 9 14 10 13 11 5 12
REMARK SMILES IDX 6 13 7 14 8 15 12 16 10 17 9 18 11 20 20 22 17 24
REMARK H PARENT 9 19 11 21 20 23 17 25
REMARK Flexibility Score: inf
ROOT
ATOM      1  C   UNL     1       0.820  -0.711  -6.455  1.00  0.00     0.138 A 
ATOM      2  C   UNL     1      -0.358  -0.002  -6.185  1.00  0.00     0.100 A 
ATOM      3  C   UNL     1      -1.590  -0.654  -6.264  1.00  0.00     0.197 A 
ATOM      4  O   UNL     1      -2.624  -0.008  -5.955  1.00  0.00    -0.289 OA
ATOM      5  C   UNL     1      -1.641  -2.014  -6.649  1.00  0.00     0.107 A 
ATOM      6  C   UNL     1      -2.843  -2.770  -6.804  1.00  0.00     0.134 A 
ATOM      7  C   UNL     1      -2.764  -4.141  -7.075  1.00  0.00     0.093 A 
ATOM      8  C   UNL     1      -1.531  -4.771  -7.257  1.00  0.00     0.123 A 
ATOM      9  C   UNL     1      -0.355  -4.031  -7.160  1.00  0.00     0.094 A 
ATOM     10  C   UNL     1      -0.398  -2.669  -6.857  1.00  0.00     0.146 A 
ATOM     11  O   UNL     1       0.747  -2.002  -6.760  1.00  0.00    -0.456 OA
ENDROOT
BRANCH   1  12
ATOM     12  C   UNL     1       2.157  -0.066  -6.385  1.00  0.00     0.021 A 
ATOM     13  C   UNL     1       2.366   0.993  -5.489  1.00  0.00     0.016 A 
ATOM     14  C   UNL     1       3.615   1.610  -5.399  1.00  0.00     0.051 A 
ATOM     15  C   UNL     1       4.682   1.180  -6.193  1.00  0.00     0.157 A 
ATOM     16  C   UNL     1       3.234  -0.510  -7.173  1.00  0.00     0.062 A 
ATOM     17  C   UNL     1       4.492   0.101  -7.088  1.00  0.00     0.158 A 
BRANCH  15  18
ATOM     18  O   UNL     1       5.904   1.844  -6.059  1.00  0.00    -0.504 OA
ATOM     19  H   UNL     1       6.438   1.877  -5.203  1.00  0.00     0.293 HD
ENDBRANCH  15  18
BRANCH  17  20
ATOM     20  O   UNL     1       5.514  -0.393  -7.900  1.00  0.00    -0.504 OA
ATOM     21  H   UNL     1       5.358  -0.943  -8.732  1.00  0.00     0.293 HD
ENDBRANCH  17  20
ENDBRANCH   1  12
BRANCH   6  22
ATOM     22  O   UNL     1      -4.127  -2.221  -6.727  1.00  0.00    -0.507 OA
ATOM     23  H   UNL     1      -4.546  -1.851  -5.889  1.00  0.00     0.293 HD
ENDBRANCH   6  22
BRANCH   8  24
ATOM     24  O   UNL     1      -1.465  -6.134  -7.541  1.00  0.00    -0.508 OA
ATOM     25  H   UNL     1      -1.661  -6.833  -6.835  1.00  0.00     0.293 HD
ENDBRANCH   8  24
TORSDOF 5
ENDMDL
MODEL 2
REMARK VINA RESULT:    -4.908      2.691      7.836
REMARK INTER + INTRA:          -6.075
REMARK INTER:                  -5.772
REMARK INTRA:                  -0.302
REMARK UNBOUND:                -0.306
REMARK SMILES O=c1cc(-c2ccc(O)c(O)c2)oc2cc(O)cc(O)c12
REMARK SMILES IDX 4 1 3 2 2 3 1 4 21 5 19 6 18 7 16 8 15 9 14 10 13 11 5 12
REMARK SMILES IDX 6 13 7 14 8 15 12 16 10 17 9 18 11 20 20 22 17 24
REMARK H PARENT 9 19 11 21 20 23 17 25
REMARK Flexibility Score: inf
ROOT
ATOM      1  C   UNL     1      -0.471   0.770  -6.401  1.00  0.00     0.138 A 
ATOM      2  C   UNL     1       0.733   0.064  -6.262  1.00  0.00     0.100 A 
ATOM      3  C   UNL     1       1.947   0.746  -6.356  1.00  0.00     0.197 A 
ATOM      4  O   UNL     1       3.008   0.098  -6.165  1.00  0.00    -0.289 OA
ATOM      5  C   UNL     1       1.954   2.135  -6.623  1.00  0.00     0.107 A 
ATOM      6  C   UNL     1       3.132   2.927  -6.782  1.00  0.00     0.134 A 
ATOM      7  C   UNL     1       3.016   4.314  -6.926  1.00  0.00     0.093 A 
ATOM      8  C   UNL     1       1.764   4.932  -6.981  1.00  0.00     0.123 A 
ATOM      9  C   UNL     1       0.607   4.162  -6.881  1.00  0.00     0.094 A 
ATOM     10  C   UNL     1       0.690   2.779  -6.701  1.00  0.00     0.146 A 
ATOM     11  O   UNL     1      -0.437   2.083  -6.595  1.00  0.00    -0.456 OA
ENDROOT
BRANCH   1  12
ATOM     12  C   UNL     1      -1.790   0.094  -6.309  1.00  0.00     0.021 A 
ATOM     13  C   UNL     1      -1.953  -0.988  -5.429  1.00  0.00     0.016 A 
ATOM     14  C   UNL     1      -3.185  -1.635  -5.320  1.00  0.00     0.051 A 
ATOM     15  C   UNL     1      -4.282  -1.213  -6.077  1.00  0.00     0.157 A 
ATOM     16  C   UNL     1      -2.898   0.528  -7.060  1.00  0.00     0.062 A 
ATOM     17  C   UNL     1      -4.139  -0.113  -6.955  1.00  0.00     0.158 A 
BRANCH  15  18
ATOM     18  O   UNL     1      -5.485  -1.908  -5.926  1.00  0.00    -0.504 OA
ATOM     19  H   UNL     1      -5.622  -2.663  -5.269  1.00  0.00     0.293 HD
ENDBRANCH  15  18
BRANCH  17  20
ATOM     20  O   UNL     1      -5.193   0.375  -7.730  1.00  0.00    -0.504 OA
ATOM     21  H   UNL     1      -5.508  -0.054  -8.588  1.00  0.00     0.293 HD
ENDBRANCH  17  20
ENDBRANCH   1  12
BRANCH   6  22
ATOM     22  O   UNL     1       4.426   2.400  -6.828  1.00  0.00    -0.507 OA
ATOM     23  H   UNL     1       4.670   1.450  -6.594  1.00  0.00     0.293 HD
ENDBRANCH   6  22
BRANCH   8  24
ATOM     24  O   UNL     1       1.659   6.312  -7.141  1.00  0.00    -0.508 OA
ATOM     25  H   UNL     1       2.458   6.878  -7.400  1.00  0.00     0.293 HD
ENDBRANCH   8  24
TORSDOF 5
ENDMDL
MODEL 3
REMARK VINA RESULT:    -4.900      2.612      3.126
REMARK INTER + INTRA:          -6.065
REMARK INTER:                  -5.771
REMARK INTRA:                  -0.294
REMARK UNBOUND:                -0.306
REMARK SMILES O=c1cc(-c2ccc(O)c(O)c2)oc2cc(O)cc(O)c12
REMARK SMILES IDX 4 1 3 2 2 3 1 4 21 5 19 6 18 7 16 8 15 9 14 10 13 11 5 12
REMARK SMILES IDX 6 13 7 14 8 15 12 16 10 17 9 18 11 20 20 22 17 24
REMARK H PARENT 9 19 11 21 20 23 17 25
REMARK Flexibility Score: inf
ROOT
ATOM      1  C   UNL     1       1.015   0.027  -7.173  1.00  0.00     0.138 A 
ATOM      2  C   UNL     1       0.719  -0.068  -8.540  1.00  0.00     0.100 A 
ATOM      3  C   UNL     1      -0.612  -0.149  -8.953  1.00  0.00     0.197 A 
ATOM      4  O   UNL     1      -0.850  -0.171 -10.188  1.00  0.00    -0.289 OA
ATOM      5  C   UNL     1      -1.648  -0.167  -7.989  1.00  0.00     0.107 A 
ATOM      6  C   UNL     1      -3.038  -0.289  -8.291  1.00  0.00     0.134 A 
ATOM      7  C   UNL     1      -3.980  -0.176  -7.262  1.00  0.00     0.093 A 
ATOM      8  C   UNL     1      -3.581  -0.009  -5.934  1.00  0.00     0.123 A 
ATOM      9  C   UNL     1      -2.224   0.057  -5.622  1.00  0.00     0.094 A 
ATOM     10  C   UNL     1      -1.261  -0.017  -6.630  1.00  0.00     0.146 A 
ATOM     11  O   UNL     1       0.021   0.064  -6.292  1.00  0.00    -0.456 OA
ENDROOT
BRANCH   1  12
ATOM     12  C   UNL     1       2.413   0.115  -6.679  1.00  0.00     0.021 A 
ATOM     13  C   UNL     1       2.656   0.547  -5.365  1.00  0.00     0.016 A 
ATOM     14  C   UNL     1       3.960   0.632  -4.875  1.00  0.00     0.051 A 
ATOM     15  C   UNL     1       5.048   0.279  -5.678  1.00  0.00     0.157 A 
ATOM     16  C   UNL     1       3.507  -0.254  -7.483  1.00  0.00     0.062 A 
ATOM     17  C   UNL     1       4.819  -0.175  -6.998  1.00  0.00     0.158 A 
BRANCH  15  18
ATOM     18  O   UNL     1       6.328   0.393  -5.130  1.00  0.00    -0.504 OA
ATOM     19  H   UNL     1       6.922  -0.395  -4.915  1.00  0.00     0.293 HD
ENDBRANCH  15  18
BRANCH  17  20
ATOM     20  O   UNL     1       5.854  -0.560  -7.853  1.00  0.00    -0.504 OA
ATOM     21  H   UNL     1       6.501  -1.310  -7.655  1.00  0.00     0.293 HD
ENDBRANCH  17  20
ENDBRANCH   1  12
BRANCH   6  22
ATOM     22  O   UNL     1      -3.539  -0.542  -9.572  1.00  0.00    -0.507 OA
ATOM     23  H   UNL     1      -3.440   0.076 -10.362  1.00  0.00     0.293 HD
ENDBRANCH   6  22
BRANCH   8  24
ATOM     24  O   UNL     1      -4.525   0.086  -4.914  1.00  0.00    -0.508 OA
ATOM     25  H   UNL     1      -4.854  -0.733  -4.418  1.00  0.00     0.293 HD
ENDBRANCH   8  24
TORSDOF 5
ENDMDL
MODEL 4
REMARK VINA RESULT:    -4.792     11.259     14.543
REMARK INTER + INTRA:          -5.938
REMARK INTER:                  -5.670
REMARK INTRA:                  -0.268
REMARK UNBOUND:                -0.306
REMARK SMILES O=c1cc(-c2ccc(O)c(O)c2)oc2cc(O)cc(O)c12
REMARK SMILES IDX 4 1 3 2 2 3 1 4 21 5 19 6 18 7 16 8 15 9 14 10 13 11 5 12
REMARK SMILES IDX 6 13 7 14 8 15 12 16 10 17 9 18 11 20 20 22 17 24
REMARK H PARENT 9 19 11 21 20 23 17 25
REMARK Flexibility Score: inf
ROOT
ATOM      1  C   UNL     1      -8.560  -2.289 -16.661  1.00  0.00     0.138 A 
ATOM      2  C   UNL     1      -8.957  -1.016 -17.094  1.00  0.00     0.100 A 
ATOM      3  C   UNL     1      -8.659   0.103 -16.315  1.00  0.00     0.197 A 
ATOM      4  O   UNL     1      -8.973   1.237 -16.759  1.00  0.00    -0.289 OA
ATOM      5  C   UNL     1      -7.989  -0.060 -15.079  1.00  0.00     0.107 A 
ATOM      6  C   UNL     1      -7.670   1.004 -14.182  1.00  0.00     0.134 A 
ATOM      7  C   UNL     1      -6.900   0.737 -13.043  1.00  0.00     0.093 A 
ATOM      8  C   UNL     1      -6.491  -0.563 -12.737  1.00  0.00     0.123 A 
ATOM      9  C   UNL     1      -6.843  -1.616 -13.579  1.00  0.00     0.094 A 
ATOM     10  C   UNL     1      -7.580  -1.377 -14.741  1.00  0.00     0.146 A 
ATOM     11  O   UNL     1      -7.883  -2.407 -15.524  1.00  0.00    -0.456 OA
ENDROOT
BRANCH   1  12
ATOM     12  C   UNL     1      -8.852  -3.512 -17.451  1.00  0.00     0.021 A 
ATOM     13  C   UNL     1      -9.601  -4.547 -16.871  1.00  0.00     0.016 A 
ATOM     14  C   UNL     1      -9.894  -5.704 -17.595  1.00  0.00     0.051 A 
ATOM     15  C   UNL     1      -9.457  -5.849 -18.915  1.00  0.00     0.157 A 
ATOM     16  C   UNL     1      -8.424  -3.651 -18.785  1.00  0.00     0.062 A 
ATOM     17  C   UNL     1      -8.716  -4.807 -19.520  1.00  0.00     0.158 A 
BRANCH  15  18
ATOM     18  O   UNL     1      -9.778  -7.034 -19.582  1.00  0.00    -0.504 OA
ATOM     19  H   UNL     1      -9.303  -7.362 -20.411  1.00  0.00     0.293 HD
ENDBRANCH  15  18
BRANCH  17  20
ATOM     20  O   UNL     1      -8.260  -4.874 -20.838  1.00  0.00    -0.504 OA
ATOM     21  H   UNL     1      -7.285  -4.845 -21.100  1.00  0.00     0.293 HD
ENDBRANCH  17  20
ENDBRANCH   1  12
BRANCH   6  22
ATOM     22  O   UNL     1      -8.102   2.323 -14.349  1.00  0.00    -0.507 OA
ATOM     23  H   UNL     1      -7.510   3.136 -14.280  1.00  0.00     0.293 HD
ENDBRANCH   6  22
BRANCH   8  24
ATOM     24  O   UNL     1      -5.738  -0.820 -11.593  1.00  0.00    -0.508 OA
ATOM     25  H   UNL     1      -5.536  -0.094 -10.917  1.00  0.00     0.293 HD
ENDBRANCH   8  24
TORSDOF 5
ENDMDL
MODEL 5
REMARK VINA RESULT:    -4.763     10.725     13.624
REMARK INTER + INTRA:          -5.904
REMARK INTER:                  -5.634
REMARK INTRA:                  -0.271
REMARK UNBOUND:                -0.306
REMARK SMILES O=c1cc(-c2ccc(O)c(O)c2)oc2cc(O)cc(O)c12
REMARK SMILES IDX 4 1 3 2 2 3 1 4 21 5 19 6 18 7 16 8 15 9 14 10 13 11 5 12
REMARK SMILES IDX 6 13 7 14 8 15 12 16 10 17 9 18 11 20 20 22 17 24
REMARK H PARENT 9 19 11 21 20 23 17 25
REMARK Flexibility Score: inf
ROOT
ATOM      1  C   UNL     1       8.803   2.252 -16.817  1.00  0.00     0.138 A 
ATOM      2  C   UNL     1       9.192   0.980 -17.260  1.00  0.00     0.100 A 
ATOM      3  C   UNL     1       8.885  -0.143 -16.490  1.00  0.00     0.197 A 
ATOM      4  O   UNL     1       9.192  -1.276 -16.943  1.00  0.00    -0.289 OA
ATOM      5  C   UNL     1       8.215   0.014 -15.254  1.00  0.00     0.107 A 
ATOM      6  C   UNL     1       7.887  -1.054 -14.365  1.00  0.00     0.134 A 
ATOM      7  C   UNL     1       7.118  -0.791 -13.225  1.00  0.00     0.093 A 
ATOM      8  C   UNL     1       6.717   0.509 -12.909  1.00  0.00     0.123 A 
ATOM      9  C   UNL     1       7.077   1.566 -13.743  1.00  0.00     0.094 A 
ATOM     10  C   UNL     1       7.815   1.332 -14.905  1.00  0.00     0.146 A 
ATOM     11  O   UNL     1       8.125   2.366 -15.680  1.00  0.00    -0.456 OA
ENDROOT
BRANCH   1  12
ATOM     12  C   UNL     1       9.104   3.479 -17.597  1.00  0.00     0.021 A 
ATOM     13  C   UNL     1       9.794   4.536 -16.983  1.00  0.00     0.016 A 
ATOM     14  C   UNL     1      10.094   5.697 -17.697  1.00  0.00     0.051 A 
ATOM     15  C   UNL     1       9.724   5.826 -19.039  1.00  0.00     0.157 A 
ATOM     16  C   UNL     1       8.744   3.602 -18.952  1.00  0.00     0.062 A 
ATOM     17  C   UNL     1       9.044   4.762 -19.677  1.00  0.00     0.158 A 
BRANCH  15  18
ATOM     18  O   UNL     1      10.049   7.016 -19.694  1.00  0.00    -0.504 OA
ATOM     19  H   UNL     1      10.458   7.819 -19.238  1.00  0.00     0.293 HD
ENDBRANCH  15  18
BRANCH  17  20
ATOM     20  O   UNL     1       8.657   4.812 -21.018  1.00  0.00    -0.504 OA
ATOM     21  H   UNL     1       8.992   4.175 -21.726  1.00  0.00     0.293 HD
ENDBRANCH  17  20
ENDBRANCH   1  12
BRANCH   6  22
ATOM     22  O   UNL     1       8.310  -2.375 -14.543  1.00  0.00    -0.507 OA
ATOM     23  H   UNL     1       8.602  -2.774 -15.421  1.00  0.00     0.293 HD
ENDBRANCH   6  22
BRANCH   8  24
ATOM     24  O   UNL     1       5.965   0.762 -11.764  1.00  0.00    -0.508 OA
ATOM     25  H   UNL     1       6.319   1.344 -11.015  1.00  0.00     0.293 HD
ENDBRANCH   8  24
TORSDOF 5
ENDMDL
MODEL 6
REMARK VINA RESULT:    -4.762      1.379      2.835
REMARK INTER + INTRA:          -5.903
REMARK INTER:                  -5.611
REMARK INTRA:                  -0.292
REMARK UNBOUND:                -0.306
REMARK SMILES O=c1cc(-c2ccc(O)c(O)c2)oc2cc(O)cc(O)c12
REMARK SMILES IDX 4 1 3 2 2 3 1 4 21 5 19 6 18 7 16 8 15 9 14 10 13 11 5 12
REMARK SMILES IDX 6 13 7 14 8 15 12 16 10 17 9 18 11 20 20 22 17 24
REMARK H PARENT 9 19 11 21 20 23 17 25
REMARK Flexibility Score: inf
ROOT
ATOM      1  C   UNL     1       0.819  -0.856  -6.690  1.00  0.00     0.138 A 
ATOM      2  C   UNL     1       0.571  -1.949  -7.533  1.00  0.00     0.100 A 
ATOM      3  C   UNL     1      -0.735  -2.414  -7.693  1.00  0.00     0.197 A 
ATOM      4  O   UNL     1      -0.935  -3.356  -8.503  1.00  0.00    -0.289 OA
ATOM      5  C   UNL     1      -1.792  -1.801  -6.979  1.00  0.00     0.107 A 
ATOM      6  C   UNL     1      -3.157  -2.217  -7.032  1.00  0.00     0.134 A 
ATOM      7  C   UNL     1      -4.134  -1.460  -6.375  1.00  0.00     0.093 A 
ATOM      8  C   UNL     1      -3.789  -0.340  -5.616  1.00  0.00     0.123 A 
ATOM      9  C   UNL     1      -2.453   0.043  -5.514  1.00  0.00     0.094 A 
ATOM     10  C   UNL     1      -1.459  -0.671  -6.187  1.00  0.00     0.146 A 
ATOM     11  O   UNL     1      -0.199  -0.264  -6.076  1.00  0.00    -0.456 OA
ENDROOT
BRANCH   1  12
ATOM     12  C   UNL     1       2.189  -0.321  -6.484  1.00  0.00     0.021 A 
ATOM     13  C   UNL     1       2.463   0.457  -5.348  1.00  0.00     0.016 A 
ATOM     14  C   UNL     1       3.744   0.965  -5.128  1.00  0.00     0.051 A 
ATOM     15  C   UNL     1       4.781   0.701  -6.028  1.00  0.00     0.157 A 
ATOM     16  C   UNL     1       3.236  -0.600  -7.382  1.00  0.00     0.062 A 
ATOM     17  C   UNL     1       4.525  -0.097  -7.167  1.00  0.00     0.158 A 
BRANCH  15  18
ATOM     18  O   UNL     1       6.038   1.245  -5.753  1.00  0.00    -0.504 OA
ATOM     19  H   UNL     1       6.897   0.923  -6.175  1.00  0.00     0.293 HD
ENDBRANCH  15  18
BRANCH  17  20
ATOM     20  O   UNL     1       5.514  -0.416  -8.101  1.00  0.00    -0.504 OA
ATOM     21  H   UNL     1       5.375  -0.392  -9.101  1.00  0.00     0.293 HD
ENDBRANCH  17  20
ENDBRANCH   1  12
BRANCH   6  22
ATOM     22  O   UNL     1      -3.597  -3.369  -7.691  1.00  0.00    -0.507 OA
ATOM     23  H   UNL     1      -3.951  -3.394  -8.635  1.00  0.00     0.293 HD
ENDBRANCH   6  22
BRANCH   8  24
ATOM     24  O   UNL     1      -4.768   0.398  -4.952  1.00  0.00    -0.508 OA
ATOM     25  H   UNL     1      -5.168   1.233  -5.359  1.00  0.00     0.293 HD
ENDBRANCH   8  24
TORSDOF 5
ENDMDL
MODEL 7
REMARK VINA RESULT:    -4.727      3.077      3.535
REMARK INTER + INTRA:          -5.861
REMARK INTER:                  -5.595
REMARK INTRA:                  -0.267
REMARK UNBOUND:                -0.306
REMARK SMILES O=c1cc(-c2ccc(O)c(O)c2)oc2cc(O)cc(O)c12
REMARK SMILES IDX 4 1 3 2 2 3 1 4 21 5 19 6 18 7 16 8 15 9 14 10 13 11 5 12
REMARK SMILES IDX 6 13 7 14 8 15 12 16 10 17 9 18 11 20 20 22 17 24
REMARK H PARENT 9 19 11 21 20 23 17 25
REMARK Flexibility Score: inf
ROOT
ATOM      1  C   UNL     1      -0.961   0.824  -7.158  1.00  0.00     0.138 A 
ATOM      2  C   UNL     1      -2.359   0.796  -7.271  1.00  0.00     0.100 A 
ATOM      3  C   UNL     1      -3.041  -0.408  -7.089  1.00  0.00     0.197 A 
ATOM      4  O   UNL     1      -4.298  -0.391  -7.135  1.00  0.00    -0.289 OA
ATOM      5  C   UNL     1      -2.316  -1.594  -6.825  1.00  0.00     0.107 A 
ATOM      6  C   UNL     1      -2.902  -2.886  -6.662  1.00  0.00     0.134 A 
ATOM      7  C   UNL     1      -2.095  -3.967  -6.287  1.00  0.00     0.093 A 
ATOM      8  C   UNL     1      -0.716  -3.817  -6.129  1.00  0.00     0.123 A 
ATOM      9  C   UNL     1      -0.126  -2.571  -6.338  1.00  0.00     0.094 A 
ATOM     10  C   UNL     1      -0.909  -1.466  -6.679  1.00  0.00     0.146 A 
ATOM     11  O   UNL     1      -0.310  -0.293  -6.854  1.00  0.00    -0.456 OA
ENDROOT
BRANCH   1  12
ATOM     12  C   UNL     1      -0.186   2.078  -7.343  1.00  0.00     0.021 A 
ATOM     13  C   UNL     1       0.482   2.304  -8.557  1.00  0.00     0.016 A 
ATOM     14  C   UNL     1       1.212   3.477  -8.757  1.00  0.00     0.051 A 
ATOM     15  C   UNL     1       1.283   4.453  -7.758  1.00  0.00     0.157 A 
ATOM     16  C   UNL     1      -0.127   3.065  -6.343  1.00  0.00     0.062 A 
ATOM     17  C   UNL     1       0.600   4.247  -6.536  1.00  0.00     0.158 A 
BRANCH  15  18
ATOM     18  O   UNL     1       2.035   5.601  -8.019  1.00  0.00    -0.504 OA
ATOM     19  H   UNL     1       2.190   6.339  -7.348  1.00  0.00     0.293 HD
ENDBRANCH  15  18
BRANCH  17  20
ATOM     20  O   UNL     1       0.612   5.183  -5.500  1.00  0.00    -0.504 OA
ATOM     21  H   UNL     1      -0.201   5.700  -5.196  1.00  0.00     0.293 HD
ENDBRANCH  17  20
ENDBRANCH   1  12
BRANCH   6  22
ATOM     22  O   UNL     1      -4.255  -3.162  -6.880  1.00  0.00    -0.507 OA
ATOM     23  H   UNL     1      -5.021  -2.684  -6.431  1.00  0.00     0.293 HD
ENDBRANCH   6  22
BRANCH   8  24
ATOM     24  O   UNL     1       0.081  -4.902  -5.770  1.00  0.00    -0.508 OA
ATOM     25  H   UNL     1       0.405  -5.572  -6.457  1.00  0.00     0.293 HD
ENDBRANCH   8  24
TORSDOF 5
ENDMDL
MODEL 8
REMARK VINA RESULT:    -4.635      2.232      3.086
REMARK INTER + INTRA:          -5.754
REMARK INTER:                  -5.470
REMARK INTRA:                  -0.284
REMARK UNBOUND:                -0.306
REMARK SMILES O=c1cc(-c2ccc(O)c(O)c2)oc2cc(O)cc(O)c12
REMARK SMILES IDX 4 1 3 2 2 3 1 4 21 5 19 6 18 7 16 8 15 9 14 10 13 11 5 12
REMARK SMILES IDX 6 13 7 14 8 15 12 16 10 17 9 18 11 20 20 22 17 24
REMARK H PARENT 9 19 11 21 20 23 17 25
REMARK Flexibility Score: inf
ROOT
ATOM      1  C   UNL     1      -1.596  -0.778  -6.359  1.00  0.00     0.138 A 
ATOM      2  C   UNL     1      -2.972  -0.597  -6.160  1.00  0.00     0.100 A 
ATOM      3  C   UNL     1      -3.836  -1.686  -6.277  1.00  0.00     0.197 A 
ATOM      4  O   UNL     1      -5.056  -1.506  -6.031  1.00  0.00    -0.289 OA
ATOM      5  C   UNL     1      -3.321  -2.957  -6.629  1.00  0.00     0.107 A 
ATOM      6  C   UNL     1      -4.112  -4.130  -6.818  1.00  0.00     0.134 A 
ATOM      7  C   UNL     1      -3.480  -5.358  -7.049  1.00  0.00     0.093 A 
ATOM      8  C   UNL     1      -2.090  -5.444  -7.160  1.00  0.00     0.123 A 
ATOM      9  C   UNL     1      -1.313  -4.295  -7.030  1.00  0.00     0.094 A 
ATOM     10  C   UNL     1      -1.911  -3.061  -6.764  1.00  0.00     0.146 A 
ATOM     11  O   UNL     1      -1.133  -1.993  -6.634  1.00  0.00    -0.456 OA
ENDROOT
BRANCH   1  12
ATOM     12  C   UNL     1      -0.633   0.347  -6.247  1.00  0.00     0.021 A 
ATOM     13  C   UNL     1       0.636   0.117  -5.693  1.00  0.00     0.016 A 
ATOM     14  C   UNL     1       1.562   1.156  -5.582  1.00  0.00     0.051 A 
ATOM     15  C   UNL     1       1.247   2.442  -6.030  1.00  0.00     0.157 A 
ATOM     16  C   UNL     1      -0.945   1.638  -6.711  1.00  0.00     0.062 A 
ATOM     17  C   UNL     1      -0.021   2.686  -6.607  1.00  0.00     0.158 A 
BRANCH  15  18
ATOM     18  O   UNL     1       2.215   3.439  -5.885  1.00  0.00    -0.504 OA
ATOM     19  H   UNL     1       2.558   4.008  -6.645  1.00  0.00     0.293 HD
ENDBRANCH  15  18
BRANCH  17  20
ATOM     20  O   UNL     1      -0.400   3.940  -7.091  1.00  0.00    -0.504 OA
ATOM     21  H   UNL     1      -1.223   4.103  -7.654  1.00  0.00     0.293 HD
ENDBRANCH  17  20
ENDBRANCH   1  12
BRANCH   6  22
ATOM     22  O   UNL     1      -5.511  -4.139  -6.812  1.00  0.00    -0.507 OA
ATOM     23  H   UNL     1      -6.081  -4.897  -6.473  1.00  0.00     0.293 HD
ENDBRANCH   6  22
BRANCH   8  24
ATOM     24  O   UNL     1      -1.472  -6.668  -7.406  1.00  0.00    -0.508 OA
ATOM     25  H   UNL     1      -0.512  -6.841  -7.134  1.00  0.00     0.293 HD
ENDBRANCH   8  24
TORSDOF 5
ENDMDL
MODEL 9
REMARK VINA RESULT:    -4.635      2.147      7.127
REMARK INTER + INTRA:          -5.754
REMARK INTER:                  -5.490
REMARK INTRA:                  -0.263
REMARK UNBOUND:                -0.306
REMARK SMILES O=c1cc(-c2ccc(O)c(O)c2)oc2cc(O)cc(O)c12
REMARK SMILES IDX 4 1 3 2 2 3 1 4 21 5 19 6 18 7 16 8 15 9 14 10 13 11 5 12
REMARK SMILES IDX 6 13 7 14 8 15 12 16 10 17 9 18 11 20 20 22 17 24
REMARK H PARENT 9 19 11 21 20 23 17 25
REMARK Flexibility Score: inf
ROOT
ATOM      1  C   UNL     1       1.167  -0.783  -7.299  1.00  0.00     0.138 A 
ATOM      2  C   UNL     1       2.557  -0.747  -7.477  1.00  0.00     0.100 A 
ATOM      3  C   UNL     1       3.252   0.442  -7.248  1.00  0.00     0.197 A 
ATOM      4  O   UNL     1       4.505   0.427  -7.355  1.00  0.00    -0.289 OA
ATOM      5  C   UNL     1       2.544   1.608  -6.871  1.00  0.00     0.107 A 
ATOM      6  C   UNL     1       3.142   2.886  -6.651  1.00  0.00     0.134 A 
ATOM      7  C   UNL     1       2.358   3.939  -6.166  1.00  0.00     0.093 A 
ATOM      8  C   UNL     1       0.987   3.779  -5.952  1.00  0.00     0.123 A 
ATOM      9  C   UNL     1       0.385   2.551  -6.214  1.00  0.00     0.094 A 
ATOM     10  C   UNL     1       1.146   1.470  -6.666  1.00  0.00     0.146 A 
ATOM     11  O   UNL     1       0.535   0.312  -6.890  1.00  0.00    -0.456 OA
ENDROOT
BRANCH   1  12
ATOM     12  C   UNL     1       0.379  -2.021  -7.529  1.00  0.00     0.021 A 
ATOM     13  C   UNL     1      -0.282  -2.201  -8.754  1.00  0.00     0.016 A 
ATOM     14  C   UNL     1      -1.023  -3.359  -8.997  1.00  0.00     0.051 A 
ATOM     15  C   UNL     1      -1.113  -4.365  -8.030  1.00  0.00     0.157 A 
ATOM     16  C   UNL     1       0.301  -3.039  -6.561  1.00  0.00     0.062 A 
ATOM     17  C   UNL     1      -0.437  -4.205  -6.797  1.00  0.00     0.158 A 
BRANCH  15  18
ATOM     18  O   UNL     1      -1.875  -5.495  -8.333  1.00  0.00    -0.504 OA
ATOM     19  H   UNL     1      -2.846  -5.607  -8.078  1.00  0.00     0.293 HD
ENDBRANCH  15  18
BRANCH  17  20
ATOM     20  O   UNL     1      -0.468  -5.173  -5.791  1.00  0.00    -0.504 OA
ATOM     21  H   UNL     1      -1.237  -5.811  -5.644  1.00  0.00     0.293 HD
ENDBRANCH  17  20
ENDBRANCH   1  12
BRANCH   6  22
ATOM     22  O   UNL     1       4.485   3.176  -6.915  1.00  0.00    -0.507 OA
ATOM     23  H   UNL     1       5.060   2.684  -7.581  1.00  0.00     0.293 HD
ENDBRANCH   6  22
BRANCH   8  24
ATOM     24  O   UNL     1       0.213   4.839  -5.484  1.00  0.00    -0.508 OA
ATOM     25  H   UNL     1       0.198   5.734  -5.957  1.00  0.00     0.293 HD
ENDBRANCH   8  24
TORSDOF 5
ENDMDL
