MODEL 1
REMARK VINA RESULT:    -4.072      0.000      0.000
REMARK INTER + INTRA:          -8.197
REMARK INTER:                  -6.928
REMARK INTRA:                  -1.269
REMARK UNBOUND:                -1.269
REMARK SMILES CCCCCCCCCCCCCC(=O)[O-]
REMARK SMILES IDX 8 1 9 2 10 3 11 4 12 5 13 6 14 7 15 8 16 9 7 10 6 11 5 12
REMARK SMILES IDX 4 13 3 14 2 15 1 16
REMARK H PARENT
REMARK Flexibility Score: inf
ROOT
ATOM      1  C   UNL     1     -10.374   3.716   5.143  1.00  0.00     0.000 C 
ENDROOT
BRANCH   1   2
ATOM      2  C   UNL     1      -8.858   3.897   5.308  1.00  0.00     0.000 C 
BRANCH   2   3
ATOM      3  C   UNL     1      -8.294   2.906   6.334  1.00  0.00     0.000 C 
BRANCH   3   4
ATOM      4  C   UNL     1      -6.888   2.438   5.929  1.00  0.00     0.000 C 
BRANCH   4   5
ATOM      5  C   UNL     1      -5.776   3.162   6.704  1.00  0.00     0.006 C 
BRANCH   5   6
ATOM      6  C   UNL     1      -5.342   2.403   7.964  1.00  0.00     0.053 C 
BRANCH   6   7
ATOM      7  C   UNL     1      -4.017   1.742   7.744  1.00  0.00     0.041 C 
ATOM      8  O   UNL     1      -3.871   0.913   6.809  1.00  0.00    -0.550 OA
ATOM      9  O   UNL     1      -2.960   2.002   8.606  1.00  0.00    -0.550 OA
ENDBRANCH   6   7
ENDBRANCH   5   6
ENDBRANCH   4   5
ENDBRANCH   3   4
ENDBRANCH   2   3
ENDBRANCH   1   2
BRANCH   1  10
ATOM     10  C   UNL     1     -10.760   2.279   4.759  1.00  0.00     0.000 C 
BRANCH  10  11
ATOM     11  C   UNL     1     -11.728   1.636   5.768  1.00  0.00    -0.000 C 
BRANCH  11  12
ATOM     12  C   UNL     1     -11.473   0.133   5.955  1.00  0.00    -0.000 C 
BRANCH  12  13
ATOM     13  C   UNL     1      -9.993  -0.184   6.238  1.00  0.00    -0.000 C 
BRANCH  13  14
ATOM     14  C   UNL     1      -9.464  -1.332   5.352  1.00  0.00    -0.000 C 
BRANCH  14  15
ATOM     15  C   UNL     1      -9.471  -1.004   3.850  1.00  0.00    -0.003 C 
ATOM     16  C   UNL     1      -8.195  -0.309   3.382  1.00  0.00     0.004 C 
ENDBRANCH  14  15
ENDBRANCH  13  14
ENDBRANCH  12  13
ENDBRANCH  11  12
ENDBRANCH  10  11
ENDBRANCH   1  10
TORSDOF 12
ENDMDL
MODEL 2
REMARK VINA RESULT:    -3.981      1.418      2.202
REMARK INTER + INTRA:          -8.044
REMARK INTER:                  -6.510
REMARK INTRA:                  -1.534
REMARK UNBOUND:                -1.269
REMARK SMILES CCCCCCCCCCCCCC(=O)[O-]
REMARK SMILES IDX 8 1 9 2 10 3 11 4 12 5 13 6 14 7 15 8 16 9 7 10 6 11 5 12
REMARK SMILES IDX 4 13 3 14 2 15 1 16
REMARK H PARENT
REMARK Flexibility Score: inf
ROOT
ATOM      1  C   UNL     1      -9.785   0.901   8.873  1.00  0.00     0.000 C 
ENDROOT
BRANCH   1   2
ATOM      2  C   UNL     1      -8.610   1.116   7.908  1.00  0.00     0.000 C 
BRANCH   2   3
ATOM      3  C   UNL     1      -8.497   2.590   7.499  1.00  0.00     0.000 C 
BRANCH   3   4
ATOM      4  C   UNL     1      -8.042   2.720   6.037  1.00  0.00     0.000 C 
BRANCH   4   5
ATOM      5  C   UNL     1      -6.517   2.607   5.879  1.00  0.00     0.006 C 
BRANCH   5   6
ATOM      6  C   UNL     1      -5.757   3.089   7.121  1.00  0.00     0.053 C 
BRANCH   6   7
ATOM      7  C   UNL     1      -4.894   1.992   7.661  1.00  0.00     0.041 C 
ATOM      8  O   UNL     1      -4.854   1.770   8.899  1.00  0.00    -0.550 OA
ATOM      9  O   UNL     1      -4.092   1.251   6.802  1.00  0.00    -0.550 OA
ENDBRANCH   6   7
ENDBRANCH   5   6
ENDBRANCH   4   5
ENDBRANCH   3   4
ENDBRANCH   2   3
ENDBRANCH   1   2
BRANCH   1  10
ATOM     10  C   UNL     1     -11.123   1.383   8.290  1.00  0.00     0.000 C 
BRANCH  10  11
ATOM     11  C   UNL     1     -11.627   0.486   7.145  1.00  0.00    -0.000 C 
BRANCH  11  12
ATOM     12  C   UNL     1     -11.792   1.254   5.824  1.00  0.00    -0.000 C 
BRANCH  12  13
ATOM     13  C   UNL     1     -10.783   0.808   4.751  1.00  0.00    -0.000 C 
BRANCH  13  14
ATOM     14  C   UNL     1     -10.076  -0.510   5.129  1.00  0.00    -0.000 C 
BRANCH  14  15
ATOM     15  C   UNL     1      -9.365  -1.189   3.946  1.00  0.00    -0.003 C 
ATOM     16  C   UNL     1      -8.217  -0.358   3.380  1.00  0.00     0.004 C 
ENDBRANCH  14  15
ENDBRANCH  13  14
ENDBRANCH  12  13
ENDBRANCH  11  12
ENDBRANCH  10  11
ENDBRANCH   1  10
TORSDOF 12
ENDMDL
MODEL 3
REMARK VINA RESULT:    -3.845     13.022     15.093
REMARK INTER + INTRA:          -7.811
REMARK INTER:                  -6.248
REMARK INTRA:                  -1.563
REMARK UNBOUND:                -1.269
REMARK SMILES CCCCCCCCCCCCCC(=O)[O-]
REMARK SMILES IDX 8 1 9 2 10 3 11 4 12 5 13 6 14 7 15 8 16 9 7 10 6 11 5 12
REMARK SMILES IDX 4 13 3 14 2 15 1 16
REMARK H PARENT
REMARK Flexibility Score: inf
ROOT
ATOM      1  C   UNL     1      -0.288 -14.397   6.501  1.00  0.00     0.000 C 
ENDROOT
BRANCH   1   2
ATOM      2  C   UNL     1       0.643 -13.665   5.522  1.00  0.00     0.000 C 
BRANCH   2   3
ATOM      3  C   UNL     1       1.905 -13.162   6.236  1.00  0.00     0.000 C 
BRANCH   3   4
ATOM      4  C   UNL     1       1.546 -12.476   7.563  1.00  0.00     0.000 C 
BRANCH   4   5
ATOM      5  C   UNL     1       1.273 -10.973   7.398  1.00  0.00     0.006 C 
BRANCH   5   6
ATOM      6  C   UNL     1       0.512 -10.376   8.588  1.00  0.00     0.053 C 
BRANCH   6   7
ATOM      7  C   UNL     1       0.632  -8.884   8.589  1.00  0.00     0.041 C 
ATOM      8  O   UNL     1       0.881  -8.268   7.519  1.00  0.00    -0.550 OA
ATOM      9  O   UNL     1       0.522  -8.178   9.780  1.00  0.00    -0.550 OA
ENDBRANCH   6   7
ENDBRANCH   5   6
ENDBRANCH   4   5
ENDBRANCH   3   4
ENDBRANCH   2   3
ENDBRANCH   1   2
BRANCH   1  10
ATOM     10  C   UNL     1      -1.751 -13.944   6.374  1.00  0.00     0.000 C 
BRANCH  10  11
ATOM     11  C   UNL     1      -1.939 -12.838   5.321  1.00  0.00    -0.000 C 
BRANCH  11  12
ATOM     12  C   UNL     1      -2.865 -11.712   5.806  1.00  0.00    -0.000 C 
BRANCH  12  13
ATOM     13  C   UNL     1      -2.108 -10.400   6.076  1.00  0.00    -0.000 C 
BRANCH  13  14
ATOM     14  C   UNL     1      -2.848  -9.498   7.086  1.00  0.00    -0.000 C 
BRANCH  14  15
ATOM     15  C   UNL     1      -2.550  -7.999   6.909  1.00  0.00    -0.003 C 
ATOM     16  C   UNL     1      -2.124  -7.639   5.488  1.00  0.00     0.004 C 
ENDBRANCH  14  15
ENDBRANCH  13  14
ENDBRANCH  12  13
ENDBRANCH  11  12
ENDBRANCH  10  11
ENDBRANCH   1  10
TORSDOF 12
ENDMDL
MODEL 4
REMARK VINA RESULT:    -3.824      2.560      3.572
REMARK INTER + INTRA:          -7.776
REMARK INTER:                  -6.115
REMARK INTRA:                  -1.661
REMARK UNBOUND:                -1.269
REMARK SMILES CCCCCCCCCCCCCC(=O)[O-]
REMARK SMILES IDX 8 1 9 2 10 3 11 4 12 5 13 6 14 7 15 8 16 9 7 10 6 11 5 12
REMARK SMILES IDX 4 13 3 14 2 15 1 16
REMARK H PARENT
REMARK Flexibility Score: inf
ROOT
ATOM      1  C   UNL     1     -12.151   1.573   8.525  1.00  0.00     0.000 C 
ENDROOT
BRANCH   1   2
ATOM      2  C   UNL     1     -11.579   0.653   9.614  1.00  0.00     0.000 C 
BRANCH   2   3
ATOM      3  C   UNL     1     -10.069   0.455   9.429  1.00  0.00     0.000 C 
BRANCH   3   4
ATOM      4  C   UNL     1      -9.437   1.674   8.739  1.00  0.00     0.000 C 
BRANCH   4   5
ATOM      5  C   UNL     1      -8.067   1.358   8.118  1.00  0.00     0.006 C 
BRANCH   5   6
ATOM      6  C   UNL     1      -7.405   2.591   7.490  1.00  0.00     0.053 C 
BRANCH   6   7
ATOM      7  C   UNL     1      -7.642   2.615   6.013  1.00  0.00     0.041 C 
ATOM      8  O   UNL     1      -6.973   1.868   5.252  1.00  0.00    -0.550 OA
ATOM      9  O   UNL     1      -8.564   3.502   5.471  1.00  0.00    -0.550 OA
ENDBRANCH   6   7
ENDBRANCH   5   6
ENDBRANCH   4   5
ENDBRANCH   3   4
ENDBRANCH   2   3
ENDBRANCH   1   2
BRANCH   1  10
ATOM     10  C   UNL     1     -13.251   0.891   7.695  1.00  0.00     0.000 C 
BRANCH  10  11
ATOM     11  C   UNL     1     -12.878   0.769   6.207  1.00  0.00    -0.000 C 
BRANCH  11  12
ATOM     12  C   UNL     1     -11.608   1.558   5.851  1.00  0.00    -0.000 C 
BRANCH  12  13
ATOM     13  C   UNL     1     -10.731   0.829   4.818  1.00  0.00    -0.000 C 
BRANCH  13  14
ATOM     14  C   UNL     1      -9.987  -0.375   5.432  1.00  0.00    -0.000 C 
BRANCH  14  15
ATOM     15  C   UNL     1      -9.380  -1.325   4.385  1.00  0.00    -0.003 C 
ATOM     16  C   UNL     1      -8.480  -0.611   3.380  1.00  0.00     0.004 C 
ENDBRANCH  14  15
ENDBRANCH  13  14
ENDBRANCH  12  13
ENDBRANCH  11  12
ENDBRANCH  10  11
ENDBRANCH   1  10
TORSDOF 12
ENDMDL
MODEL 5
REMARK VINA RESULT:    -3.803     13.095     14.875
REMARK INTER + INTRA:          -7.740
REMARK INTER:                  -5.963
REMARK INTRA:                  -1.776
REMARK UNBOUND:                -1.269
REMARK SMILES CCCCCCCCCCCCCC(=O)[O-]
REMARK SMILES IDX 8 1 9 2 10 3 11 4 12 5 13 6 14 7 15 8 16 9 7 10 6 11 5 12
REMARK SMILES IDX 4 13 3 14 2 15 1 16
REMARK H PARENT
REMARK Flexibility Score: inf
ROOT
ATOM      1  C   UNL     1      -2.562  -9.360   6.511  1.00  0.00     0.000 C 
ENDROOT
BRANCH   1   2
ATOM      2  C   UNL     1      -1.555  -8.314   7.012  1.00  0.00     0.000 C 
BRANCH   2   3
ATOM      3  C   UNL     1      -0.128  -8.675   6.582  1.00  0.00     0.000 C 
BRANCH   3   4
ATOM      4  C   UNL     1       0.821  -8.693   7.791  1.00  0.00     0.000 C 
BRANCH   4   5
ATOM      5  C   UNL     1       0.071  -8.652   9.132  1.00  0.00     0.006 C 
BRANCH   5   6
ATOM      6  C   UNL     1       0.784  -9.450  10.232  1.00  0.00     0.053 C 
BRANCH   6   7
ATOM      7  C   UNL     1       0.701 -10.917   9.948  1.00  0.00     0.041 C 
ATOM      8  O   UNL     1      -0.405 -11.515  10.021  1.00  0.00    -0.550 OA
ATOM      9  O   UNL     1       1.853 -11.635   9.655  1.00  0.00    -0.550 OA
ENDBRANCH   6   7
ENDBRANCH   5   6
ENDBRANCH   4   5
ENDBRANCH   3   4
ENDBRANCH   2   3
ENDBRANCH   1   2
BRANCH   1  10
ATOM     10  C   UNL     1      -2.783 -10.498   7.519  1.00  0.00     0.000 C 
BRANCH  10  11
ATOM     11  C   UNL     1      -2.138 -11.821   7.069  1.00  0.00    -0.000 C 
BRANCH  11  12
ATOM     12  C   UNL     1      -1.913 -11.880   5.550  1.00  0.00    -0.000 C 
BRANCH  12  13
ATOM     13  C   UNL     1      -0.440 -12.126   5.181  1.00  0.00    -0.000 C 
BRANCH  13  14
ATOM     14  C   UNL     1       0.465 -12.222   6.427  1.00  0.00    -0.000 C 
BRANCH  14  15
ATOM     15  C   UNL     1       1.259 -13.537   6.512  1.00  0.00    -0.003 C 
ATOM     16  C   UNL     1       2.754 -13.349   6.268  1.00  0.00     0.004 C 
ENDBRANCH  14  15
ENDBRANCH  13  14
ENDBRANCH  12  13
ENDBRANCH  11  12
ENDBRANCH  10  11
ENDBRANCH   1  10
TORSDOF 12
ENDMDL
MODEL 6
REMARK VINA RESULT:    -3.711      2.198      3.157
REMARK INTER + INTRA:          -7.584
REMARK INTER:                  -6.075
REMARK INTRA:                  -1.509
REMARK UNBOUND:                -1.269
REMARK SMILES CCCCCCCCCCCCCC(=O)[O-]
REMARK SMILES IDX 8 1 9 2 10 3 11 4 12 5 13 6 14 7 15 8 16 9 7 10 6 11 5 12
REMARK SMILES IDX 4 13 3 14 2 15 1 16
REMARK H PARENT
REMARK Flexibility Score: inf
ROOT
ATOM      1  C   UNL     1     -11.027   1.651   8.819  1.00  0.00     0.000 C 
ENDROOT
BRANCH   1   2
ATOM      2  C   UNL     1     -10.650   3.121   9.056  1.00  0.00     0.000 C 
BRANCH   2   3
ATOM      3  C   UNL     1     -11.246   4.023   7.967  1.00  0.00     0.000 C 
BRANCH   3   4
ATOM      4  C   UNL     1     -10.144   4.815   7.248  1.00  0.00     0.000 C 
BRANCH   4   5
ATOM      5  C   UNL     1      -9.315   3.942   6.292  1.00  0.00     0.006 C 
BRANCH   5   6
ATOM      6  C   UNL     1      -7.866   3.762   6.764  1.00  0.00     0.053 C 
BRANCH   6   7
ATOM      7  C   UNL     1      -7.417   2.352   6.538  1.00  0.00     0.041 C 
ATOM      8  O   UNL     1      -6.752   2.056   5.511  1.00  0.00    -0.550 OA
ATOM      9  O   UNL     1      -7.778   1.356   7.436  1.00  0.00    -0.550 OA
ENDBRANCH   6   7
ENDBRANCH   5   6
ENDBRANCH   4   5
ENDBRANCH   3   4
ENDBRANCH   2   3
ENDBRANCH   1   2
BRANCH   1  10
ATOM     10  C   UNL     1     -12.274   1.495   7.935  1.00  0.00     0.000 C 
BRANCH  10  11
ATOM     11  C   UNL     1     -12.083   0.450   6.822  1.00  0.00    -0.000 C 
BRANCH  11  12
ATOM     12  C   UNL     1     -11.714   1.086   5.473  1.00  0.00    -0.000 C 
BRANCH  12  13
ATOM     13  C   UNL     1     -10.282   0.739   5.029  1.00  0.00    -0.000 C 
BRANCH  13  14
ATOM     14  C   UNL     1     -10.015  -0.781   5.061  1.00  0.00    -0.000 C 
BRANCH  14  15
ATOM     15  C   UNL     1      -9.199  -1.289   3.860  1.00  0.00    -0.003 C 
ATOM     16  C   UNL     1      -8.220  -0.250   3.320  1.00  0.00     0.004 C 
ENDBRANCH  14  15
ENDBRANCH  13  14
ENDBRANCH  12  13
ENDBRANCH  11  12
ENDBRANCH  10  11
ENDBRANCH   1  10
TORSDOF 12
ENDMDL
MODEL 7
REMARK VINA RESULT:    -3.707     13.471     15.630
REMARK INTER + INTRA:          -7.577
REMARK INTER:                  -5.762
REMARK INTRA:                  -1.815
REMARK UNBOUND:                -1.269
REMARK SMILES CCCCCCCCCCCCCC(=O)[O-]
REMARK SMILES IDX 8 1 9 2 10 3 11 4 12 5 13 6 14 7 15 8 16 9 7 10 6 11 5 12
REMARK SMILES IDX 4 13 3 14 2 15 1 16
REMARK H PARENT
REMARK Flexibility Score: inf
ROOT
ATOM      1  C   UNL     1      -0.493 -10.753  10.500  1.00  0.00     0.000 C 
ENDROOT
BRANCH   1   2
ATOM      2  C   UNL     1      -1.043 -11.904   9.644  1.00  0.00     0.000 C 
BRANCH   2   3
ATOM      3  C   UNL     1       0.058 -12.509   8.763  1.00  0.00     0.000 C 
BRANCH   3   4
ATOM      4  C   UNL     1      -0.358 -12.499   7.284  1.00  0.00     0.000 C 
BRANCH   4   5
ATOM      5  C   UNL     1       0.848 -12.528   6.330  1.00  0.00     0.006 C 
BRANCH   5   6
ATOM      6  C   UNL     1       2.120 -11.957   6.968  1.00  0.00     0.053 C 
BRANCH   6   7
ATOM      7  C   UNL     1       3.299 -12.820   6.642  1.00  0.00     0.041 C 
ATOM      8  O   UNL     1       4.432 -12.550   7.120  1.00  0.00    -0.550 OA
ATOM      9  O   UNL     1       3.156 -13.890   5.768  1.00  0.00    -0.550 OA
ENDBRANCH   6   7
ENDBRANCH   5   6
ENDBRANCH   4   5
ENDBRANCH   3   4
ENDBRANCH   2   3
ENDBRANCH   1   2
BRANCH   1  10
ATOM     10  C   UNL     1       0.755 -10.102   9.882  1.00  0.00     0.000 C 
BRANCH  10  11
ATOM     11  C   UNL     1       0.446  -8.753   9.209  1.00  0.00    -0.000 C 
BRANCH  11  12
ATOM     12  C   UNL     1       0.863  -8.723   7.730  1.00  0.00    -0.000 C 
BRANCH  12  13
ATOM     13  C   UNL     1      -0.340  -8.807   6.775  1.00  0.00    -0.000 C 
BRANCH  13  14
ATOM     14  C   UNL     1      -1.686  -8.767   7.529  1.00  0.00    -0.000 C 
BRANCH  14  15
ATOM     15  C   UNL     1      -2.867  -8.307   6.657  1.00  0.00    -0.003 C 
ATOM     16  C   UNL     1      -2.446  -7.378   5.521  1.00  0.00     0.004 C 
ENDBRANCH  14  15
ENDBRANCH  13  14
ENDBRANCH  12  13
ENDBRANCH  11  12
ENDBRANCH  10  11
ENDBRANCH   1  10
TORSDOF 12
ENDMDL
MODEL 8
REMARK VINA RESULT:    -3.683     13.593     15.602
REMARK INTER + INTRA:          -7.536
REMARK INTER:                  -5.787
REMARK INTRA:                  -1.749
REMARK UNBOUND:                -1.269
REMARK SMILES CCCCCCCCCCCCCC(=O)[O-]
REMARK SMILES IDX 8 1 9 2 10 3 11 4 12 5 13 6 14 7 15 8 16 9 7 10 6 11 5 12
REMARK SMILES IDX 4 13 3 14 2 15 1 16
REMARK H PARENT
REMARK Flexibility Score: inf
ROOT
ATOM      1  C   UNL     1       0.788 -11.105   8.045  1.00  0.00     0.000 C 
ENDROOT
BRANCH   1   2
ATOM      2  C   UNL     1       0.714  -9.895   8.988  1.00  0.00     0.000 C 
BRANCH   2   3
ATOM      3  C   UNL     1       0.423  -8.607   8.208  1.00  0.00     0.000 C 
BRANCH   3   4
ATOM      4  C   UNL     1       0.146  -8.913   6.728  1.00  0.00     0.000 C 
BRANCH   4   5
ATOM      5  C   UNL     1      -1.265  -8.491   6.290  1.00  0.00     0.006 C 
BRANCH   5   6
ATOM      6  C   UNL     1      -2.239  -8.369   7.469  1.00  0.00     0.053 C 
BRANCH   6   7
ATOM      7  C   UNL     1      -2.924  -9.676   7.717  1.00  0.00     0.041 C 
ATOM      8  O   UNL     1      -3.337 -10.368   6.751  1.00  0.00    -0.550 OA
ATOM      9  O   UNL     1      -3.153 -10.104   9.019  1.00  0.00    -0.550 OA
ENDBRANCH   6   7
ENDBRANCH   5   6
ENDBRANCH   4   5
ENDBRANCH   3   4
ENDBRANCH   2   3
ENDBRANCH   1   2
BRANCH   1  10
ATOM     10  C   UNL     1      -0.202 -12.215   8.431  1.00  0.00     0.000 C 
BRANCH  10  11
ATOM     11  C   UNL     1      -0.934 -12.805   7.212  1.00  0.00    -0.000 C 
BRANCH  11  12
ATOM     12  C   UNL     1      -0.218 -12.495   5.888  1.00  0.00    -0.000 C 
BRANCH  12  13
ATOM     13  C   UNL     1       0.186 -13.767   5.123  1.00  0.00    -0.000 C 
BRANCH  13  14
ATOM     14  C   UNL     1       1.228 -14.605   5.894  1.00  0.00    -0.000 C 
BRANCH  14  15
ATOM     15  C   UNL     1       2.681 -14.316   5.479  1.00  0.00    -0.003 C 
ATOM     16  C   UNL     1       3.373 -13.305   6.389  1.00  0.00     0.004 C 
ENDBRANCH  14  15
ENDBRANCH  13  14
ENDBRANCH  12  13
ENDBRANCH  11  12
ENDBRANCH  10  11
ENDBRANCH   1  10
TORSDOF 12
ENDMDL
MODEL 9
REMARK VINA RESULT:    -3.663     12.822     15.022
REMARK INTER + INTRA:          -7.503
REMARK INTER:                  -5.598
REMARK INTRA:                  -1.904
REMARK UNBOUND:                -1.269
REMARK SMILES CCCCCCCCCCCCCC(=O)[O-]
REMARK SMILES IDX 8 1 9 2 10 3 11 4 12 5 13 6 14 7 15 8 16 9 7 10 6 11 5 12
REMARK SMILES IDX 4 13 3 14 2 15 1 16
REMARK H PARENT
REMARK Flexibility Score: inf
ROOT
ATOM      1  C   UNL     1      -0.506  -8.441   7.689  1.00  0.00     0.000 C 
ENDROOT
BRANCH   1   2
ATOM      2  C   UNL     1      -1.450  -8.325   6.483  1.00  0.00     0.000 C 
BRANCH   2   3
ATOM      3  C   UNL     1      -2.718  -9.163   6.695  1.00  0.00     0.000 C 
BRANCH   3   4
ATOM      4  C   UNL     1      -2.876  -9.553   8.173  1.00  0.00     0.000 C 
BRANCH   4   5
ATOM      5  C   UNL     1      -3.696 -10.840   8.361  1.00  0.00     0.006 C 
BRANCH   5   6
ATOM      6  C   UNL     1      -4.104 -11.481   7.029  1.00  0.00     0.053 C 
BRANCH   6   7
ATOM      7  C   UNL     1      -5.459 -12.106   7.144  1.00  0.00     0.041 C 
ATOM      8  O   UNL     1      -6.433 -11.630   6.505  1.00  0.00    -0.550 OA
ATOM      9  O   UNL     1      -5.657 -13.182   8.000  1.00  0.00    -0.550 OA
ENDBRANCH   6   7
ENDBRANCH   5   6
ENDBRANCH   4   5
ENDBRANCH   3   4
ENDBRANCH   2   3
ENDBRANCH   1   2
BRANCH   1  10
ATOM     10  C   UNL     1       0.947  -8.724   7.276  1.00  0.00     0.000 C 
BRANCH  10  11
ATOM     11  C   UNL     1       1.243 -10.228   7.145  1.00  0.00    -0.000 C 
BRANCH  11  12
ATOM     12  C   UNL     1       0.545 -11.063   8.230  1.00  0.00    -0.000 C 
BRANCH  12  13
ATOM     13  C   UNL     1      -0.305 -12.203   7.642  1.00  0.00    -0.000 C 
BRANCH  13  14
ATOM     14  C   UNL     1      -0.415 -12.115   6.106  1.00  0.00    -0.000 C 
BRANCH  14  15
ATOM     15  C   UNL     1       0.120 -13.359   5.377  1.00  0.00    -0.003 C 
ATOM     16  C   UNL     1       1.540 -13.731   5.793  1.00  0.00     0.004 C 
ENDBRANCH  14  15
ENDBRANCH  13  14
ENDBRANCH  12  13
ENDBRANCH  11  12
ENDBRANCH  10  11
ENDBRANCH   1  10
TORSDOF 12
ENDMDL
