MODEL 1
REMARK VINA RESULT:    -3.599      0.000      0.000
REMARK INTER + INTRA:          -4.759
REMARK INTER:                  -4.441
REMARK INTRA:                  -0.318
REMARK UNBOUND:                -0.318
REMARK SMILES Oc1cc(O)c2cc(O)c(-c3cc(O)c(O)c(O)c3)[o+]c2c1
REMARK SMILES IDX 10 1 20 2 21 3 22 4 2 5 3 6 4 7 6 8 7 9 8 10 11 11 12 12
REMARK SMILES IDX 13 13 19 14 15 15 17 16 14 17 16 19 18 21 9 23 1 25 5 27
REMARK H PARENT 14 18 16 20 18 22 9 24 1 26 5 28
REMARK Flexibility Score: inf
ROOT
ATOM      1  C   UNL     1     -23.511 -18.858 -13.229  1.00  0.00     0.402 A 
ATOM      2  O   UNL     1     -24.061 -17.976 -14.058  1.00  0.00    -0.202 OA
ATOM      3  C   UNL     1     -23.483 -16.825 -14.388  1.00  0.00     0.368 A 
ATOM      4  C   UNL     1     -24.141 -15.960 -15.266  1.00  0.00     0.162 A 
ATOM      5  C   UNL     1     -23.557 -14.742 -15.626  1.00  0.00     0.128 A 
ATOM      6  C   UNL     1     -22.311 -14.387 -15.105  1.00  0.00     0.093 A 
ATOM      7  C   UNL     1     -21.631 -15.237 -14.223  1.00  0.00     0.136 A 
ATOM      8  C   UNL     1     -22.218 -16.475 -13.856  1.00  0.00     0.125 A 
ATOM      9  C   UNL     1     -21.605 -17.394 -12.989  1.00  0.00     0.078 A 
ATOM     10  C   UNL     1     -22.243 -18.598 -12.678  1.00  0.00     0.223 A 
ENDROOT
BRANCH   1  11
ATOM     11  C   UNL     1     -24.259 -20.102 -12.932  1.00  0.00     0.091 A 
ATOM     12  C   UNL     1     -24.329 -21.152 -13.860  1.00  0.00     0.068 A 
ATOM     13  C   UNL     1     -25.021 -22.328 -13.554  1.00  0.00     0.162 A 
ATOM     14  C   UNL     1     -24.863 -20.260 -11.678  1.00  0.00     0.068 A 
ATOM     15  C   UNL     1     -25.647 -22.476 -12.304  1.00  0.00     0.200 A 
ATOM     16  C   UNL     1     -25.561 -21.429 -11.355  1.00  0.00     0.162 A 
BRANCH  13  17
ATOM     17  O   UNL     1     -25.070 -23.343 -14.510  1.00  0.00    -0.504 OA
ATOM     18  H   UNL     1     -24.365 -23.442 -15.231  1.00  0.00     0.293 HD
ENDBRANCH  13  17
BRANCH  15  19
ATOM     19  O   UNL     1     -26.336 -23.664 -12.042  1.00  0.00    -0.502 OA
ATOM     20  H   UNL     1     -25.914 -24.488 -11.638  1.00  0.00     0.293 HD
ENDBRANCH  15  19
BRANCH  16  21
ATOM     21  O   UNL     1     -26.146 -21.507 -10.089  1.00  0.00    -0.504 OA
ATOM     22  H   UNL     1     -26.245 -20.722  -9.461  1.00  0.00     0.293 HD
ENDBRANCH  16  21
ENDBRANCH   1  11
BRANCH  10  23
ATOM     23  O   UNL     1     -21.612 -19.532 -11.856  1.00  0.00    -0.500 OA
ATOM     24  H   UNL     1     -21.963 -19.752 -10.931  1.00  0.00     0.294 HD
ENDBRANCH  10  23
BRANCH   5  25
ATOM     25  O   UNL     1     -24.207 -13.875 -16.502  1.00  0.00    -0.507 OA
ATOM     26  H   UNL     1     -23.933 -13.800 -17.475  1.00  0.00     0.293 HD
ENDBRANCH   5  25
BRANCH   7  27
ATOM     27  O   UNL     1     -20.390 -14.807 -13.744  1.00  0.00    -0.507 OA
ATOM     28  H   UNL     1     -20.266 -14.101 -13.034  1.00  0.00     0.293 HD
ENDBRANCH   7  27
TORSDOF 7
ENDMDL
MODEL 2
REMARK VINA RESULT:    -2.004      1.503      3.097
REMARK INTER + INTRA:          -2.791
REMARK INTER:                  -2.660
REMARK INTRA:                  -0.131
REMARK UNBOUND:                -0.318
REMARK SMILES Oc1cc(O)c2cc(O)c(-c3cc(O)c(O)c(O)c3)[o+]c2c1
REMARK SMILES IDX 10 1 20 2 21 3 22 4 2 5 3 6 4 7 6 8 7 9 8 10 11 11 12 12
REMARK SMILES IDX 13 13 19 14 15 15 17 16 14 17 16 19 18 21 9 23 1 25 5 27
REMARK H PARENT 14 18 16 20 18 22 9 24 1 26 5 28
REMARK Flexibility Score: inf
ROOT
ATOM      1  C   UNL     1     -23.492 -18.428 -13.420  1.00  0.00     0.402 A 
ATOM      2  O   UNL     1     -22.402 -17.725 -13.125  1.00  0.00    -0.202 OA
ATOM      3  C   UNL     1     -22.172 -16.503 -13.594  1.00  0.00     0.368 A 
ATOM      4  C   UNL     1     -20.995 -15.845 -13.229  1.00  0.00     0.162 A 
ATOM      5  C   UNL     1     -20.727 -14.560 -13.711  1.00  0.00     0.128 A 
ATOM      6  C   UNL     1     -21.638 -13.933 -14.563  1.00  0.00     0.093 A 
ATOM      7  C   UNL     1     -22.825 -14.572 -14.944  1.00  0.00     0.136 A 
ATOM      8  C   UNL     1     -23.104 -15.874 -14.455  1.00  0.00     0.125 A 
ATOM      9  C   UNL     1     -24.273 -16.585 -14.773  1.00  0.00     0.078 A 
ATOM     10  C   UNL     1     -24.480 -17.864 -14.248  1.00  0.00     0.223 A 
ENDROOT
BRANCH   1  11
ATOM     11  C   UNL     1     -23.629 -19.784 -12.842  1.00  0.00     0.091 A 
ATOM     12  C   UNL     1     -24.739 -20.137 -12.059  1.00  0.00     0.068 A 
ATOM     13  C   UNL     1     -24.864 -21.429 -11.540  1.00  0.00     0.162 A 
ATOM     14  C   UNL     1     -22.662 -20.757 -13.127  1.00  0.00     0.068 A 
ATOM     15  C   UNL     1     -23.880 -22.397 -11.807  1.00  0.00     0.200 A 
ATOM     16  C   UNL     1     -22.768 -22.055 -12.615  1.00  0.00     0.162 A 
BRANCH  13  17
ATOM     17  O   UNL     1     -25.981 -21.732 -10.761  1.00  0.00    -0.504 OA
ATOM     18  H   UNL     1     -25.914 -21.915  -9.767  1.00  0.00     0.293 HD
ENDBRANCH  13  17
BRANCH  15  19
ATOM     19  O   UNL     1     -24.038 -23.675 -11.261  1.00  0.00    -0.502 OA
ATOM     20  H   UNL     1     -23.819 -24.531 -11.748  1.00  0.00     0.293 HD
ENDBRANCH  15  19
BRANCH  16  21
ATOM     21  O   UNL     1     -21.758 -22.964 -12.934  1.00  0.00    -0.504 OA
ATOM     22  H   UNL     1     -20.871 -22.705 -13.341  1.00  0.00     0.293 HD
ENDBRANCH  16  21
ENDBRANCH   1  11
BRANCH  10  23
ATOM     23  O   UNL     1     -25.663 -18.550 -14.524  1.00  0.00    -0.500 OA
ATOM     24  H   UNL     1     -26.269 -18.280 -15.291  1.00  0.00     0.294 HD
ENDBRANCH  10  23
BRANCH   5  25
ATOM     25  O   UNL     1     -19.555 -13.898 -13.351  1.00  0.00    -0.507 OA
ATOM     26  H   UNL     1     -19.004 -13.388 -14.032  1.00  0.00     0.293 HD
ENDBRANCH   5  25
BRANCH   7  27
ATOM     27  O   UNL     1     -23.683 -13.877 -15.801  1.00  0.00    -0.507 OA
ATOM     28  H   UNL     1     -24.527 -14.262 -16.199  1.00  0.00     0.293 HD
ENDBRANCH   7  27
TORSDOF 7
ENDMDL
MODEL 3
REMARK VINA RESULT:    -1.862      1.502      2.695
REMARK INTER + INTRA:          -2.615
REMARK INTER:                  -2.381
REMARK INTRA:                  -0.234
REMARK UNBOUND:                -0.318
REMARK SMILES Oc1cc(O)c2cc(O)c(-c3cc(O)c(O)c(O)c3)[o+]c2c1
REMARK SMILES IDX 10 1 20 2 21 3 22 4 2 5 3 6 4 7 6 8 7 9 8 10 11 11 12 12
REMARK SMILES IDX 13 13 19 14 15 15 17 16 14 17 16 19 18 21 9 23 1 25 5 27
REMARK H PARENT 14 18 16 20 18 22 9 24 1 26 5 28
REMARK Flexibility Score: inf
ROOT
ATOM      1  C   UNL     1     -23.496 -18.410 -13.448  1.00  0.00     0.402 A 
ATOM      2  O   UNL     1     -22.417 -17.704 -13.125  1.00  0.00    -0.202 OA
ATOM      3  C   UNL     1     -22.172 -16.485 -13.595  1.00  0.00     0.368 A 
ATOM      4  C   UNL     1     -21.008 -15.823 -13.200  1.00  0.00     0.162 A 
ATOM      5  C   UNL     1     -20.726 -14.542 -13.683  1.00  0.00     0.128 A 
ATOM      6  C   UNL     1     -21.611 -13.922 -14.566  1.00  0.00     0.093 A 
ATOM      7  C   UNL     1     -22.785 -14.564 -14.979  1.00  0.00     0.136 A 
ATOM      8  C   UNL     1     -23.078 -15.863 -14.489  1.00  0.00     0.125 A 
ATOM      9  C   UNL     1     -24.236 -16.577 -14.838  1.00  0.00     0.078 A 
ATOM     10  C   UNL     1     -24.459 -17.853 -14.310  1.00  0.00     0.223 A 
ENDROOT
BRANCH   1  11
ATOM     11  C   UNL     1     -23.650 -19.762 -12.864  1.00  0.00     0.091 A 
ATOM     12  C   UNL     1     -22.762 -20.801 -13.181  1.00  0.00     0.068 A 
ATOM     13  C   UNL     1     -22.909 -22.065 -12.604  1.00  0.00     0.162 A 
ATOM     14  C   UNL     1     -24.668 -19.998 -11.930  1.00  0.00     0.068 A 
ATOM     15  C   UNL     1     -23.946 -22.308 -11.685  1.00  0.00     0.200 A 
ATOM     16  C   UNL     1     -24.832 -21.258 -11.343  1.00  0.00     0.162 A 
BRANCH  13  17
ATOM     17  O   UNL     1     -22.007 -23.070 -12.954  1.00  0.00    -0.504 OA
ATOM     18  H   UNL     1     -21.451 -23.027 -13.800  1.00  0.00     0.293 HD
ENDBRANCH  13  17
BRANCH  15  19
ATOM     19  O   UNL     1     -24.063 -23.589 -11.137  1.00  0.00    -0.502 OA
ATOM     20  H   UNL     1     -24.228 -24.425 -11.679  1.00  0.00     0.293 HD
ENDBRANCH  15  19
BRANCH  16  21
ATOM     21  O   UNL     1     -25.877 -21.417 -10.431  1.00  0.00    -0.504 OA
ATOM     22  H   UNL     1     -25.795 -21.248  -9.439  1.00  0.00     0.293 HD
ENDBRANCH  16  21
ENDBRANCH   1  11
BRANCH  10  23
ATOM     23  O   UNL     1     -25.632 -18.541 -14.617  1.00  0.00    -0.500 OA
ATOM     24  H   UNL     1     -26.350 -18.135 -15.205  1.00  0.00     0.294 HD
ENDBRANCH  10  23
BRANCH   5  25
ATOM     25  O   UNL     1     -19.566 -13.876 -13.292  1.00  0.00    -0.507 OA
ATOM     26  H   UNL     1     -18.699 -13.974 -13.808  1.00  0.00     0.293 HD
ENDBRANCH   5  25
BRANCH   7  27
ATOM     27  O   UNL     1     -23.618 -13.876 -15.867  1.00  0.00    -0.507 OA
ATOM     28  H   UNL     1     -24.339 -13.227 -15.587  1.00  0.00     0.293 HD
ENDBRANCH   7  27
TORSDOF 7
ENDMDL
MODEL 4
REMARK VINA RESULT:    -0.815      1.258      7.018
REMARK INTER + INTRA:          -1.324
REMARK INTER:                  -1.209
REMARK INTRA:                  -0.114
REMARK UNBOUND:                -0.318
REMARK SMILES Oc1cc(O)c2cc(O)c(-c3cc(O)c(O)c(O)c3)[o+]c2c1
REMARK SMILES IDX 10 1 20 2 21 3 22 4 2 5 3 6 4 7 6 8 7 9 8 10 11 11 12 12
REMARK SMILES IDX 13 13 19 14 15 15 17 16 14 17 16 19 18 21 9 23 1 25 5 27
REMARK H PARENT 14 18 16 20 18 22 9 24 1 26 5 28
REMARK Flexibility Score: inf
ROOT
ATOM      1  C   UNL     1     -23.336 -18.895 -13.166  1.00  0.00     0.402 A 
ATOM      2  O   UNL     1     -23.886 -19.688 -14.081  1.00  0.00    -0.202 OA
ATOM      3  C   UNL     1     -24.387 -20.887 -13.803  1.00  0.00     0.368 A 
ATOM      4  C   UNL     1     -24.942 -21.649 -14.834  1.00  0.00     0.162 A 
ATOM      5  C   UNL     1     -25.473 -22.915 -14.568  1.00  0.00     0.128 A 
ATOM      6  C   UNL     1     -25.446 -23.421 -13.267  1.00  0.00     0.093 A 
ATOM      7  C   UNL     1     -24.895 -22.677 -12.216  1.00  0.00     0.136 A 
ATOM      8  C   UNL     1     -24.358 -21.391 -12.479  1.00  0.00     0.125 A 
ATOM      9  C   UNL     1     -23.798 -20.570 -11.487  1.00  0.00     0.078 A 
ATOM     10  C   UNL     1     -23.292 -19.310 -11.823  1.00  0.00     0.223 A 
ENDROOT
BRANCH   1  11
ATOM     11  C   UNL     1     -22.804 -17.584 -13.604  1.00  0.00     0.091 A 
ATOM     12  C   UNL     1     -21.499 -17.180 -13.283  1.00  0.00     0.068 A 
ATOM     13  C   UNL     1     -21.005 -15.949 -13.723  1.00  0.00     0.162 A 
ATOM     14  C   UNL     1     -23.597 -16.750 -14.404  1.00  0.00     0.068 A 
ATOM     15  C   UNL     1     -21.810 -15.102 -14.506  1.00  0.00     0.200 A 
ATOM     16  C   UNL     1     -23.120 -15.513 -14.853  1.00  0.00     0.162 A 
BRANCH  13  17
ATOM     17  O   UNL     1     -19.704 -15.586 -13.373  1.00  0.00    -0.504 OA
ATOM     18  H   UNL     1     -19.486 -14.688 -12.958  1.00  0.00     0.293 HD
ENDBRANCH  13  17
BRANCH  15  19
ATOM     19  O   UNL     1     -21.281 -13.876 -14.918  1.00  0.00    -0.502 OA
ATOM     20  H   UNL     1     -21.813 -13.020 -14.982  1.00  0.00     0.293 HD
ENDBRANCH  15  19
BRANCH  16  21
ATOM     21  O   UNL     1     -23.974 -14.734 -15.636  1.00  0.00    -0.504 OA
ATOM     22  H   UNL     1     -23.660 -14.033 -16.292  1.00  0.00     0.293 HD
ENDBRANCH  16  21
ENDBRANCH   1  11
BRANCH  10  23
ATOM     23  O   UNL     1     -22.781 -18.474 -10.829  1.00  0.00    -0.500 OA
ATOM     24  H   UNL     1     -23.319 -18.237 -10.004  1.00  0.00     0.294 HD
ENDBRANCH  10  23
BRANCH   5  25
ATOM     25  O   UNL     1     -26.028 -23.680 -15.591  1.00  0.00    -0.507 OA
ATOM     26  H   UNL     1     -26.748 -24.369 -15.406  1.00  0.00     0.293 HD
ENDBRANCH   5  25
BRANCH   7  27
ATOM     27  O   UNL     1     -24.905 -23.256 -10.943  1.00  0.00    -0.507 OA
ATOM     28  H   UNL     1     -25.048 -22.744 -10.085  1.00  0.00     0.293 HD
ENDBRANCH   7  27
TORSDOF 7
ENDMDL
