MODEL 1
REMARK VINA RESULT:    -7.002      0.000      0.000
REMARK INTER + INTRA:          -7.677
REMARK INTER:                  -7.616
REMARK INTRA:                  -0.061
REMARK UNBOUND:                -0.061
REMARK SMILES COc1cc2ccc(=O)oc2cc1O
REMARK SMILES IDX 3 1 13 2 12 3 11 4 5 5 4 6 6 7 7 8 8 9 9 10 10 11 2 12 1 13
REMARK SMILES IDX 14 14
REMARK H PARENT 14 15
REMARK Flexibility Score: inf
ROOT
ATOM      1  C   UNL     1      -2.554 -14.883  10.782  1.00  0.00     0.161 A 
ATOM      2  C   UNL     1      -2.256 -13.742  10.011  1.00  0.00     0.161 A 
ATOM      3  C   UNL     1      -2.798 -13.596   8.729  1.00  0.00     0.098 A 
ATOM      4  C   UNL     1      -3.637 -14.579   8.200  1.00  0.00     0.142 A 
ATOM      5  C   UNL     1      -3.941 -15.725   8.962  1.00  0.00     0.022 A 
ATOM      6  C   UNL     1      -3.401 -15.875  10.247  1.00  0.00     0.062 A 
ATOM      7  C   UNL     1      -4.785 -16.692   8.405  1.00  0.00     0.019 A 
ATOM      8  C   UNL     1      -5.296 -16.497   7.123  1.00  0.00     0.094 A 
ATOM      9  C   UNL     1      -4.952 -15.335   6.426  1.00  0.00     0.336 A 
ATOM     10  O   UNL     1      -5.403 -15.139   5.267  1.00  0.00    -0.246 OA
ATOM     11  O   UNL     1      -4.147 -14.431   6.979  1.00  0.00    -0.423 OA
ENDROOT
BRANCH   1  12
ATOM     12  O   UNL     1      -1.994 -14.998  12.065  1.00  0.00    -0.493 OA
ATOM     13  C   UNL     1      -2.738 -14.954  13.278  1.00  0.00     0.278 C 
ENDBRANCH   1  12
BRANCH   2  14
ATOM     14  O   UNL     1      -1.423 -12.738  10.506  1.00  0.00    -0.504 OA
ATOM     15  H   UNL     1      -0.520 -12.940  10.917  1.00  0.00     0.293 HD
ENDBRANCH   2  14
TORSDOF 2
ENDMDL
MODEL 2
REMARK VINA RESULT:    -6.739      5.771      9.416
REMARK INTER + INTRA:          -7.391
REMARK INTER:                  -7.350
REMARK INTRA:                  -0.041
REMARK UNBOUND:                -0.061
REMARK SMILES COc1cc2ccc(=O)oc2cc1O
REMARK SMILES IDX 3 1 13 2 12 3 11 4 5 5 4 6 6 7 7 8 8 9 9 10 10 11 2 12 1 13
REMARK SMILES IDX 14 14
REMARK H PARENT 14 15
REMARK Flexibility Score: inf
ROOT
ATOM      1  C   UNL     1      -0.734 -18.056  13.827  1.00  0.00     0.161 A 
ATOM      2  C   UNL     1      -1.078 -17.654  15.133  1.00  0.00     0.161 A 
ATOM      3  C   UNL     1      -0.107 -17.626  16.140  1.00  0.00     0.098 A 
ATOM      4  C   UNL     1       1.210 -17.997  15.863  1.00  0.00     0.142 A 
ATOM      5  C   UNL     1       1.565 -18.401  14.560  1.00  0.00     0.022 A 
ATOM      6  C   UNL     1       0.596 -18.429  13.547  1.00  0.00     0.062 A 
ATOM      7  C   UNL     1       2.893 -18.765  14.313  1.00  0.00     0.019 A 
ATOM      8  C   UNL     1       3.819 -18.721  15.354  1.00  0.00     0.094 A 
ATOM      9  C   UNL     1       3.395 -18.309  16.621  1.00  0.00     0.336 A 
ATOM     10  O   UNL     1       4.216 -18.261  17.575  1.00  0.00    -0.246 OA
ATOM     11  O   UNL     1       2.126 -17.967  16.829  1.00  0.00    -0.423 OA
ENDROOT
BRANCH   1  12
ATOM     12  O   UNL     1      -1.733 -18.072  12.839  1.00  0.00    -0.493 OA
ATOM     13  C   UNL     1      -2.089 -16.954  12.031  1.00  0.00     0.278 C 
ENDBRANCH   1  12
BRANCH   2  14
ATOM     14  O   UNL     1      -2.383 -17.277  15.448  1.00  0.00    -0.504 OA
ATOM     15  H   UNL     1      -2.589 -16.457  16.006  1.00  0.00     0.293 HD
ENDBRANCH   2  14
TORSDOF 2
ENDMDL
MODEL 3
REMARK VINA RESULT:    -6.575      1.505      5.419
REMARK INTER + INTRA:          -7.213
REMARK INTER:                  -7.187
REMARK INTRA:                  -0.026
REMARK UNBOUND:                -0.061
REMARK SMILES COc1cc2ccc(=O)oc2cc1O
REMARK SMILES IDX 3 1 13 2 12 3 11 4 5 5 4 6 6 7 7 8 8 9 9 10 10 11 2 12 1 13
REMARK SMILES IDX 14 14
REMARK H PARENT 14 15
REMARK Flexibility Score: inf
ROOT
ATOM      1  C   UNL     1      -3.849 -15.724   7.796  1.00  0.00     0.161 A 
ATOM      2  C   UNL     1      -4.552 -16.639   8.605  1.00  0.00     0.161 A 
ATOM      3  C   UNL     1      -4.407 -16.605   9.997  1.00  0.00     0.098 A 
ATOM      4  C   UNL     1      -3.566 -15.666  10.597  1.00  0.00     0.142 A 
ATOM      5  C   UNL     1      -2.858 -14.747   9.797  1.00  0.00     0.022 A 
ATOM      6  C   UNL     1      -3.000 -14.776   8.403  1.00  0.00     0.062 A 
ATOM      7  C   UNL     1      -2.023 -13.818  10.428  1.00  0.00     0.019 A 
ATOM      8  C   UNL     1      -1.915 -13.829  11.818  1.00  0.00     0.094 A 
ATOM      9  C   UNL     1      -2.647 -14.771  12.547  1.00  0.00     0.336 A 
ATOM     10  O   UNL     1      -2.564 -14.797  13.803  1.00  0.00    -0.246 OA
ATOM     11  O   UNL     1      -3.434 -15.643  11.922  1.00  0.00    -0.423 OA
ENDROOT
BRANCH   1  12
ATOM     12  O   UNL     1      -4.018 -15.785   6.403  1.00  0.00    -0.493 OA
ATOM     13  C   UNL     1      -5.079 -15.159   5.689  1.00  0.00     0.278 C 
ENDBRANCH   1  12
BRANCH   2  14
ATOM     14  O   UNL     1      -5.402 -17.591   8.042  1.00  0.00    -0.504 OA
ATOM     15  H   UNL     1      -5.195 -18.046   7.161  1.00  0.00     0.293 HD
ENDBRANCH   2  14
TORSDOF 2
ENDMDL
MODEL 4
REMARK VINA RESULT:    -6.505      1.600      2.787
REMARK INTER + INTRA:          -7.137
REMARK INTER:                  -7.086
REMARK INTRA:                  -0.050
REMARK UNBOUND:                -0.061
REMARK SMILES COc1cc2ccc(=O)oc2cc1O
REMARK SMILES IDX 3 1 13 2 12 3 11 4 5 5 4 6 6 7 7 8 8 9 9 10 10 11 2 12 1 13
REMARK SMILES IDX 14 14
REMARK H PARENT 14 15
REMARK Flexibility Score: inf
ROOT
ATOM      1  C   UNL     1      -3.211 -16.423  10.701  1.00  0.00     0.161 A 
ATOM      2  C   UNL     1      -3.855 -17.594  10.254  1.00  0.00     0.161 A 
ATOM      3  C   UNL     1      -4.509 -17.610   9.017  1.00  0.00     0.098 A 
ATOM      4  C   UNL     1      -4.531 -16.468   8.214  1.00  0.00     0.142 A 
ATOM      5  C   UNL     1      -3.890 -15.291   8.651  1.00  0.00     0.022 A 
ATOM      6  C   UNL     1      -3.233 -15.270   9.890  1.00  0.00     0.062 A 
ATOM      7  C   UNL     1      -3.928 -14.163   7.825  1.00  0.00     0.019 A 
ATOM      8  C   UNL     1      -4.595 -14.234   6.602  1.00  0.00     0.094 A 
ATOM      9  C   UNL     1      -5.208 -15.435   6.233  1.00  0.00     0.336 A 
ATOM     10  O   UNL     1      -5.815 -15.520   5.133  1.00  0.00    -0.246 OA
ATOM     11  O   UNL     1      -5.156 -16.494   7.039  1.00  0.00    -0.423 OA
ENDROOT
BRANCH   1  12
ATOM     12  O   UNL     1      -2.563 -16.441  11.947  1.00  0.00    -0.493 OA
ATOM     13  C   UNL     1      -2.683 -15.423  12.936  1.00  0.00     0.278 C 
ENDBRANCH   1  12
BRANCH   2  14
ATOM     14  O   UNL     1      -3.854 -18.754  11.028  1.00  0.00    -0.504 OA
ATOM     15  H   UNL     1      -3.101 -19.430  10.988  1.00  0.00     0.293 HD
ENDBRANCH   2  14
TORSDOF 2
ENDMDL
MODEL 5
REMARK VINA RESULT:    -6.343      1.592      1.850
REMARK INTER + INTRA:          -6.960
REMARK INTER:                  -6.915
REMARK INTRA:                  -0.045
REMARK UNBOUND:                -0.061
REMARK SMILES COc1cc2ccc(=O)oc2cc1O
REMARK SMILES IDX 3 1 13 2 12 3 11 4 5 5 4 6 6 7 7 8 8 9 9 10 10 11 2 12 1 13
REMARK SMILES IDX 14 14
REMARK H PARENT 14 15
REMARK Flexibility Score: inf
ROOT
ATOM      1  C   UNL     1      -2.397 -15.903  12.050  1.00  0.00     0.161 A 
ATOM      2  C   UNL     1      -2.434 -14.617  11.475  1.00  0.00     0.161 A 
ATOM      3  C   UNL     1      -2.800 -14.455  10.134  1.00  0.00     0.098 A 
ATOM      4  C   UNL     1      -3.131 -15.563   9.352  1.00  0.00     0.142 A 
ATOM      5  C   UNL     1      -3.097 -16.854   9.917  1.00  0.00     0.022 A 
ATOM      6  C   UNL     1      -2.731 -17.022  11.260  1.00  0.00     0.062 A 
ATOM      7  C   UNL     1      -3.434 -17.945   9.109  1.00  0.00     0.019 A 
ATOM      8  C   UNL     1      -3.791 -17.727   7.779  1.00  0.00     0.094 A 
ATOM      9  C   UNL     1      -3.803 -16.418   7.287  1.00  0.00     0.336 A 
ATOM     10  O   UNL     1      -4.122 -16.199   6.089  1.00  0.00    -0.246 OA
ATOM     11  O   UNL     1      -3.478 -15.398   8.077  1.00  0.00    -0.423 OA
ENDROOT
BRANCH   1  12
ATOM     12  O   UNL     1      -2.026 -16.031  13.398  1.00  0.00    -0.493 OA
ATOM     13  C   UNL     1      -1.499 -17.217  13.983  1.00  0.00     0.278 C 
ENDBRANCH   1  12
BRANCH   2  14
ATOM     14  O   UNL     1      -2.111 -13.486  12.224  1.00  0.00    -0.504 OA
ATOM     15  H   UNL     1      -1.164 -13.289  12.525  1.00  0.00     0.293 HD
ENDBRANCH   2  14
TORSDOF 2
ENDMDL
MODEL 6
REMARK VINA RESULT:    -6.318      1.465      4.920
REMARK INTER + INTRA:          -6.934
REMARK INTER:                  -6.869
REMARK INTRA:                  -0.064
REMARK UNBOUND:                -0.061
REMARK SMILES COc1cc2ccc(=O)oc2cc1O
REMARK SMILES IDX 3 1 13 2 12 3 11 4 5 5 4 6 6 7 7 8 8 9 9 10 10 11 2 12 1 13
REMARK SMILES IDX 14 14
REMARK H PARENT 14 15
REMARK Flexibility Score: inf
ROOT
ATOM      1  C   UNL     1      -3.133 -14.765   8.448  1.00  0.00     0.161 A 
ATOM      2  C   UNL     1      -2.730 -13.657   9.220  1.00  0.00     0.161 A 
ATOM      3  C   UNL     1      -2.353 -13.829  10.557  1.00  0.00     0.098 A 
ATOM      4  C   UNL     1      -2.374 -15.097  11.140  1.00  0.00     0.142 A 
ATOM      5  C   UNL     1      -2.776 -16.212  10.378  1.00  0.00     0.022 A 
ATOM      6  C   UNL     1      -3.154 -16.046   9.038  1.00  0.00     0.062 A 
ATOM      7  C   UNL     1      -2.786 -17.470  10.990  1.00  0.00     0.019 A 
ATOM      8  C   UNL     1      -2.403 -17.584  12.326  1.00  0.00     0.094 A 
ATOM      9  C   UNL     1      -2.015 -16.433  13.020  1.00  0.00     0.336 A 
ATOM     10  O   UNL     1      -1.665 -16.515  14.226  1.00  0.00    -0.246 OA
ATOM     11  O   UNL     1      -2.014 -15.249  12.413  1.00  0.00    -0.423 OA
ENDROOT
BRANCH   1  12
ATOM     12  O   UNL     1      -3.504 -14.559   7.110  1.00  0.00    -0.493 OA
ATOM     13  C   UNL     1      -4.845 -14.559   6.633  1.00  0.00     0.278 C 
ENDBRANCH   1  12
BRANCH   2  14
ATOM     14  O   UNL     1      -2.695 -12.375   8.672  1.00  0.00    -0.504 OA
ATOM     15  H   UNL     1      -3.317 -12.089   7.925  1.00  0.00     0.293 HD
ENDBRANCH   2  14
TORSDOF 2
ENDMDL
MODEL 7
REMARK VINA RESULT:    -6.291      6.507      8.850
REMARK INTER + INTRA:          -6.904
REMARK INTER:                  -6.924
REMARK INTRA:                   0.021
REMARK UNBOUND:                -0.061
REMARK SMILES COc1cc2ccc(=O)oc2cc1O
REMARK SMILES IDX 3 1 13 2 12 3 11 4 5 5 4 6 6 7 7 8 8 9 9 10 10 11 2 12 1 13
REMARK SMILES IDX 14 14
REMARK H PARENT 14 15
REMARK Flexibility Score: inf
ROOT
ATOM      1  C   UNL     1       3.158 -18.004  16.375  1.00  0.00     0.161 A 
ATOM      2  C   UNL     1       3.477 -18.586  15.131  1.00  0.00     0.161 A 
ATOM      3  C   UNL     1       2.483 -18.766  14.162  1.00  0.00     0.098 A 
ATOM      4  C   UNL     1       1.167 -18.375  14.417  1.00  0.00     0.142 A 
ATOM      5  C   UNL     1       0.837 -17.793  15.658  1.00  0.00     0.022 A 
ATOM      6  C   UNL     1       1.830 -17.609  16.632  1.00  0.00     0.062 A 
ATOM      7  C   UNL     1      -0.489 -17.411  15.884  1.00  0.00     0.019 A 
ATOM      8  C   UNL     1      -1.440 -17.615  14.885  1.00  0.00     0.094 A 
ATOM      9  C   UNL     1      -1.040 -18.198  13.678  1.00  0.00     0.336 A 
ATOM     10  O   UNL     1      -1.883 -18.391  12.763  1.00  0.00    -0.246 OA
ATOM     11  O   UNL     1       0.229 -18.552  13.490  1.00  0.00    -0.423 OA
ENDROOT
BRANCH   1  12
ATOM     12  O   UNL     1       4.179 -17.836  17.324  1.00  0.00    -0.493 OA
ATOM     13  C   UNL     1       5.159 -16.804  17.283  1.00  0.00     0.278 C 
ENDBRANCH   1  12
BRANCH   2  14
ATOM     14  O   UNL     1       4.780 -18.988  14.839  1.00  0.00    -0.504 OA
ATOM     15  H   UNL     1       5.346 -18.522  14.141  1.00  0.00     0.293 HD
ENDBRANCH   2  14
TORSDOF 2
ENDMDL
MODEL 8
REMARK VINA RESULT:    -5.672      1.476      4.899
REMARK INTER + INTRA:          -6.231
REMARK INTER:                  -6.193
REMARK INTRA:                  -0.037
REMARK UNBOUND:                -0.061
REMARK SMILES COc1cc2ccc(=O)oc2cc1O
REMARK SMILES IDX 3 1 13 2 12 3 11 4 5 5 4 6 6 7 7 8 8 9 9 10 10 11 2 12 1 13
REMARK SMILES IDX 14 14
REMARK H PARENT 14 15
REMARK Flexibility Score: inf
ROOT
ATOM      1  C   UNL     1      -4.075 -15.944   7.518  1.00  0.00     0.161 A 
ATOM      2  C   UNL     1      -2.862 -15.254   7.715  1.00  0.00     0.161 A 
ATOM      3  C   UNL     1      -2.403 -14.992   9.011  1.00  0.00     0.098 A 
ATOM      4  C   UNL     1      -3.140 -15.408  10.121  1.00  0.00     0.142 A 
ATOM      5  C   UNL     1      -4.355 -16.099   9.935  1.00  0.00     0.022 A 
ATOM      6  C   UNL     1      -4.819 -16.365   8.639  1.00  0.00     0.062 A 
ATOM      7  C   UNL     1      -5.072 -16.504  11.066  1.00  0.00     0.019 A 
ATOM      8  C   UNL     1      -4.569 -16.215  12.334  1.00  0.00     0.094 A 
ATOM      9  C   UNL     1      -3.357 -15.526  12.441  1.00  0.00     0.336 A 
ATOM     10  O   UNL     1      -2.885 -15.256  13.577  1.00  0.00    -0.246 OA
ATOM     11  O   UNL     1      -2.695 -15.153  11.349  1.00  0.00    -0.423 OA
ENDROOT
BRANCH   1  12
ATOM     12  O   UNL     1      -4.506 -16.193   6.205  1.00  0.00    -0.493 OA
ATOM     13  C   UNL     1      -5.271 -15.284   5.419  1.00  0.00     0.278 C 
ENDBRANCH   1  12
BRANCH   2  14
ATOM     14  O   UNL     1      -2.097 -14.823   6.631  1.00  0.00    -0.504 OA
ATOM     15  H   UNL     1      -1.085 -14.789   6.663  1.00  0.00     0.293 HD
ENDBRANCH   2  14
TORSDOF 2
ENDMDL
MODEL 9
REMARK VINA RESULT:    -5.525      1.755      2.699
REMARK INTER + INTRA:          -6.070
REMARK INTER:                  -6.071
REMARK INTRA:                   0.001
REMARK UNBOUND:                -0.061
REMARK SMILES COc1cc2ccc(=O)oc2cc1O
REMARK SMILES IDX 3 1 13 2 12 3 11 4 5 5 4 6 6 7 7 8 8 9 9 10 10 11 2 12 1 13
REMARK SMILES IDX 14 14
REMARK H PARENT 14 15
REMARK Flexibility Score: inf
ROOT
ATOM      1  C   UNL     1      -2.804 -15.396  12.060  1.00  0.00     0.161 A 
ATOM      2  C   UNL     1      -4.118 -15.872  11.880  1.00  0.00     0.161 A 
ATOM      3  C   UNL     1      -4.626 -16.068  10.590  1.00  0.00     0.098 A 
ATOM      4  C   UNL     1      -3.838 -15.794   9.470  1.00  0.00     0.142 A 
ATOM      5  C   UNL     1      -2.522 -15.317   9.639  1.00  0.00     0.022 A 
ATOM      6  C   UNL     1      -2.008 -15.120  10.929  1.00  0.00     0.062 A 
ATOM      7  C   UNL     1      -1.757 -15.053   8.498  1.00  0.00     0.019 A 
ATOM      8  C   UNL     1      -2.313 -15.265   7.237  1.00  0.00     0.094 A 
ATOM      9  C   UNL     1      -3.625 -15.740   7.147  1.00  0.00     0.336 A 
ATOM     10  O   UNL     1      -4.146 -15.939   6.018  1.00  0.00    -0.246 OA
ATOM     11  O   UNL     1      -4.331 -15.984   8.249  1.00  0.00    -0.423 OA
ENDROOT
BRANCH   1  12
ATOM     12  O   UNL     1      -2.324 -15.211  13.367  1.00  0.00    -0.493 OA
ATOM     13  C   UNL     1      -1.834 -16.253  14.203  1.00  0.00     0.278 C 
ENDBRANCH   1  12
BRANCH   2  14
ATOM     14  O   UNL     1      -4.935 -16.157  12.973  1.00  0.00    -0.504 OA
ATOM     15  H   UNL     1      -4.823 -15.693  13.867  1.00  0.00     0.293 HD
ENDBRANCH   2  14
TORSDOF 2
ENDMDL
