MODEL 1
REMARK VINA RESULT:    -4.531      0.000      0.000
REMARK INTER + INTRA:         -11.085
REMARK INTER:                  -8.769
REMARK INTRA:                  -2.316
REMARK UNBOUND:                -2.316
REMARK SMILES CCCCCCCCCCCCCCCCCC(=O)[O-]
REMARK SMILES IDX 10 1 11 2 12 3 13 4 14 5 15 6 16 7 17 8 18 9 19 10 20 11
REMARK SMILES IDX 9 12 8 13 7 14 6 15 5 16 4 17 3 18 2 19 1 20
REMARK H PARENT
REMARK Flexibility Score: inf
ROOT
ATOM      1  C   UNL     1      11.957  54.292  35.877  1.00  0.00     0.000 C 
ENDROOT
BRANCH   1   2
ATOM      2  C   UNL     1      11.808  55.780  35.536  1.00  0.00     0.000 C 
BRANCH   2   3
ATOM      3  C   UNL     1      13.062  56.313  34.835  1.00  0.00     0.000 C 
BRANCH   3   4
ATOM      4  C   UNL     1      13.675  55.249  33.918  1.00  0.00     0.000 C 
BRANCH   4   5
ATOM      5  C   UNL     1      15.192  55.448  33.776  1.00  0.00     0.000 C 
BRANCH   5   6
ATOM      6  C   UNL     1      15.646  56.838  34.273  1.00  0.00     0.000 C 
BRANCH   6   7
ATOM      7  C   UNL     1      16.971  57.312  33.651  1.00  0.00     0.006 C 
BRANCH   7   8
ATOM      8  C   UNL     1      17.641  58.432  34.457  1.00  0.00     0.053 C 
BRANCH   8   9
ATOM      9  C   UNL     1      16.924  59.728  34.244  1.00  0.00     0.041 C 
ATOM     10  O   UNL     1      16.418  60.340  35.220  1.00  0.00    -0.550 OA
ATOM     11  O   UNL     1      16.858  60.285  32.972  1.00  0.00    -0.550 OA
ENDBRANCH   8   9
ENDBRANCH   7   8
ENDBRANCH   6   7
ENDBRANCH   5   6
ENDBRANCH   4   5
ENDBRANCH   3   4
ENDBRANCH   2   3
ENDBRANCH   1   2
BRANCH   1  12
ATOM     12  C   UNL     1      12.197  54.096  37.382  1.00  0.00     0.000 C 
BRANCH  12  13
ATOM     13  C   UNL     1      13.449  53.254  37.676  1.00  0.00    -0.000 C 
BRANCH  13  14
ATOM     14  C   UNL     1      14.744  53.936  37.202  1.00  0.00    -0.000 C 
BRANCH  14  15
ATOM     15  C   UNL     1      15.642  53.000  36.374  1.00  0.00    -0.000 C 
BRANCH  15  16
ATOM     16  C   UNL     1      14.927  51.786  35.746  1.00  0.00    -0.000 C 
BRANCH  16  17
ATOM     17  C   UNL     1      14.948  51.739  34.208  1.00  0.00    -0.000 C 
BRANCH  17  18
ATOM     18  C   UNL     1      13.567  51.443  33.603  1.00  0.00    -0.000 C 
BRANCH  18  19
ATOM     19  C   UNL     1      13.604  50.167  32.753  1.00  0.00    -0.003 C 
ATOM     20  C   UNL     1      15.027  49.627  32.630  1.00  0.00     0.004 C 
ENDBRANCH  18  19
ENDBRANCH  17  18
ENDBRANCH  16  17
ENDBRANCH  15  16
ENDBRANCH  14  15
ENDBRANCH  13  14
ENDBRANCH  12  13
ENDBRANCH   1  12
TORSDOF 16
ENDMDL
MODEL 2
REMARK VINA RESULT:    -4.514      3.362      6.549
REMARK INTER + INTRA:         -11.053
REMARK INTER:                  -8.799
REMARK INTRA:                  -2.254
REMARK UNBOUND:                -2.316
REMARK SMILES CCCCCCCCCCCCCCCCCC(=O)[O-]
REMARK SMILES IDX 10 1 11 2 12 3 13 4 14 5 15 6 16 7 17 8 18 9 19 10 20 11
REMARK SMILES IDX 9 12 8 13 7 14 6 15 5 16 4 17 3 18 2 19 1 20
REMARK H PARENT
REMARK Flexibility Score: inf
ROOT
ATOM      1  C   UNL     1      11.416  53.881  36.872  1.00  0.00     0.000 C 
ENDROOT
BRANCH   1   2
ATOM      2  C   UNL     1      12.632  54.014  37.798  1.00  0.00     0.000 C 
BRANCH   2   3
ATOM      3  C   UNL     1      13.701  52.969  37.457  1.00  0.00     0.000 C 
BRANCH   3   4
ATOM      4  C   UNL     1      14.995  53.640  36.984  1.00  0.00     0.000 C 
BRANCH   4   5
ATOM      5  C   UNL     1      15.768  52.730  36.017  1.00  0.00     0.000 C 
BRANCH   5   6
ATOM      6  C   UNL     1      14.839  51.741  35.279  1.00  0.00     0.000 C 
BRANCH   6   7
ATOM      7  C   UNL     1      14.460  52.193  33.859  1.00  0.00     0.006 C 
BRANCH   7   8
ATOM      8  C   UNL     1      13.772  51.089  33.045  1.00  0.00     0.053 C 
BRANCH   8   9
ATOM      9  C   UNL     1      14.753  50.431  32.128  1.00  0.00     0.041 C 
ATOM     10  O   UNL     1      14.846  50.802  30.929  1.00  0.00    -0.550 OA
ATOM     11  O   UNL     1      15.598  49.439  32.610  1.00  0.00    -0.550 OA
ENDBRANCH   8   9
ENDBRANCH   7   8
ENDBRANCH   6   7
ENDBRANCH   5   6
ENDBRANCH   4   5
ENDBRANCH   3   4
ENDBRANCH   2   3
ENDBRANCH   1   2
BRANCH   1  12
ATOM     12  C   UNL     1      11.797  54.201  35.418  1.00  0.00     0.000 C 
BRANCH  12  13
ATOM     13  C   UNL     1      11.571  55.679  35.059  1.00  0.00    -0.000 C 
BRANCH  13  14
ATOM     14  C   UNL     1      12.878  56.490  35.048  1.00  0.00    -0.000 C 
BRANCH  14  15
ATOM     15  C   UNL     1      13.936  55.903  34.096  1.00  0.00    -0.000 C 
BRANCH  15  16
ATOM     16  C   UNL     1      15.402  56.158  34.503  1.00  0.00    -0.000 C 
BRANCH  16  17
ATOM     17  C   UNL     1      16.354  56.494  33.341  1.00  0.00    -0.000 C 
BRANCH  17  18
ATOM     18  C   UNL     1      17.287  57.672  33.657  1.00  0.00    -0.000 C 
BRANCH  18  19
ATOM     19  C   UNL     1      16.766  58.476  34.855  1.00  0.00    -0.003 C 
ATOM     20  C   UNL     1      16.407  59.903  34.447  1.00  0.00     0.004 C 
ENDBRANCH  18  19
ENDBRANCH  17  18
ENDBRANCH  16  17
ENDBRANCH  15  16
ENDBRANCH  14  15
ENDBRANCH  13  14
ENDBRANCH  12  13
ENDBRANCH   1  12
TORSDOF 16
ENDMDL
MODEL 3
REMARK VINA RESULT:    -4.498      3.254      6.292
REMARK INTER + INTRA:         -11.022
REMARK INTER:                  -8.227
REMARK INTRA:                  -2.795
REMARK UNBOUND:                -2.316
REMARK SMILES CCCCCCCCCCCCCCCCCC(=O)[O-]
REMARK SMILES IDX 10 1 11 2 12 3 13 4 14 5 15 6 16 7 17 8 18 9 19 10 20 11
REMARK SMILES IDX 9 12 8 13 7 14 6 15 5 16 4 17 3 18 2 19 1 20
REMARK H PARENT
REMARK Flexibility Score: inf
ROOT
ATOM      1  C   UNL     1      12.024  54.199  37.441  1.00  0.00     0.000 C 
ENDROOT
BRANCH   1   2
ATOM      2  C   UNL     1      13.267  53.305  37.538  1.00  0.00     0.000 C 
BRANCH   2   3
ATOM      3  C   UNL     1      14.534  54.079  37.157  1.00  0.00     0.000 C 
BRANCH   3   4
ATOM      4  C   UNL     1      15.566  53.156  36.499  1.00  0.00     0.000 C 
BRANCH   4   5
ATOM      5  C   UNL     1      14.911  51.859  36.003  1.00  0.00     0.000 C 
BRANCH   5   6
ATOM      6  C   UNL     1      15.341  51.501  34.564  1.00  0.00     0.000 C 
BRANCH   6   7
ATOM      7  C   UNL     1      14.333  50.606  33.824  1.00  0.00     0.006 C 
BRANCH   7   8
ATOM      8  C   UNL     1      14.977  49.781  32.703  1.00  0.00     0.053 C 
BRANCH   8   9
ATOM      9  C   UNL     1      14.898  50.516  31.403  1.00  0.00     0.041 C 
ATOM     10  O   UNL     1      15.601  50.152  30.425  1.00  0.00    -0.550 OA
ATOM     11  O   UNL     1      14.009  51.575  31.256  1.00  0.00    -0.550 OA
ENDBRANCH   8   9
ENDBRANCH   7   8
ENDBRANCH   6   7
ENDBRANCH   5   6
ENDBRANCH   4   5
ENDBRANCH   3   4
ENDBRANCH   2   3
ENDBRANCH   1   2
BRANCH   1  12
ATOM     12  C   UNL     1      11.991  54.949  36.101  1.00  0.00     0.000 C 
BRANCH  12  13
ATOM     13  C   UNL     1      11.396  54.103  34.964  1.00  0.00    -0.000 C 
BRANCH  13  14
ATOM     14  C   UNL     1      12.433  53.754  33.882  1.00  0.00    -0.000 C 
BRANCH  14  15
ATOM     15  C   UNL     1      13.266  54.971  33.440  1.00  0.00    -0.000 C 
BRANCH  15  16
ATOM     16  C   UNL     1      14.753  54.681  33.148  1.00  0.00    -0.000 C 
BRANCH  16  17
ATOM     17  C   UNL     1      15.753  55.590  33.884  1.00  0.00    -0.000 C 
BRANCH  17  18
ATOM     18  C   UNL     1      15.078  56.793  34.559  1.00  0.00    -0.000 C 
BRANCH  18  19
ATOM     19  C   UNL     1      16.038  57.987  34.635  1.00  0.00    -0.003 C 
ATOM     20  C   UNL     1      17.273  57.758  33.768  1.00  0.00     0.004 C 
ENDBRANCH  18  19
ENDBRANCH  17  18
ENDBRANCH  16  17
ENDBRANCH  15  16
ENDBRANCH  14  15
ENDBRANCH  13  14
ENDBRANCH  12  13
ENDBRANCH   1  12
TORSDOF 16
ENDMDL
MODEL 4
REMARK VINA RESULT:    -4.435      1.279      2.564
REMARK INTER + INTRA:         -10.899
REMARK INTER:                  -8.149
REMARK INTRA:                  -2.750
REMARK UNBOUND:                -2.316
REMARK SMILES CCCCCCCCCCCCCCCCCC(=O)[O-]
REMARK SMILES IDX 10 1 11 2 12 3 13 4 14 5 15 6 16 7 17 8 18 9 19 10 20 11
REMARK SMILES IDX 9 12 8 13 7 14 6 15 5 16 4 17 3 18 2 19 1 20
REMARK H PARENT
REMARK Flexibility Score: inf
ROOT
ATOM      1  C   UNL     1      12.362  54.050  37.868  1.00  0.00     0.000 C 
ENDROOT
BRANCH   1   2
ATOM      2  C   UNL     1      11.182  53.902  36.899  1.00  0.00     0.000 C 
BRANCH   2   3
ATOM      3  C   UNL     1      11.333  54.842  35.698  1.00  0.00     0.000 C 
BRANCH   3   4
ATOM      4  C   UNL     1      11.188  56.307  36.124  1.00  0.00     0.000 C 
BRANCH   4   5
ATOM      5  C   UNL     1      12.012  57.231  35.214  1.00  0.00     0.000 C 
BRANCH   5   6
ATOM      6  C   UNL     1      13.320  56.565  34.735  1.00  0.00     0.000 C 
BRANCH   6   7
ATOM      7  C   UNL     1      14.373  57.565  34.230  1.00  0.00     0.006 C 
BRANCH   7   8
ATOM      8  C   UNL     1      15.811  57.107  34.502  1.00  0.00     0.053 C 
BRANCH   8   9
ATOM      9  C   UNL     1      16.729  58.285  34.569  1.00  0.00     0.041 C 
ATOM     10  O   UNL     1      16.281  59.422  34.868  1.00  0.00    -0.550 OA
ATOM     11  O   UNL     1      18.091  58.118  34.348  1.00  0.00    -0.550 OA
ENDBRANCH   8   9
ENDBRANCH   7   8
ENDBRANCH   6   7
ENDBRANCH   5   6
ENDBRANCH   4   5
ENDBRANCH   3   4
ENDBRANCH   2   3
ENDBRANCH   1   2
BRANCH   1  12
ATOM     12  C   UNL     1      13.530  53.144  37.452  1.00  0.00     0.000 C 
BRANCH  12  13
ATOM     13  C   UNL     1      14.774  53.940  37.026  1.00  0.00    -0.000 C 
BRANCH  13  14
ATOM     14  C   UNL     1      15.278  53.545  35.627  1.00  0.00    -0.000 C 
BRANCH  14  15
ATOM     15  C   UNL     1      15.353  52.021  35.429  1.00  0.00    -0.000 C 
BRANCH  15  16
ATOM     16  C   UNL     1      14.521  51.467  34.255  1.00  0.00    -0.000 C 
BRANCH  16  17
ATOM     17  C   UNL     1      13.324  52.338  33.834  1.00  0.00    -0.000 C 
BRANCH  17  18
ATOM     18  C   UNL     1      13.271  52.586  32.319  1.00  0.00    -0.000 C 
BRANCH  18  19
ATOM     19  C   UNL     1      13.428  54.078  32.003  1.00  0.00    -0.003 C 
ATOM     20  C   UNL     1      14.899  54.487  31.990  1.00  0.00     0.004 C 
ENDBRANCH  18  19
ENDBRANCH  17  18
ENDBRANCH  16  17
ENDBRANCH  15  16
ENDBRANCH  14  15
ENDBRANCH  13  14
ENDBRANCH  12  13
ENDBRANCH   1  12
TORSDOF 16
ENDMDL
MODEL 5
REMARK VINA RESULT:    -4.420      1.400      1.962
REMARK INTER + INTRA:         -10.870
REMARK INTER:                  -8.383
REMARK INTRA:                  -2.487
REMARK UNBOUND:                -2.316
REMARK SMILES CCCCCCCCCCCCCCCCCC(=O)[O-]
REMARK SMILES IDX 10 1 11 2 12 3 13 4 14 5 15 6 16 7 17 8 18 9 19 10 20 11
REMARK SMILES IDX 9 12 8 13 7 14 6 15 5 16 4 17 3 18 2 19 1 20
REMARK H PARENT
REMARK Flexibility Score: inf
ROOT
ATOM      1  C   UNL     1      11.406  55.194  37.186  1.00  0.00     0.000 C 
ENDROOT
BRANCH   1   2
ATOM      2  C   UNL     1      11.109  55.869  35.841  1.00  0.00     0.000 C 
BRANCH   2   3
ATOM      3  C   UNL     1      11.611  57.317  35.828  1.00  0.00     0.000 C 
BRANCH   3   4
ATOM      4  C   UNL     1      12.546  57.566  34.640  1.00  0.00     0.000 C 
BRANCH   4   5
ATOM      5  C   UNL     1      13.535  56.404  34.462  1.00  0.00     0.000 C 
BRANCH   5   6
ATOM      6  C   UNL     1      15.004  56.878  34.481  1.00  0.00     0.000 C 
BRANCH   6   7
ATOM      7  C   UNL     1      15.970  55.924  33.758  1.00  0.00     0.006 C 
BRANCH   7   8
ATOM      8  C   UNL     1      16.916  56.650  32.794  1.00  0.00     0.053 C 
BRANCH   8   9
ATOM      9  C   UNL     1      17.295  57.988  33.344  1.00  0.00     0.041 C 
ATOM     10  O   UNL     1      18.117  58.073  34.294  1.00  0.00    -0.550 OA
ATOM     11  O   UNL     1      16.777  59.146  32.775  1.00  0.00    -0.550 OA
ENDBRANCH   8   9
ENDBRANCH   7   8
ENDBRANCH   6   7
ENDBRANCH   5   6
ENDBRANCH   4   5
ENDBRANCH   3   4
ENDBRANCH   2   3
ENDBRANCH   1   2
BRANCH   1  12
ATOM     12  C   UNL     1      11.639  53.686  37.002  1.00  0.00     0.000 C 
BRANCH  12  13
ATOM     13  C   UNL     1      12.812  53.162  37.847  1.00  0.00    -0.000 C 
BRANCH  13  14
ATOM     14  C   UNL     1      14.071  54.037  37.717  1.00  0.00    -0.000 C 
BRANCH  14  15
ATOM     15  C   UNL     1      14.929  53.669  36.494  1.00  0.00    -0.000 C 
BRANCH  15  16
ATOM     16  C   UNL     1      15.202  52.162  36.311  1.00  0.00    -0.000 C 
BRANCH  16  17
ATOM     17  C   UNL     1      14.866  51.602  34.918  1.00  0.00    -0.000 C 
BRANCH  17  18
ATOM     18  C   UNL     1      14.246  52.654  33.986  1.00  0.00    -0.000 C 
BRANCH  18  19
ATOM     19  C   UNL     1      12.934  52.143  33.379  1.00  0.00    -0.003 C 
ATOM     20  C   UNL     1      11.893  53.257  33.299  1.00  0.00     0.004 C 
ENDBRANCH  18  19
ENDBRANCH  17  18
ENDBRANCH  16  17
ENDBRANCH  15  16
ENDBRANCH  14  15
ENDBRANCH  13  14
ENDBRANCH  12  13
ENDBRANCH   1  12
TORSDOF 16
ENDMDL
MODEL 6
REMARK VINA RESULT:    -4.410      4.058      6.926
REMARK INTER + INTRA:         -10.852
REMARK INTER:                  -8.711
REMARK INTRA:                  -2.142
REMARK UNBOUND:                -2.316
REMARK SMILES CCCCCCCCCCCCCCCCCC(=O)[O-]
REMARK SMILES IDX 10 1 11 2 12 3 13 4 14 5 15 6 16 7 17 8 18 9 19 10 20 11
REMARK SMILES IDX 9 12 8 13 7 14 6 15 5 16 4 17 3 18 2 19 1 20
REMARK H PARENT
REMARK Flexibility Score: inf
ROOT
ATOM      1  C   UNL     1      12.686  53.987  37.877  1.00  0.00     0.000 C 
ENDROOT
BRANCH   1   2
ATOM      2  C   UNL     1      13.666  52.908  37.398  1.00  0.00     0.000 C 
BRANCH   2   3
ATOM      3  C   UNL     1      15.031  53.517  37.055  1.00  0.00     0.000 C 
BRANCH   3   4
ATOM      4  C   UNL     1      15.772  52.659  36.023  1.00  0.00     0.000 C 
BRANCH   4   5
ATOM      5  C   UNL     1      14.800  51.739  35.270  1.00  0.00     0.000 C 
BRANCH   5   6
ATOM      6  C   UNL     1      14.383  52.324  33.903  1.00  0.00     0.000 C 
BRANCH   6   7
ATOM      7  C   UNL     1      13.916  51.262  32.894  1.00  0.00     0.006 C 
BRANCH   7   8
ATOM      8  C   UNL     1      14.615  49.910  33.083  1.00  0.00     0.053 C 
BRANCH   8   9
ATOM      9  C   UNL     1      13.606  48.810  33.175  1.00  0.00     0.041 C 
ATOM     10  O   UNL     1      12.385  49.055  32.994  1.00  0.00    -0.550 OA
ATOM     11  O   UNL     1      14.020  47.505  33.412  1.00  0.00    -0.550 OA
ENDBRANCH   8   9
ENDBRANCH   7   8
ENDBRANCH   6   7
ENDBRANCH   5   6
ENDBRANCH   4   5
ENDBRANCH   3   4
ENDBRANCH   2   3
ENDBRANCH   1   2
BRANCH   1  12
ATOM     12  C   UNL     1      11.373  53.929  37.080  1.00  0.00     0.000 C 
BRANCH  12  13
ATOM     13  C   UNL     1      11.559  54.321  35.605  1.00  0.00    -0.000 C 
BRANCH  13  14
ATOM     14  C   UNL     1      12.148  55.733  35.439  1.00  0.00    -0.000 C 
BRANCH  14  15
ATOM     15  C   UNL     1      13.216  55.807  34.333  1.00  0.00    -0.000 C 
BRANCH  15  16
ATOM     16  C   UNL     1      14.654  56.070  34.824  1.00  0.00    -0.000 C 
BRANCH  16  17
ATOM     17  C   UNL     1      15.750  55.906  33.755  1.00  0.00    -0.000 C 
BRANCH  17  18
ATOM     18  C   UNL     1      16.184  57.243  33.138  1.00  0.00    -0.000 C 
BRANCH  18  19
ATOM     19  C   UNL     1      17.395  57.821  33.881  1.00  0.00    -0.003 C 
ATOM     20  C   UNL     1      16.966  58.873  34.900  1.00  0.00     0.004 C 
ENDBRANCH  18  19
ENDBRANCH  17  18
ENDBRANCH  16  17
ENDBRANCH  15  16
ENDBRANCH  14  15
ENDBRANCH  13  14
ENDBRANCH  12  13
ENDBRANCH   1  12
TORSDOF 16
ENDMDL
MODEL 7
REMARK VINA RESULT:    -4.403      1.369      2.289
REMARK INTER + INTRA:         -10.838
REMARK INTER:                  -8.399
REMARK INTRA:                  -2.439
REMARK UNBOUND:                -2.316
REMARK SMILES CCCCCCCCCCCCCCCCCC(=O)[O-]
REMARK SMILES IDX 10 1 11 2 12 3 13 4 14 5 15 6 16 7 17 8 18 9 19 10 20 11
REMARK SMILES IDX 9 12 8 13 7 14 6 15 5 16 4 17 3 18 2 19 1 20
REMARK H PARENT
REMARK Flexibility Score: inf
ROOT
ATOM      1  C   UNL     1      12.663  53.587  37.785  1.00  0.00     0.000 C 
ENDROOT
BRANCH   1   2
ATOM      2  C   UNL     1      11.764  54.646  37.137  1.00  0.00     0.000 C 
BRANCH   2   3
ATOM      3  C   UNL     1      11.232  54.164  35.782  1.00  0.00     0.000 C 
BRANCH   3   4
ATOM      4  C   UNL     1      11.642  55.121  34.657  1.00  0.00     0.000 C 
BRANCH   4   5
ATOM      5  C   UNL     1      12.551  56.240  35.188  1.00  0.00     0.000 C 
BRANCH   5   6
ATOM      6  C   UNL     1      13.652  56.627  34.177  1.00  0.00     0.000 C 
BRANCH   6   7
ATOM      7  C   UNL     1      15.078  56.499  34.739  1.00  0.00     0.006 C 
BRANCH   7   8
ATOM      8  C   UNL     1      15.884  57.798  34.626  1.00  0.00     0.053 C 
BRANCH   8   9
ATOM      9  C   UNL     1      17.148  57.563  33.863  1.00  0.00     0.041 C 
ATOM     10  O   UNL     1      18.224  58.098  34.238  1.00  0.00    -0.550 OA
ATOM     11  O   UNL     1      17.149  56.712  32.764  1.00  0.00    -0.550 OA
ENDBRANCH   8   9
ENDBRANCH   7   8
ENDBRANCH   6   7
ENDBRANCH   5   6
ENDBRANCH   4   5
ENDBRANCH   3   4
ENDBRANCH   2   3
ENDBRANCH   1   2
BRANCH   1  12
ATOM     12  C   UNL     1      14.054  53.574  37.132  1.00  0.00     0.000 C 
BRANCH  12  13
ATOM     13  C   UNL     1      14.636  52.156  37.007  1.00  0.00    -0.000 C 
BRANCH  13  14
ATOM     14  C   UNL     1      15.029  51.804  35.562  1.00  0.00    -0.000 C 
BRANCH  14  15
ATOM     15  C   UNL     1      14.968  53.017  34.616  1.00  0.00    -0.000 C 
BRANCH  15  16
ATOM     16  C   UNL     1      14.223  52.778  33.287  1.00  0.00    -0.000 C 
BRANCH  16  17
ATOM     17  C   UNL     1      13.073  51.757  33.356  1.00  0.00    -0.000 C 
BRANCH  17  18
ATOM     18  C   UNL     1      13.288  50.554  32.425  1.00  0.00    -0.000 C 
BRANCH  18  19
ATOM     19  C   UNL     1      14.237  49.531  33.062  1.00  0.00    -0.003 C 
ATOM     20  C   UNL     1      15.499  49.354  32.222  1.00  0.00     0.004 C 
ENDBRANCH  18  19
ENDBRANCH  17  18
ENDBRANCH  16  17
ENDBRANCH  15  16
ENDBRANCH  14  15
ENDBRANCH  13  14
ENDBRANCH  12  13
ENDBRANCH   1  12
TORSDOF 16
ENDMDL
MODEL 8
REMARK VINA RESULT:    -4.370      1.300      2.716
REMARK INTER + INTRA:         -10.774
REMARK INTER:                  -8.158
REMARK INTRA:                  -2.616
REMARK UNBOUND:                -2.316
REMARK SMILES CCCCCCCCCCCCCCCCCC(=O)[O-]
REMARK SMILES IDX 10 1 11 2 12 3 13 4 14 5 15 6 16 7 17 8 18 9 19 10 20 11
REMARK SMILES IDX 9 12 8 13 7 14 6 15 5 16 4 17 3 18 2 19 1 20
REMARK H PARENT
REMARK Flexibility Score: inf
ROOT
ATOM      1  C   UNL     1      12.438  53.447  37.943  1.00  0.00     0.000 C 
ENDROOT
BRANCH   1   2
ATOM      2  C   UNL     1      13.786  53.913  37.377  1.00  0.00     0.000 C 
BRANCH   2   3
ATOM      3  C   UNL     1      14.531  52.754  36.704  1.00  0.00     0.000 C 
BRANCH   3   4
ATOM      4  C   UNL     1      15.351  53.248  35.507  1.00  0.00     0.000 C 
BRANCH   4   5
ATOM      5  C   UNL     1      15.031  54.716  35.187  1.00  0.00     0.000 C 
BRANCH   5   6
ATOM      6  C   UNL     1      15.350  55.077  33.720  1.00  0.00     0.000 C 
BRANCH   6   7
ATOM      7  C   UNL     1      15.274  56.584  33.424  1.00  0.00     0.006 C 
BRANCH   7   8
ATOM      8  C   UNL     1      15.465  57.448  34.677  1.00  0.00     0.053 C 
BRANCH   8   9
ATOM      9  C   UNL     1      16.693  58.291  34.546  1.00  0.00     0.041 C 
ATOM     10  O   UNL     1      16.710  59.462  35.008  1.00  0.00    -0.550 OA
ATOM     11  O   UNL     1      17.837  57.766  33.957  1.00  0.00    -0.550 OA
ENDBRANCH   8   9
ENDBRANCH   7   8
ENDBRANCH   6   7
ENDBRANCH   5   6
ENDBRANCH   4   5
ENDBRANCH   3   4
ENDBRANCH   2   3
ENDBRANCH   1   2
BRANCH   1  12
ATOM     12  C   UNL     1      11.271  54.054  37.148  1.00  0.00     0.000 C 
BRANCH  12  13
ATOM     13  C   UNL     1      11.686  55.299  36.346  1.00  0.00    -0.000 C 
BRANCH  13  14
ATOM     14  C   UNL     1      11.440  55.137  34.836  1.00  0.00    -0.000 C 
BRANCH  14  15
ATOM     15  C   UNL     1      11.415  53.664  34.391  1.00  0.00    -0.000 C 
BRANCH  15  16
ATOM     16  C   UNL     1      12.190  53.355  33.093  1.00  0.00    -0.000 C 
BRANCH  16  17
ATOM     17  C   UNL     1      12.516  51.868  32.865  1.00  0.00    -0.000 C 
BRANCH  17  18
ATOM     18  C   UNL     1      14.020  51.608  32.692  1.00  0.00    -0.000 C 
BRANCH  18  19
ATOM     19  C   UNL     1      14.445  50.338  33.440  1.00  0.00    -0.003 C 
ATOM     20  C   UNL     1      15.156  49.361  32.507  1.00  0.00     0.004 C 
ENDBRANCH  18  19
ENDBRANCH  17  18
ENDBRANCH  16  17
ENDBRANCH  15  16
ENDBRANCH  14  15
ENDBRANCH  13  14
ENDBRANCH  12  13
ENDBRANCH   1  12
TORSDOF 16
ENDMDL
MODEL 9
REMARK VINA RESULT:    -4.316      2.296      4.670
REMARK INTER + INTRA:         -10.670
REMARK INTER:                  -7.631
REMARK INTRA:                  -3.039
REMARK UNBOUND:                -2.316
REMARK SMILES CCCCCCCCCCCCCCCCCC(=O)[O-]
REMARK SMILES IDX 10 1 11 2 12 3 13 4 14 5 15 6 16 7 17 8 18 9 19 10 20 11
REMARK SMILES IDX 9 12 8 13 7 14 6 15 5 16 4 17 3 18 2 19 1 20
REMARK H PARENT
REMARK Flexibility Score: inf
ROOT
ATOM      1  C   UNL     1      17.079  56.842  33.071  1.00  0.00     0.000 C 
ENDROOT
BRANCH   1   2
ATOM      2  C   UNL     1      17.624  58.073  33.807  1.00  0.00     0.000 C 
BRANCH   2   3
ATOM      3  C   UNL     1      16.673  58.510  34.928  1.00  0.00     0.000 C 
BRANCH   3   4
ATOM      4  C   UNL     1      16.494  60.033  34.935  1.00  0.00     0.000 C 
BRANCH   4   5
ATOM      5  C   UNL     1      15.298  60.452  34.067  1.00  0.00     0.000 C 
BRANCH   5   6
ATOM      6  C   UNL     1      14.083  59.518  34.256  1.00  0.00     0.000 C 
BRANCH   6   7
ATOM      7  C   UNL     1      13.551  58.922  32.942  1.00  0.00     0.006 C 
BRANCH   7   8
ATOM      8  C   UNL     1      14.480  59.183  31.750  1.00  0.00     0.053 C 
BRANCH   8   9
ATOM      9  C   UNL     1      14.333  58.101  30.728  1.00  0.00     0.041 C 
ATOM     10  O   UNL     1      13.196  57.636  30.456  1.00  0.00    -0.550 OA
ATOM     11  O   UNL     1      15.449  57.639  30.040  1.00  0.00    -0.550 OA
ENDBRANCH   8   9
ENDBRANCH   7   8
ENDBRANCH   6   7
ENDBRANCH   5   6
ENDBRANCH   4   5
ENDBRANCH   3   4
ENDBRANCH   2   3
ENDBRANCH   1   2
BRANCH   1  12
ATOM     12  C   UNL     1      15.937  56.190  33.865  1.00  0.00     0.000 C 
BRANCH  12  13
ATOM     13  C   UNL     1      15.074  55.257  33.000  1.00  0.00    -0.000 C 
BRANCH  13  14
ATOM     14  C   UNL     1      13.676  55.022  33.598  1.00  0.00    -0.000 C 
BRANCH  14  15
ATOM     15  C   UNL     1      13.439  55.823  34.891  1.00  0.00    -0.000 C 
BRANCH  15  16
ATOM     16  C   UNL     1      13.143  54.975  36.145  1.00  0.00    -0.000 C 
BRANCH  16  17
ATOM     17  C   UNL     1      13.718  53.548  36.121  1.00  0.00    -0.000 C 
BRANCH  17  18
ATOM     18  C   UNL     1      15.174  53.485  36.607  1.00  0.00    -0.000 C 
BRANCH  18  19
ATOM     19  C   UNL     1      15.924  52.324  35.942  1.00  0.00    -0.003 C 
ATOM     20  C   UNL     1      15.110  51.725  34.798  1.00  0.00     0.004 C 
ENDBRANCH  18  19
ENDBRANCH  17  18
ENDBRANCH  16  17
ENDBRANCH  15  16
ENDBRANCH  14  15
ENDBRANCH  13  14
ENDBRANCH  12  13
ENDBRANCH   1  12
TORSDOF 16
ENDMDL
