MODEL 1
REMARK VINA RESULT:    -3.087      0.000      0.000
REMARK INTER + INTRA:          -8.024
REMARK INTER:                  -5.613
REMARK INTRA:                  -2.411
REMARK UNBOUND:                -2.411
REMARK SMILES CCCCCCCCCCCCCCCC(=O)[O-]
REMARK SMILES IDX 9 1 10 2 11 3 12 4 13 5 14 6 15 7 16 8 17 9 18 10 8 11 7 12
REMARK SMILES IDX 6 13 5 14 4 15 3 16 2 17 1 18
REMARK H PARENT
REMARK Flexibility Score: inf
ROOT
ATOM      1  C   UNL     1     133.285 143.650 138.874  1.00  0.00     0.000 C 
ENDROOT
BRANCH   1   2
ATOM      2  C   UNL     1     132.565 142.627 137.982  1.00  0.00     0.000 C 
BRANCH   2   3
ATOM      3  C   UNL     1     131.214 143.143 137.458  1.00  0.00     0.000 C 
BRANCH   3   4
ATOM      4  C   UNL     1     130.061 142.156 137.739  1.00  0.00     0.000 C 
BRANCH   4   5
ATOM      5  C   UNL     1     130.492 140.908 138.534  1.00  0.00     0.000 C 
BRANCH   5   6
ATOM      6  C   UNL     1     129.389 140.278 139.405  1.00  0.00     0.006 C 
BRANCH   6   7
ATOM      7  C   UNL     1     129.108 138.798 139.099  1.00  0.00     0.053 C 
BRANCH   7   8
ATOM      8  C   UNL     1     128.656 138.051 140.315  1.00  0.00     0.041 C 
ATOM      9  O   UNL     1     129.381 138.019 141.345  1.00  0.00    -0.550 OA
ATOM     10  O   UNL     1     127.419 137.417 140.324  1.00  0.00    -0.550 OA
ENDBRANCH   7   8
ENDBRANCH   6   7
ENDBRANCH   5   6
ENDBRANCH   4   5
ENDBRANCH   3   4
ENDBRANCH   2   3
ENDBRANCH   1   2
BRANCH   1  11
ATOM     11  C   UNL     1     132.314 144.642 139.539  1.00  0.00     0.000 C 
BRANCH  11  12
ATOM     12  C   UNL     1     132.113 144.343 141.041  1.00  0.00    -0.000 C 
BRANCH  12  13
ATOM     13  C   UNL     1     131.097 143.217 141.318  1.00  0.00    -0.000 C 
BRANCH  13  14
ATOM     14  C   UNL     1     131.485 142.263 142.459  1.00  0.00    -0.000 C 
BRANCH  14  15
ATOM     15  C   UNL     1     131.823 140.848 141.963  1.00  0.00    -0.000 C 
BRANCH  15  16
ATOM     16  C   UNL     1     133.214 140.816 141.313  1.00  0.00    -0.000 C 
BRANCH  16  17
ATOM     17  C   UNL     1     134.330 141.222 142.288  1.00  0.00    -0.003 C 
ATOM     18  C   UNL     1     135.235 142.319 141.729  1.00  0.00     0.004 C 
ENDBRANCH  16  17
ENDBRANCH  15  16
ENDBRANCH  14  15
ENDBRANCH  13  14
ENDBRANCH  12  13
ENDBRANCH  11  12
ENDBRANCH   1  11
TORSDOF 14
ENDMDL
MODEL 2
REMARK VINA RESULT:    -3.024      3.067      4.158
REMARK INTER + INTRA:          -7.910
REMARK INTER:                  -6.342
REMARK INTRA:                  -1.568
REMARK UNBOUND:                -2.411
REMARK SMILES CCCCCCCCCCCCCCCC(=O)[O-]
REMARK SMILES IDX 9 1 10 2 11 3 12 4 13 5 14 6 15 7 16 8 17 9 18 10 8 11 7 12
REMARK SMILES IDX 6 13 5 14 4 15 3 16 2 17 1 18
REMARK H PARENT
REMARK Flexibility Score: inf
ROOT
ATOM      1  C   UNL     1     130.969 142.693 142.549  1.00  0.00     0.000 C 
ENDROOT
BRANCH   1   2
ATOM      2  C   UNL     1     131.180 143.262 141.137  1.00  0.00     0.000 C 
BRANCH   2   3
ATOM      3  C   UNL     1     131.591 142.185 140.118  1.00  0.00     0.000 C 
BRANCH   3   4
ATOM      4  C   UNL     1     130.537 141.997 139.006  1.00  0.00     0.000 C 
BRANCH   4   5
ATOM      5  C   UNL     1     129.396 141.033 139.389  1.00  0.00     0.000 C 
BRANCH   5   6
ATOM      6  C   UNL     1     129.625 139.564 138.988  1.00  0.00     0.006 C 
BRANCH   6   7
ATOM      7  C   UNL     1     130.420 138.743 140.017  1.00  0.00     0.053 C 
BRANCH   7   8
ATOM      8  C   UNL     1     129.521 138.024 140.975  1.00  0.00     0.041 C 
ATOM      9  O   UNL     1     128.603 137.279 140.543  1.00  0.00    -0.550 OA
ATOM     10  O   UNL     1     129.718 138.152 142.344  1.00  0.00    -0.550 OA
ENDBRANCH   7   8
ENDBRANCH   6   7
ENDBRANCH   5   6
ENDBRANCH   4   5
ENDBRANCH   3   4
ENDBRANCH   2   3
ENDBRANCH   1   2
BRANCH   1  11
ATOM     11  C   UNL     1     131.440 141.233 142.675  1.00  0.00     0.000 C 
BRANCH  11  12
ATOM     12  C   UNL     1     131.312 140.701 144.119  1.00  0.00    -0.000 C 
BRANCH  12  13
ATOM     13  C   UNL     1     130.590 141.672 145.075  1.00  0.00    -0.000 C 
BRANCH  13  14
ATOM     14  C   UNL     1     129.401 141.064 145.837  1.00  0.00    -0.000 C 
BRANCH  14  15
ATOM     15  C   UNL     1     129.284 139.544 145.642  1.00  0.00    -0.000 C 
BRANCH  15  16
ATOM     16  C   UNL     1     129.526 138.805 146.967  1.00  0.00    -0.000 C 
BRANCH  16  17
ATOM     17  C   UNL     1     130.957 138.260 147.085  1.00  0.00    -0.003 C 
ATOM     18  C   UNL     1     131.910 139.242 147.767  1.00  0.00     0.004 C 
ENDBRANCH  16  17
ENDBRANCH  15  16
ENDBRANCH  14  15
ENDBRANCH  13  14
ENDBRANCH  12  13
ENDBRANCH  11  12
ENDBRANCH   1  11
TORSDOF 14
ENDMDL
MODEL 3
REMARK VINA RESULT:    -3.015      2.181      3.399
REMARK INTER + INTRA:          -7.893
REMARK INTER:                  -6.655
REMARK INTRA:                  -1.238
REMARK UNBOUND:                -2.411
REMARK SMILES CCCCCCCCCCCCCCCC(=O)[O-]
REMARK SMILES IDX 9 1 10 2 11 3 12 4 13 5 14 6 15 7 16 8 17 9 18 10 8 11 7 12
REMARK SMILES IDX 6 13 5 14 4 15 3 16 2 17 1 18
REMARK H PARENT
REMARK Flexibility Score: inf
ROOT
ATOM      1  C   UNL     1     131.211 143.116 141.194  1.00  0.00     0.000 C 
ENDROOT
BRANCH   1   2
ATOM      2  C   UNL     1     131.528 144.124 140.080  1.00  0.00     0.000 C 
BRANCH   2   3
ATOM      3  C   UNL     1     131.183 143.589 138.679  1.00  0.00     0.000 C 
BRANCH   3   4
ATOM      4  C   UNL     1     131.417 142.068 138.559  1.00  0.00     0.000 C 
BRANCH   4   5
ATOM      5  C   UNL     1     130.118 141.238 138.555  1.00  0.00     0.000 C 
BRANCH   5   6
ATOM      6  C   UNL     1     130.072 140.098 139.590  1.00  0.00     0.006 C 
BRANCH   6   7
ATOM      7  C   UNL     1     129.174 138.915 139.189  1.00  0.00     0.053 C 
BRANCH   7   8
ATOM      8  C   UNL     1     128.725 138.126 140.380  1.00  0.00     0.041 C 
ATOM      9  O   UNL     1     127.586 137.588 140.390  1.00  0.00    -0.550 OA
ATOM     10  O   UNL     1     129.576 137.957 141.465  1.00  0.00    -0.550 OA
ENDBRANCH   7   8
ENDBRANCH   6   7
ENDBRANCH   5   6
ENDBRANCH   4   5
ENDBRANCH   3   4
ENDBRANCH   2   3
ENDBRANCH   1   2
BRANCH   1  11
ATOM     11  C   UNL     1     131.678 143.597 142.580  1.00  0.00     0.000 C 
BRANCH  11  12
ATOM     12  C   UNL     1     131.648 142.466 143.632  1.00  0.00    -0.000 C 
BRANCH  12  13
ATOM     13  C   UNL     1     131.224 141.099 143.059  1.00  0.00    -0.000 C 
BRANCH  13  14
ATOM     14  C   UNL     1     131.983 139.893 143.636  1.00  0.00    -0.000 C 
BRANCH  14  15
ATOM     15  C   UNL     1     131.414 139.421 144.983  1.00  0.00    -0.000 C 
BRANCH  15  16
ATOM     16  C   UNL     1     129.919 139.090 144.857  1.00  0.00    -0.000 C 
BRANCH  16  17
ATOM     17  C   UNL     1     129.087 139.670 146.011  1.00  0.00    -0.003 C 
ATOM     18  C   UNL     1     129.148 141.196 146.076  1.00  0.00     0.004 C 
ENDBRANCH  16  17
ENDBRANCH  15  16
ENDBRANCH  14  15
ENDBRANCH  13  14
ENDBRANCH  12  13
ENDBRANCH  11  12
ENDBRANCH   1  11
TORSDOF 14
ENDMDL
MODEL 4
REMARK VINA RESULT:    -2.979      2.587      4.318
REMARK INTER + INTRA:          -7.829
REMARK INTER:                  -5.996
REMARK INTRA:                  -1.833
REMARK UNBOUND:                -2.411
REMARK SMILES CCCCCCCCCCCCCCCC(=O)[O-]
REMARK SMILES IDX 9 1 10 2 11 3 12 4 13 5 14 6 15 7 16 8 17 9 18 10 8 11 7 12
REMARK SMILES IDX 6 13 5 14 4 15 3 16 2 17 1 18
REMARK H PARENT
REMARK Flexibility Score: inf
ROOT
ATOM      1  C   UNL     1     130.991 142.304 142.037  1.00  0.00     0.000 C 
ENDROOT
BRANCH   1   2
ATOM      2  C   UNL     1     131.729 143.619 141.746  1.00  0.00     0.000 C 
BRANCH   2   3
ATOM      3  C   UNL     1     131.428 144.171 140.341  1.00  0.00     0.000 C 
BRANCH   3   4
ATOM      4  C   UNL     1     132.664 144.125 139.417  1.00  0.00     0.000 C 
BRANCH   4   5
ATOM      5  C   UNL     1     132.484 143.219 138.184  1.00  0.00     0.000 C 
BRANCH   5   6
ATOM      6  C   UNL     1     131.097 142.562 138.057  1.00  0.00     0.006 C 
BRANCH   6   7
ATOM      7  C   UNL     1     131.125 141.025 138.026  1.00  0.00     0.053 C 
BRANCH   7   8
ATOM      8  C   UNL     1     129.913 140.430 138.676  1.00  0.00     0.041 C 
ATOM      9  O   UNL     1     129.760 139.181 138.707  1.00  0.00    -0.550 OA
ATOM     10  O   UNL     1     128.969 141.255 139.275  1.00  0.00    -0.550 OA
ENDBRANCH   7   8
ENDBRANCH   6   7
ENDBRANCH   5   6
ENDBRANCH   4   5
ENDBRANCH   3   4
ENDBRANCH   2   3
ENDBRANCH   1   2
BRANCH   1  11
ATOM     11  C   UNL     1     131.860 141.064 141.761  1.00  0.00     0.000 C 
BRANCH  11  12
ATOM     12  C   UNL     1     131.103 139.746 142.040  1.00  0.00    -0.000 C 
BRANCH  12  13
ATOM     13  C   UNL     1     131.471 139.094 143.387  1.00  0.00    -0.000 C 
BRANCH  13  14
ATOM     14  C   UNL     1     130.275 138.576 144.203  1.00  0.00    -0.000 C 
BRANCH  14  15
ATOM     15  C   UNL     1     130.358 138.959 145.689  1.00  0.00    -0.000 C 
BRANCH  15  16
ATOM     16  C   UNL     1     129.176 139.855 146.088  1.00  0.00    -0.000 C 
BRANCH  16  17
ATOM     17  C   UNL     1     129.408 141.331 145.730  1.00  0.00    -0.003 C 
ATOM     18  C   UNL     1     130.855 141.772 145.948  1.00  0.00     0.004 C 
ENDBRANCH  16  17
ENDBRANCH  15  16
ENDBRANCH  14  15
ENDBRANCH  13  14
ENDBRANCH  12  13
ENDBRANCH  11  12
ENDBRANCH   1  11
TORSDOF 14
ENDMDL
MODEL 5
REMARK VINA RESULT:    -2.961      1.969      3.926
REMARK INTER + INTRA:          -7.796
REMARK INTER:                  -5.894
REMARK INTRA:                  -1.902
REMARK UNBOUND:                -2.411
REMARK SMILES CCCCCCCCCCCCCCCC(=O)[O-]
REMARK SMILES IDX 9 1 10 2 11 3 12 4 13 5 14 6 15 7 16 8 17 9 18 10 8 11 7 12
REMARK SMILES IDX 6 13 5 14 4 15 3 16 2 17 1 18
REMARK H PARENT
REMARK Flexibility Score: inf
ROOT
ATOM      1  C   UNL     1     131.100 140.441 138.339  1.00  0.00     0.000 C 
ENDROOT
BRANCH   1   2
ATOM      2  C   UNL     1     129.806 141.168 138.732  1.00  0.00     0.000 C 
BRANCH   2   3
ATOM      3  C   UNL     1     128.693 140.201 139.176  1.00  0.00     0.000 C 
BRANCH   3   4
ATOM      4  C   UNL     1     129.194 138.745 139.287  1.00  0.00     0.000 C 
BRANCH   4   5
ATOM      5  C   UNL     1     128.874 138.081 140.641  1.00  0.00     0.000 C 
BRANCH   5   6
ATOM      6  C   UNL     1     130.103 137.732 141.501  1.00  0.00     0.006 C 
BRANCH   6   7
ATOM      7  C   UNL     1     130.970 138.942 141.886  1.00  0.00     0.053 C 
BRANCH   7   8
ATOM      8  C   UNL     1     130.959 139.191 143.363  1.00  0.00     0.041 C 
ATOM      9  O   UNL     1     130.024 138.736 144.074  1.00  0.00    -0.550 OA
ATOM     10  O   UNL     1     131.996 139.898 143.958  1.00  0.00    -0.550 OA
ENDBRANCH   7   8
ENDBRANCH   6   7
ENDBRANCH   5   6
ENDBRANCH   4   5
ENDBRANCH   3   4
ENDBRANCH   2   3
ENDBRANCH   1   2
BRANCH   1  11
ATOM     11  C   UNL     1     132.357 141.297 138.578  1.00  0.00     0.000 C 
BRANCH  11  12
ATOM     12  C   UNL     1     132.167 142.757 138.110  1.00  0.00    -0.000 C 
BRANCH  12  13
ATOM     13  C   UNL     1     133.409 143.643 138.327  1.00  0.00    -0.000 C 
BRANCH  13  14
ATOM     14  C   UNL     1     133.142 144.956 139.083  1.00  0.00    -0.000 C 
BRANCH  14  15
ATOM     15  C   UNL     1     132.235 144.762 140.308  1.00  0.00    -0.000 C 
BRANCH  15  16
ATOM     16  C   UNL     1     133.016 144.131 141.471  1.00  0.00    -0.000 C 
BRANCH  16  17
ATOM     17  C   UNL     1     132.102 143.403 142.468  1.00  0.00    -0.003 C 
ATOM     18  C   UNL     1     130.936 142.686 141.786  1.00  0.00     0.004 C 
ENDBRANCH  16  17
ENDBRANCH  15  16
ENDBRANCH  14  15
ENDBRANCH  13  14
ENDBRANCH  12  13
ENDBRANCH  11  12
ENDBRANCH   1  11
TORSDOF 14
ENDMDL
MODEL 6
REMARK VINA RESULT:    -2.960      3.602      5.739
REMARK INTER + INTRA:          -7.794
REMARK INTER:                  -6.043
REMARK INTRA:                  -1.751
REMARK UNBOUND:                -2.411
REMARK SMILES CCCCCCCCCCCCCCCC(=O)[O-]
REMARK SMILES IDX 9 1 10 2 11 3 12 4 13 5 14 6 15 7 16 8 17 9 18 10 8 11 7 12
REMARK SMILES IDX 6 13 5 14 4 15 3 16 2 17 1 18
REMARK H PARENT
REMARK Flexibility Score: inf
ROOT
ATOM      1  C   UNL     1     129.565 137.862 141.628  1.00  0.00     0.000 C 
ENDROOT
BRANCH   1   2
ATOM      2  C   UNL     1     129.082 137.929 140.171  1.00  0.00     0.000 C 
BRANCH   2   3
ATOM      3  C   UNL     1     129.055 139.366 139.621  1.00  0.00     0.000 C 
BRANCH   3   4
ATOM      4  C   UNL     1     130.211 139.638 138.635  1.00  0.00     0.000 C 
BRANCH   4   5
ATOM      5  C   UNL     1     130.942 140.971 138.889  1.00  0.00     0.000 C 
BRANCH   5   6
ATOM      6  C   UNL     1     131.398 141.196 140.343  1.00  0.00     0.006 C 
BRANCH   6   7
ATOM      7  C   UNL     1     130.699 142.368 141.052  1.00  0.00     0.053 C 
BRANCH   7   8
ATOM      8  C   UNL     1     131.476 143.642 140.925  1.00  0.00     0.041 C 
ATOM      9  O   UNL     1     131.367 144.350 139.890  1.00  0.00    -0.550 OA
ATOM     10  O   UNL     1     132.296 144.063 141.965  1.00  0.00    -0.550 OA
ENDBRANCH   7   8
ENDBRANCH   6   7
ENDBRANCH   5   6
ENDBRANCH   4   5
ENDBRANCH   3   4
ENDBRANCH   2   3
ENDBRANCH   1   2
BRANCH   1  11
ATOM     11  C   UNL     1     131.097 137.749 141.740  1.00  0.00     0.000 C 
BRANCH  11  12
ATOM     12  C   UNL     1     131.649 138.499 142.971  1.00  0.00    -0.000 C 
BRANCH  12  13
ATOM     13  C   UNL     1     130.667 139.532 143.559  1.00  0.00    -0.000 C 
BRANCH  13  14
ATOM     14  C   UNL     1     131.308 140.579 144.486  1.00  0.00    -0.000 C 
BRANCH  14  15
ATOM     15  C   UNL     1     130.502 140.804 145.775  1.00  0.00    -0.000 C 
BRANCH  15  16
ATOM     16  C   UNL     1     129.278 139.877 145.822  1.00  0.00    -0.000 C 
BRANCH  16  17
ATOM     17  C   UNL     1     129.410 138.781 146.889  1.00  0.00    -0.003 C 
ATOM     18  C   UNL     1     130.857 138.546 147.321  1.00  0.00     0.004 C 
ENDBRANCH  16  17
ENDBRANCH  15  16
ENDBRANCH  14  15
ENDBRANCH  13  14
ENDBRANCH  12  13
ENDBRANCH  11  12
ENDBRANCH   1  11
TORSDOF 14
ENDMDL
MODEL 7
REMARK VINA RESULT:    -2.921      4.109      6.415
REMARK INTER + INTRA:          -7.723
REMARK INTER:                  -6.623
REMARK INTRA:                  -1.100
REMARK UNBOUND:                -2.411
REMARK SMILES CCCCCCCCCCCCCCCC(=O)[O-]
REMARK SMILES IDX 9 1 10 2 11 3 12 4 13 5 14 6 15 7 16 8 17 9 18 10 8 11 7 12
REMARK SMILES IDX 6 13 5 14 4 15 3 16 2 17 1 18
REMARK H PARENT
REMARK Flexibility Score: inf
ROOT
ATOM      1  C   UNL     1     132.265 144.621 140.114  1.00  0.00     0.000 C 
ENDROOT
BRANCH   1   2
ATOM      2  C   UNL     1     133.325 145.125 139.123  1.00  0.00     0.000 C 
BRANCH   2   3
ATOM      3  C   UNL     1     133.987 143.984 138.331  1.00  0.00     0.000 C 
BRANCH   3   4
ATOM      4  C   UNL     1     133.571 143.984 136.844  1.00  0.00     0.000 C 
BRANCH   4   5
ATOM      5  C   UNL     1     132.125 143.506 136.604  1.00  0.00     0.000 C 
BRANCH   5   6
ATOM      6  C   UNL     1     131.537 143.877 135.230  1.00  0.00     0.006 C 
BRANCH   6   7
ATOM      7  C   UNL     1     132.506 144.641 134.312  1.00  0.00     0.053 C 
BRANCH   7   8
ATOM      8  C   UNL     1     132.962 143.802 133.158  1.00  0.00     0.041 C 
ATOM      9  O   UNL     1     133.475 142.670 133.362  1.00  0.00    -0.550 OA
ATOM     10  O   UNL     1     132.790 144.257 131.856  1.00  0.00    -0.550 OA
ENDBRANCH   7   8
ENDBRANCH   6   7
ENDBRANCH   5   6
ENDBRANCH   4   5
ENDBRANCH   3   4
ENDBRANCH   2   3
ENDBRANCH   1   2
BRANCH   1  11
ATOM     11  C   UNL     1     132.283 143.089 140.272  1.00  0.00     0.000 C 
BRANCH  11  12
ATOM     12  C   UNL     1     130.880 142.468 140.094  1.00  0.00    -0.000 C 
BRANCH  12  13
ATOM     13  C   UNL     1     130.901 141.060 139.466  1.00  0.00    -0.000 C 
BRANCH  13  14
ATOM     14  C   UNL     1     129.530 140.536 139.009  1.00  0.00    -0.000 C 
BRANCH  14  15
ATOM     15  C   UNL     1     129.480 139.003 138.915  1.00  0.00    -0.000 C 
BRANCH  15  16
ATOM     16  C   UNL     1     129.098 138.386 140.269  1.00  0.00    -0.000 C 
BRANCH  16  17
ATOM     17  C   UNL     1     128.385 137.033 140.119  1.00  0.00    -0.003 C 
ATOM     18  C   UNL     1     126.863 137.154 140.203  1.00  0.00     0.004 C 
ENDBRANCH  16  17
ENDBRANCH  15  16
ENDBRANCH  14  15
ENDBRANCH  13  14
ENDBRANCH  12  13
ENDBRANCH  11  12
ENDBRANCH   1  11
TORSDOF 14
ENDMDL
MODEL 8
REMARK VINA RESULT:    -2.879     13.716     15.927
REMARK INTER + INTRA:          -7.647
REMARK INTER:                  -5.888
REMARK INTRA:                  -1.759
REMARK UNBOUND:                -2.411
REMARK SMILES CCCCCCCCCCCCCCCC(=O)[O-]
REMARK SMILES IDX 9 1 10 2 11 3 12 4 13 5 14 6 15 7 16 8 17 9 18 10 8 11 7 12
REMARK SMILES IDX 6 13 5 14 4 15 3 16 2 17 1 18
REMARK H PARENT
REMARK Flexibility Score: inf
ROOT
ATOM      1  C   UNL     1     136.027 127.300 136.876  1.00  0.00     0.000 C 
ENDROOT
BRANCH   1   2
ATOM      2  C   UNL     1     135.626 125.817 136.873  1.00  0.00     0.000 C 
BRANCH   2   3
ATOM      3  C   UNL     1     136.838 124.875 136.981  1.00  0.00     0.000 C 
BRANCH   3   4
ATOM      4  C   UNL     1     137.704 124.885 135.702  1.00  0.00     0.000 C 
BRANCH   4   5
ATOM      5  C   UNL     1     139.054 125.609 135.873  1.00  0.00     0.000 C 
BRANCH   5   6
ATOM      6  C   UNL     1     139.726 125.417 137.246  1.00  0.00     0.006 C 
BRANCH   6   7
ATOM      7  C   UNL     1     140.323 126.702 137.844  1.00  0.00     0.053 C 
BRANCH   7   8
ATOM      8  C   UNL     1     139.370 127.377 138.782  1.00  0.00     0.041 C 
ATOM      9  O   UNL     1     138.495 126.704 139.389  1.00  0.00    -0.550 OA
ATOM     10  O   UNL     1     139.469 128.744 139.011  1.00  0.00    -0.550 OA
ENDBRANCH   7   8
ENDBRANCH   6   7
ENDBRANCH   5   6
ENDBRANCH   4   5
ENDBRANCH   3   4
ENDBRANCH   2   3
ENDBRANCH   1   2
BRANCH   1  11
ATOM     11  C   UNL     1     135.732 127.996 135.535  1.00  0.00     0.000 C 
BRANCH  11  12
ATOM     12  C   UNL     1     134.461 127.440 134.855  1.00  0.00    -0.000 C 
BRANCH  12  13
ATOM     13  C   UNL     1     133.545 128.532 134.268  1.00  0.00    -0.000 C 
BRANCH  13  14
ATOM     14  C   UNL     1     134.215 129.903 134.073  1.00  0.00    -0.000 C 
BRANCH  14  15
ATOM     15  C   UNL     1     133.475 131.035 134.802  1.00  0.00    -0.000 C 
BRANCH  15  16
ATOM     16  C   UNL     1     133.251 130.678 136.279  1.00  0.00    -0.000 C 
BRANCH  16  17
ATOM     17  C   UNL     1     134.046 131.583 137.232  1.00  0.00    -0.003 C 
ATOM     18  C   UNL     1     135.236 130.868 137.872  1.00  0.00     0.004 C 
ENDBRANCH  16  17
ENDBRANCH  15  16
ENDBRANCH  14  15
ENDBRANCH  13  14
ENDBRANCH  12  13
ENDBRANCH  11  12
ENDBRANCH   1  11
TORSDOF 14
ENDMDL
MODEL 9
REMARK VINA RESULT:    -2.874     14.660     16.331
REMARK INTER + INTRA:          -7.638
REMARK INTER:                  -5.397
REMARK INTRA:                  -2.241
REMARK UNBOUND:                -2.411
REMARK SMILES CCCCCCCCCCCCCCCC(=O)[O-]
REMARK SMILES IDX 9 1 10 2 11 3 12 4 13 5 14 6 15 7 16 8 17 9 18 10 8 11 7 12
REMARK SMILES IDX 6 13 5 14 4 15 3 16 2 17 1 18
REMARK H PARENT
REMARK Flexibility Score: inf
ROOT
ATOM      1  C   UNL     1     137.307 126.074 138.345  1.00  0.00     0.000 C 
ENDROOT
BRANCH   1   2
ATOM      2  C   UNL     1     137.190 125.025 137.229  1.00  0.00     0.000 C 
BRANCH   2   3
ATOM      3  C   UNL     1     136.706 125.625 135.898  1.00  0.00     0.000 C 
BRANCH   3   4
ATOM      4  C   UNL     1     135.166 125.630 135.783  1.00  0.00     0.000 C 
BRANCH   4   5
ATOM      5  C   UNL     1     134.615 126.751 134.879  1.00  0.00     0.000 C 
BRANCH   5   6
ATOM      6  C   UNL     1     135.377 128.086 134.961  1.00  0.00     0.006 C 
BRANCH   6   7
ATOM      7  C   UNL     1     134.958 128.984 136.136  1.00  0.00     0.053 C 
BRANCH   7   8
ATOM      8  C   UNL     1     134.012 130.063 135.706  1.00  0.00     0.041 C 
ATOM      9  O   UNL     1     132.874 129.765 135.256  1.00  0.00    -0.550 OA
ATOM     10  O   UNL     1     134.375 131.398 135.833  1.00  0.00    -0.550 OA
ENDBRANCH   7   8
ENDBRANCH   6   7
ENDBRANCH   5   6
ENDBRANCH   4   5
ENDBRANCH   3   4
ENDBRANCH   2   3
ENDBRANCH   1   2
BRANCH   1  11
ATOM     11  C   UNL     1     137.816 127.433 137.829  1.00  0.00     0.000 C 
BRANCH  11  12
ATOM     12  C   UNL     1     138.698 128.158 138.869  1.00  0.00    -0.000 C 
BRANCH  12  13
ATOM     13  C   UNL     1     139.483 127.202 139.790  1.00  0.00    -0.000 C 
BRANCH  13  14
ATOM     14  C   UNL     1     140.866 126.786 139.262  1.00  0.00    -0.000 C 
BRANCH  14  15
ATOM     15  C   UNL     1     140.968 125.278 138.986  1.00  0.00    -0.000 C 
BRANCH  15  16
ATOM     16  C   UNL     1     140.903 124.995 137.477  1.00  0.00    -0.000 C 
BRANCH  16  17
ATOM     17  C   UNL     1     141.224 126.235 136.630  1.00  0.00    -0.003 C 
ATOM     18  C   UNL     1     140.334 126.353 135.393  1.00  0.00     0.004 C 
ENDBRANCH  16  17
ENDBRANCH  15  16
ENDBRANCH  14  15
ENDBRANCH  13  14
ENDBRANCH  12  13
ENDBRANCH  11  12
ENDBRANCH   1  11
TORSDOF 14
ENDMDL
