MODEL 1
REMARK VINA RESULT:    -6.013      0.000      0.000
REMARK INTER + INTRA:         -12.620
REMARK INTER:                  -9.880
REMARK INTRA:                  -2.739
REMARK UNBOUND:                -2.739
REMARK SMILES C[C@H]1O[C@H](OC[C@@H]2O[C@@H](Oc3c(-c4ccc(O)c(O)c4)oc4cc(O)cc(O)c4c3=O)[C@@H](O)[C@@H](O)[C@@H]2O)[C@@H](O)[C@@H](O)[C@H]1O
REMARK SMILES IDX 7 1 36 2 34 3 32 4 9 5 8 6 6 7 5 8 4 9 1 10 2 11 42 12 3 13
REMARK SMILES IDX 40 14 38 15 43 16 41 18 39 20 37 22 35 24 10 26 11 27 12 28
REMARK SMILES IDX 30 29 21 30 29 31 31 32 22 33 27 34 23 35 26 36 24 37 13 38
REMARK SMILES IDX 20 39 14 40 18 41 15 42 16 43 19 44 17 46 28 48 25 50 33 52
REMARK H PARENT 43 17 41 19 39 21 37 23 35 25 19 45 17 47 28 49 25 51 33 53
REMARK Flexibility Score: inf
ROOT
ATOM      1  C   UNL     1      12.531  33.214  53.888  1.00  0.00     0.180 C 
ATOM      2  C   UNL     1      11.038  33.623  53.930  1.00  0.00     0.177 C 
ATOM      3  C   UNL     1      10.412  33.262  55.296  1.00  0.00     0.180 C 
ATOM      4  C   UNL     1      10.795  31.828  55.729  1.00  0.00     0.214 C 
ATOM      5  C   UNL     1      12.288  31.526  55.496  1.00  0.00     0.339 C 
ATOM      6  O   UNL     1      12.677  31.830  54.167  1.00  0.00    -0.332 OA
ENDROOT
BRANCH   1   7
ATOM      7  C   UNL     1      13.161  33.504  52.515  1.00  0.00     0.198 C 
BRANCH   7   8
ATOM      8  O   UNL     1      13.908  34.708  52.544  1.00  0.00    -0.347 OA
BRANCH   8   9
ATOM      9  C   UNL     1      14.854  34.760  51.486  1.00  0.00     0.281 C 
ATOM     10  C   UNL     1      12.807  36.590  49.029  1.00  0.00     0.041 C 
ATOM     11  C   UNL     1      13.616  36.374  50.309  1.00  0.00     0.150 C 
ATOM     12  C   UNL     1      14.677  37.480  50.488  1.00  0.00     0.174 C 
ATOM     13  O   UNL     1      14.225  35.094  50.255  1.00  0.00    -0.344 OA
ATOM     14  C   UNL     1      15.467  37.218  51.785  1.00  0.00     0.179 C 
ATOM     15  C   UNL     1      15.978  35.762  51.846  1.00  0.00     0.202 C 
BRANCH  12  16
ATOM     16  O   UNL     1      15.534  37.510  49.373  1.00  0.00    -0.388 OA
ATOM     17  H   UNL     1      15.146  38.157  48.727  1.00  0.00     0.211 HD
ENDBRANCH  12  16
BRANCH  14  18
ATOM     18  O   UNL     1      16.535  38.125  51.890  1.00  0.00    -0.387 OA
ATOM     19  H   UNL     1      16.224  38.866  52.472  1.00  0.00     0.211 HD
ENDBRANCH  14  18
BRANCH  15  20
ATOM     20  O   UNL     1      17.117  35.586  51.037  1.00  0.00    -0.385 OA
ATOM     21  H   UNL     1      16.855  35.716  50.089  1.00  0.00     0.211 HD
ENDBRANCH  15  20
ENDBRANCH   8   9
ENDBRANCH   7   8
ENDBRANCH   1   7
BRANCH   2  22
ATOM     22  O   UNL     1      10.342  32.957  52.907  1.00  0.00    -0.387 OA
ATOM     23  H   UNL     1      10.337  31.993  53.141  1.00  0.00     0.211 HD
ENDBRANCH   2  22
BRANCH   3  24
ATOM     24  O   UNL     1      10.732  34.210  56.288  1.00  0.00    -0.387 OA
ATOM     25  H   UNL     1      10.718  33.762  57.170  1.00  0.00     0.211 HD
ENDBRANCH   3  24
BRANCH   5  26
ATOM     26  O   UNL     1      13.125  32.210  56.439  1.00  0.00    -0.454 OA
BRANCH  26  27
ATOM     27  C   UNL     1      14.024  31.561  57.302  1.00  0.00     0.214 A 
ATOM     28  C   UNL     1      15.313  31.167  56.886  1.00  0.00     0.180 A 
ATOM     29  C   UNL     1      13.625  31.293  58.616  1.00  0.00     0.239 A 
ATOM     30  O   UNL     1      16.074  30.449  57.705  1.00  0.00    -0.452 OA
ATOM     31  C   UNL     1      14.489  30.588  59.489  1.00  0.00     0.111 A 
ATOM     32  O   UNL     1      12.473  31.653  58.978  1.00  0.00    -0.285 OA
ATOM     33  C   UNL     1      15.717  30.133  58.944  1.00  0.00     0.146 A 
ATOM     34  C   UNL     1      14.190  30.275  60.851  1.00  0.00     0.134 A 
ATOM     35  C   UNL     1      16.581  29.338  59.704  1.00  0.00     0.094 A 
ATOM     36  C   UNL     1      15.062  29.452  61.575  1.00  0.00     0.093 A 
ATOM     37  C   UNL     1      16.250  28.983  61.009  1.00  0.00     0.123 A 
BRANCH  28  38
ATOM     38  C   UNL     1      15.871  31.525  55.563  1.00  0.00     0.025 A 
ATOM     39  C   UNL     1      15.868  30.610  54.495  1.00  0.00     0.062 A 
ATOM     40  C   UNL     1      16.396  32.811  55.360  1.00  0.00     0.016 A 
ATOM     41  C   UNL     1      16.429  30.954  53.261  1.00  0.00     0.158 A 
ATOM     42  C   UNL     1      16.950  33.161  54.126  1.00  0.00     0.051 A 
ATOM     43  C   UNL     1      16.975  32.237  53.074  1.00  0.00     0.157 A 
BRANCH  41  44
ATOM     44  O   UNL     1      16.442  30.009  52.235  1.00  0.00    -0.504 OA
ATOM     45  H   UNL     1      16.820  29.079  52.368  1.00  0.00     0.293 HD
ENDBRANCH  41  44
BRANCH  43  46
ATOM     46  O   UNL     1      17.538  32.585  51.848  1.00  0.00    -0.504 OA
ATOM     47  H   UNL     1      18.159  31.955  51.352  1.00  0.00     0.293 HD
ENDBRANCH  43  46
ENDBRANCH  28  38
BRANCH  34  48
ATOM     48  O   UNL     1      13.076  30.761  61.541  1.00  0.00    -0.507 OA
ATOM     49  H   UNL     1      12.320  30.194  61.895  1.00  0.00     0.293 HD
ENDBRANCH  34  48
BRANCH  37  50
ATOM     50  O   UNL     1      17.112  28.169  61.741  1.00  0.00    -0.508 OA
ATOM     51  H   UNL     1      17.414  28.423  62.674  1.00  0.00     0.293 HD
ENDBRANCH  37  50
ENDBRANCH  26  27
ENDBRANCH   5  26
BRANCH   4  52
ATOM     52  O   UNL     1      10.463  31.611  57.077  1.00  0.00    -0.384 OA
ATOM     53  H   UNL     1      10.431  32.502  57.511  1.00  0.00     0.211 HD
ENDBRANCH   4  52
TORSDOF 16
ENDMDL
MODEL 2
REMARK VINA RESULT:    -5.864      3.750      7.849
REMARK INTER + INTRA:         -12.374
REMARK INTER:                  -8.808
REMARK INTRA:                  -3.565
REMARK UNBOUND:                -2.739
REMARK SMILES C[C@H]1O[C@H](OC[C@@H]2O[C@@H](Oc3c(-c4ccc(O)c(O)c4)oc4cc(O)cc(O)c4c3=O)[C@@H](O)[C@@H](O)[C@@H]2O)[C@@H](O)[C@@H](O)[C@H]1O
REMARK SMILES IDX 7 1 36 2 34 3 32 4 9 5 8 6 6 7 5 8 4 9 1 10 2 11 42 12 3 13
REMARK SMILES IDX 40 14 38 15 43 16 41 18 39 20 37 22 35 24 10 26 11 27 12 28
REMARK SMILES IDX 30 29 21 30 29 31 31 32 22 33 27 34 23 35 26 36 24 37 13 38
REMARK SMILES IDX 20 39 14 40 18 41 15 42 16 43 19 44 17 46 28 48 25 50 33 52
REMARK H PARENT 43 17 41 19 39 21 37 23 35 25 19 45 17 47 28 49 25 51 33 53
REMARK Flexibility Score: inf
ROOT
ATOM      1  C   UNL     1      14.892  36.477  48.393  1.00  0.00     0.180 C 
ATOM      2  C   UNL     1      16.412  36.748  48.280  1.00  0.00     0.177 C 
ATOM      3  C   UNL     1      17.145  36.281  49.559  1.00  0.00     0.180 C 
ATOM      4  C   UNL     1      16.407  36.749  50.833  1.00  0.00     0.214 C 
ATOM      5  C   UNL     1      14.882  36.540  50.736  1.00  0.00     0.339 C 
ATOM      6  O   UNL     1      14.357  37.107  49.547  1.00  0.00    -0.332 OA
ENDROOT
BRANCH   1   7
ATOM      7  C   UNL     1      14.130  36.993  47.159  1.00  0.00     0.198 C 
BRANCH   7   8
ATOM      8  O   UNL     1      15.005  37.156  46.056  1.00  0.00    -0.347 OA
BRANCH   8   9
ATOM      9  C   UNL     1      14.484  36.546  44.885  1.00  0.00     0.281 C 
ATOM     10  C   UNL     1      17.647  36.162  43.032  1.00  0.00     0.041 C 
ATOM     11  C   UNL     1      16.618  35.906  44.135  1.00  0.00     0.150 C 
ATOM     12  C   UNL     1      16.346  34.396  44.300  1.00  0.00     0.174 C 
ATOM     13  O   UNL     1      15.424  36.603  43.818  1.00  0.00    -0.344 OA
ATOM     14  C   UNL     1      15.304  34.188  45.416  1.00  0.00     0.179 C 
ATOM     15  C   UNL     1      14.067  35.089  45.203  1.00  0.00     0.202 C 
BRANCH  12  16
ATOM     16  O   UNL     1      15.896  33.852  43.083  1.00  0.00    -0.388 OA
ATOM     17  H   UNL     1      16.512  34.178  42.374  1.00  0.00     0.211 HD
ENDBRANCH  12  16
BRANCH  14  18
ATOM     18  O   UNL     1      14.929  32.836  45.480  1.00  0.00    -0.387 OA
ATOM     19  H   UNL     1      14.793  32.533  44.544  1.00  0.00     0.211 HD
ENDBRANCH  14  18
BRANCH  15  20
ATOM     20  O   UNL     1      13.214  34.560  44.216  1.00  0.00    -0.385 OA
ATOM     21  H   UNL     1      13.363  35.057  43.369  1.00  0.00     0.211 HD
ENDBRANCH  15  20
ENDBRANCH   8   9
ENDBRANCH   7   8
ENDBRANCH   1   7
BRANCH   2  22
ATOM     22  O   UNL     1      16.630  38.124  48.094  1.00  0.00    -0.387 OA
ATOM     23  H   UNL     1      15.750  38.529  47.875  1.00  0.00     0.211 HD
ENDBRANCH   2  22
BRANCH   3  24
ATOM     24  O   UNL     1      17.362  34.889  49.561  1.00  0.00    -0.387 OA
ATOM     25  H   UNL     1      16.899  34.496  48.780  1.00  0.00     0.211 HD
ENDBRANCH   3  24
BRANCH   5  26
ATOM     26  O   UNL     1      14.525  35.154  50.839  1.00  0.00    -0.454 OA
BRANCH  26  27
ATOM     27  C   UNL     1      13.525  34.666  51.697  1.00  0.00     0.214 A 
ATOM     28  C   UNL     1      12.194  34.478  51.268  1.00  0.00     0.180 A 
ATOM     29  C   UNL     1      13.860  34.363  53.021  1.00  0.00     0.239 A 
ATOM     30  O   UNL     1      11.265  34.131  52.153  1.00  0.00    -0.452 OA
ATOM     31  C   UNL     1      12.859  33.925  53.922  1.00  0.00     0.111 A 
ATOM     32  O   UNL     1      15.052  34.531  53.391  1.00  0.00    -0.285 OA
ATOM     33  C   UNL     1      11.530  33.877  53.428  1.00  0.00     0.146 A 
ATOM     34  C   UNL     1      13.092  33.574  55.287  1.00  0.00     0.134 A 
ATOM     35  C   UNL     1      10.466  33.559  54.278  1.00  0.00     0.094 A 
ATOM     36  C   UNL     1      12.002  33.289  56.120  1.00  0.00     0.093 A 
ATOM     37  C   UNL     1      10.696  33.283  55.624  1.00  0.00     0.123 A 
BRANCH  28  38
ATOM     38  C   UNL     1      11.777  34.643  49.858  1.00  0.00     0.025 A 
ATOM     39  C   UNL     1      12.053  33.657  48.893  1.00  0.00     0.062 A 
ATOM     40  C   UNL     1      11.071  35.794  49.477  1.00  0.00     0.016 A 
ATOM     41  C   UNL     1      11.680  33.844  47.558  1.00  0.00     0.158 A 
ATOM     42  C   UNL     1      10.690  35.980  48.145  1.00  0.00     0.051 A 
ATOM     43  C   UNL     1      10.994  35.013  47.180  1.00  0.00     0.157 A 
BRANCH  41  44
ATOM     44  O   UNL     1      12.002  32.863  46.621  1.00  0.00    -0.504 OA
ATOM     45  H   UNL     1      12.414  31.977  46.892  1.00  0.00     0.293 HD
ENDBRANCH  41  44
BRANCH  43  46
ATOM     46  O   UNL     1      10.623  35.206  45.852  1.00  0.00    -0.504 OA
ATOM     47  H   UNL     1      10.790  34.497  45.146  1.00  0.00     0.293 HD
ENDBRANCH  43  46
ENDBRANCH  28  38
BRANCH  34  48
ATOM     48  O   UNL     1      14.361  33.466  55.864  1.00  0.00    -0.507 OA
ATOM     49  H   UNL     1      14.545  33.401  56.854  1.00  0.00     0.293 HD
ENDBRANCH  34  48
BRANCH  37  50
ATOM     50  O   UNL     1       9.620  32.994  56.461  1.00  0.00    -0.508 OA
ATOM     51  H   UNL     1       8.797  32.512  56.118  1.00  0.00     0.293 HD
ENDBRANCH  37  50
ENDBRANCH  26  27
ENDBRANCH   5  26
BRANCH   4  52
ATOM     52  O   UNL     1      16.911  36.092  51.969  1.00  0.00    -0.384 OA
ATOM     53  H   UNL     1      17.333  35.253  51.651  1.00  0.00     0.211 HD
ENDBRANCH   4  52
TORSDOF 16
ENDMDL
MODEL 3
REMARK VINA RESULT:    -5.787      1.684      2.449
REMARK INTER + INTRA:         -12.247
REMARK INTER:                  -9.293
REMARK INTRA:                  -2.954
REMARK UNBOUND:                -2.739
REMARK SMILES C[C@H]1O[C@H](OC[C@@H]2O[C@@H](Oc3c(-c4ccc(O)c(O)c4)oc4cc(O)cc(O)c4c3=O)[C@@H](O)[C@@H](O)[C@@H]2O)[C@@H](O)[C@@H](O)[C@H]1O
REMARK SMILES IDX 7 1 36 2 34 3 32 4 9 5 8 6 6 7 5 8 4 9 1 10 2 11 42 12 3 13
REMARK SMILES IDX 40 14 38 15 43 16 41 18 39 20 37 22 35 24 10 26 11 27 12 28
REMARK SMILES IDX 30 29 21 30 29 31 31 32 22 33 27 34 23 35 26 36 24 37 13 38
REMARK SMILES IDX 20 39 14 40 18 41 15 42 16 43 19 44 17 46 28 48 25 50 33 52
REMARK H PARENT 43 17 41 19 39 21 37 23 35 25 19 45 17 47 28 49 25 51 33 53
REMARK Flexibility Score: inf
ROOT
ATOM      1  C   UNL     1      13.779  33.443  51.672  1.00  0.00     0.180 C 
ATOM      2  C   UNL     1      12.403  34.005  51.236  1.00  0.00     0.177 C 
ATOM      3  C   UNL     1      11.418  34.019  52.427  1.00  0.00     0.180 C 
ATOM      4  C   UNL     1      11.456  32.685  53.205  1.00  0.00     0.214 C 
ATOM      5  C   UNL     1      12.895  32.185  53.441  1.00  0.00     0.339 C 
ATOM      6  O   UNL     1      13.634  32.148  52.231  1.00  0.00    -0.332 OA
ENDROOT
BRANCH   1   7
ATOM      7  C   UNL     1      14.758  33.357  50.488  1.00  0.00     0.198 C 
BRANCH   7   8
ATOM      8  O   UNL     1      14.637  34.491  49.647  1.00  0.00    -0.347 OA
BRANCH   8   9
ATOM      9  C   UNL     1      15.891  34.867  49.096  1.00  0.00     0.281 C 
ATOM     10  C   UNL     1      14.673  37.285  46.596  1.00  0.00     0.041 C 
ATOM     11  C   UNL     1      14.973  36.726  47.988  1.00  0.00     0.150 C 
ATOM     12  C   UNL     1      15.737  37.755  48.847  1.00  0.00     0.174 C 
ATOM     13  O   UNL     1      15.723  35.529  47.848  1.00  0.00    -0.344 OA
ATOM     14  C   UNL     1      16.020  37.146  50.234  1.00  0.00     0.179 C 
ATOM     15  C   UNL     1      16.659  35.746  50.113  1.00  0.00     0.202 C 
BRANCH  12  16
ATOM     16  O   UNL     1      16.933  38.125  48.206  1.00  0.00    -0.388 OA
ATOM     17  H   UNL     1      17.286  37.311  47.758  1.00  0.00     0.211 HD
ENDBRANCH  12  16
BRANCH  14  18
ATOM     18  O   UNL     1      16.844  38.007  50.979  1.00  0.00    -0.387 OA
ATOM     19  H   UNL     1      17.642  38.192  50.419  1.00  0.00     0.211 HD
ENDBRANCH  14  18
BRANCH  15  20
ATOM     20  O   UNL     1      18.029  35.835  49.798  1.00  0.00    -0.385 OA
ATOM     21  H   UNL     1      18.119  36.071  48.838  1.00  0.00     0.211 HD
ENDBRANCH  15  20
ENDBRANCH   8   9
ENDBRANCH   7   8
ENDBRANCH   1   7
BRANCH   2  22
ATOM     22  O   UNL     1      11.877  33.205  50.206  1.00  0.00    -0.387 OA
ATOM     23  H   UNL     1      10.906  33.105  50.385  1.00  0.00     0.211 HD
ENDBRANCH   2  22
BRANCH   3  24
ATOM     24  O   UNL     1      11.635  35.124  53.274  1.00  0.00    -0.387 OA
ATOM     25  H   UNL     1      11.322  34.892  54.183  1.00  0.00     0.211 HD
ENDBRANCH   3  24
BRANCH   5  26
ATOM     26  O   UNL     1      13.578  32.969  54.429  1.00  0.00    -0.454 OA
BRANCH  26  27
ATOM     27  C   UNL     1      14.207  32.425  55.561  1.00  0.00     0.214 A 
ATOM     28  C   UNL     1      15.516  31.901  55.513  1.00  0.00     0.180 A 
ATOM     29  C   UNL     1      13.511  32.398  56.774  1.00  0.00     0.239 A 
ATOM     30  O   UNL     1      16.016  31.290  56.582  1.00  0.00    -0.452 OA
ATOM     31  C   UNL     1      14.100  31.803  57.916  1.00  0.00     0.111 A 
ATOM     32  O   UNL     1      12.344  32.873  56.806  1.00  0.00    -0.285 OA
ATOM     33  C   UNL     1      15.372  31.200  57.739  1.00  0.00     0.146 A 
ATOM     34  C   UNL     1      13.487  31.734  59.205  1.00  0.00     0.134 A 
ATOM     35  C   UNL     1      15.978  30.498  58.785  1.00  0.00     0.094 A 
ATOM     36  C   UNL     1      14.105  30.997  60.223  1.00  0.00     0.093 A 
ATOM     37  C   UNL     1      15.342  30.380  60.018  1.00  0.00     0.123 A 
BRANCH  28  38
ATOM     38  C   UNL     1      16.377  32.007  54.314  1.00  0.00     0.025 A 
ATOM     39  C   UNL     1      16.975  33.227  53.948  1.00  0.00     0.062 A 
ATOM     40  C   UNL     1      16.623  30.865  53.537  1.00  0.00     0.016 A 
ATOM     41  C   UNL     1      17.759  33.317  52.793  1.00  0.00     0.158 A 
ATOM     42  C   UNL     1      17.413  30.950  52.387  1.00  0.00     0.051 A 
ATOM     43  C   UNL     1      17.980  32.172  52.007  1.00  0.00     0.157 A 
BRANCH  41  44
ATOM     44  O   UNL     1      18.306  34.551  52.440  1.00  0.00    -0.504 OA
ATOM     45  H   UNL     1      17.730  35.320  52.117  1.00  0.00     0.293 HD
ENDBRANCH  41  44
BRANCH  43  46
ATOM     46  O   UNL     1      18.758  32.256  50.854  1.00  0.00    -0.504 OA
ATOM     47  H   UNL     1      19.507  32.934  50.768  1.00  0.00     0.293 HD
ENDBRANCH  43  46
ENDBRANCH  28  38
BRANCH  34  48
ATOM     48  O   UNL     1      12.296  32.385  59.542  1.00  0.00    -0.507 OA
ATOM     49  H   UNL     1      11.639  32.067  60.238  1.00  0.00     0.293 HD
ENDBRANCH  34  48
BRANCH  37  50
ATOM     50  O   UNL     1      15.950  29.654  61.041  1.00  0.00    -0.508 OA
ATOM     51  H   UNL     1      15.494  29.517  61.935  1.00  0.00     0.293 HD
ENDBRANCH  37  50
ENDBRANCH  26  27
ENDBRANCH   5  26
BRANCH   4  52
ATOM     52  O   UNL     1      10.780  32.805  54.431  1.00  0.00    -0.384 OA
ATOM     53  H   UNL     1      11.283  32.261  55.090  1.00  0.00     0.211 HD
ENDBRANCH   4  52
TORSDOF 16
ENDMDL
MODEL 4
REMARK VINA RESULT:    -5.770      3.135      5.977
REMARK INTER + INTRA:         -12.220
REMARK INTER:                  -9.480
REMARK INTRA:                  -2.740
REMARK UNBOUND:                -2.739
REMARK SMILES C[C@H]1O[C@H](OC[C@@H]2O[C@@H](Oc3c(-c4ccc(O)c(O)c4)oc4cc(O)cc(O)c4c3=O)[C@@H](O)[C@@H](O)[C@@H]2O)[C@@H](O)[C@@H](O)[C@H]1O
REMARK SMILES IDX 7 1 36 2 34 3 32 4 9 5 8 6 6 7 5 8 4 9 1 10 2 11 42 12 3 13
REMARK SMILES IDX 40 14 38 15 43 16 41 18 39 20 37 22 35 24 10 26 11 27 12 28
REMARK SMILES IDX 30 29 21 30 29 31 31 32 22 33 27 34 23 35 26 36 24 37 13 38
REMARK SMILES IDX 20 39 14 40 18 41 15 42 16 43 19 44 17 46 28 48 25 50 33 52
REMARK H PARENT 43 17 41 19 39 21 37 23 35 25 19 45 17 47 28 49 25 51 33 53
REMARK Flexibility Score: inf
ROOT
ATOM      1  C   UNL     1      12.352  32.978  51.356  1.00  0.00     0.180 C 
ATOM      2  C   UNL     1      11.944  33.065  49.865  1.00  0.00     0.177 C 
ATOM      3  C   UNL     1      10.408  32.987  49.715  1.00  0.00     0.180 C 
ATOM      4  C   UNL     1       9.816  31.847  50.576  1.00  0.00     0.214 C 
ATOM      5  C   UNL     1      10.425  31.806  51.991  1.00  0.00     0.339 C 
ATOM      6  O   UNL     1      11.842  31.793  51.945  1.00  0.00    -0.332 OA
ENDROOT
BRANCH   1   7
ATOM      7  C   UNL     1      13.882  32.988  51.528  1.00  0.00     0.198 C 
BRANCH   7   8
ATOM      8  O   UNL     1      14.357  34.303  51.757  1.00  0.00    -0.347 OA
BRANCH   8   9
ATOM      9  C   UNL     1      15.348  34.671  50.809  1.00  0.00     0.281 C 
ATOM     10  C   UNL     1      13.210  36.630  48.534  1.00  0.00     0.041 C 
ATOM     11  C   UNL     1      13.962  36.294  49.823  1.00  0.00     0.150 C 
ATOM     12  C   UNL     1      14.837  37.480  50.280  1.00  0.00     0.174 C 
ATOM     13  O   UNL     1      14.753  35.137  49.603  1.00  0.00    -0.344 OA
ATOM     14  C   UNL     1      15.577  37.094  51.575  1.00  0.00     0.179 C 
ATOM     15  C   UNL     1      16.289  35.731  51.430  1.00  0.00     0.202 C 
BRANCH  12  16
ATOM     16  O   UNL     1      15.748  37.825  49.264  1.00  0.00    -0.388 OA
ATOM     17  H   UNL     1      15.913  38.802  49.342  1.00  0.00     0.211 HD
ENDBRANCH  12  16
BRANCH  14  18
ATOM     18  O   UNL     1      16.493  38.100  51.925  1.00  0.00    -0.387 OA
ATOM     19  H   UNL     1      17.321  37.641  52.223  1.00  0.00     0.211 HD
ENDBRANCH  14  18
BRANCH  15  20
ATOM     20  O   UNL     1      17.489  35.857  50.704  1.00  0.00    -0.385 OA
ATOM     21  H   UNL     1      17.277  35.829  49.735  1.00  0.00     0.211 HD
ENDBRANCH  15  20
ENDBRANCH   8   9
ENDBRANCH   7   8
ENDBRANCH   1   7
BRANCH   2  22
ATOM     22  O   UNL     1      12.536  32.006  49.155  1.00  0.00    -0.387 OA
ATOM     23  H   UNL     1      12.929  31.392  49.828  1.00  0.00     0.211 HD
ENDBRANCH   2  22
BRANCH   3  24
ATOM     24  O   UNL     1       9.790  34.223  49.989  1.00  0.00    -0.387 OA
ATOM     25  H   UNL     1       9.199  34.456  49.230  1.00  0.00     0.211 HD
ENDBRANCH   3  24
BRANCH   5  26
ATOM     26  O   UNL     1       9.954  32.889  52.807  1.00  0.00    -0.454 OA
BRANCH  26  27
ATOM     27  C   UNL     1       9.277  32.712  54.025  1.00  0.00     0.214 A 
ATOM     28  C   UNL     1       9.961  32.514  55.243  1.00  0.00     0.180 A 
ATOM     29  C   UNL     1       7.877  32.729  54.029  1.00  0.00     0.239 A 
ATOM     30  O   UNL     1       9.270  32.232  56.343  1.00  0.00    -0.452 OA
ATOM     31  C   UNL     1       7.170  32.495  55.233  1.00  0.00     0.111 A 
ATOM     32  O   UNL     1       7.277  32.910  52.936  1.00  0.00    -0.285 OA
ATOM     33  C   UNL     1       7.944  32.192  56.383  1.00  0.00     0.146 A 
ATOM     34  C   UNL     1       5.746  32.505  55.354  1.00  0.00     0.134 A 
ATOM     35  C   UNL     1       7.324  31.844  57.587  1.00  0.00     0.094 A 
ATOM     36  C   UNL     1       5.155  32.122  56.565  1.00  0.00     0.093 A 
ATOM     37  C   UNL     1       5.936  31.791  57.676  1.00  0.00     0.123 A 
BRANCH  28  38
ATOM     38  C   UNL     1      11.432  32.615  55.360  1.00  0.00     0.025 A 
ATOM     39  C   UNL     1      12.124  33.763  54.930  1.00  0.00     0.062 A 
ATOM     40  C   UNL     1      12.154  31.556  55.931  1.00  0.00     0.016 A 
ATOM     41  C   UNL     1      13.518  33.828  55.017  1.00  0.00     0.158 A 
ATOM     42  C   UNL     1      13.547  31.622  56.028  1.00  0.00     0.051 A 
ATOM     43  C   UNL     1      14.235  32.751  55.569  1.00  0.00     0.157 A 
BRANCH  41  44
ATOM     44  O   UNL     1      14.174  34.965  54.547  1.00  0.00    -0.504 OA
ATOM     45  H   UNL     1      15.184  35.012  54.479  1.00  0.00     0.293 HD
ENDBRANCH  41  44
BRANCH  43  46
ATOM     46  O   UNL     1      15.625  32.809  55.656  1.00  0.00    -0.504 OA
ATOM     47  H   UNL     1      16.203  32.001  55.452  1.00  0.00     0.293 HD
ENDBRANCH  43  46
ENDBRANCH  28  38
BRANCH  34  48
ATOM     48  O   UNL     1       4.875  32.901  54.335  1.00  0.00    -0.507 OA
ATOM     49  H   UNL     1       4.056  32.391  54.040  1.00  0.00     0.293 HD
ENDBRANCH  34  48
BRANCH  37  50
ATOM     50  O   UNL     1       5.337  31.416  58.877  1.00  0.00    -0.508 OA
ATOM     51  H   UNL     1       5.214  30.442  59.126  1.00  0.00     0.293 HD
ENDBRANCH  37  50
ENDBRANCH  26  27
ENDBRANCH   5  26
BRANCH   4  52
ATOM     52  O   UNL     1       8.417  31.960  50.656  1.00  0.00    -0.384 OA
ATOM     53  H   UNL     1       8.043  31.429  49.907  1.00  0.00     0.211 HD
ENDBRANCH   4  52
TORSDOF 16
ENDMDL
MODEL 5
REMARK VINA RESULT:    -5.724      3.367      6.703
REMARK INTER + INTRA:         -12.144
REMARK INTER:                  -9.288
REMARK INTRA:                  -2.856
REMARK UNBOUND:                -2.739
REMARK SMILES C[C@H]1O[C@H](OC[C@@H]2O[C@@H](Oc3c(-c4ccc(O)c(O)c4)oc4cc(O)cc(O)c4c3=O)[C@@H](O)[C@@H](O)[C@@H]2O)[C@@H](O)[C@@H](O)[C@H]1O
REMARK SMILES IDX 7 1 36 2 34 3 32 4 9 5 8 6 6 7 5 8 4 9 1 10 2 11 42 12 3 13
REMARK SMILES IDX 40 14 38 15 43 16 41 18 39 20 37 22 35 24 10 26 11 27 12 28
REMARK SMILES IDX 30 29 21 30 29 31 31 32 22 33 27 34 23 35 26 36 24 37 13 38
REMARK SMILES IDX 20 39 14 40 18 41 15 42 16 43 19 44 17 46 28 48 25 50 33 52
REMARK H PARENT 43 17 41 19 39 21 37 23 35 25 19 45 17 47 28 49 25 51 33 53
REMARK Flexibility Score: inf
ROOT
ATOM      1  C   UNL     1      11.053  29.746  55.783  1.00  0.00     0.180 C 
ATOM      2  C   UNL     1      10.443  28.327  55.910  1.00  0.00     0.177 C 
ATOM      3  C   UNL     1      11.251  27.476  56.915  1.00  0.00     0.180 C 
ATOM      4  C   UNL     1      12.771  27.604  56.668  1.00  0.00     0.214 C 
ATOM      5  C   UNL     1      13.202  29.063  56.420  1.00  0.00     0.339 C 
ATOM      6  O   UNL     1      12.418  29.669  55.406  1.00  0.00    -0.332 OA
ENDROOT
BRANCH   1   7
ATOM      7  C   UNL     1      10.305  30.593  54.738  1.00  0.00     0.198 C 
BRANCH   7   8
ATOM      8  O   UNL     1       8.950  30.192  54.637  1.00  0.00    -0.347 OA
BRANCH   8   9
ATOM      9  C   UNL     1       8.073  31.308  54.675  1.00  0.00     0.281 C 
ATOM     10  C   UNL     1       4.876  29.475  54.667  1.00  0.00     0.041 C 
ATOM     11  C   UNL     1       6.215  29.971  55.213  1.00  0.00     0.150 C 
ATOM     12  C   UNL     1       6.050  30.572  56.625  1.00  0.00     0.174 C 
ATOM     13  O   UNL     1       6.749  30.930  54.314  1.00  0.00    -0.344 OA
ATOM     14  C   UNL     1       7.422  31.061  57.130  1.00  0.00     0.179 C 
ATOM     15  C   UNL     1       8.120  31.954  56.081  1.00  0.00     0.202 C 
BRANCH  12  16
ATOM     16  O   UNL     1       5.120  31.627  56.593  1.00  0.00    -0.388 OA
ATOM     17  H   UNL     1       5.483  32.316  55.976  1.00  0.00     0.211 HD
ENDBRANCH  12  16
BRANCH  14  18
ATOM     18  O   UNL     1       7.270  31.748  58.347  1.00  0.00    -0.387 OA
ATOM     19  H   UNL     1       7.082  32.695  58.118  1.00  0.00     0.211 HD
ENDBRANCH  14  18
BRANCH  15  20
ATOM     20  O   UNL     1       7.583  33.256  56.079  1.00  0.00    -0.385 OA
ATOM     21  H   UNL     1       6.849  33.296  56.746  1.00  0.00     0.211 HD
ENDBRANCH  15  20
ENDBRANCH   8   9
ENDBRANCH   7   8
ENDBRANCH   1   7
BRANCH   2  22
ATOM     22  O   UNL     1      10.453  27.700  54.652  1.00  0.00    -0.387 OA
ATOM     23  H   UNL     1       9.941  26.855  54.747  1.00  0.00     0.211 HD
ENDBRANCH   2  22
BRANCH   3  24
ATOM     24  O   UNL     1      10.911  27.775  58.249  1.00  0.00    -0.387 OA
ATOM     25  H   UNL     1      10.150  28.407  58.248  1.00  0.00     0.211 HD
ENDBRANCH   3  24
BRANCH   5  26
ATOM     26  O   UNL     1      13.166  29.843  57.624  1.00  0.00    -0.454 OA
BRANCH  26  27
ATOM     27  C   UNL     1      14.279  30.521  58.150  1.00  0.00     0.214 A 
ATOM     28  C   UNL     1      14.687  31.782  57.667  1.00  0.00     0.180 A 
ATOM     29  C   UNL     1      15.007  29.923  59.184  1.00  0.00     0.239 A 
ATOM     30  O   UNL     1      15.815  32.321  58.116  1.00  0.00    -0.452 OA
ATOM     31  C   UNL     1      16.166  30.558  59.693  1.00  0.00     0.111 A 
ATOM     32  O   UNL     1      14.631  28.799  59.611  1.00  0.00    -0.285 OA
ATOM     33  C   UNL     1      16.562  31.767  59.064  1.00  0.00     0.146 A 
ATOM     34  C   UNL     1      16.974  30.047  60.754  1.00  0.00     0.134 A 
ATOM     35  C   UNL     1      17.752  32.404  59.431  1.00  0.00     0.094 A 
ATOM     36  C   UNL     1      18.175  30.691  61.078  1.00  0.00     0.093 A 
ATOM     37  C   UNL     1      18.566  31.861  60.421  1.00  0.00     0.123 A 
BRANCH  28  38
ATOM     38  C   UNL     1      13.904  32.550  56.673  1.00  0.00     0.025 A 
ATOM     39  C   UNL     1      12.583  32.955  56.937  1.00  0.00     0.062 A 
ATOM     40  C   UNL     1      14.496  32.902  55.450  1.00  0.00     0.016 A 
ATOM     41  C   UNL     1      11.846  33.652  55.974  1.00  0.00     0.158 A 
ATOM     42  C   UNL     1      13.765  33.605  54.489  1.00  0.00     0.051 A 
ATOM     43  C   UNL     1      12.440  33.979  54.741  1.00  0.00     0.157 A 
BRANCH  41  44
ATOM     44  O   UNL     1      10.527  34.006  56.255  1.00  0.00    -0.504 OA
ATOM     45  H   UNL     1      10.047  34.737  55.742  1.00  0.00     0.293 HD
ENDBRANCH  41  44
BRANCH  43  46
ATOM     46  O   UNL     1      11.711  34.671  53.777  1.00  0.00    -0.504 OA
ATOM     47  H   UNL     1      12.079  34.829  52.845  1.00  0.00     0.293 HD
ENDBRANCH  43  46
ENDBRANCH  28  38
BRANCH  34  48
ATOM     48  O   UNL     1      16.635  28.935  61.532  1.00  0.00    -0.507 OA
ATOM     49  H   UNL     1      15.707  28.547  61.616  1.00  0.00     0.293 HD
ENDBRANCH  34  48
BRANCH  37  50
ATOM     50  O   UNL     1      19.761  32.496  60.755  1.00  0.00    -0.508 OA
ATOM     51  H   UNL     1      20.481  32.021  61.287  1.00  0.00     0.293 HD
ENDBRANCH  37  50
ENDBRANCH  26  27
ENDBRANCH   5  26
BRANCH   4  52
ATOM     52  O   UNL     1      13.497  27.063  57.743  1.00  0.00    -0.384 OA
ATOM     53  H   UNL     1      13.548  27.768  58.438  1.00  0.00     0.211 HD
ENDBRANCH   4  52
TORSDOF 16
ENDMDL
MODEL 6
REMARK VINA RESULT:    -5.624      1.797      8.612
REMARK INTER + INTRA:         -11.980
REMARK INTER:                  -8.955
REMARK INTRA:                  -3.025
REMARK UNBOUND:                -2.739
REMARK SMILES C[C@H]1O[C@H](OC[C@@H]2O[C@@H](Oc3c(-c4ccc(O)c(O)c4)oc4cc(O)cc(O)c4c3=O)[C@@H](O)[C@@H](O)[C@@H]2O)[C@@H](O)[C@@H](O)[C@H]1O
REMARK SMILES IDX 7 1 36 2 34 3 32 4 9 5 8 6 6 7 5 8 4 9 1 10 2 11 42 12 3 13
REMARK SMILES IDX 40 14 38 15 43 16 41 18 39 20 37 22 35 24 10 26 11 27 12 28
REMARK SMILES IDX 30 29 21 30 29 31 31 32 22 33 27 34 23 35 26 36 24 37 13 38
REMARK SMILES IDX 20 39 14 40 18 41 15 42 16 43 19 44 17 46 28 48 25 50 33 52
REMARK H PARENT 43 17 41 19 39 21 37 23 35 25 19 45 17 47 28 49 25 51 33 53
REMARK Flexibility Score: inf
ROOT
ATOM      1  C   UNL     1      11.882  32.239  56.016  1.00  0.00     0.180 C 
ATOM      2  C   UNL     1      10.492  31.568  55.882  1.00  0.00     0.177 C 
ATOM      3  C   UNL     1       9.945  31.731  54.446  1.00  0.00     0.180 C 
ATOM      4  C   UNL     1      10.115  33.181  53.939  1.00  0.00     0.214 C 
ATOM      5  C   UNL     1      11.505  33.758  54.271  1.00  0.00     0.339 C 
ATOM      6  O   UNL     1      11.813  33.607  55.647  1.00  0.00    -0.332 OA
ENDROOT
BRANCH   1   7
ATOM      7  C   UNL     1      12.420  32.147  57.455  1.00  0.00     0.198 C 
BRANCH   7   8
ATOM      8  O   UNL     1      12.298  30.828  57.958  1.00  0.00    -0.347 OA
BRANCH   8   9
ATOM      9  C   UNL     1      13.517  30.110  57.837  1.00  0.00     0.281 C 
ATOM     10  C   UNL     1      14.564  30.237  61.368  1.00  0.00     0.041 C 
ATOM     11  C   UNL     1      13.714  29.832  60.163  1.00  0.00     0.150 C 
ATOM     12  C   UNL     1      13.521  28.302  60.109  1.00  0.00     0.174 C 
ATOM     13  O   UNL     1      14.340  30.305  58.981  1.00  0.00    -0.344 OA
ATOM     14  C   UNL     1      12.665  27.943  58.879  1.00  0.00     0.179 C 
ATOM     15  C   UNL     1      13.212  28.611  57.599  1.00  0.00     0.202 C 
BRANCH  12  16
ATOM     16  O   UNL     1      14.773  27.661  60.055  1.00  0.00    -0.388 OA
ATOM     17  H   UNL     1      15.465  28.368  60.140  1.00  0.00     0.211 HD
ENDBRANCH  12  16
BRANCH  14  18
ATOM     18  O   UNL     1      12.604  26.548  58.725  1.00  0.00    -0.387 OA
ATOM     19  H   UNL     1      12.930  26.153  59.575  1.00  0.00     0.211 HD
ENDBRANCH  14  18
BRANCH  15  20
ATOM     20  O   UNL     1      14.334  27.921  57.102  1.00  0.00    -0.385 OA
ATOM     21  H   UNL     1      15.155  28.390  57.405  1.00  0.00     0.211 HD
ENDBRANCH  15  20
ENDBRANCH   8   9
ENDBRANCH   7   8
ENDBRANCH   1   7
BRANCH   2  22
ATOM     22  O   UNL     1       9.598  32.159  56.791  1.00  0.00    -0.387 OA
ATOM     23  H   UNL     1       9.044  31.428  57.169  1.00  0.00     0.211 HD
ENDBRANCH   2  22
BRANCH   3  24
ATOM     24  O   UNL     1      10.515  30.797  53.558  1.00  0.00    -0.387 OA
ATOM     25  H   UNL     1      11.417  30.557  53.887  1.00  0.00     0.211 HD
ENDBRANCH   3  24
BRANCH   5  26
ATOM     26  O   UNL     1      12.533  33.178  53.454  1.00  0.00    -0.454 OA
BRANCH  26  27
ATOM     27  C   UNL     1      13.557  33.921  52.842  1.00  0.00     0.214 A 
ATOM     28  C   UNL     1      14.907  33.800  53.232  1.00  0.00     0.180 A 
ATOM     29  C   UNL     1      13.224  34.812  51.816  1.00  0.00     0.239 A 
ATOM     30  O   UNL     1      15.815  34.614  52.704  1.00  0.00    -0.452 OA
ATOM     31  C   UNL     1      14.228  35.615  51.223  1.00  0.00     0.111 A 
ATOM     32  O   UNL     1      12.015  34.908  51.474  1.00  0.00    -0.285 OA
ATOM     33  C   UNL     1      15.537  35.506  51.761  1.00  0.00     0.146 A 
ATOM     34  C   UNL     1      14.004  36.544  50.161  1.00  0.00     0.134 A 
ATOM     35  C   UNL     1      16.564  36.338  51.307  1.00  0.00     0.094 A 
ATOM     36  C   UNL     1      15.046  37.384  49.749  1.00  0.00     0.093 A 
ATOM     37  C   UNL     1      16.319  37.286  50.317  1.00  0.00     0.123 A 
BRANCH  28  38
ATOM     38  C   UNL     1      15.371  32.791  54.209  1.00  0.00     0.025 A 
ATOM     39  C   UNL     1      15.517  33.106  55.573  1.00  0.00     0.062 A 
ATOM     40  C   UNL     1      15.651  31.486  53.775  1.00  0.00     0.016 A 
ATOM     41  C   UNL     1      15.988  32.149  56.478  1.00  0.00     0.158 A 
ATOM     42  C   UNL     1      16.115  30.526  54.678  1.00  0.00     0.051 A 
ATOM     43  C   UNL     1      16.290  30.850  56.029  1.00  0.00     0.157 A 
BRANCH  41  44
ATOM     44  O   UNL     1      16.155  32.506  57.815  1.00  0.00    -0.504 OA
ATOM     45  H   UNL     1      15.748  31.964  58.570  1.00  0.00     0.293 HD
ENDBRANCH  41  44
BRANCH  43  46
ATOM     46  O   UNL     1      16.762  29.893  56.925  1.00  0.00    -0.504 OA
ATOM     47  H   UNL     1      16.157  29.168  57.294  1.00  0.00     0.293 HD
ENDBRANCH  43  46
ENDBRANCH  28  38
BRANCH  34  48
ATOM     48  O   UNL     1      12.796  36.664  49.466  1.00  0.00    -0.507 OA
ATOM     49  H   UNL     1      12.681  37.133  48.580  1.00  0.00     0.293 HD
ENDBRANCH  34  48
BRANCH  37  50
ATOM     50  O   UNL     1      17.350  38.125  49.896  1.00  0.00    -0.508 OA
ATOM     51  H   UNL     1      18.134  38.344  50.500  1.00  0.00     0.293 HD
ENDBRANCH  37  50
ENDBRANCH  26  27
ENDBRANCH   5  26
BRANCH   4  52
ATOM     52  O   UNL     1       9.880  33.255  52.556  1.00  0.00    -0.384 OA
ATOM     53  H   UNL     1       9.807  32.322  52.227  1.00  0.00     0.211 HD
ENDBRANCH   4  52
TORSDOF 16
ENDMDL
MODEL 7
REMARK VINA RESULT:    -5.618      1.419      4.182
REMARK INTER + INTRA:         -11.970
REMARK INTER:                  -9.597
REMARK INTRA:                  -2.373
REMARK UNBOUND:                -2.739
REMARK SMILES C[C@H]1O[C@H](OC[C@@H]2O[C@@H](Oc3c(-c4ccc(O)c(O)c4)oc4cc(O)cc(O)c4c3=O)[C@@H](O)[C@@H](O)[C@@H]2O)[C@@H](O)[C@@H](O)[C@H]1O
REMARK SMILES IDX 7 1 36 2 34 3 32 4 9 5 8 6 6 7 5 8 4 9 1 10 2 11 42 12 3 13
REMARK SMILES IDX 40 14 38 15 43 16 41 18 39 20 37 22 35 24 10 26 11 27 12 28
REMARK SMILES IDX 30 29 21 30 29 31 31 32 22 33 27 34 23 35 26 36 24 37 13 38
REMARK SMILES IDX 20 39 14 40 18 41 15 42 16 43 19 44 17 46 28 48 25 50 33 52
REMARK H PARENT 43 17 41 19 39 21 37 23 35 25 19 45 17 47 28 49 25 51 33 53
REMARK Flexibility Score: inf
ROOT
ATOM      1  C   UNL     1      16.475  32.382  53.772  1.00  0.00     0.180 C 
ATOM      2  C   UNL     1      17.323  31.621  52.722  1.00  0.00     0.177 C 
ATOM      3  C   UNL     1      17.590  30.172  53.186  1.00  0.00     0.180 C 
ATOM      4  C   UNL     1      18.035  30.126  54.665  1.00  0.00     0.214 C 
ATOM      5  C   UNL     1      17.180  31.044  55.562  1.00  0.00     0.339 C 
ATOM      6  O   UNL     1      17.112  32.360  55.039  1.00  0.00    -0.332 OA
ENDROOT
BRANCH   1   7
ATOM      7  C   UNL     1      16.250  33.849  53.364  1.00  0.00     0.198 C 
BRANCH   7   8
ATOM      8  O   UNL     1      15.221  33.953  52.395  1.00  0.00    -0.347 OA
BRANCH   8   9
ATOM      9  C   UNL     1      15.720  34.442  51.158  1.00  0.00     0.281 C 
ATOM     10  C   UNL     1      12.581  35.848  49.835  1.00  0.00     0.041 C 
ATOM     11  C   UNL     1      13.792  35.728  50.761  1.00  0.00     0.150 C 
ATOM     12  C   UNL     1      14.530  37.077  50.888  1.00  0.00     0.174 C 
ATOM     13  O   UNL     1      14.657  34.724  50.254  1.00  0.00    -0.344 OA
ATOM     14  C   UNL     1      15.742  36.905  51.824  1.00  0.00     0.179 C 
ATOM     15  C   UNL     1      16.601  35.689  51.413  1.00  0.00     0.202 C 
BRANCH  12  16
ATOM     16  O   UNL     1      14.935  37.525  49.617  1.00  0.00    -0.388 OA
ATOM     17  H   UNL     1      14.134  37.499  49.031  1.00  0.00     0.211 HD
ENDBRANCH  12  16
BRANCH  14  18
ATOM     18  O   UNL     1      16.514  38.079  51.834  1.00  0.00    -0.387 OA
ATOM     19  H   UNL     1      16.311  38.546  52.686  1.00  0.00     0.211 HD
ENDBRANCH  14  18
BRANCH  15  20
ATOM     20  O   UNL     1      17.416  35.991  50.304  1.00  0.00    -0.385 OA
ATOM     21  H   UNL     1      16.878  35.883  49.477  1.00  0.00     0.211 HD
ENDBRANCH  15  20
ENDBRANCH   8   9
ENDBRANCH   7   8
ENDBRANCH   1   7
BRANCH   2  22
ATOM     22  O   UNL     1      18.548  32.286  52.540  1.00  0.00    -0.387 OA
ATOM     23  H   UNL     1      18.337  33.188  52.182  1.00  0.00     0.211 HD
ENDBRANCH   2  22
BRANCH   3  24
ATOM     24  O   UNL     1      16.484  29.332  52.947  1.00  0.00    -0.387 OA
ATOM     25  H   UNL     1      15.846  29.808  52.360  1.00  0.00     0.211 HD
ENDBRANCH   3  24
BRANCH   5  26
ATOM     26  O   UNL     1      15.864  30.512  55.771  1.00  0.00    -0.454 OA
BRANCH  26  27
ATOM     27  C   UNL     1      15.229  30.465  57.023  1.00  0.00     0.214 A 
ATOM     28  C   UNL     1      14.142  31.304  57.345  1.00  0.00     0.180 A 
ATOM     29  C   UNL     1      15.695  29.560  57.983  1.00  0.00     0.239 A 
ATOM     30  O   UNL     1      13.659  31.303  58.583  1.00  0.00    -0.452 OA
ATOM     31  C   UNL     1      15.111  29.534  59.273  1.00  0.00     0.111 A 
ATOM     32  O   UNL     1      16.664  28.814  57.683  1.00  0.00    -0.285 OA
ATOM     33  C   UNL     1      14.101  30.494  59.539  1.00  0.00     0.146 A 
ATOM     34  C   UNL     1      15.496  28.643  60.321  1.00  0.00     0.134 A 
ATOM     35  C   UNL     1      13.546  30.608  60.817  1.00  0.00     0.094 A 
ATOM     36  C   UNL     1      14.944  28.803  61.599  1.00  0.00     0.093 A 
ATOM     37  C   UNL     1      13.977  29.780  61.850  1.00  0.00     0.123 A 
BRANCH  28  38
ATOM     38  C   UNL     1      13.496  32.194  56.355  1.00  0.00     0.025 A 
ATOM     39  C   UNL     1      12.454  31.735  55.528  1.00  0.00     0.062 A 
ATOM     40  C   UNL     1      13.914  33.529  56.250  1.00  0.00     0.016 A 
ATOM     41  C   UNL     1      11.877  32.580  54.574  1.00  0.00     0.158 A 
ATOM     42  C   UNL     1      13.334  34.379  55.303  1.00  0.00     0.051 A 
ATOM     43  C   UNL     1      12.320  33.910  54.460  1.00  0.00     0.157 A 
BRANCH  41  44
ATOM     44  O   UNL     1      10.872  32.081  53.747  1.00  0.00    -0.504 OA
ATOM     45  H   UNL     1      10.753  31.087  53.587  1.00  0.00     0.293 HD
ENDBRANCH  41  44
BRANCH  43  46
ATOM     46  O   UNL     1      11.751  34.756  53.510  1.00  0.00    -0.504 OA
ATOM     47  H   UNL     1      12.323  35.281  52.857  1.00  0.00     0.293 HD
ENDBRANCH  43  46
ENDBRANCH  28  38
BRANCH  34  48
ATOM     48  O   UNL     1      16.389  27.580  60.158  1.00  0.00    -0.507 OA
ATOM     49  H   UNL     1      17.121  27.538  59.465  1.00  0.00     0.293 HD
ENDBRANCH  34  48
BRANCH  37  50
ATOM     50  O   UNL     1      13.431  29.926  63.124  1.00  0.00    -0.508 OA
ATOM     51  H   UNL     1      13.601  30.756  63.680  1.00  0.00     0.293 HD
ENDBRANCH  37  50
ENDBRANCH  26  27
ENDBRANCH   5  26
BRANCH   4  52
ATOM     52  O   UNL     1      18.002  28.809  55.154  1.00  0.00    -0.384 OA
ATOM     53  H   UNL     1      18.136  28.864  56.135  1.00  0.00     0.211 HD
ENDBRANCH   4  52
TORSDOF 16
ENDMDL
MODEL 8
REMARK VINA RESULT:    -5.582      3.320      6.210
REMARK INTER + INTRA:         -11.911
REMARK INTER:                  -9.208
REMARK INTRA:                  -2.703
REMARK UNBOUND:                -2.739
REMARK SMILES C[C@H]1O[C@H](OC[C@@H]2O[C@@H](Oc3c(-c4ccc(O)c(O)c4)oc4cc(O)cc(O)c4c3=O)[C@@H](O)[C@@H](O)[C@@H]2O)[C@@H](O)[C@@H](O)[C@H]1O
REMARK SMILES IDX 7 1 36 2 34 3 32 4 9 5 8 6 6 7 5 8 4 9 1 10 2 11 42 12 3 13
REMARK SMILES IDX 40 14 38 15 43 16 41 18 39 20 37 22 35 24 10 26 11 27 12 28
REMARK SMILES IDX 30 29 21 30 29 31 31 32 22 33 27 34 23 35 26 36 24 37 13 38
REMARK SMILES IDX 20 39 14 40 18 41 15 42 16 43 19 44 17 46 28 48 25 50 33 52
REMARK H PARENT 43 17 41 19 39 21 37 23 35 25 19 45 17 47 28 49 25 51 33 53
REMARK Flexibility Score: inf
ROOT
ATOM      1  C   UNL     1      12.585  29.242  57.513  1.00  0.00     0.180 C 
ATOM      2  C   UNL     1      11.929  27.915  57.966  1.00  0.00     0.177 C 
ATOM      3  C   UNL     1      12.758  27.253  59.091  1.00  0.00     0.180 C 
ATOM      4  C   UNL     1      14.265  27.250  58.752  1.00  0.00     0.214 C 
ATOM      5  C   UNL     1      14.739  28.602  58.180  1.00  0.00     0.339 C 
ATOM      6  O   UNL     1      13.924  29.020  57.098  1.00  0.00    -0.332 OA
ENDROOT
BRANCH   1   7
ATOM      7  C   UNL     1      11.814  29.888  56.349  1.00  0.00     0.198 C 
BRANCH   7   8
ATOM      8  O   UNL     1      10.471  30.151  56.715  1.00  0.00    -0.347 OA
BRANCH   8   9
ATOM      9  C   UNL     1       9.663  30.412  55.577  1.00  0.00     0.281 C 
ATOM     10  C   UNL     1       6.782  31.930  57.303  1.00  0.00     0.041 C 
ATOM     11  C   UNL     1       8.217  31.818  56.786  1.00  0.00     0.150 C 
ATOM     12  C   UNL     1       8.632  33.090  56.018  1.00  0.00     0.174 C 
ATOM     13  O   UNL     1       8.316  30.672  55.955  1.00  0.00    -0.344 OA
ATOM     14  C   UNL     1      10.079  32.928  55.514  1.00  0.00     0.179 C 
ATOM     15  C   UNL     1      10.268  31.587  54.771  1.00  0.00     0.202 C 
BRANCH  12  16
ATOM     16  O   UNL     1       7.748  33.316  54.947  1.00  0.00    -0.388 OA
ATOM     17  H   UNL     1       7.503  32.426  54.580  1.00  0.00     0.211 HD
ENDBRANCH  12  16
BRANCH  14  18
ATOM     18  O   UNL     1      10.424  34.009  54.685  1.00  0.00    -0.387 OA
ATOM     19  H   UNL     1       9.710  34.690  54.791  1.00  0.00     0.211 HD
ENDBRANCH  14  18
BRANCH  15  20
ATOM     20  O   UNL     1       9.749  31.649  53.464  1.00  0.00    -0.385 OA
ATOM     21  H   UNL     1       9.661  32.603  53.203  1.00  0.00     0.211 HD
ENDBRANCH  15  20
ENDBRANCH   8   9
ENDBRANCH   7   8
ENDBRANCH   1   7
BRANCH   2  22
ATOM     22  O   UNL     1      11.844  27.037  56.871  1.00  0.00    -0.387 OA
ATOM     23  H   UNL     1      11.283  26.270  57.158  1.00  0.00     0.211 HD
ENDBRANCH   2  22
BRANCH   3  24
ATOM     24  O   UNL     1      12.505  27.842  60.345  1.00  0.00    -0.387 OA
ATOM     25  H   UNL     1      12.224  27.134  60.977  1.00  0.00     0.211 HD
ENDBRANCH   3  24
BRANCH   5  26
ATOM     26  O   UNL     1      14.801  29.617  59.192  1.00  0.00    -0.454 OA
BRANCH  26  27
ATOM     27  C   UNL     1      15.972  30.318  59.527  1.00  0.00     0.214 A 
ATOM     28  C   UNL     1      16.416  31.435  58.788  1.00  0.00     0.180 A 
ATOM     29  C   UNL     1      16.724  29.889  60.626  1.00  0.00     0.239 A 
ATOM     30  O   UNL     1      17.592  31.982  59.075  1.00  0.00    -0.452 OA
ATOM     31  C   UNL     1      17.939  30.541  60.949  1.00  0.00     0.111 A 
ATOM     32  O   UNL     1      16.316  28.893  61.280  1.00  0.00    -0.285 OA
ATOM     33  C   UNL     1      18.360  31.580  60.079  1.00  0.00     0.146 A 
ATOM     34  C   UNL     1      18.776  30.197  62.055  1.00  0.00     0.134 A 
ATOM     35  C   UNL     1      19.598  32.204  60.263  1.00  0.00     0.094 A 
ATOM     36  C   UNL     1      20.024  30.820  62.194  1.00  0.00     0.093 A 
ATOM     37  C   UNL     1      20.437  31.816  61.304  1.00  0.00     0.123 A 
BRANCH  28  38
ATOM     38  C   UNL     1      15.620  32.041  57.698  1.00  0.00     0.025 A 
ATOM     39  C   UNL     1      16.132  32.150  56.392  1.00  0.00     0.062 A 
ATOM     40  C   UNL     1      14.319  32.496  57.963  1.00  0.00     0.016 A 
ATOM     41  C   UNL     1      15.378  32.756  55.381  1.00  0.00     0.158 A 
ATOM     42  C   UNL     1      13.561  33.094  56.953  1.00  0.00     0.051 A 
ATOM     43  C   UNL     1      14.085  33.232  55.662  1.00  0.00     0.157 A 
BRANCH  41  44
ATOM     44  O   UNL     1      15.931  32.882  54.107  1.00  0.00    -0.504 OA
ATOM     45  H   UNL     1      16.918  32.727  53.933  1.00  0.00     0.293 HD
ENDBRANCH  41  44
BRANCH  43  46
ATOM     46  O   UNL     1      13.331  33.839  54.660  1.00  0.00    -0.504 OA
ATOM     47  H   UNL     1      12.664  34.574  54.869  1.00  0.00     0.293 HD
ENDBRANCH  43  46
ENDBRANCH  28  38
BRANCH  34  48
ATOM     48  O   UNL     1      18.425  29.279  63.049  1.00  0.00    -0.507 OA
ATOM     49  H   UNL     1      17.490  28.941  63.222  1.00  0.00     0.293 HD
ENDBRANCH  34  48
BRANCH  37  50
ATOM     50  O   UNL     1      21.678  32.431  61.456  1.00  0.00    -0.508 OA
ATOM     51  H   UNL     1      22.325  32.513  60.681  1.00  0.00     0.293 HD
ENDBRANCH  37  50
ENDBRANCH  26  27
ENDBRANCH   5  26
BRANCH   4  52
ATOM     52  O   UNL     1      15.028  26.911  59.882  1.00  0.00    -0.384 OA
ATOM     53  H   UNL     1      14.426  26.418  60.497  1.00  0.00     0.211 HD
ENDBRANCH   4  52
TORSDOF 16
ENDMDL
MODEL 9
REMARK VINA RESULT:    -5.514      3.294      6.327
REMARK INTER + INTRA:         -11.799
REMARK INTER:                  -8.482
REMARK INTRA:                  -3.317
REMARK UNBOUND:                -2.739
REMARK SMILES C[C@H]1O[C@H](OC[C@@H]2O[C@@H](Oc3c(-c4ccc(O)c(O)c4)oc4cc(O)cc(O)c4c3=O)[C@@H](O)[C@@H](O)[C@@H]2O)[C@@H](O)[C@@H](O)[C@H]1O
REMARK SMILES IDX 7 1 36 2 34 3 32 4 9 5 8 6 6 7 5 8 4 9 1 10 2 11 42 12 3 13
REMARK SMILES IDX 40 14 38 15 43 16 41 18 39 20 37 22 35 24 10 26 11 27 12 28
REMARK SMILES IDX 30 29 21 30 29 31 31 32 22 33 27 34 23 35 26 36 24 37 13 38
REMARK SMILES IDX 20 39 14 40 18 41 15 42 16 43 19 44 17 46 28 48 25 50 33 52
REMARK H PARENT 43 17 41 19 39 21 37 23 35 25 19 45 17 47 28 49 25 51 33 53
REMARK Flexibility Score: inf
ROOT
ATOM      1  C   UNL     1      13.141  36.146  48.613  1.00  0.00     0.180 C 
ATOM      2  C   UNL     1      11.803  36.215  47.836  1.00  0.00     0.177 C 
ATOM      3  C   UNL     1      10.646  35.652  48.693  1.00  0.00     0.180 C 
ATOM      4  C   UNL     1      11.040  34.316  49.364  1.00  0.00     0.214 C 
ATOM      5  C   UNL     1      12.457  34.362  49.970  1.00  0.00     0.339 C 
ATOM      6  O   UNL     1      13.410  34.815  49.024  1.00  0.00    -0.332 OA
ENDROOT
BRANCH   1   7
ATOM      7  C   UNL     1      14.320  36.640  47.756  1.00  0.00     0.198 C 
BRANCH   7   8
ATOM      8  O   UNL     1      15.028  35.549  47.192  1.00  0.00    -0.347 OA
BRANCH   8   9
ATOM      9  C   UNL     1      16.196  35.984  46.511  1.00  0.00     0.281 C 
ATOM     10  C   UNL     1      18.070  32.812  46.589  1.00  0.00     0.041 C 
ATOM     11  C   UNL     1      16.960  33.784  46.187  1.00  0.00     0.150 C 
ATOM     12  C   UNL     1      16.794  33.833  44.654  1.00  0.00     0.174 C 
ATOM     13  O   UNL     1      17.269  35.069  46.703  1.00  0.00    -0.344 OA
ATOM     14  C   UNL     1      15.671  34.827  44.298  1.00  0.00     0.179 C 
ATOM     15  C   UNL     1      15.875  36.182  45.010  1.00  0.00     0.202 C 
BRANCH  12  16
ATOM     16  O   UNL     1      18.008  34.208  44.050  1.00  0.00    -0.388 OA
ATOM     17  H   UNL     1      18.244  35.105  44.404  1.00  0.00     0.211 HD
ENDBRANCH  12  16
BRANCH  14  18
ATOM     18  O   UNL     1      15.604  35.001  42.906  1.00  0.00    -0.387 OA
ATOM     19  H   UNL     1      16.032  34.203  42.498  1.00  0.00     0.211 HD
ENDBRANCH  14  18
BRANCH  15  20
ATOM     20  O   UNL     1      16.857  36.957  44.362  1.00  0.00    -0.385 OA
ATOM     21  H   UNL     1      17.752  36.632  44.642  1.00  0.00     0.211 HD
ENDBRANCH  15  20
ENDBRANCH   8   9
ENDBRANCH   7   8
ENDBRANCH   1   7
BRANCH   2  22
ATOM     22  O   UNL     1      11.911  35.468  46.651  1.00  0.00    -0.387 OA
ATOM     23  H   UNL     1      12.877  35.410  46.432  1.00  0.00     0.211 HD
ENDBRANCH   2  22
BRANCH   3  24
ATOM     24  O   UNL     1      10.184  36.593  49.635  1.00  0.00    -0.387 OA
ATOM     25  H   UNL     1       9.207  36.483  49.740  1.00  0.00     0.211 HD
ENDBRANCH   3  24
BRANCH   5  26
ATOM     26  O   UNL     1      12.503  35.162  51.161  1.00  0.00    -0.454 OA
BRANCH  26  27
ATOM     27  C   UNL     1      13.089  34.738  52.365  1.00  0.00     0.214 A 
ATOM     28  C   UNL     1      14.466  34.896  52.627  1.00  0.00     0.180 A 
ATOM     29  C   UNL     1      12.279  34.135  53.335  1.00  0.00     0.239 A 
ATOM     30  O   UNL     1      14.987  34.368  53.729  1.00  0.00    -0.452 OA
ATOM     31  C   UNL     1      12.854  33.647  54.533  1.00  0.00     0.111 A 
ATOM     32  O   UNL     1      11.050  34.003  53.091  1.00  0.00    -0.285 OA
ATOM     33  C   UNL     1      14.264  33.748  54.654  1.00  0.00     0.146 A 
ATOM     34  C   UNL     1      12.122  33.030  55.593  1.00  0.00     0.134 A 
ATOM     35  C   UNL     1      14.925  33.195  55.755  1.00  0.00     0.094 A 
ATOM     36  C   UNL     1      12.815  32.459  56.668  1.00  0.00     0.093 A 
ATOM     37  C   UNL     1      14.208  32.537  56.751  1.00  0.00     0.123 A 
BRANCH  28  38
ATOM     38  C   UNL     1      15.372  35.639  51.724  1.00  0.00     0.025 A 
ATOM     39  C   UNL     1      16.327  34.973  50.935  1.00  0.00     0.062 A 
ATOM     40  C   UNL     1      15.263  37.036  51.632  1.00  0.00     0.016 A 
ATOM     41  C   UNL     1      17.198  35.694  50.111  1.00  0.00     0.158 A 
ATOM     42  C   UNL     1      16.126  37.758  50.804  1.00  0.00     0.051 A 
ATOM     43  C   UNL     1      17.098  37.096  50.045  1.00  0.00     0.157 A 
BRANCH  41  44
ATOM     44  O   UNL     1      18.158  35.004  49.371  1.00  0.00    -0.504 OA
ATOM     45  H   UNL     1      18.593  35.407  48.549  1.00  0.00     0.293 HD
ENDBRANCH  41  44
BRANCH  43  46
ATOM     46  O   UNL     1      17.964  37.820  49.228  1.00  0.00    -0.504 OA
ATOM     47  H   UNL     1      17.619  38.405  48.475  1.00  0.00     0.293 HD
ENDBRANCH  43  46
ENDBRANCH  28  38
BRANCH  34  48
ATOM     48  O   UNL     1      10.726  32.973  55.653  1.00  0.00    -0.507 OA
ATOM     49  H   UNL     1      10.113  32.919  54.853  1.00  0.00     0.293 HD
ENDBRANCH  34  48
BRANCH  37  50
ATOM     50  O   UNL     1      14.887  31.969  57.828  1.00  0.00    -0.508 OA
ATOM     51  H   UNL     1      14.918  30.966  57.965  1.00  0.00     0.293 HD
ENDBRANCH  37  50
ENDBRANCH  26  27
ENDBRANCH   5  26
BRANCH   4  52
ATOM     52  O   UNL     1      10.104  33.960  50.350  1.00  0.00    -0.384 OA
ATOM     53  H   UNL     1       9.432  33.379  49.911  1.00  0.00     0.211 HD
ENDBRANCH   4  52
TORSDOF 16
ENDMDL
