MODEL 1
REMARK VINA RESULT:     1.017      0.000      0.000
REMARK INTER + INTRA:           0.900
REMARK INTER:                   1.196
REMARK INTRA:                  -0.296
REMARK UNBOUND:                -0.296
REMARK SMILES O=c1cc(-c2ccc(O)c(O)c2)oc2cc(O)cc(O)c12
REMARK SMILES IDX 4 1 3 2 2 3 1 4 21 5 19 6 18 7 16 8 15 9 14 10 13 11 5 12
REMARK SMILES IDX 6 13 7 14 8 15 12 16 10 17 9 18 11 20 20 22 17 24
REMARK H PARENT 9 19 11 21 20 23 17 25
REMARK Flexibility Score: inf
ROOT
ATOM      1  C   UNL     1      23.712   9.496 122.104  1.00  0.00     0.138 A 
ATOM      2  C   UNL     1      22.938  10.661 121.976  1.00  0.00     0.100 A 
ATOM      3  C   UNL     1      23.561  11.909 122.033  1.00  0.00     0.197 A 
ATOM      4  O   UNL     1      22.858  12.949 121.918  1.00  0.00    -0.289 OA
ATOM      5  C   UNL     1      24.956  11.983 122.222  1.00  0.00     0.107 A 
ATOM      6  C   UNL     1      25.665  13.205 122.289  1.00  0.00     0.134 A 
ATOM      7  C   UNL     1      27.054  13.193 122.485  1.00  0.00     0.093 A 
ATOM      8  C   UNL     1      27.745  11.982 122.614  1.00  0.00     0.123 A 
ATOM      9  C   UNL     1      27.049  10.774 122.549  1.00  0.00     0.094 A 
ATOM     10  C   UNL     1      25.665  10.764 122.352  1.00  0.00     0.146 A 
ATOM     11  O   UNL     1      25.027   9.600 122.292  1.00  0.00    -0.456 OA
ENDROOT
BRANCH   1  12
ATOM     12  C   UNL     1      23.104   8.143 122.053  1.00  0.00     0.021 A 
ATOM     13  C   UNL     1      23.938   7.011 121.995  1.00  0.00     0.016 A 
ATOM     14  C   UNL     1      23.391   5.728 121.939  1.00  0.00     0.051 A 
ATOM     15  C   UNL     1      22.002   5.552 121.930  1.00  0.00     0.157 A 
ATOM     16  C   UNL     1      21.707   7.958 122.031  1.00  0.00     0.062 A 
ATOM     17  C   UNL     1      21.160   6.669 121.973  1.00  0.00     0.158 A 
BRANCH  15  18
ATOM     18  O   UNL     1      21.453   4.272 121.875  1.00  0.00    -0.504 OA
ATOM     19  H   UNL     1      20.487   4.098 122.131  1.00  0.00     0.293 HD
ENDBRANCH  15  18
BRANCH  17  20
ATOM     20  O   UNL     1      19.777   6.490 121.952  1.00  0.00    -0.504 OA
ATOM     21  H   UNL     1      19.176   6.921 122.646  1.00  0.00     0.293 HD
ENDBRANCH  17  20
ENDBRANCH   1  12
BRANCH   6  22
ATOM     22  O   UNL     1      25.002  14.427 122.164  1.00  0.00    -0.507 OA
ATOM     23  H   UNL     1      24.022  14.478 121.908  1.00  0.00     0.293 HD
ENDBRANCH   6  22
BRANCH   8  24
ATOM     24  O   UNL     1      29.124  11.970 122.809  1.00  0.00    -0.508 OA
ATOM     25  H   UNL     1      29.593  12.704 123.327  1.00  0.00     0.293 HD
ENDBRANCH   8  24
TORSDOF 5
ENDMDL
MODEL 2
REMARK VINA RESULT:     1.788      1.567      2.350
REMARK INTER + INTRA:           1.806
REMARK INTER:                   2.124
REMARK INTRA:                  -0.318
REMARK UNBOUND:                -0.296
REMARK SMILES O=c1cc(-c2ccc(O)c(O)c2)oc2cc(O)cc(O)c12
REMARK SMILES IDX 4 1 3 2 2 3 1 4 21 5 19 6 18 7 16 8 15 9 14 10 13 11 5 12
REMARK SMILES IDX 6 13 7 14 8 15 12 16 10 17 9 18 11 20 20 22 17 24
REMARK H PARENT 9 19 11 21 20 23 17 25
REMARK Flexibility Score: inf
ROOT
ATOM      1  C   UNL     1      23.156   7.980 121.900  1.00  0.00     0.138 A 
ATOM      2  C   UNL     1      22.627   9.280 121.942  1.00  0.00     0.100 A 
ATOM      3  C   UNL     1      23.494  10.374 121.956  1.00  0.00     0.197 A 
ATOM      4  O   UNL     1      23.010  11.538 121.995  1.00  0.00    -0.289 OA
ATOM      5  C   UNL     1      24.887  10.158 121.933  1.00  0.00     0.107 A 
ATOM      6  C   UNL     1      25.833  11.210 121.943  1.00  0.00     0.134 A 
ATOM      7  C   UNL     1      27.203  10.911 121.923  1.00  0.00     0.093 A 
ATOM      8  C   UNL     1      27.643   9.581 121.894  1.00  0.00     0.123 A 
ATOM      9  C   UNL     1      26.712   8.541 121.884  1.00  0.00     0.094 A 
ATOM     10  C   UNL     1      25.342   8.818 121.901  1.00  0.00     0.146 A 
ATOM     11  O   UNL     1      24.476   7.809 121.889  1.00  0.00    -0.456 OA
ENDROOT
BRANCH   1  12
ATOM     12  C   UNL     1      22.282   6.780 121.885  1.00  0.00     0.021 A 
ATOM     13  C   UNL     1      20.885   6.940 121.905  1.00  0.00     0.016 A 
ATOM     14  C   UNL     1      20.041   5.828 121.899  1.00  0.00     0.051 A 
ATOM     15  C   UNL     1      20.578   4.535 121.884  1.00  0.00     0.157 A 
ATOM     16  C   UNL     1      22.814   5.475 121.883  1.00  0.00     0.062 A 
ATOM     17  C   UNL     1      21.966   4.359 121.879  1.00  0.00     0.158 A 
BRANCH  15  18
ATOM     18  O   UNL     1      19.739   3.422 121.877  1.00  0.00    -0.504 OA
ATOM     19  H   UNL     1      18.812   3.453 122.287  1.00  0.00     0.293 HD
ENDBRANCH  15  18
BRANCH  17  20
ATOM     20  O   UNL     1      22.497   3.070 121.875  1.00  0.00    -0.504 OA
ATOM     21  H   UNL     1      22.736   2.591 122.736  1.00  0.00     0.293 HD
ENDBRANCH  17  20
ENDBRANCH   1  12
BRANCH   6  22
ATOM     22  O   UNL     1      25.424  12.544 121.973  1.00  0.00    -0.507 OA
ATOM     23  H   UNL     1      24.940  12.934 122.773  1.00  0.00     0.293 HD
ENDBRANCH   6  22
BRANCH   8  24
ATOM     24  O   UNL     1      29.004   9.284 121.875  1.00  0.00    -0.508 OA
ATOM     25  H   UNL     1      29.568   9.435 121.047  1.00  0.00     0.293 HD
ENDBRANCH   8  24
TORSDOF 5
ENDMDL
MODEL 3
REMARK VINA RESULT:     2.208      1.702      6.982
REMARK INTER + INTRA:           2.300
REMARK INTER:                   2.590
REMARK INTRA:                  -0.290
REMARK UNBOUND:                -0.296
REMARK SMILES O=c1cc(-c2ccc(O)c(O)c2)oc2cc(O)cc(O)c12
REMARK SMILES IDX 4 1 3 2 2 3 1 4 21 5 19 6 18 7 16 8 15 9 14 10 13 11 5 12
REMARK SMILES IDX 6 13 7 14 8 15 12 16 10 17 9 18 11 20 20 22 17 24
REMARK H PARENT 9 19 11 21 20 23 17 25
REMARK Flexibility Score: inf
ROOT
ATOM      1  C   UNL     1      24.969  10.683 122.497  1.00  0.00     0.138 A 
ATOM      2  C   UNL     1      23.578  10.856 122.412  1.00  0.00     0.100 A 
ATOM      3  C   UNL     1      22.756   9.741 122.236  1.00  0.00     0.197 A 
ATOM      4  O   UNL     1      21.509   9.907 122.158  1.00  0.00    -0.289 OA
ATOM      5  C   UNL     1      23.334   8.459 122.143  1.00  0.00     0.107 A 
ATOM      6  C   UNL     1      22.575   7.278 121.967  1.00  0.00     0.134 A 
ATOM      7  C   UNL     1      23.227   6.040 121.879  1.00  0.00     0.093 A 
ATOM      8  C   UNL     1      24.623   5.961 121.963  1.00  0.00     0.123 A 
ATOM      9  C   UNL     1      25.375   7.124 122.137  1.00  0.00     0.094 A 
ATOM     10  C   UNL     1      24.744   8.368 122.229  1.00  0.00     0.146 A 
ATOM     11  O   UNL     1      25.484   9.459 122.396  1.00  0.00    -0.456 OA
ENDROOT
BRANCH   1  12
ATOM     12  C   UNL     1      25.891  11.831 122.682  1.00  0.00     0.021 A 
ATOM     13  C   UNL     1      25.743  12.974 121.875  1.00  0.00     0.016 A 
ATOM     14  C   UNL     1      26.602  14.065 122.024  1.00  0.00     0.051 A 
ATOM     15  C   UNL     1      27.630  14.030 122.973  1.00  0.00     0.157 A 
ATOM     16  C   UNL     1      26.936  11.799 123.627  1.00  0.00     0.062 A 
ATOM     17  C   UNL     1      27.799  12.894 123.773  1.00  0.00     0.158 A 
BRANCH  15  18
ATOM     18  O   UNL     1      28.488  15.117 123.125  1.00  0.00    -0.504 OA
ATOM     19  H   UNL     1      29.493  15.017 123.034  1.00  0.00     0.293 HD
ENDBRANCH  15  18
BRANCH  17  20
ATOM     20  O   UNL     1      28.831  12.859 124.710  1.00  0.00    -0.504 OA
ATOM     21  H   UNL     1      28.946  12.075 125.343  1.00  0.00     0.293 HD
ENDBRANCH  17  20
ENDBRANCH   1  12
BRANCH   6  22
ATOM     22  O   UNL     1      21.183   7.327 121.879  1.00  0.00    -0.507 OA
ATOM     23  H   UNL     1      20.680   8.207 121.868  1.00  0.00     0.293 HD
ENDBRANCH   6  22
BRANCH   8  24
ATOM     24  O   UNL     1      25.270   4.731 121.875  1.00  0.00    -0.508 OA
ATOM     25  H   UNL     1      25.590   4.240 122.702  1.00  0.00     0.293 HD
ENDBRANCH   8  24
TORSDOF 5
ENDMDL
