MODEL 1
REMARK VINA RESULT:    -4.644      0.000      0.000
REMARK INTER + INTRA:          -6.115
REMARK INTER:                  -5.730
REMARK INTRA:                  -0.384
REMARK UNBOUND:                -0.384
REMARK SMILES Oc1cc(O)c2cc(O)c(-c3cc(O)c(O)c(O)c3)[o+]c2c1.[Cl-]
REMARK SMILES IDX 10 1 20 2 21 3 22 4 2 5 3 6 4 7 6 8 7 9 8 10 11 11 12 12
REMARK SMILES IDX 13 13 19 14 15 15 17 16 14 17 16 19 18 21 9 23 1 25 5 27
REMARK H PARENT 14 18 16 20 18 22 9 24 1 26 5 28
REMARK Flexibility Score: inf
ROOT
ATOM      1  C   UNL     1       7.574 -18.464  20.514  1.00  0.00     0.402 A 
ATOM      2  O   UNL     1       6.636 -18.122  19.633  1.00  0.00    -0.202 OA
ATOM      3  C   UNL     1       5.360 -18.473  19.753  1.00  0.00     0.368 A 
ATOM      4  C   UNL     1       4.449 -18.069  18.774  1.00  0.00     0.162 A 
ATOM      5  C   UNL     1       3.104 -18.424  18.871  1.00  0.00     0.128 A 
ATOM      6  C   UNL     1       2.663 -19.191  19.956  1.00  0.00     0.093 A 
ATOM      7  C   UNL     1       3.556 -19.609  20.951  1.00  0.00     0.136 A 
ATOM      8  C   UNL     1       4.925 -19.247  20.856  1.00  0.00     0.125 A 
ATOM      9  C   UNL     1       5.888 -19.609  21.811  1.00  0.00     0.078 A 
ATOM     10  C   UNL     1       7.218 -19.211  21.652  1.00  0.00     0.223 A 
ENDROOT
BRANCH   1  11
ATOM     11  C   UNL     1       8.963 -18.020  20.265  1.00  0.00     0.091 A 
ATOM     12  C   UNL     1       9.860 -18.806  19.525  1.00  0.00     0.068 A 
ATOM     13  C   UNL     1      11.167 -18.368  19.274  1.00  0.00     0.162 A 
ATOM     14  C   UNL     1       9.379 -16.764  20.725  1.00  0.00     0.068 A 
ATOM     15  C   UNL     1      11.587 -17.109  19.767  1.00  0.00     0.200 A 
ATOM     16  C   UNL     1      10.681 -16.311  20.489  1.00  0.00     0.162 A 
BRANCH  13  17
ATOM     17  O   UNL     1      12.000 -19.206  18.531  1.00  0.00    -0.504 OA
ATOM     18  H   UNL     1      12.927 -18.953  18.221  1.00  0.00     0.293 HD
ENDBRANCH  13  17
BRANCH  15  19
ATOM     19  O   UNL     1      12.882 -16.623  19.560  1.00  0.00    -0.502 OA
ATOM     20  H   UNL     1      13.582 -17.092  19.004  1.00  0.00     0.293 HD
ENDBRANCH  15  19
BRANCH  16  21
ATOM     21  O   UNL     1      11.054 -15.060  20.981  1.00  0.00    -0.504 OA
ATOM     22  H   UNL     1      11.668 -14.954  21.779  1.00  0.00     0.293 HD
ENDBRANCH  16  21
ENDBRANCH   1  11
BRANCH  10  23
ATOM     23  O   UNL     1       8.165 -19.528  22.626  1.00  0.00    -0.500 OA
ATOM     24  H   UNL     1       8.830 -20.282  22.498  1.00  0.00     0.294 HD
ENDBRANCH  10  23
BRANCH   5  25
ATOM     25  O   UNL     1       2.211 -18.012  17.885  1.00  0.00    -0.507 OA
ATOM     26  H   UNL     1       1.814 -17.079  17.884  1.00  0.00     0.293 HD
ENDBRANCH   5  25
BRANCH   7  27
ATOM     27  O   UNL     1       3.039 -20.375  22.000  1.00  0.00    -0.507 OA
ATOM     28  H   UNL     1       3.361 -20.326  22.954  1.00  0.00     0.293 HD
ENDBRANCH   7  27
TORSDOF 7
ENDMDL
MODEL 2
REMARK VINA RESULT:    -4.578      2.126      7.611
REMARK INTER + INTRA:          -6.033
REMARK INTER:                  -5.661
REMARK INTRA:                  -0.372
REMARK UNBOUND:                -0.384
REMARK SMILES Oc1cc(O)c2cc(O)c(-c3cc(O)c(O)c(O)c3)[o+]c2c1.[Cl-]
REMARK SMILES IDX 10 1 20 2 21 3 22 4 2 5 3 6 4 7 6 8 7 9 8 10 11 11 12 12
REMARK SMILES IDX 13 13 19 14 15 15 17 16 14 17 16 19 18 21 9 23 1 25 5 27
REMARK H PARENT 14 18 16 20 18 22 9 24 1 26 5 28
REMARK Flexibility Score: inf
ROOT
ATOM      1  C   UNL     1       4.740 -18.252  19.795  1.00  0.00     0.402 A 
ATOM      2  O   UNL     1       5.808 -18.879  19.306  1.00  0.00    -0.202 OA
ATOM      3  C   UNL     1       6.983 -18.285  19.126  1.00  0.00     0.368 A 
ATOM      4  C   UNL     1       8.046 -19.026  18.603  1.00  0.00     0.162 A 
ATOM      5  C   UNL     1       9.290 -18.430  18.401  1.00  0.00     0.128 A 
ATOM      6  C   UNL     1       9.477 -17.080  18.722  1.00  0.00     0.093 A 
ATOM      7  C   UNL     1       8.427 -16.316  19.247  1.00  0.00     0.136 A 
ATOM      8  C   UNL     1       7.161 -16.920  19.457  1.00  0.00     0.125 A 
ATOM      9  C   UNL     1       6.057 -16.236  19.991  1.00  0.00     0.078 A 
ATOM     10  C   UNL     1       4.841 -16.900  20.173  1.00  0.00     0.223 A 
ENDROOT
BRANCH   1  11
ATOM     11  C   UNL     1       3.483 -19.019  19.940  1.00  0.00     0.091 A 
ATOM     12  C   UNL     1       3.139 -19.637  21.152  1.00  0.00     0.068 A 
ATOM     13  C   UNL     1       1.936 -20.341  21.286  1.00  0.00     0.162 A 
ATOM     14  C   UNL     1       2.588 -19.085  18.865  1.00  0.00     0.068 A 
ATOM     15  C   UNL     1       1.049 -20.426  20.186  1.00  0.00     0.200 A 
ATOM     16  C   UNL     1       1.384 -19.787  18.978  1.00  0.00     0.162 A 
BRANCH  13  17
ATOM     17  O   UNL     1       1.664 -20.929  22.524  1.00  0.00    -0.504 OA
ATOM     18  H   UNL     1       0.868 -21.524  22.705  1.00  0.00     0.293 HD
ENDBRANCH  13  17
BRANCH  15  19
ATOM     19  O   UNL     1      -0.159 -21.125  20.255  1.00  0.00    -0.502 OA
ATOM     20  H   UNL     1      -0.801 -21.073  21.033  1.00  0.00     0.293 HD
ENDBRANCH  15  19
BRANCH  16  21
ATOM     21  O   UNL     1       0.531 -19.838  17.875  1.00  0.00    -0.504 OA
ATOM     22  H   UNL     1       0.151 -20.708  17.525  1.00  0.00     0.293 HD
ENDBRANCH  16  21
ENDBRANCH   1  11
BRANCH  10  23
ATOM     23  O   UNL     1       3.759 -16.235  20.751  1.00  0.00    -0.500 OA
ATOM     24  H   UNL     1       3.670 -16.135  21.755  1.00  0.00     0.294 HD
ENDBRANCH  10  23
BRANCH   5  25
ATOM     25  O   UNL     1      10.338 -19.185  17.877  1.00  0.00    -0.507 OA
ATOM     26  H   UNL     1      11.134 -18.748  17.429  1.00  0.00     0.293 HD
ENDBRANCH   5  25
BRANCH   7  27
ATOM     27  O   UNL     1       8.692 -14.974  19.540  1.00  0.00    -0.507 OA
ATOM     28  H   UNL     1       9.210 -14.658  20.346  1.00  0.00     0.293 HD
ENDBRANCH   7  27
TORSDOF 7
ENDMDL
MODEL 3
REMARK VINA RESULT:    -4.556      2.556      4.355
REMARK INTER + INTRA:          -6.006
REMARK INTER:                  -5.775
REMARK INTRA:                  -0.231
REMARK UNBOUND:                -0.384
REMARK SMILES Oc1cc(O)c2cc(O)c(-c3cc(O)c(O)c(O)c3)[o+]c2c1.[Cl-]
REMARK SMILES IDX 10 1 20 2 21 3 22 4 2 5 3 6 4 7 6 8 7 9 8 10 11 11 12 12
REMARK SMILES IDX 13 13 19 14 15 15 17 16 14 17 16 19 18 21 9 23 1 25 5 27
REMARK H PARENT 14 18 16 20 18 22 9 24 1 26 5 28
REMARK Flexibility Score: inf
ROOT
ATOM      1  C   UNL     1       4.386 -19.001  20.026  1.00  0.00     0.402 A 
ATOM      2  O   UNL     1       4.356 -19.380  21.302  1.00  0.00    -0.202 OA
ATOM      3  C   UNL     1       3.271 -19.873  21.890  1.00  0.00     0.368 A 
ATOM      4  C   UNL     1       3.336 -20.241  23.237  1.00  0.00     0.162 A 
ATOM      5  C   UNL     1       2.213 -20.758  23.882  1.00  0.00     0.128 A 
ATOM      6  C   UNL     1       1.013 -20.910  23.178  1.00  0.00     0.093 A 
ATOM      7  C   UNL     1       0.922 -20.548  21.827  1.00  0.00     0.136 A 
ATOM      8  C   UNL     1       2.063 -20.024  21.167  1.00  0.00     0.125 A 
ATOM      9  C   UNL     1       2.068 -19.648  19.814  1.00  0.00     0.078 A 
ATOM     10  C   UNL     1       3.234 -19.142  19.231  1.00  0.00     0.223 A 
ENDROOT
BRANCH   1  11
ATOM     11  C   UNL     1       5.653 -18.457  19.487  1.00  0.00     0.091 A 
ATOM     12  C   UNL     1       6.796 -19.261  19.356  1.00  0.00     0.068 A 
ATOM     13  C   UNL     1       7.984 -18.744  18.823  1.00  0.00     0.162 A 
ATOM     14  C   UNL     1       5.700 -17.129  19.044  1.00  0.00     0.068 A 
ATOM     15  C   UNL     1       8.031 -17.393  18.403  1.00  0.00     0.200 A 
ATOM     16  C   UNL     1       6.878 -16.594  18.513  1.00  0.00     0.162 A 
BRANCH  13  17
ATOM     17  O   UNL     1       9.078 -19.605  18.724  1.00  0.00    -0.504 OA
ATOM     18  H   UNL     1       9.573 -19.797  17.864  1.00  0.00     0.293 HD
ENDBRANCH  13  17
BRANCH  15  19
ATOM     19  O   UNL     1       9.190 -16.817  17.875  1.00  0.00    -0.502 OA
ATOM     20  H   UNL     1       9.206 -15.957  17.346  1.00  0.00     0.293 HD
ENDBRANCH  15  19
BRANCH  16  21
ATOM     21  O   UNL     1       6.881 -15.262  18.100  1.00  0.00    -0.504 OA
ATOM     22  H   UNL     1       7.156 -14.505  18.714  1.00  0.00     0.293 HD
ENDBRANCH  16  21
ENDBRANCH   1  11
BRANCH  10  23
ATOM     23  O   UNL     1       3.253 -18.817  17.875  1.00  0.00    -0.500 OA
ATOM     24  H   UNL     1       2.733 -18.028  17.509  1.00  0.00     0.294 HD
ENDBRANCH  10  23
BRANCH   5  25
ATOM     25  O   UNL     1       2.298 -21.119  25.225  1.00  0.00    -0.507 OA
ATOM     26  H   UNL     1       1.812 -21.931  25.588  1.00  0.00     0.293 HD
ENDBRANCH   5  25
BRANCH   7  27
ATOM     27  O   UNL     1      -0.313 -20.727  21.196  1.00  0.00    -0.507 OA
ATOM     28  H   UNL     1      -0.427 -20.902  20.209  1.00  0.00     0.293 HD
ENDBRANCH   7  27
TORSDOF 7
ENDMDL
MODEL 4
REMARK VINA RESULT:    -4.516      1.409      2.827
REMARK INTER + INTRA:          -5.957
REMARK INTER:                  -5.647
REMARK INTRA:                  -0.310
REMARK UNBOUND:                -0.384
REMARK SMILES Oc1cc(O)c2cc(O)c(-c3cc(O)c(O)c(O)c3)[o+]c2c1.[Cl-]
REMARK SMILES IDX 10 1 20 2 21 3 22 4 2 5 3 6 4 7 6 8 7 9 8 10 11 11 12 12
REMARK SMILES IDX 13 13 19 14 15 15 17 16 14 17 16 19 18 21 9 23 1 25 5 27
REMARK H PARENT 14 18 16 20 18 22 9 24 1 26 5 28
REMARK Flexibility Score: inf
ROOT
ATOM      1  C   UNL     1       6.663 -18.660  20.138  1.00  0.00     0.402 A 
ATOM      2  O   UNL     1       6.285 -19.172  21.308  1.00  0.00    -0.202 OA
ATOM      3  C   UNL     1       5.023 -19.469  21.600  1.00  0.00     0.368 A 
ATOM      4  C   UNL     1       4.724 -19.999  22.857  1.00  0.00     0.162 A 
ATOM      5  C   UNL     1       3.409 -20.319  23.193  1.00  0.00     0.128 A 
ATOM      6  C   UNL     1       2.381 -20.106  22.267  1.00  0.00     0.093 A 
ATOM      7  C   UNL     1       2.655 -19.575  21.000  1.00  0.00     0.136 A 
ATOM      8  C   UNL     1       3.992 -19.252  20.654  1.00  0.00     0.125 A 
ATOM      9  C   UNL     1       4.362 -18.729  19.404  1.00  0.00     0.078 A 
ATOM     10  C   UNL     1       5.703 -18.439  19.134  1.00  0.00     0.223 A 
ENDROOT
BRANCH   1  11
ATOM     11  C   UNL     1       8.098 -18.362  19.935  1.00  0.00     0.091 A 
ATOM     12  C   UNL     1       8.906 -19.173  19.123  1.00  0.00     0.068 A 
ATOM     13  C   UNL     1      10.258 -18.869  18.919  1.00  0.00     0.162 A 
ATOM     14  C   UNL     1       8.653 -17.215  20.517  1.00  0.00     0.068 A 
ATOM     15  C   UNL     1      10.817 -17.723  19.533  1.00  0.00     0.200 A 
ATOM     16  C   UNL     1      10.001 -16.897  20.328  1.00  0.00     0.162 A 
BRANCH  13  17
ATOM     17  O   UNL     1      10.997 -19.723  18.098  1.00  0.00    -0.504 OA
ATOM     18  H   UNL     1      11.781 -20.276  18.415  1.00  0.00     0.293 HD
ENDBRANCH  13  17
BRANCH  15  19
ATOM     19  O   UNL     1      12.162 -17.375  19.377  1.00  0.00    -0.502 OA
ATOM     20  H   UNL     1      12.498 -16.691  18.714  1.00  0.00     0.293 HD
ENDBRANCH  15  19
BRANCH  16  21
ATOM     21  O   UNL     1      10.513 -15.753  20.942  1.00  0.00    -0.504 OA
ATOM     22  H   UNL     1      11.463 -15.704  21.288  1.00  0.00     0.293 HD
ENDBRANCH  16  21
ENDBRANCH   1  11
BRANCH  10  23
ATOM     23  O   UNL     1       6.077 -17.967  17.875  1.00  0.00    -0.500 OA
ATOM     24  H   UNL     1       6.940 -18.258  17.432  1.00  0.00     0.294 HD
ENDBRANCH  10  23
BRANCH   5  25
ATOM     25  O   UNL     1       3.130 -20.847  24.453  1.00  0.00    -0.507 OA
ATOM     26  H   UNL     1       2.183 -20.890  24.812  1.00  0.00     0.293 HD
ENDBRANCH   5  25
BRANCH   7  27
ATOM     27  O   UNL     1       1.574 -19.389  20.133  1.00  0.00    -0.507 OA
ATOM     28  H   UNL     1       1.003 -18.559  20.104  1.00  0.00     0.293 HD
ENDBRANCH   7  27
TORSDOF 7
ENDMDL
MODEL 5
REMARK VINA RESULT:    -4.499      1.393      3.347
REMARK INTER + INTRA:          -5.935
REMARK INTER:                  -5.604
REMARK INTRA:                  -0.331
REMARK UNBOUND:                -0.384
REMARK SMILES Oc1cc(O)c2cc(O)c(-c3cc(O)c(O)c(O)c3)[o+]c2c1.[Cl-]
REMARK SMILES IDX 10 1 20 2 21 3 22 4 2 5 3 6 4 7 6 8 7 9 8 10 11 11 12 12
REMARK SMILES IDX 13 13 19 14 15 15 17 16 14 17 16 19 18 21 9 23 1 25 5 27
REMARK H PARENT 14 18 16 20 18 22 9 24 1 26 5 28
REMARK Flexibility Score: inf
ROOT
ATOM      1  C   UNL     1       6.638 -18.569  20.132  1.00  0.00     0.402 A 
ATOM      2  O   UNL     1       6.272 -19.104  21.295  1.00  0.00    -0.202 OA
ATOM      3  C   UNL     1       5.019 -19.442  21.580  1.00  0.00     0.368 A 
ATOM      4  C   UNL     1       4.732 -19.994  22.830  1.00  0.00     0.162 A 
ATOM      5  C   UNL     1       3.426 -20.357  23.159  1.00  0.00     0.128 A 
ATOM      6  C   UNL     1       2.395 -20.165  22.231  1.00  0.00     0.093 A 
ATOM      7  C   UNL     1       2.657 -19.612  20.971  1.00  0.00     0.136 A 
ATOM      8  C   UNL     1       3.985 -19.246  20.633  1.00  0.00     0.125 A 
ATOM      9  C   UNL     1       4.343 -18.698  19.390  1.00  0.00     0.078 A 
ATOM     10  C   UNL     1       5.674 -18.365  19.127  1.00  0.00     0.223 A 
ENDROOT
BRANCH   1  11
ATOM     11  C   UNL     1       8.064 -18.226  19.937  1.00  0.00     0.091 A 
ATOM     12  C   UNL     1       8.632 -17.090  20.537  1.00  0.00     0.068 A 
ATOM     13  C   UNL     1       9.988 -16.786  20.366  1.00  0.00     0.162 A 
ATOM     14  C   UNL     1       8.883 -19.080  19.188  1.00  0.00     0.068 A 
ATOM     15  C   UNL     1      10.802 -17.640  19.584  1.00  0.00     0.200 A 
ATOM     16  C   UNL     1      10.238 -18.791  19.002  1.00  0.00     0.162 A 
BRANCH  13  17
ATOM     17  O   UNL     1      10.479 -15.639  20.993  1.00  0.00    -0.504 OA
ATOM     18  H   UNL     1      11.006 -15.646  21.855  1.00  0.00     0.293 HD
ENDBRANCH  13  17
BRANCH  15  19
ATOM     19  O   UNL     1      12.159 -17.383  19.366  1.00  0.00    -0.502 OA
ATOM     20  H   UNL     1      12.599 -17.387  18.457  1.00  0.00     0.293 HD
ENDBRANCH  15  19
BRANCH  16  21
ATOM     21  O   UNL     1      11.011 -19.663  18.235  1.00  0.00    -0.504 OA
ATOM     22  H   UNL     1      11.770 -19.340  17.648  1.00  0.00     0.293 HD
ENDBRANCH  16  21
ENDBRANCH   1  11
BRANCH  10  23
ATOM     23  O   UNL     1       6.038 -17.869  17.875  1.00  0.00    -0.500 OA
ATOM     24  H   UNL     1       6.640 -18.391  17.249  1.00  0.00     0.294 HD
ENDBRANCH  10  23
BRANCH   5  25
ATOM     25  O   UNL     1       3.159 -20.906  24.411  1.00  0.00    -0.507 OA
ATOM     26  H   UNL     1       2.789 -20.344  25.169  1.00  0.00     0.293 HD
ENDBRANCH   5  25
BRANCH   7  27
ATOM     27  O   UNL     1       1.573 -19.450  20.102  1.00  0.00    -0.507 OA
ATOM     28  H   UNL     1       0.787 -20.079  20.048  1.00  0.00     0.293 HD
ENDBRANCH   7  27
TORSDOF 7
ENDMDL
MODEL 6
REMARK VINA RESULT:    -4.440      1.427      7.096
REMARK INTER + INTRA:          -5.863
REMARK INTER:                  -5.479
REMARK INTRA:                  -0.383
REMARK UNBOUND:                -0.384
REMARK SMILES Oc1cc(O)c2cc(O)c(-c3cc(O)c(O)c(O)c3)[o+]c2c1.[Cl-]
REMARK SMILES IDX 10 1 20 2 21 3 22 4 2 5 3 6 4 7 6 8 7 9 8 10 11 11 12 12
REMARK SMILES IDX 13 13 19 14 15 15 17 16 14 17 16 19 18 21 9 23 1 25 5 27
REMARK H PARENT 14 18 16 20 18 22 9 24 1 26 5 28
REMARK Flexibility Score: inf
ROOT
ATOM      1  C   UNL     1       7.478 -17.940  19.879  1.00  0.00     0.402 A 
ATOM      2  O   UNL     1       7.701 -16.650  20.120  1.00  0.00    -0.202 OA
ATOM      3  C   UNL     1       8.909 -16.097  20.066  1.00  0.00     0.368 A 
ATOM      4  C   UNL     1       9.044 -14.733  20.338  1.00  0.00     0.162 A 
ATOM      5  C   UNL     1      10.298 -14.125  20.292  1.00  0.00     0.128 A 
ATOM      6  C   UNL     1      11.430 -14.885  19.972  1.00  0.00     0.093 A 
ATOM      7  C   UNL     1      11.321 -16.254  19.695  1.00  0.00     0.136 A 
ATOM      8  C   UNL     1      10.046 -16.875  19.738  1.00  0.00     0.125 A 
ATOM      9  C   UNL     1       9.839 -18.236  19.462  1.00  0.00     0.078 A 
ATOM     10  C   UNL     1       8.551 -18.776  19.521  1.00  0.00     0.223 A 
ENDROOT
BRANCH   1  11
ATOM     11  C   UNL     1       6.089 -18.440  19.980  1.00  0.00     0.091 A 
ATOM     12  C   UNL     1       5.612 -19.043  21.154  1.00  0.00     0.068 A 
ATOM     13  C   UNL     1       4.289 -19.492  21.249  1.00  0.00     0.162 A 
ATOM     14  C   UNL     1       5.210 -18.258  18.904  1.00  0.00     0.068 A 
ATOM     15  C   UNL     1       3.416 -19.330  20.147  1.00  0.00     0.200 A 
ATOM     16  C   UNL     1       3.887 -18.704  18.978  1.00  0.00     0.162 A 
BRANCH  13  17
ATOM     17  O   UNL     1       3.890 -20.082  22.450  1.00  0.00    -0.504 OA
ATOM     18  H   UNL     1       3.845 -21.079  22.604  1.00  0.00     0.293 HD
ENDBRANCH  13  17
BRANCH  15  19
ATOM     19  O   UNL     1       2.089 -19.769  20.177  1.00  0.00    -0.502 OA
ATOM     20  H   UNL     1       1.290 -19.169  20.034  1.00  0.00     0.293 HD
ENDBRANCH  15  19
BRANCH  16  21
ATOM     21  O   UNL     1       3.054 -18.516  17.875  1.00  0.00    -0.504 OA
ATOM     22  H   UNL     1       2.050 -18.638  17.928  1.00  0.00     0.293 HD
ENDBRANCH  16  21
ENDBRANCH   1  11
BRANCH  10  23
ATOM     23  O   UNL     1       8.339 -20.117  19.198  1.00  0.00    -0.500 OA
ATOM     24  H   UNL     1       7.584 -20.652  19.611  1.00  0.00     0.294 HD
ENDBRANCH  10  23
BRANCH   5  25
ATOM     25  O   UNL     1      10.413 -12.764  20.567  1.00  0.00    -0.507 OA
ATOM     26  H   UNL     1      10.572 -12.425  21.509  1.00  0.00     0.293 HD
ENDBRANCH   5  25
BRANCH   7  27
ATOM     27  O   UNL     1      12.497 -16.944  19.387  1.00  0.00    -0.507 OA
ATOM     28  H   UNL     1      12.545 -17.741  18.770  1.00  0.00     0.293 HD
ENDBRANCH   7  27
TORSDOF 7
ENDMDL
MODEL 7
REMARK VINA RESULT:    -4.415      1.690      7.114
REMARK INTER + INTRA:          -5.832
REMARK INTER:                  -5.472
REMARK INTRA:                  -0.360
REMARK UNBOUND:                -0.384
REMARK SMILES Oc1cc(O)c2cc(O)c(-c3cc(O)c(O)c(O)c3)[o+]c2c1.[Cl-]
REMARK SMILES IDX 10 1 20 2 21 3 22 4 2 5 3 6 4 7 6 8 7 9 8 10 11 11 12 12
REMARK SMILES IDX 13 13 19 14 15 15 17 16 14 17 16 19 18 21 9 23 1 25 5 27
REMARK H PARENT 14 18 16 20 18 22 9 24 1 26 5 28
REMARK Flexibility Score: inf
ROOT
ATOM      1  C   UNL     1       7.899 -17.480  19.857  1.00  0.00     0.402 A 
ATOM      2  O   UNL     1       8.066 -16.183  20.104  1.00  0.00    -0.202 OA
ATOM      3  C   UNL     1       9.248 -15.578  20.057  1.00  0.00     0.368 A 
ATOM      4  C   UNL     1       9.324 -14.210  20.335  1.00  0.00     0.162 A 
ATOM      5  C   UNL     1      10.551 -13.549  20.296  1.00  0.00     0.128 A 
ATOM      6  C   UNL     1      11.715 -14.258  19.978  1.00  0.00     0.093 A 
ATOM      7  C   UNL     1      11.666 -15.629  19.695  1.00  0.00     0.136 A 
ATOM      8  C   UNL     1      10.419 -16.304  19.731  1.00  0.00     0.125 A 
ATOM      9  C   UNL     1      10.273 -17.672  19.449  1.00  0.00     0.078 A 
ATOM     10  C   UNL     1       9.009 -18.268  19.501  1.00  0.00     0.223 A 
ENDROOT
BRANCH   1  11
ATOM     11  C   UNL     1       6.533 -18.040  19.951  1.00  0.00     0.091 A 
ATOM     12  C   UNL     1       5.624 -17.934  18.886  1.00  0.00     0.068 A 
ATOM     13  C   UNL     1       4.341 -18.488  18.975  1.00  0.00     0.162 A 
ATOM     14  C   UNL     1       6.153 -18.743  21.101  1.00  0.00     0.068 A 
ATOM     15  C   UNL     1       3.956 -19.172  20.153  1.00  0.00     0.200 A 
ATOM     16  C   UNL     1       4.875 -19.299  21.211  1.00  0.00     0.162 A 
BRANCH  13  17
ATOM     17  O   UNL     1       3.494 -18.340  17.875  1.00  0.00    -0.504 OA
ATOM     18  H   UNL     1       2.827 -19.038  17.576  1.00  0.00     0.293 HD
ENDBRANCH  13  17
BRANCH  15  19
ATOM     19  O   UNL     1       2.685 -19.735  20.306  1.00  0.00    -0.502 OA
ATOM     20  H   UNL     1       2.285 -19.999  21.195  1.00  0.00     0.293 HD
ENDBRANCH  15  19
BRANCH  16  21
ATOM     21  O   UNL     1       4.536 -19.976  22.383  1.00  0.00    -0.504 OA
ATOM     22  H   UNL     1       3.575 -20.143  22.653  1.00  0.00     0.293 HD
ENDBRANCH  16  21
ENDBRANCH   1  11
BRANCH  10  23
ATOM     23  O   UNL     1       8.857 -19.615  19.172  1.00  0.00    -0.500 OA
ATOM     24  H   UNL     1       8.951 -19.945  18.218  1.00  0.00     0.294 HD
ENDBRANCH  10  23
BRANCH   5  25
ATOM     25  O   UNL     1      10.606 -12.185  20.577  1.00  0.00    -0.507 OA
ATOM     26  H   UNL     1       9.764 -11.637  20.711  1.00  0.00     0.293 HD
ENDBRANCH   5  25
BRANCH   7  27
ATOM     27  O   UNL     1      12.873 -16.266  19.389  1.00  0.00    -0.507 OA
ATOM     28  H   UNL     1      13.216 -16.418  18.453  1.00  0.00     0.293 HD
ENDBRANCH   7  27
TORSDOF 7
ENDMDL
MODEL 8
REMARK VINA RESULT:    -4.408      2.515      3.811
REMARK INTER + INTRA:          -5.824
REMARK INTER:                  -5.529
REMARK INTRA:                  -0.295
REMARK UNBOUND:                -0.384
REMARK SMILES Oc1cc(O)c2cc(O)c(-c3cc(O)c(O)c(O)c3)[o+]c2c1.[Cl-]
REMARK SMILES IDX 10 1 20 2 21 3 22 4 2 5 3 6 4 7 6 8 7 9 8 10 11 11 12 12
REMARK SMILES IDX 13 13 19 14 15 15 17 16 14 17 16 19 18 21 9 23 1 25 5 27
REMARK H PARENT 14 18 16 20 18 22 9 24 1 26 5 28
REMARK Flexibility Score: inf
ROOT
ATOM      1  C   UNL     1       4.518 -19.003  20.342  1.00  0.00     0.402 A 
ATOM      2  O   UNL     1       3.446 -19.249  19.592  1.00  0.00    -0.202 OA
ATOM      3  C   UNL     1       2.317 -19.756  20.078  1.00  0.00     0.368 A 
ATOM      4  C   UNL     1       1.246 -19.982  19.210  1.00  0.00     0.162 A 
ATOM      5  C   UNL     1       0.049 -20.515  19.690  1.00  0.00     0.128 A 
ATOM      6  C   UNL     1      -0.079 -20.826  21.049  1.00  0.00     0.093 A 
ATOM      7  C   UNL     1       0.981 -20.609  21.939  1.00  0.00     0.136 A 
ATOM      8  C   UNL     1       2.198 -20.064  21.454  1.00  0.00     0.125 A 
ATOM      9  C   UNL     1       3.307 -19.801  22.274  1.00  0.00     0.078 A 
ATOM     10  C   UNL     1       4.472 -19.259  21.725  1.00  0.00     0.223 A 
ENDROOT
BRANCH   1  11
ATOM     11  C   UNL     1       5.721 -18.447  19.682  1.00  0.00     0.091 A 
ATOM     12  C   UNL     1       5.766 -17.114  19.248  1.00  0.00     0.068 A 
ATOM     13  C   UNL     1       6.917 -16.590  18.646  1.00  0.00     0.162 A 
ATOM     14  C   UNL     1       6.861 -19.248  19.539  1.00  0.00     0.068 A 
ATOM     15  C   UNL     1       8.055 -17.414  18.480  1.00  0.00     0.200 A 
ATOM     16  C   UNL     1       8.018 -18.744  18.937  1.00  0.00     0.162 A 
BRANCH  13  17
ATOM     17  O   UNL     1       6.884 -15.254  18.239  1.00  0.00    -0.504 OA
ATOM     18  H   UNL     1       6.112 -14.627  18.415  1.00  0.00     0.293 HD
ENDBRANCH  13  17
BRANCH  15  19
ATOM     19  O   UNL     1       9.228 -16.952  17.875  1.00  0.00    -0.502 OA
ATOM     20  H   UNL     1       9.986 -17.549  17.577  1.00  0.00     0.293 HD
ENDBRANCH  15  19
BRANCH  16  21
ATOM     21  O   UNL     1       9.124 -19.584  18.802  1.00  0.00    -0.504 OA
ATOM     22  H   UNL     1       9.177 -20.296  18.084  1.00  0.00     0.293 HD
ENDBRANCH  16  21
ENDBRANCH   1  11
BRANCH  10  23
ATOM     23  O   UNL     1       5.556 -18.949  22.547  1.00  0.00    -0.500 OA
ATOM     24  H   UNL     1       6.507 -18.943  22.196  1.00  0.00     0.294 HD
ENDBRANCH  10  23
BRANCH   5  25
ATOM     25  O   UNL     1      -1.008 -20.734  18.810  1.00  0.00    -0.507 OA
ATOM     26  H   UNL     1      -0.853 -20.872  17.818  1.00  0.00     0.293 HD
ENDBRANCH   5  25
BRANCH   7  27
ATOM     27  O   UNL     1       0.775 -20.949  23.280  1.00  0.00    -0.507 OA
ATOM     28  H   UNL     1       1.399 -21.525  23.823  1.00  0.00     0.293 HD
ENDBRANCH   7  27
TORSDOF 7
ENDMDL
MODEL 9
REMARK VINA RESULT:    -4.070      2.598      4.726
REMARK INTER + INTRA:          -5.406
REMARK INTER:                  -5.123
REMARK INTRA:                  -0.283
REMARK UNBOUND:                -0.384
REMARK SMILES Oc1cc(O)c2cc(O)c(-c3cc(O)c(O)c(O)c3)[o+]c2c1.[Cl-]
REMARK SMILES IDX 10 1 20 2 21 3 22 4 2 5 3 6 4 7 6 8 7 9 8 10 11 11 12 12
REMARK SMILES IDX 13 13 19 14 15 15 17 16 14 17 16 19 18 21 9 23 1 25 5 27
REMARK H PARENT 14 18 16 20 18 22 9 24 1 26 5 28
REMARK Flexibility Score: inf
ROOT
ATOM      1  C   UNL     1       4.237 -19.070  20.014  1.00  0.00     0.402 A 
ATOM      2  O   UNL     1       4.224 -19.432  21.295  1.00  0.00    -0.202 OA
ATOM      3  C   UNL     1       3.147 -19.919  21.904  1.00  0.00     0.368 A 
ATOM      4  C   UNL     1       3.229 -20.268  23.254  1.00  0.00     0.162 A 
ATOM      5  C   UNL     1       2.116 -20.779  23.920  1.00  0.00     0.128 A 
ATOM      6  C   UNL     1       0.907 -20.943  23.233  1.00  0.00     0.093 A 
ATOM      7  C   UNL     1       0.799 -20.600  21.879  1.00  0.00     0.136 A 
ATOM      8  C   UNL     1       1.931 -20.083  21.198  1.00  0.00     0.125 A 
ATOM      9  C   UNL     1       1.918 -19.726  19.840  1.00  0.00     0.078 A 
ATOM     10  C   UNL     1       3.076 -19.226  19.236  1.00  0.00     0.223 A 
ENDROOT
BRANCH   1  11
ATOM     11  C   UNL     1       5.496 -18.532  19.453  1.00  0.00     0.091 A 
ATOM     12  C   UNL     1       5.600 -17.194  19.041  1.00  0.00     0.068 A 
ATOM     13  C   UNL     1       6.803 -16.687  18.533  1.00  0.00     0.162 A 
ATOM     14  C   UNL     1       6.627 -19.355  19.382  1.00  0.00     0.068 A 
ATOM     15  C   UNL     1       7.933 -17.533  18.439  1.00  0.00     0.200 A 
ATOM     16  C   UNL     1       7.835 -18.868  18.873  1.00  0.00     0.162 A 
BRANCH  13  17
ATOM     17  O   UNL     1       6.827 -15.346  18.144  1.00  0.00    -0.504 OA
ATOM     18  H   UNL     1       7.672 -14.803  18.036  1.00  0.00     0.293 HD
ENDBRANCH  13  17
BRANCH  15  19
ATOM     19  O   UNL     1       9.156 -17.089  17.928  1.00  0.00    -0.502 OA
ATOM     20  H   UNL     1      10.049 -17.257  18.369  1.00  0.00     0.293 HD
ENDBRANCH  15  19
BRANCH  16  21
ATOM     21  O   UNL     1       8.931 -19.730  18.807  1.00  0.00    -0.504 OA
ATOM     22  H   UNL     1       9.400 -20.072  19.636  1.00  0.00     0.293 HD
ENDBRANCH  16  21
ENDBRANCH   1  11
BRANCH  10  23
ATOM     23  O   UNL     1       3.078 -18.919  17.875  1.00  0.00    -0.500 OA
ATOM     24  H   UNL     1       2.253 -19.042  17.299  1.00  0.00     0.294 HD
ENDBRANCH  10  23
BRANCH   5  25
ATOM     25  O   UNL     1       2.217 -21.121  25.267  1.00  0.00    -0.507 OA
ATOM     26  H   UNL     1       1.548 -20.788  25.951  1.00  0.00     0.293 HD
ENDBRANCH   5  25
BRANCH   7  27
ATOM     27  O   UNL     1      -0.443 -20.791  21.265  1.00  0.00    -0.507 OA
ATOM     28  H   UNL     1      -0.977 -20.059  20.820  1.00  0.00     0.293 HD
ENDBRANCH   7  27
TORSDOF 7
ENDMDL
