MODEL 1
REMARK VINA RESULT:    14.508      0.000      0.000
REMARK INTER + INTRA:          18.776
REMARK INTER:                  19.173
REMARK INTRA:                  -0.397
REMARK UNBOUND:                -0.397
REMARK SMILES CC[C@@H](C=C[C@@H](C)[C@@H]1CC[C@@H]2[C@H]3CC=C4C[C@H](O)CC[C@@]4(C)[C@H]3CC[C@@]21C)C(C)C
REMARK SMILES IDX 6 1 7 2 5 3 4 4 3 5 2 6 1 7 28 8 29 9 30 10 8 11 9 12 26 13
REMARK SMILES IDX 10 14 11 15 25 16 27 17 12 18 24 19 23 20 13 21 21 22 14 23
REMARK SMILES IDX 15 24 20 25 22 26 16 27 19 28 17 29 18 30
REMARK H PARENT 18 31
REMARK Flexibility Score: inf
ROOT
ATOM      1  C   UNL     1      25.091  36.281  19.388  1.00  0.00     0.012 C 
ATOM      2  C   UNL     1      23.572  36.029  19.497  1.00  0.00     0.012 C 
ENDROOT
BRANCH   1   3
ATOM      3  C   UNL     1      25.772  35.854  20.681  1.00  0.00    -0.028 C 
ATOM      4  C   UNL     1      27.095  35.588  20.736  1.00  0.00    -0.027 C 
BRANCH   4   5
ATOM      5  C   UNL     1      27.839  35.419  22.048  1.00  0.00     0.014 C 
BRANCH   5   6
ATOM      6  C   UNL     1      29.001  34.396  21.876  1.00  0.00     0.004 C 
ATOM      7  C   UNL     1      29.125  33.785  20.472  1.00  0.00     0.004 C 
ENDBRANCH   5   6
BRANCH   5   8
ATOM      8  C   UNL     1      26.927  35.094  23.280  1.00  0.00    -0.011 C 
ATOM      9  C   UNL     1      26.316  36.327  23.972  1.00  0.00     0.008 C 
ATOM     10  C   UNL     1      27.653  34.237  24.329  1.00  0.00     0.008 C 
ENDBRANCH   5   8
ENDBRANCH   4   5
ENDBRANCH   1   3
BRANCH   1  11
ATOM     11  C   UNL     1      25.550  37.715  18.923  1.00  0.00     0.002 C 
ATOM     12  C   UNL     1      26.913  37.813  18.236  1.00  0.00     0.005 C 
ATOM     13  C   UNL     1      25.529  38.925  19.914  1.00  0.00    -0.026 C 
ATOM     14  C   UNL     1      27.234  39.309  18.182  1.00  0.00     0.005 C 
ATOM     15  C   UNL     1      26.164  40.034  19.031  1.00  0.00    -0.001 C 
ATOM     16  C   UNL     1      26.404  38.703  21.185  1.00  0.00     0.007 C 
ATOM     17  C   UNL     1      24.075  39.250  20.320  1.00  0.00     0.012 C 
ATOM     18  C   UNL     1      26.721  41.299  19.761  1.00  0.00     0.000 C 
ATOM     19  C   UNL     1      26.790  39.988  21.910  1.00  0.00     0.005 C 
ATOM     20  C   UNL     1      27.588  40.956  20.997  1.00  0.00     0.003 C 
ATOM     21  C   UNL     1      25.613  42.357  20.070  1.00  0.00     0.031 C 
ATOM     22  C   UNL     1      28.049  42.281  21.721  1.00  0.00    -0.008 C 
ATOM     23  C   UNL     1      25.699  43.044  21.422  1.00  0.00    -0.027 C 
ATOM     24  C   UNL     1      26.789  42.993  22.222  1.00  0.00    -0.065 C 
ATOM     25  C   UNL     1      29.071  41.961  22.856  1.00  0.00     0.014 C 
ATOM     26  C   UNL     1      28.770  43.240  20.733  1.00  0.00     0.016 C 
ATOM     27  C   UNL     1      26.761  43.749  23.536  1.00  0.00     0.063 C 
ATOM     28  C   UNL     1      29.125  43.014  23.957  1.00  0.00     0.033 C 
ATOM     29  C   UNL     1      27.737  43.192  24.577  1.00  0.00     0.118 C 
BRANCH  29  30
ATOM     30  O   UNL     1      27.825  44.078  25.669  1.00  0.00    -0.393 OA
ATOM     31  H   UNL     1      28.258  44.898  25.334  1.00  0.00     0.210 HD
ENDBRANCH  29  30
ENDBRANCH   1  11
TORSDOF 6
ENDMDL
