MODEL 1
REMARK VINA RESULT:    -4.413      0.000      0.000
REMARK INTER + INTRA:         -13.683
REMARK INTER:                 -11.120
REMARK INTRA:                  -2.562
REMARK UNBOUND:                -2.562
REMARK SMILES CCCCCCCCCCCCCCCCCCCCCCCCCCCC(=O)[O-]
REMARK SMILES IDX 15 1 16 2 17 3 18 4 19 5 20 6 21 7 22 8 23 9 24 10 25 11
REMARK SMILES IDX 26 12 27 13 28 14 29 15 30 16 14 17 13 18 12 19 11 20 10 21
REMARK SMILES IDX 9 22 8 23 7 24 6 25 5 26 4 27 3 28 2 29 1 30
REMARK H PARENT
REMARK Flexibility Score: inf
ROOT
ATOM      1  C   UNL     1       2.386  54.589  22.808  1.00  0.00     0.000 C 
ENDROOT
BRANCH   1   2
ATOM      2  C   UNL     1       1.597  53.265  22.877  1.00  0.00     0.000 C 
BRANCH   2   3
ATOM      3  C   UNL     1       2.368  52.032  22.374  1.00  0.00     0.000 C 
BRANCH   3   4
ATOM      4  C   UNL     1       1.562  50.730  22.522  1.00  0.00     0.000 C 
BRANCH   4   5
ATOM      5  C   UNL     1       2.446  49.525  22.881  1.00  0.00     0.000 C 
BRANCH   5   6
ATOM      6  C   UNL     1       1.698  48.185  22.762  1.00  0.00     0.000 C 
BRANCH   6   7
ATOM      7  C   UNL     1       1.394  47.564  24.143  1.00  0.00     0.000 C 
BRANCH   7   8
ATOM      8  C   UNL     1       2.607  46.875  24.793  1.00  0.00     0.000 C 
BRANCH   8   9
ATOM      9  C   UNL     1       3.131  47.619  26.030  1.00  0.00     0.000 C 
BRANCH   9  10
ATOM     10  C   UNL     1       4.657  47.520  26.130  1.00  0.00     0.000 C 
BRANCH  10  11
ATOM     11  C   UNL     1       5.304  47.596  24.742  1.00  0.00     0.000 C 
BRANCH  11  12
ATOM     12  C   UNL     1       5.924  48.977  24.494  1.00  0.00     0.006 C 
BRANCH  12  13
ATOM     13  C   UNL     1       7.451  48.920  24.593  1.00  0.00     0.053 C 
BRANCH  13  14
ATOM     14  C   UNL     1       7.920  49.494  25.892  1.00  0.00     0.041 C 
ATOM     15  O   UNL     1       8.372  50.669  25.939  1.00  0.00    -0.550 OA
ATOM     16  O   UNL     1       7.842  48.740  27.057  1.00  0.00    -0.550 OA
ENDBRANCH  13  14
ENDBRANCH  12  13
ENDBRANCH  11  12
ENDBRANCH  10  11
ENDBRANCH   9  10
ENDBRANCH   8   9
ENDBRANCH   7   8
ENDBRANCH   6   7
ENDBRANCH   5   6
ENDBRANCH   4   5
ENDBRANCH   3   4
ENDBRANCH   2   3
ENDBRANCH   1   2
BRANCH   1  17
ATOM     17  C   UNL     1       2.292  55.336  21.463  1.00  0.00     0.000 C 
BRANCH  17  18
ATOM     18  C   UNL     1       1.932  56.833  21.569  1.00  0.00     0.000 C 
BRANCH  18  19
ATOM     19  C   UNL     1       3.132  57.798  21.484  1.00  0.00     0.000 C 
BRANCH  19  20
ATOM     20  C   UNL     1       3.032  59.032  22.402  1.00  0.00     0.000 C 
BRANCH  20  21
ATOM     21  C   UNL     1       3.495  60.341  21.728  1.00  0.00     0.000 C 
BRANCH  21  22
ATOM     22  C   UNL     1       3.016  61.592  22.487  1.00  0.00    -0.000 C 
BRANCH  22  23
ATOM     23  C   UNL     1       2.184  61.244  23.732  1.00  0.00    -0.000 C 
BRANCH  23  24
ATOM     24  C   UNL     1       0.701  61.628  23.583  1.00  0.00    -0.000 C 
BRANCH  24  25
ATOM     25  C   UNL     1      -0.244  60.468  23.934  1.00  0.00    -0.000 C 
BRANCH  25  26
ATOM     26  C   UNL     1       0.010  59.912  25.347  1.00  0.00    -0.000 C 
BRANCH  26  27
ATOM     27  C   UNL     1      -0.208  58.394  25.437  1.00  0.00    -0.000 C 
BRANCH  27  28
ATOM     28  C   UNL     1       0.894  57.598  24.722  1.00  0.00    -0.000 C 
BRANCH  28  29
ATOM     29  C   UNL     1       1.971  57.143  25.713  1.00  0.00    -0.003 C 
ATOM     30  C   UNL     1       3.362  57.219  25.089  1.00  0.00     0.004 C 
ENDBRANCH  28  29
ENDBRANCH  27  28
ENDBRANCH  26  27
ENDBRANCH  25  26
ENDBRANCH  24  25
ENDBRANCH  23  24
ENDBRANCH  22  23
ENDBRANCH  21  22
ENDBRANCH  20  21
ENDBRANCH  19  20
ENDBRANCH  18  19
ENDBRANCH  17  18
ENDBRANCH   1  17
TORSDOF 26
ENDMDL
MODEL 2
REMARK VINA RESULT:    -4.395      5.352     12.948
REMARK INTER + INTRA:         -13.638
REMARK INTER:                 -11.347
REMARK INTRA:                  -2.292
REMARK UNBOUND:                -2.562
REMARK SMILES CCCCCCCCCCCCCCCCCCCCCCCCCCCC(=O)[O-]
REMARK SMILES IDX 15 1 16 2 17 3 18 4 19 5 20 6 21 7 22 8 23 9 24 10 25 11
REMARK SMILES IDX 26 12 27 13 28 14 29 15 30 16 14 17 13 18 12 19 11 20 10 21
REMARK SMILES IDX 9 22 8 23 7 24 6 25 5 26 4 27 3 28 2 29 1 30
REMARK H PARENT
REMARK Flexibility Score: inf
ROOT
ATOM      1  C   UNL     1       3.382  54.607  23.789  1.00  0.00     0.000 C 
ENDROOT
BRANCH   1   2
ATOM      2  C   UNL     1       2.974  55.200  25.153  1.00  0.00     0.000 C 
BRANCH   2   3
ATOM      3  C   UNL     1       2.530  56.673  25.105  1.00  0.00     0.000 C 
BRANCH   3   4
ATOM      4  C   UNL     1       3.529  57.568  24.351  1.00  0.00     0.000 C 
BRANCH   4   5
ATOM      5  C   UNL     1       2.878  58.323  23.181  1.00  0.00     0.000 C 
BRANCH   5   6
ATOM      6  C   UNL     1       1.597  59.069  23.596  1.00  0.00     0.000 C 
BRANCH   6   7
ATOM      7  C   UNL     1       1.682  60.582  23.293  1.00  0.00     0.000 C 
BRANCH   7   8
ATOM      8  C   UNL     1       0.591  61.414  23.987  1.00  0.00     0.000 C 
BRANCH   8   9
ATOM      9  C   UNL     1      -0.826  61.073  23.503  1.00  0.00     0.000 C 
BRANCH   9  10
ATOM     10  C   UNL     1      -1.509  62.297  22.883  1.00  0.00     0.000 C 
BRANCH  10  11
ATOM     11  C   UNL     1      -0.776  63.588  23.268  1.00  0.00     0.000 C 
BRANCH  11  12
ATOM     12  C   UNL     1      -1.690  64.811  23.115  1.00  0.00     0.006 C 
BRANCH  12  13
ATOM     13  C   UNL     1      -0.875  66.107  23.104  1.00  0.00     0.053 C 
BRANCH  13  14
ATOM     14  C   UNL     1      -0.687  66.603  21.705  1.00  0.00     0.041 C 
ATOM     15  O   UNL     1      -1.669  66.661  20.917  1.00  0.00    -0.550 OA
ATOM     16  O   UNL     1       0.567  67.018  21.274  1.00  0.00    -0.550 OA
ENDBRANCH  13  14
ENDBRANCH  12  13
ENDBRANCH  11  12
ENDBRANCH  10  11
ENDBRANCH   9  10
ENDBRANCH   8   9
ENDBRANCH   7   8
ENDBRANCH   6   7
ENDBRANCH   5   6
ENDBRANCH   4   5
ENDBRANCH   3   4
ENDBRANCH   2   3
ENDBRANCH   1   2
BRANCH   1  17
ATOM     17  C   UNL     1       2.208  54.219  22.868  1.00  0.00     0.000 C 
BRANCH  17  18
ATOM     18  C   UNL     1       2.370  52.873  22.131  1.00  0.00     0.000 C 
BRANCH  18  19
ATOM     19  C   UNL     1       1.678  51.673  22.807  1.00  0.00     0.000 C 
BRANCH  19  20
ATOM     20  C   UNL     1       2.357  50.312  22.557  1.00  0.00     0.000 C 
BRANCH  20  21
ATOM     21  C   UNL     1       1.564  49.114  23.120  1.00  0.00     0.000 C 
BRANCH  21  22
ATOM     22  C   UNL     1       1.541  47.919  22.150  1.00  0.00    -0.000 C 
BRANCH  22  23
ATOM     23  C   UNL     1       2.770  47.009  22.306  1.00  0.00    -0.000 C 
BRANCH  23  24
ATOM     24  C   UNL     1       3.782  47.172  21.157  1.00  0.00    -0.000 C 
BRANCH  24  25
ATOM     25  C   UNL     1       5.091  47.832  21.618  1.00  0.00    -0.000 C 
BRANCH  25  26
ATOM     26  C   UNL     1       5.814  47.009  22.699  1.00  0.00    -0.000 C 
BRANCH  26  27
ATOM     27  C   UNL     1       6.266  47.864  23.893  1.00  0.00    -0.000 C 
BRANCH  27  28
ATOM     28  C   UNL     1       5.113  48.669  24.510  1.00  0.00    -0.000 C 
BRANCH  28  29
ATOM     29  C   UNL     1       4.735  48.117  25.889  1.00  0.00    -0.003 C 
ATOM     30  C   UNL     1       3.268  47.699  25.933  1.00  0.00     0.004 C 
ENDBRANCH  28  29
ENDBRANCH  27  28
ENDBRANCH  26  27
ENDBRANCH  25  26
ENDBRANCH  24  25
ENDBRANCH  23  24
ENDBRANCH  22  23
ENDBRANCH  21  22
ENDBRANCH  20  21
ENDBRANCH  19  20
ENDBRANCH  18  19
ENDBRANCH  17  18
ENDBRANCH   1  17
TORSDOF 26
ENDMDL
MODEL 3
REMARK VINA RESULT:    -4.375      5.669     13.265
REMARK INTER + INTRA:         -13.588
REMARK INTER:                 -11.748
REMARK INTRA:                  -1.840
REMARK UNBOUND:                -2.562
REMARK SMILES CCCCCCCCCCCCCCCCCCCCCCCCCCCC(=O)[O-]
REMARK SMILES IDX 15 1 16 2 17 3 18 4 19 5 20 6 21 7 22 8 23 9 24 10 25 11
REMARK SMILES IDX 26 12 27 13 28 14 29 15 30 16 14 17 13 18 12 19 11 20 10 21
REMARK SMILES IDX 9 22 8 23 7 24 6 25 5 26 4 27 3 28 2 29 1 30
REMARK H PARENT
REMARK Flexibility Score: inf
ROOT
ATOM      1  C   UNL     1       2.366  55.863  23.512  1.00  0.00     0.000 C 
ENDROOT
BRANCH   1   2
ATOM      2  C   UNL     1       3.019  57.182  23.972  1.00  0.00     0.000 C 
BRANCH   2   3
ATOM      3  C   UNL     1       2.471  58.444  23.283  1.00  0.00     0.000 C 
BRANCH   3   4
ATOM      4  C   UNL     1       0.954  58.610  23.473  1.00  0.00     0.000 C 
BRANCH   4   5
ATOM      5  C   UNL     1       0.566  58.861  24.939  1.00  0.00     0.000 C 
BRANCH   5   6
ATOM      6  C   UNL     1      -0.261  60.147  25.122  1.00  0.00     0.000 C 
BRANCH   6   7
ATOM      7  C   UNL     1      -0.019  61.160  23.981  1.00  0.00     0.000 C 
BRANCH   7   8
ATOM      8  C   UNL     1      -1.243  61.377  23.075  1.00  0.00     0.000 C 
BRANCH   8   9
ATOM      9  C   UNL     1      -1.654  62.851  22.961  1.00  0.00     0.000 C 
BRANCH   9  10
ATOM     10  C   UNL     1      -0.621  63.767  23.627  1.00  0.00     0.000 C 
BRANCH  10  11
ATOM     11  C   UNL     1      -1.082  65.230  23.592  1.00  0.00     0.000 C 
BRANCH  11  12
ATOM     12  C   UNL     1      -1.722  65.577  22.242  1.00  0.00     0.006 C 
BRANCH  12  13
ATOM     13  C   UNL     1      -2.929  66.501  22.429  1.00  0.00     0.053 C 
BRANCH  13  14
ATOM     14  C   UNL     1      -4.204  65.719  22.403  1.00  0.00     0.041 C 
ATOM     15  O   UNL     1      -4.429  64.846  23.283  1.00  0.00    -0.550 OA
ATOM     16  O   UNL     1      -5.154  65.965  21.420  1.00  0.00    -0.550 OA
ENDBRANCH  13  14
ENDBRANCH  12  13
ENDBRANCH  11  12
ENDBRANCH  10  11
ENDBRANCH   9  10
ENDBRANCH   8   9
ENDBRANCH   7   8
ENDBRANCH   6   7
ENDBRANCH   5   6
ENDBRANCH   4   5
ENDBRANCH   3   4
ENDBRANCH   2   3
ENDBRANCH   1   2
BRANCH   1  17
ATOM     17  C   UNL     1       2.318  55.656  21.986  1.00  0.00     0.000 C 
BRANCH  17  18
ATOM     18  C   UNL     1       2.450  54.191  21.519  1.00  0.00     0.000 C 
BRANCH  18  19
ATOM     19  C   UNL     1       1.868  53.144  22.488  1.00  0.00     0.000 C 
BRANCH  19  20
ATOM     20  C   UNL     1       2.607  51.791  22.495  1.00  0.00     0.000 C 
BRANCH  20  21
ATOM     21  C   UNL     1       1.701  50.595  22.861  1.00  0.00     0.000 C 
BRANCH  21  22
ATOM     22  C   UNL     1       2.463  49.258  22.845  1.00  0.00    -0.000 C 
BRANCH  22  23
ATOM     23  C   UNL     1       1.527  48.044  22.965  1.00  0.00    -0.000 C 
BRANCH  23  24
ATOM     24  C   UNL     1       1.749  47.247  24.263  1.00  0.00    -0.000 C 
BRANCH  24  25
ATOM     25  C   UNL     1       3.235  46.943  24.517  1.00  0.00    -0.000 C 
BRANCH  25  26
ATOM     26  C   UNL     1       3.698  47.407  25.909  1.00  0.00    -0.000 C 
BRANCH  26  27
ATOM     27  C   UNL     1       5.188  47.784  25.944  1.00  0.00    -0.000 C 
BRANCH  27  28
ATOM     28  C   UNL     1       5.532  48.911  24.960  1.00  0.00    -0.000 C 
BRANCH  28  29
ATOM     29  C   UNL     1       6.774  48.557  24.134  1.00  0.00    -0.003 C 
ATOM     30  C   UNL     1       6.388  48.050  22.747  1.00  0.00     0.004 C 
ENDBRANCH  28  29
ENDBRANCH  27  28
ENDBRANCH  26  27
ENDBRANCH  25  26
ENDBRANCH  24  25
ENDBRANCH  23  24
ENDBRANCH  22  23
ENDBRANCH  21  22
ENDBRANCH  20  21
ENDBRANCH  19  20
ENDBRANCH  18  19
ENDBRANCH  17  18
ENDBRANCH   1  17
TORSDOF 26
ENDMDL
MODEL 4
REMARK VINA RESULT:    -4.373      0.828      2.693
REMARK INTER + INTRA:         -13.582
REMARK INTER:                 -10.522
REMARK INTRA:                  -3.059
REMARK UNBOUND:                -2.562
REMARK SMILES CCCCCCCCCCCCCCCCCCCCCCCCCCCC(=O)[O-]
REMARK SMILES IDX 15 1 16 2 17 3 18 4 19 5 20 6 21 7 22 8 23 9 24 10 25 11
REMARK SMILES IDX 26 12 27 13 28 14 29 15 30 16 14 17 13 18 12 19 11 20 10 21
REMARK SMILES IDX 9 22 8 23 7 24 6 25 5 26 4 27 3 28 2 29 1 30
REMARK H PARENT
REMARK Flexibility Score: inf
ROOT
ATOM      1  C   UNL     1       2.053  54.126  23.342  1.00  0.00     0.000 C 
ENDROOT
BRANCH   1   2
ATOM      2  C   UNL     1       1.836  53.066  22.243  1.00  0.00     0.000 C 
BRANCH   2   3
ATOM      3  C   UNL     1       2.689  51.796  22.399  1.00  0.00     0.000 C 
BRANCH   3   4
ATOM      4  C   UNL     1       1.869  50.588  22.883  1.00  0.00     0.000 C 
BRANCH   4   5
ATOM      5  C   UNL     1       2.519  49.245  22.513  1.00  0.00     0.000 C 
BRANCH   5   6
ATOM      6  C   UNL     1       1.525  48.070  22.567  1.00  0.00     0.000 C 
BRANCH   6   7
ATOM      7  C   UNL     1       2.063  46.893  23.409  1.00  0.00     0.000 C 
BRANCH   7   8
ATOM      8  C   UNL     1       2.045  47.156  24.925  1.00  0.00     0.000 C 
BRANCH   8   9
ATOM      9  C   UNL     1       3.431  47.035  25.573  1.00  0.00     0.000 C 
BRANCH   9  10
ATOM     10  C   UNL     1       3.915  48.390  26.101  1.00  0.00     0.000 C 
BRANCH  10  11
ATOM     11  C   UNL     1       4.876  49.054  25.106  1.00  0.00     0.000 C 
BRANCH  11  12
ATOM     12  C   UNL     1       5.973  48.079  24.659  1.00  0.00     0.006 C 
BRANCH  12  13
ATOM     13  C   UNL     1       7.322  48.791  24.534  1.00  0.00     0.053 C 
BRANCH  13  14
ATOM     14  C   UNL     1       7.709  49.426  25.832  1.00  0.00     0.041 C 
ATOM     15  O   UNL     1       8.129  50.614  25.856  1.00  0.00    -0.550 OA
ATOM     16  O   UNL     1       7.591  48.715  27.020  1.00  0.00    -0.550 OA
ENDBRANCH  13  14
ENDBRANCH  12  13
ENDBRANCH  11  12
ENDBRANCH  10  11
ENDBRANCH   9  10
ENDBRANCH   8   9
ENDBRANCH   7   8
ENDBRANCH   6   7
ENDBRANCH   5   6
ENDBRANCH   4   5
ENDBRANCH   3   4
ENDBRANCH   2   3
ENDBRANCH   1   2
BRANCH   1  17
ATOM     17  C   UNL     1       3.488  54.208  23.897  1.00  0.00     0.000 C 
BRANCH  17  18
ATOM     18  C   UNL     1       3.766  55.410  24.823  1.00  0.00     0.000 C 
BRANCH  18  19
ATOM     19  C   UNL     1       2.565  55.867  25.674  1.00  0.00     0.000 C 
BRANCH  19  20
ATOM     20  C   UNL     1       2.117  57.321  25.430  1.00  0.00     0.000 C 
BRANCH  20  21
ATOM     21  C   UNL     1       0.733  57.436  24.757  1.00  0.00     0.000 C 
BRANCH  21  22
ATOM     22  C   UNL     1      -0.182  58.448  25.470  1.00  0.00    -0.000 C 
BRANCH  22  23
ATOM     23  C   UNL     1       0.442  59.851  25.552  1.00  0.00    -0.000 C 
BRANCH  23  24
ATOM     24  C   UNL     1      -0.173  60.836  24.543  1.00  0.00    -0.000 C 
BRANCH  24  25
ATOM     25  C   UNL     1       0.613  60.891  23.223  1.00  0.00    -0.000 C 
BRANCH  25  26
ATOM     26  C   UNL     1       2.100  60.544  23.411  1.00  0.00    -0.000 C 
BRANCH  26  27
ATOM     27  C   UNL     1       2.940  60.828  22.156  1.00  0.00    -0.000 C 
BRANCH  27  28
ATOM     28  C   UNL     1       3.688  59.584  21.655  1.00  0.00    -0.000 C 
BRANCH  28  29
ATOM     29  C   UNL     1       3.283  58.341  22.457  1.00  0.00    -0.003 C 
ATOM     30  C   UNL     1       2.420  57.402  21.620  1.00  0.00     0.004 C 
ENDBRANCH  28  29
ENDBRANCH  27  28
ENDBRANCH  26  27
ENDBRANCH  25  26
ENDBRANCH  24  25
ENDBRANCH  23  24
ENDBRANCH  22  23
ENDBRANCH  21  22
ENDBRANCH  20  21
ENDBRANCH  19  20
ENDBRANCH  18  19
ENDBRANCH  17  18
ENDBRANCH   1  17
TORSDOF 26
ENDMDL
MODEL 5
REMARK VINA RESULT:    -4.325      5.733     13.487
REMARK INTER + INTRA:         -13.461
REMARK INTER:                 -11.766
REMARK INTRA:                  -1.695
REMARK UNBOUND:                -2.562
REMARK SMILES CCCCCCCCCCCCCCCCCCCCCCCCCCCC(=O)[O-]
REMARK SMILES IDX 15 1 16 2 17 3 18 4 19 5 20 6 21 7 22 8 23 9 24 10 25 11
REMARK SMILES IDX 26 12 27 13 28 14 29 15 30 16 14 17 13 18 12 19 11 20 10 21
REMARK SMILES IDX 9 22 8 23 7 24 6 25 5 26 4 27 3 28 2 29 1 30
REMARK H PARENT
REMARK Flexibility Score: inf
ROOT
ATOM      1  C   UNL     1       2.249  55.878  23.243  1.00  0.00     0.000 C 
ENDROOT
BRANCH   1   2
ATOM      2  C   UNL     1       2.648  56.810  24.405  1.00  0.00     0.000 C 
BRANCH   2   3
ATOM      3  C   UNL     1       3.428  58.067  23.981  1.00  0.00     0.000 C 
BRANCH   3   4
ATOM      4  C   UNL     1       2.694  58.884  22.904  1.00  0.00     0.000 C 
BRANCH   4   5
ATOM      5  C   UNL     1       2.049  60.160  23.468  1.00  0.00     0.000 C 
BRANCH   5   6
ATOM      6  C   UNL     1       0.573  59.957  23.854  1.00  0.00     0.000 C 
BRANCH   6   7
ATOM      7  C   UNL     1      -0.341  61.047  23.252  1.00  0.00     0.000 C 
BRANCH   7   8
ATOM      8  C   UNL     1      -0.285  62.387  24.006  1.00  0.00     0.000 C 
BRANCH   8   9
ATOM      9  C   UNL     1      -1.010  63.522  23.270  1.00  0.00     0.000 C 
BRANCH   9  10
ATOM     10  C   UNL     1      -0.654  64.887  23.869  1.00  0.00     0.000 C 
BRANCH  10  11
ATOM     11  C   UNL     1      -0.846  66.006  22.838  1.00  0.00     0.000 C 
BRANCH  11  12
ATOM     12  C   UNL     1      -1.937  65.643  21.823  1.00  0.00     0.006 C 
BRANCH  12  13
ATOM     13  C   UNL     1      -3.179  66.518  22.016  1.00  0.00     0.053 C 
BRANCH  13  14
ATOM     14  C   UNL     1      -4.412  65.675  22.101  1.00  0.00     0.041 C 
ATOM     15  O   UNL     1      -5.512  66.118  21.675  1.00  0.00    -0.550 OA
ATOM     16  O   UNL     1      -4.347  64.394  22.634  1.00  0.00    -0.550 OA
ENDBRANCH  13  14
ENDBRANCH  12  13
ENDBRANCH  11  12
ENDBRANCH  10  11
ENDBRANCH   9  10
ENDBRANCH   8   9
ENDBRANCH   7   8
ENDBRANCH   6   7
ENDBRANCH   5   6
ENDBRANCH   4   5
ENDBRANCH   3   4
ENDBRANCH   2   3
ENDBRANCH   1   2
BRANCH   1  17
ATOM     17  C   UNL     1       2.705  54.414  23.394  1.00  0.00     0.000 C 
BRANCH  17  18
ATOM     18  C   UNL     1       2.381  53.499  22.194  1.00  0.00     0.000 C 
BRANCH  18  19
ATOM     19  C   UNL     1       1.735  52.149  22.560  1.00  0.00     0.000 C 
BRANCH  19  20
ATOM     20  C   UNL     1       2.711  50.957  22.600  1.00  0.00     0.000 C 
BRANCH  20  21
ATOM     21  C   UNL     1       2.033  49.616  22.953  1.00  0.00     0.000 C 
BRANCH  21  22
ATOM     22  C   UNL     1       2.908  48.403  22.585  1.00  0.00    -0.000 C 
BRANCH  22  23
ATOM     23  C   UNL     1       2.602  47.171  23.451  1.00  0.00    -0.000 C 
BRANCH  23  24
ATOM     24  C   UNL     1       2.033  47.541  24.832  1.00  0.00    -0.000 C 
BRANCH  24  25
ATOM     25  C   UNL     1       3.134  47.911  25.840  1.00  0.00    -0.000 C 
BRANCH  25  26
ATOM     26  C   UNL     1       4.372  47.005  25.714  1.00  0.00    -0.000 C 
BRANCH  26  27
ATOM     27  C   UNL     1       5.692  47.781  25.851  1.00  0.00    -0.000 C 
BRANCH  27  28
ATOM     28  C   UNL     1       5.831  48.895  24.803  1.00  0.00    -0.000 C 
BRANCH  28  29
ATOM     29  C   UNL     1       6.916  49.898  25.210  1.00  0.00    -0.003 C 
ATOM     30  C   UNL     1       8.148  49.185  25.759  1.00  0.00     0.004 C 
ENDBRANCH  28  29
ENDBRANCH  27  28
ENDBRANCH  26  27
ENDBRANCH  25  26
ENDBRANCH  24  25
ENDBRANCH  23  24
ENDBRANCH  22  23
ENDBRANCH  21  22
ENDBRANCH  20  21
ENDBRANCH  19  20
ENDBRANCH  18  19
ENDBRANCH  17  18
ENDBRANCH   1  17
TORSDOF 26
ENDMDL
MODEL 6
REMARK VINA RESULT:    -4.261      2.651      4.657
REMARK INTER + INTRA:         -13.301
REMARK INTER:                 -11.317
REMARK INTRA:                  -1.984
REMARK UNBOUND:                -2.562
REMARK SMILES CCCCCCCCCCCCCCCCCCCCCCCCCCCC(=O)[O-]
REMARK SMILES IDX 15 1 16 2 17 3 18 4 19 5 20 6 21 7 22 8 23 9 24 10 25 11
REMARK SMILES IDX 26 12 27 13 28 14 29 15 30 16 14 17 13 18 12 19 11 20 10 21
REMARK SMILES IDX 9 22 8 23 7 24 6 25 5 26 4 27 3 28 2 29 1 30
REMARK H PARENT
REMARK Flexibility Score: inf
ROOT
ATOM      1  C   UNL     1       2.724  56.359  24.829  1.00  0.00     0.000 C 
ENDROOT
BRANCH   1   2
ATOM      2  C   UNL     1       3.359  54.960  24.966  1.00  0.00     0.000 C 
BRANCH   2   3
ATOM      3  C   UNL     1       3.372  54.131  23.670  1.00  0.00     0.000 C 
BRANCH   3   4
ATOM      4  C   UNL     1       2.051  54.235  22.888  1.00  0.00     0.000 C 
BRANCH   4   5
ATOM      5  C   UNL     1       1.559  52.872  22.375  1.00  0.00     0.000 C 
BRANCH   5   6
ATOM      6  C   UNL     1       2.457  51.708  22.833  1.00  0.00     0.000 C 
BRANCH   6   7
ATOM      7  C   UNL     1       1.733  50.347  22.742  1.00  0.00     0.000 C 
BRANCH   7   8
ATOM      8  C   UNL     1       2.673  49.135  22.868  1.00  0.00     0.000 C 
BRANCH   8   9
ATOM      9  C   UNL     1       2.180  48.093  23.880  1.00  0.00     0.000 C 
BRANCH   9  10
ATOM     10  C   UNL     1       3.356  47.375  24.553  1.00  0.00     0.000 C 
BRANCH  10  11
ATOM     11  C   UNL     1       4.695  47.945  24.070  1.00  0.00     0.000 C 
BRANCH  11  12
ATOM     12  C   UNL     1       5.657  48.169  25.243  1.00  0.00     0.006 C 
BRANCH  12  13
ATOM     13  C   UNL     1       6.907  48.931  24.791  1.00  0.00     0.053 C 
BRANCH  13  14
ATOM     14  C   UNL     1       7.681  49.426  25.971  1.00  0.00     0.041 C 
ATOM     15  O   UNL     1       8.333  50.502  25.894  1.00  0.00    -0.550 OA
ATOM     16  O   UNL     1       7.671  48.712  27.163  1.00  0.00    -0.550 OA
ENDBRANCH  13  14
ENDBRANCH  12  13
ENDBRANCH  11  12
ENDBRANCH  10  11
ENDBRANCH   9  10
ENDBRANCH   8   9
ENDBRANCH   7   8
ENDBRANCH   6   7
ENDBRANCH   5   6
ENDBRANCH   4   5
ENDBRANCH   3   4
ENDBRANCH   2   3
ENDBRANCH   1   2
BRANCH   1  17
ATOM     17  C   UNL     1       3.519  57.355  23.962  1.00  0.00     0.000 C 
BRANCH  17  18
ATOM     18  C   UNL     1       2.720  58.010  22.817  1.00  0.00     0.000 C 
BRANCH  18  19
ATOM     19  C   UNL     1       1.201  57.750  22.851  1.00  0.00     0.000 C 
BRANCH  19  20
ATOM     20  C   UNL     1       0.381  58.823  23.594  1.00  0.00     0.000 C 
BRANCH  20  21
ATOM     21  C   UNL     1       1.129  60.162  23.766  1.00  0.00     0.000 C 
BRANCH  21  22
ATOM     22  C   UNL     1       0.179  61.325  24.106  1.00  0.00    -0.000 C 
BRANCH  22  23
ATOM     23  C   UNL     1      -1.032  61.393  23.162  1.00  0.00    -0.000 C 
BRANCH  23  24
ATOM     24  C   UNL     1      -1.617  62.812  23.046  1.00  0.00    -0.000 C 
BRANCH  24  25
ATOM     25  C   UNL     1      -0.557  63.903  23.266  1.00  0.00    -0.000 C 
BRANCH  25  26
ATOM     26  C   UNL     1      -1.182  65.286  23.519  1.00  0.00    -0.000 C 
BRANCH  26  27
ATOM     27  C   UNL     1      -1.199  66.170  22.261  1.00  0.00    -0.000 C 
BRANCH  27  28
ATOM     28  C   UNL     1      -2.553  66.862  22.048  1.00  0.00    -0.000 C 
BRANCH  28  29
ATOM     29  C   UNL     1      -3.581  65.888  21.461  1.00  0.00    -0.003 C 
ATOM     30  C   UNL     1      -4.679  65.570  22.472  1.00  0.00     0.004 C 
ENDBRANCH  28  29
ENDBRANCH  27  28
ENDBRANCH  26  27
ENDBRANCH  25  26
ENDBRANCH  24  25
ENDBRANCH  23  24
ENDBRANCH  22  23
ENDBRANCH  21  22
ENDBRANCH  20  21
ENDBRANCH  19  20
ENDBRANCH  18  19
ENDBRANCH  17  18
ENDBRANCH   1  17
TORSDOF 26
ENDMDL
MODEL 7
REMARK VINA RESULT:    -4.231      2.134      3.813
REMARK INTER + INTRA:         -13.224
REMARK INTER:                 -11.537
REMARK INTRA:                  -1.687
REMARK UNBOUND:                -2.562
REMARK SMILES CCCCCCCCCCCCCCCCCCCCCCCCCCCC(=O)[O-]
REMARK SMILES IDX 15 1 16 2 17 3 18 4 19 5 20 6 21 7 22 8 23 9 24 10 25 11
REMARK SMILES IDX 26 12 27 13 28 14 29 15 30 16 14 17 13 18 12 19 11 20 10 21
REMARK SMILES IDX 9 22 8 23 7 24 6 25 5 26 4 27 3 28 2 29 1 30
REMARK H PARENT
REMARK Flexibility Score: inf
ROOT
ATOM      1  C   UNL     1       2.339  54.485  22.830  1.00  0.00     0.000 C 
ENDROOT
BRANCH   1   2
ATOM      2  C   UNL     1       1.486  53.232  22.545  1.00  0.00     0.000 C 
BRANCH   2   3
ATOM      3  C   UNL     1       2.295  51.962  22.232  1.00  0.00     0.000 C 
BRANCH   3   4
ATOM      4  C   UNL     1       1.673  50.697  22.849  1.00  0.00     0.000 C 
BRANCH   4   5
ATOM      5  C   UNL     1       2.630  49.495  22.823  1.00  0.00     0.000 C 
BRANCH   5   6
ATOM      6  C   UNL     1       1.911  48.173  22.497  1.00  0.00     0.000 C 
BRANCH   6   7
ATOM      7  C   UNL     1       2.258  47.058  23.509  1.00  0.00     0.000 C 
BRANCH   7   8
ATOM      8  C   UNL     1       2.327  47.546  24.967  1.00  0.00     0.000 C 
BRANCH   8   9
ATOM      9  C   UNL     1       3.679  47.258  25.633  1.00  0.00     0.000 C 
BRANCH   9  10
ATOM     10  C   UNL     1       4.733  48.289  25.215  1.00  0.00     0.000 C 
BRANCH  10  11
ATOM     11  C   UNL     1       5.688  47.704  24.166  1.00  0.00     0.000 C 
BRANCH  11  12
ATOM     12  C   UNL     1       6.848  48.664  23.876  1.00  0.00     0.006 C 
BRANCH  12  13
ATOM     13  C   UNL     1       7.036  49.661  25.023  1.00  0.00     0.053 C 
BRANCH  13  14
ATOM     14  C   UNL     1       8.055  49.162  25.998  1.00  0.00     0.041 C 
ATOM     15  O   UNL     1       9.277  49.165  25.693  1.00  0.00    -0.550 OA
ATOM     16  O   UNL     1       7.660  48.712  27.251  1.00  0.00    -0.550 OA
ENDBRANCH  13  14
ENDBRANCH  12  13
ENDBRANCH  11  12
ENDBRANCH  10  11
ENDBRANCH   9  10
ENDBRANCH   8   9
ENDBRANCH   7   8
ENDBRANCH   6   7
ENDBRANCH   5   6
ENDBRANCH   4   5
ENDBRANCH   3   4
ENDBRANCH   2   3
ENDBRANCH   1   2
BRANCH   1  17
ATOM     17  C   UNL     1       2.469  55.469  21.651  1.00  0.00     0.000 C 
BRANCH  17  18
ATOM     18  C   UNL     1       1.786  56.836  21.860  1.00  0.00     0.000 C 
BRANCH  18  19
ATOM     19  C   UNL     1       0.899  56.936  23.116  1.00  0.00     0.000 C 
BRANCH  19  20
ATOM     20  C   UNL     1       1.365  57.977  24.153  1.00  0.00     0.000 C 
BRANCH  20  21
ATOM     21  C   UNL     1       2.357  59.014  23.583  1.00  0.00     0.000 C 
BRANCH  21  22
ATOM     22  C   UNL     1       1.714  60.400  23.401  1.00  0.00    -0.000 C 
BRANCH  22  23
ATOM     23  C   UNL     1       0.204  60.393  23.691  1.00  0.00    -0.000 C 
BRANCH  23  24
ATOM     24  C   UNL     1      -0.374  61.809  23.869  1.00  0.00    -0.000 C 
BRANCH  24  25
ATOM     25  C   UNL     1      -1.611  62.052  22.989  1.00  0.00    -0.000 C 
BRANCH  25  26
ATOM     26  C   UNL     1      -1.888  63.549  22.769  1.00  0.00    -0.000 C 
BRANCH  26  27
ATOM     27  C   UNL     1      -0.798  64.450  23.370  1.00  0.00    -0.000 C 
BRANCH  27  28
ATOM     28  C   UNL     1      -1.150  65.942  23.275  1.00  0.00    -0.000 C 
BRANCH  28  29
ATOM     29  C   UNL     1      -0.766  66.510  21.904  1.00  0.00    -0.003 C 
ATOM     30  C   UNL     1      -2.005  66.878  21.093  1.00  0.00     0.004 C 
ENDBRANCH  28  29
ENDBRANCH  27  28
ENDBRANCH  26  27
ENDBRANCH  25  26
ENDBRANCH  24  25
ENDBRANCH  23  24
ENDBRANCH  22  23
ENDBRANCH  21  22
ENDBRANCH  20  21
ENDBRANCH  19  20
ENDBRANCH  18  19
ENDBRANCH  17  18
ENDBRANCH   1  17
TORSDOF 26
ENDMDL
MODEL 8
REMARK VINA RESULT:    -4.227      2.130      3.906
REMARK INTER + INTRA:         -13.213
REMARK INTER:                 -11.549
REMARK INTRA:                  -1.664
REMARK UNBOUND:                -2.562
REMARK SMILES CCCCCCCCCCCCCCCCCCCCCCCCCCCC(=O)[O-]
REMARK SMILES IDX 15 1 16 2 17 3 18 4 19 5 20 6 21 7 22 8 23 9 24 10 25 11
REMARK SMILES IDX 26 12 27 13 28 14 29 15 30 16 14 17 13 18 12 19 11 20 10 21
REMARK SMILES IDX 9 22 8 23 7 24 6 25 5 26 4 27 3 28 2 29 1 30
REMARK H PARENT
REMARK Flexibility Score: inf
ROOT
ATOM      1  C   UNL     1       3.128  54.378  23.757  1.00  0.00     0.000 C 
ENDROOT
BRANCH   1   2
ATOM      2  C   UNL     1       2.000  53.795  22.883  1.00  0.00     0.000 C 
BRANCH   2   3
ATOM      3  C   UNL     1       2.368  52.499  22.139  1.00  0.00     0.000 C 
BRANCH   3   4
ATOM      4  C   UNL     1       1.494  51.306  22.561  1.00  0.00     0.000 C 
BRANCH   4   5
ATOM      5  C   UNL     1       2.317  50.039  22.841  1.00  0.00     0.000 C 
BRANCH   5   6
ATOM      6  C   UNL     1       1.438  48.791  23.034  1.00  0.00     0.000 C 
BRANCH   6   7
ATOM      7  C   UNL     1       1.802  47.665  22.041  1.00  0.00     0.000 C 
BRANCH   7   8
ATOM      8  C   UNL     1       3.105  46.926  22.393  1.00  0.00     0.000 C 
BRANCH   8   9
ATOM      9  C   UNL     1       4.246  47.216  21.408  1.00  0.00     0.000 C 
BRANCH   9  10
ATOM     10  C   UNL     1       5.522  47.636  22.147  1.00  0.00     0.000 C 
BRANCH  10  11
ATOM     11  C   UNL     1       5.223  47.958  23.617  1.00  0.00     0.000 C 
BRANCH  11  12
ATOM     12  C   UNL     1       6.517  48.074  24.432  1.00  0.00     0.006 C 
BRANCH  12  13
ATOM     13  C   UNL     1       6.840  49.538  24.744  1.00  0.00     0.053 C 
BRANCH  13  14
ATOM     14  C   UNL     1       7.758  49.639  25.921  1.00  0.00     0.041 C 
ATOM     15  O   UNL     1       8.641  50.537  25.960  1.00  0.00    -0.550 OA
ATOM     16  O   UNL     1       7.630  48.754  26.985  1.00  0.00    -0.550 OA
ENDBRANCH  13  14
ENDBRANCH  12  13
ENDBRANCH  11  12
ENDBRANCH  10  11
ENDBRANCH   9  10
ENDBRANCH   8   9
ENDBRANCH   7   8
ENDBRANCH   6   7
ENDBRANCH   5   6
ENDBRANCH   4   5
ENDBRANCH   3   4
ENDBRANCH   2   3
ENDBRANCH   1   2
BRANCH   1  17
ATOM     17  C   UNL     1       2.794  55.714  24.450  1.00  0.00     0.000 C 
BRANCH  17  18
ATOM     18  C   UNL     1       3.656  56.915  24.008  1.00  0.00     0.000 C 
BRANCH  18  19
ATOM     19  C   UNL     1       3.058  57.761  22.866  1.00  0.00     0.000 C 
BRANCH  19  20
ATOM     20  C   UNL     1       1.652  57.324  22.409  1.00  0.00     0.000 C 
BRANCH  20  21
ATOM     21  C   UNL     1       0.511  57.979  23.216  1.00  0.00     0.000 C 
BRANCH  21  22
ATOM     22  C   UNL     1       0.873  59.395  23.699  1.00  0.00    -0.000 C 
BRANCH  22  23
ATOM     23  C   UNL     1       0.077  59.815  24.945  1.00  0.00    -0.000 C 
BRANCH  23  24
ATOM     24  C   UNL     1      -0.174  61.332  25.007  1.00  0.00    -0.000 C 
BRANCH  24  25
ATOM     25  C   UNL     1      -0.549  61.921  23.637  1.00  0.00    -0.000 C 
BRANCH  25  26
ATOM     26  C   UNL     1      -0.604  63.459  23.656  1.00  0.00    -0.000 C 
BRANCH  26  27
ATOM     27  C   UNL     1      -1.778  64.022  22.839  1.00  0.00    -0.000 C 
BRANCH  27  28
ATOM     28  C   UNL     1      -1.728  65.552  22.715  1.00  0.00    -0.000 C 
BRANCH  28  29
ATOM     29  C   UNL     1      -0.476  66.116  23.397  1.00  0.00    -0.003 C 
ATOM     30  C   UNL     1      -0.844  66.940  24.628  1.00  0.00     0.004 C 
ENDBRANCH  28  29
ENDBRANCH  27  28
ENDBRANCH  26  27
ENDBRANCH  25  26
ENDBRANCH  24  25
ENDBRANCH  23  24
ENDBRANCH  22  23
ENDBRANCH  21  22
ENDBRANCH  20  21
ENDBRANCH  19  20
ENDBRANCH  18  19
ENDBRANCH  17  18
ENDBRANCH   1  17
TORSDOF 26
ENDMDL
MODEL 9
REMARK VINA RESULT:    -4.181      2.281      4.195
REMARK INTER + INTRA:         -13.097
REMARK INTER:                 -11.549
REMARK INTRA:                  -1.548
REMARK UNBOUND:                -2.562
REMARK SMILES CCCCCCCCCCCCCCCCCCCCCCCCCCCC(=O)[O-]
REMARK SMILES IDX 15 1 16 2 17 3 18 4 19 5 20 6 21 7 22 8 23 9 24 10 25 11
REMARK SMILES IDX 26 12 27 13 28 14 29 15 30 16 14 17 13 18 12 19 11 20 10 21
REMARK SMILES IDX 9 22 8 23 7 24 6 25 5 26 4 27 3 28 2 29 1 30
REMARK H PARENT
REMARK Flexibility Score: inf
ROOT
ATOM      1  C   UNL     1       3.131  55.171  24.859  1.00  0.00     0.000 C 
ENDROOT
BRANCH   1   2
ATOM      2  C   UNL     1       3.259  54.065  23.793  1.00  0.00     0.000 C 
BRANCH   2   3
ATOM      3  C   UNL     1       2.179  54.100  22.698  1.00  0.00     0.000 C 
BRANCH   3   4
ATOM      4  C   UNL     1       1.475  52.744  22.518  1.00  0.00     0.000 C 
BRANCH   4   5
ATOM      5  C   UNL     1       2.458  51.563  22.517  1.00  0.00     0.000 C 
BRANCH   5   6
ATOM      6  C   UNL     1       1.786  50.232  22.899  1.00  0.00     0.000 C 
BRANCH   6   7
ATOM      7  C   UNL     1       2.660  49.013  22.530  1.00  0.00     0.000 C 
BRANCH   7   8
ATOM      8  C   UNL     1       2.043  47.663  22.935  1.00  0.00     0.000 C 
BRANCH   8   9
ATOM      9  C   UNL     1       1.620  47.613  24.410  1.00  0.00     0.000 C 
BRANCH   9  10
ATOM     10  C   UNL     1       2.705  46.963  25.275  1.00  0.00     0.000 C 
BRANCH  10  11
ATOM     11  C   UNL     1       3.562  48.028  25.972  1.00  0.00     0.000 C 
BRANCH  11  12
ATOM     12  C   UNL     1       5.057  47.777  25.739  1.00  0.00     0.006 C 
BRANCH  12  13
ATOM     13  C   UNL     1       5.525  48.424  24.433  1.00  0.00     0.053 C 
BRANCH  13  14
ATOM     14  C   UNL     1       6.916  48.957  24.574  1.00  0.00     0.041 C 
ATOM     15  O   UNL     1       7.836  48.531  23.826  1.00  0.00    -0.550 OA
ATOM     16  O   UNL     1       7.195  49.937  25.519  1.00  0.00    -0.550 OA
ENDBRANCH  13  14
ENDBRANCH  12  13
ENDBRANCH  11  12
ENDBRANCH  10  11
ENDBRANCH   9  10
ENDBRANCH   8   9
ENDBRANCH   7   8
ENDBRANCH   6   7
ENDBRANCH   5   6
ENDBRANCH   4   5
ENDBRANCH   3   4
ENDBRANCH   2   3
ENDBRANCH   1   2
BRANCH   1  17
ATOM     17  C   UNL     1       3.138  56.612  24.310  1.00  0.00     0.000 C 
BRANCH  17  18
ATOM     18  C   UNL     1       2.338  57.635  25.143  1.00  0.00     0.000 C 
BRANCH  18  19
ATOM     19  C   UNL     1       0.846  57.751  24.773  1.00  0.00     0.000 C 
BRANCH  19  20
ATOM     20  C   UNL     1       0.510  58.898  23.801  1.00  0.00     0.000 C 
BRANCH  20  21
ATOM     21  C   UNL     1       1.682  59.876  23.572  1.00  0.00     0.000 C 
BRANCH  21  22
ATOM     22  C   UNL     1       1.263  61.346  23.758  1.00  0.00    -0.000 C 
BRANCH  22  23
ATOM     23  C   UNL     1      -0.214  61.492  24.158  1.00  0.00    -0.000 C 
BRANCH  23  24
ATOM     24  C   UNL     1      -1.161  61.500  22.945  1.00  0.00    -0.000 C 
BRANCH  24  25
ATOM     25  C   UNL     1      -2.025  62.770  22.884  1.00  0.00    -0.000 C 
BRANCH  25  26
ATOM     26  C   UNL     1      -1.189  64.055  23.024  1.00  0.00    -0.000 C 
BRANCH  26  27
ATOM     27  C   UNL     1      -2.048  65.329  22.998  1.00  0.00    -0.000 C 
BRANCH  27  28
ATOM     28  C   UNL     1      -1.253  66.565  22.553  1.00  0.00    -0.000 C 
BRANCH  28  29
ATOM     29  C   UNL     1       0.044  66.702  23.359  1.00  0.00    -0.003 C 
ATOM     30  C   UNL     1       1.266  66.679  22.446  1.00  0.00     0.004 C 
ENDBRANCH  28  29
ENDBRANCH  27  28
ENDBRANCH  26  27
ENDBRANCH  25  26
ENDBRANCH  24  25
ENDBRANCH  23  24
ENDBRANCH  22  23
ENDBRANCH  21  22
ENDBRANCH  20  21
ENDBRANCH  19  20
ENDBRANCH  18  19
ENDBRANCH  17  18
ENDBRANCH   1  17
TORSDOF 26
ENDMDL
