MODEL 1
REMARK VINA RESULT:    -4.942      0.000      0.000
REMARK INTER + INTRA:         -12.235
REMARK INTER:                  -9.564
REMARK INTRA:                  -2.671
REMARK UNBOUND:                -2.671
REMARK SMILES CCCCCCCCCCCCCCCCCC(=O)[O-]
REMARK SMILES IDX 10 1 11 2 12 3 13 4 14 5 15 6 16 7 17 8 18 9 19 10 20 11
REMARK SMILES IDX 9 12 8 13 7 14 6 15 5 16 4 17 3 18 2 19 1 20
REMARK H PARENT
REMARK Flexibility Score: inf
ROOT
ATOM      1  C   UNL     1      21.897  10.751  34.193  1.00  0.00     0.000 C 
ENDROOT
BRANCH   1   2
ATOM      2  C   UNL     1      23.091  11.719  34.181  1.00  0.00     0.000 C 
BRANCH   2   3
ATOM      3  C   UNL     1      23.289  12.427  35.534  1.00  0.00     0.000 C 
BRANCH   3   4
ATOM      4  C   UNL     1      24.756  12.430  35.992  1.00  0.00     0.000 C 
BRANCH   4   5
ATOM      5  C   UNL     1      25.507  11.155  35.573  1.00  0.00     0.000 C 
BRANCH   5   6
ATOM      6  C   UNL     1      26.913  11.452  35.025  1.00  0.00     0.000 C 
BRANCH   6   7
ATOM      7  C   UNL     1      27.127  12.945  34.719  1.00  0.00     0.006 C 
BRANCH   7   8
ATOM      8  C   UNL     1      27.679  13.171  33.306  1.00  0.00     0.053 C 
BRANCH   8   9
ATOM      9  C   UNL     1      26.897  12.413  32.277  1.00  0.00     0.041 C 
ATOM     10  O   UNL     1      27.437  11.476  31.633  1.00  0.00    -0.550 OA
ATOM     11  O   UNL     1      25.581  12.766  32.006  1.00  0.00    -0.550 OA
ENDBRANCH   8   9
ENDBRANCH   7   8
ENDBRANCH   6   7
ENDBRANCH   5   6
ENDBRANCH   4   5
ENDBRANCH   3   4
ENDBRANCH   2   3
ENDBRANCH   1   2
BRANCH   1  12
ATOM     12  C   UNL     1      21.571  10.237  35.607  1.00  0.00     0.000 C 
BRANCH  12  13
ATOM     13  C   UNL     1      20.078   9.921  35.794  1.00  0.00    -0.000 C 
BRANCH  13  14
ATOM     14  C   UNL     1      19.172  11.100  35.402  1.00  0.00    -0.000 C 
BRANCH  14  15
ATOM     15  C   UNL     1      19.327  12.311  36.340  1.00  0.00    -0.000 C 
BRANCH  15  16
ATOM     16  C   UNL     1      19.803  13.610  35.661  1.00  0.00    -0.000 C 
BRANCH  16  17
ATOM     17  C   UNL     1      19.367  13.781  34.192  1.00  0.00    -0.000 C 
BRANCH  17  18
ATOM     18  C   UNL     1      20.472  14.276  33.242  1.00  0.00    -0.000 C 
BRANCH  18  19
ATOM     19  C   UNL     1      20.605  13.411  31.981  1.00  0.00    -0.003 C 
ATOM     20  C   UNL     1      19.440  12.434  31.858  1.00  0.00     0.004 C 
ENDBRANCH  18  19
ENDBRANCH  17  18
ENDBRANCH  16  17
ENDBRANCH  15  16
ENDBRANCH  14  15
ENDBRANCH  13  14
ENDBRANCH  12  13
ENDBRANCH   1  12
TORSDOF 16
ENDMDL
MODEL 2
REMARK VINA RESULT:    -4.895      1.511      3.030
REMARK INTER + INTRA:         -12.145
REMARK INTER:                 -10.175
REMARK INTRA:                  -1.970
REMARK UNBOUND:                -2.671
REMARK SMILES CCCCCCCCCCCCCCCCCC(=O)[O-]
REMARK SMILES IDX 10 1 11 2 12 3 13 4 14 5 15 6 16 7 17 8 18 9 19 10 20 11
REMARK SMILES IDX 9 12 8 13 7 14 6 15 5 16 4 17 3 18 2 19 1 20
REMARK H PARENT
REMARK Flexibility Score: inf
ROOT
ATOM      1  C   UNL     1      22.625  12.323  35.254  1.00  0.00     0.000 C 
ENDROOT
BRANCH   1   2
ATOM      2  C   UNL     1      23.696  11.246  35.024  1.00  0.00     0.000 C 
BRANCH   2   3
ATOM      3  C   UNL     1      24.943  11.458  35.900  1.00  0.00     0.000 C 
BRANCH   3   4
ATOM      4  C   UNL     1      25.362  12.934  35.987  1.00  0.00     0.000 C 
BRANCH   4   5
ATOM      5  C   UNL     1      26.512  13.279  35.026  1.00  0.00     0.000 C 
BRANCH   5   6
ATOM      6  C   UNL     1      27.671  12.272  35.108  1.00  0.00     0.000 C 
BRANCH   6   7
ATOM      7  C   UNL     1      28.323  12.005  33.740  1.00  0.00     0.006 C 
BRANCH   7   8
ATOM      8  C   UNL     1      27.299  11.551  32.691  1.00  0.00     0.053 C 
BRANCH   8   9
ATOM      9  C   UNL     1      27.880  11.557  31.310  1.00  0.00     0.041 C 
ATOM     10  O   UNL     1      27.624  10.620  30.510  1.00  0.00    -0.550 OA
ATOM     11  O   UNL     1      28.733  12.582  30.920  1.00  0.00    -0.550 OA
ENDBRANCH   8   9
ENDBRANCH   7   8
ENDBRANCH   6   7
ENDBRANCH   5   6
ENDBRANCH   4   5
ENDBRANCH   3   4
ENDBRANCH   2   3
ENDBRANCH   1   2
BRANCH   1  12
ATOM     12  C   UNL     1      22.022  12.845  33.938  1.00  0.00     0.000 C 
BRANCH  12  13
ATOM     13  C   UNL     1      20.674  13.555  34.142  1.00  0.00    -0.000 C 
BRANCH  13  14
ATOM     14  C   UNL     1      20.185  13.483  35.599  1.00  0.00    -0.000 C 
BRANCH  14  15
ATOM     15  C   UNL     1      19.031  12.483  35.793  1.00  0.00    -0.000 C 
BRANCH  15  16
ATOM     16  C   UNL     1      18.560  11.769  34.511  1.00  0.00    -0.000 C 
BRANCH  16  17
ATOM     17  C   UNL     1      18.652  10.230  34.544  1.00  0.00    -0.000 C 
BRANCH  17  18
ATOM     18  C   UNL     1      20.074   9.662  34.385  1.00  0.00    -0.000 C 
BRANCH  18  19
ATOM     19  C   UNL     1      20.702   9.245  35.721  1.00  0.00    -0.003 C 
ATOM     20  C   UNL     1      19.672   8.583  36.631  1.00  0.00     0.004 C 
ENDBRANCH  18  19
ENDBRANCH  17  18
ENDBRANCH  16  17
ENDBRANCH  15  16
ENDBRANCH  14  15
ENDBRANCH  13  14
ENDBRANCH  12  13
ENDBRANCH   1  12
TORSDOF 16
ENDMDL
MODEL 3
REMARK VINA RESULT:    -4.858      1.209      2.558
REMARK INTER + INTRA:         -12.073
REMARK INTER:                  -9.928
REMARK INTRA:                  -2.145
REMARK UNBOUND:                -2.671
REMARK SMILES CCCCCCCCCCCCCCCCCC(=O)[O-]
REMARK SMILES IDX 10 1 11 2 12 3 13 4 14 5 15 6 16 7 17 8 18 9 19 10 20 11
REMARK SMILES IDX 9 12 8 13 7 14 6 15 5 16 4 17 3 18 2 19 1 20
REMARK H PARENT
REMARK Flexibility Score: inf
ROOT
ATOM      1  C   UNL     1      22.702  12.077  35.783  1.00  0.00     0.000 C 
ENDROOT
BRANCH   1   2
ATOM      2  C   UNL     1      24.204  12.402  35.778  1.00  0.00     0.000 C 
BRANCH   2   3
ATOM      3  C   UNL     1      25.082  11.137  35.802  1.00  0.00     0.000 C 
BRANCH   3   4
ATOM      4  C   UNL     1      26.233  11.196  34.786  1.00  0.00     0.000 C 
BRANCH   4   5
ATOM      5  C   UNL     1      27.107  12.450  34.956  1.00  0.00     0.000 C 
BRANCH   5   6
ATOM      6  C   UNL     1      27.194  13.287  33.669  1.00  0.00     0.000 C 
BRANCH   6   7
ATOM      7  C   UNL     1      26.140  12.880  32.624  1.00  0.00     0.006 C 
BRANCH   7   8
ATOM      8  C   UNL     1      26.668  13.014  31.189  1.00  0.00     0.053 C 
BRANCH   8   9
ATOM      9  C   UNL     1      27.887  12.173  30.967  1.00  0.00     0.041 C 
ATOM     10  O   UNL     1      29.001  12.716  30.744  1.00  0.00    -0.550 OA
ATOM     11  O   UNL     1      27.786  10.787  30.972  1.00  0.00    -0.550 OA
ENDBRANCH   8   9
ENDBRANCH   7   8
ENDBRANCH   6   7
ENDBRANCH   5   6
ENDBRANCH   4   5
ENDBRANCH   3   4
ENDBRANCH   2   3
ENDBRANCH   1   2
BRANCH   1  12
ATOM     12  C   UNL     1      22.429  10.562  35.803  1.00  0.00     0.000 C 
BRANCH  12  13
ATOM     13  C   UNL     1      21.244  10.161  34.910  1.00  0.00    -0.000 C 
BRANCH  13  14
ATOM     14  C   UNL     1      21.414  10.635  33.456  1.00  0.00    -0.000 C 
BRANCH  14  15
ATOM     15  C   UNL     1      20.070  10.879  32.746  1.00  0.00    -0.000 C 
BRANCH  15  16
ATOM     16  C   UNL     1      19.771  12.351  32.400  1.00  0.00    -0.000 C 
BRANCH  16  17
ATOM     17  C   UNL     1      20.785  13.374  32.949  1.00  0.00    -0.000 C 
BRANCH  17  18
ATOM     18  C   UNL     1      20.307  14.164  34.180  1.00  0.00    -0.000 C 
BRANCH  18  19
ATOM     19  C   UNL     1      18.968  13.654  34.731  1.00  0.00    -0.003 C 
ATOM     20  C   UNL     1      19.141  13.040  36.117  1.00  0.00     0.004 C 
ENDBRANCH  18  19
ENDBRANCH  17  18
ENDBRANCH  16  17
ENDBRANCH  15  16
ENDBRANCH  14  15
ENDBRANCH  13  14
ENDBRANCH  12  13
ENDBRANCH   1  12
TORSDOF 16
ENDMDL
MODEL 4
REMARK VINA RESULT:    -4.826      1.248      2.168
REMARK INTER + INTRA:         -12.011
REMARK INTER:                  -9.916
REMARK INTRA:                  -2.095
REMARK UNBOUND:                -2.671
REMARK SMILES CCCCCCCCCCCCCCCCCC(=O)[O-]
REMARK SMILES IDX 10 1 11 2 12 3 13 4 14 5 15 6 16 7 17 8 18 9 19 10 20 11
REMARK SMILES IDX 9 12 8 13 7 14 6 15 5 16 4 17 3 18 2 19 1 20
REMARK H PARENT
REMARK Flexibility Score: inf
ROOT
ATOM      1  C   UNL     1      21.056  10.383  35.029  1.00  0.00     0.000 C 
ENDROOT
BRANCH   1   2
ATOM      2  C   UNL     1      22.342  10.434  35.869  1.00  0.00     0.000 C 
BRANCH   2   3
ATOM      3  C   UNL     1      23.335  11.496  35.362  1.00  0.00     0.000 C 
BRANCH   3   4
ATOM      4  C   UNL     1      24.799  11.119  35.640  1.00  0.00     0.000 C 
BRANCH   4   5
ATOM      5  C   UNL     1      25.766  11.699  34.595  1.00  0.00     0.000 C 
BRANCH   5   6
ATOM      6  C   UNL     1      27.205  11.184  34.773  1.00  0.00     0.000 C 
BRANCH   6   7
ATOM      7  C   UNL     1      28.231  12.000  33.967  1.00  0.00     0.006 C 
BRANCH   7   8
ATOM      8  C   UNL     1      27.591  12.703  32.762  1.00  0.00     0.053 C 
BRANCH   8   9
ATOM      9  C   UNL     1      28.084  12.137  31.465  1.00  0.00     0.041 C 
ATOM     10  O   UNL     1      27.672  11.017  31.065  1.00  0.00    -0.550 OA
ATOM     11  O   UNL     1      29.025  12.833  30.716  1.00  0.00    -0.550 OA
ENDBRANCH   8   9
ENDBRANCH   7   8
ENDBRANCH   6   7
ENDBRANCH   5   6
ENDBRANCH   4   5
ENDBRANCH   3   4
ENDBRANCH   2   3
ENDBRANCH   1   2
BRANCH   1  12
ATOM     12  C   UNL     1      19.826  10.888  35.806  1.00  0.00     0.000 C 
BRANCH  12  13
ATOM     13  C   UNL     1      19.291  12.224  35.266  1.00  0.00    -0.000 C 
BRANCH  13  14
ATOM     14  C   UNL     1      20.203  13.411  35.620  1.00  0.00    -0.000 C 
BRANCH  14  15
ATOM     15  C   UNL     1      20.769  14.121  34.377  1.00  0.00    -0.000 C 
BRANCH  15  16
ATOM     16  C   UNL     1      19.849  14.109  33.140  1.00  0.00    -0.000 C 
BRANCH  16  17
ATOM     17  C   UNL     1      20.483  13.539  31.855  1.00  0.00    -0.000 C 
BRANCH  17  18
ATOM     18  C   UNL     1      20.325  12.019  31.674  1.00  0.00    -0.000 C 
BRANCH  18  19
ATOM     19  C   UNL     1      21.670  11.291  31.544  1.00  0.00    -0.003 C 
ATOM     20  C   UNL     1      22.833  12.220  31.881  1.00  0.00     0.004 C 
ENDBRANCH  18  19
ENDBRANCH  17  18
ENDBRANCH  16  17
ENDBRANCH  15  16
ENDBRANCH  14  15
ENDBRANCH  13  14
ENDBRANCH  12  13
ENDBRANCH   1  12
TORSDOF 16
ENDMDL
MODEL 5
REMARK VINA RESULT:    -4.763      1.055      2.988
REMARK INTER + INTRA:         -11.890
REMARK INTER:                  -9.773
REMARK INTRA:                  -2.117
REMARK UNBOUND:                -2.671
REMARK SMILES CCCCCCCCCCCCCCCCCC(=O)[O-]
REMARK SMILES IDX 10 1 11 2 12 3 13 4 14 5 15 6 16 7 17 8 18 9 19 10 20 11
REMARK SMILES IDX 9 12 8 13 7 14 6 15 5 16 4 17 3 18 2 19 1 20
REMARK H PARENT
REMARK Flexibility Score: inf
ROOT
ATOM      1  C   UNL     1      22.256  11.634  33.271  1.00  0.00     0.000 C 
ENDROOT
BRANCH   1   2
ATOM      2  C   UNL     1      22.894  12.216  34.542  1.00  0.00     0.000 C 
BRANCH   2   3
ATOM      3  C   UNL     1      23.356  11.122  35.523  1.00  0.00     0.000 C 
BRANCH   3   4
ATOM      4  C   UNL     1      24.856  11.209  35.843  1.00  0.00     0.000 C 
BRANCH   4   5
ATOM      5  C   UNL     1      25.335  12.657  36.041  1.00  0.00     0.000 C 
BRANCH   5   6
ATOM      6  C   UNL     1      26.556  12.998  35.170  1.00  0.00     0.000 C 
BRANCH   6   7
ATOM      7  C   UNL     1      26.944  11.854  34.217  1.00  0.00     0.006 C 
BRANCH   7   8
ATOM      8  C   UNL     1      28.197  12.186  33.396  1.00  0.00     0.053 C 
BRANCH   8   9
ATOM      9  C   UNL     1      27.847  12.662  32.020  1.00  0.00     0.041 C 
ATOM     10  O   UNL     1      28.705  12.626  31.099  1.00  0.00    -0.550 OA
ATOM     11  O   UNL     1      26.583  13.177  31.762  1.00  0.00    -0.550 OA
ENDBRANCH   8   9
ENDBRANCH   7   8
ENDBRANCH   6   7
ENDBRANCH   5   6
ENDBRANCH   4   5
ENDBRANCH   3   4
ENDBRANCH   2   3
ENDBRANCH   1   2
BRANCH   1  12
ATOM     12  C   UNL     1      21.172  12.555  32.683  1.00  0.00     0.000 C 
BRANCH  12  13
ATOM     13  C   UNL     1      20.889  13.779  33.569  1.00  0.00    -0.000 C 
BRANCH  13  14
ATOM     14  C   UNL     1      19.547  13.673  34.312  1.00  0.00    -0.000 C 
BRANCH  14  15
ATOM     15  C   UNL     1      19.716  13.377  35.813  1.00  0.00    -0.000 C 
BRANCH  15  16
ATOM     16  C   UNL     1      19.400  11.928  36.234  1.00  0.00    -0.000 C 
BRANCH  16  17
ATOM     17  C   UNL     1      18.895  11.010  35.103  1.00  0.00    -0.000 C 
BRANCH  17  18
ATOM     18  C   UNL     1      19.690   9.704  34.926  1.00  0.00    -0.000 C 
BRANCH  18  19
ATOM     19  C   UNL     1      20.343   9.222  36.229  1.00  0.00    -0.003 C 
ATOM     20  C   UNL     1      19.444   8.231  36.961  1.00  0.00     0.004 C 
ENDBRANCH  18  19
ENDBRANCH  17  18
ENDBRANCH  16  17
ENDBRANCH  15  16
ENDBRANCH  14  15
ENDBRANCH  13  14
ENDBRANCH  12  13
ENDBRANCH   1  12
TORSDOF 16
ENDMDL
MODEL 6
REMARK VINA RESULT:    -4.666      2.562      6.628
REMARK INTER + INTRA:         -11.701
REMARK INTER:                  -9.515
REMARK INTRA:                  -2.186
REMARK UNBOUND:                -2.671
REMARK SMILES CCCCCCCCCCCCCCCCCC(=O)[O-]
REMARK SMILES IDX 10 1 11 2 12 3 13 4 14 5 15 6 16 7 17 8 18 9 19 10 20 11
REMARK SMILES IDX 9 12 8 13 7 14 6 15 5 16 4 17 3 18 2 19 1 20
REMARK H PARENT
REMARK Flexibility Score: inf
ROOT
ATOM      1  C   UNL     1      22.907  12.212  32.948  1.00  0.00     0.000 C 
ENDROOT
BRANCH   1   2
ATOM      2  C   UNL     1      21.431  12.174  32.521  1.00  0.00     0.000 C 
BRANCH   2   3
ATOM      3  C   UNL     1      20.807  13.578  32.434  1.00  0.00     0.000 C 
BRANCH   3   4
ATOM      4  C   UNL     1      19.754  13.827  33.526  1.00  0.00     0.000 C 
BRANCH   4   5
ATOM      5  C   UNL     1      20.373  13.935  34.929  1.00  0.00     0.000 C 
BRANCH   5   6
ATOM      6  C   UNL     1      19.635  13.074  35.968  1.00  0.00     0.000 C 
BRANCH   6   7
ATOM      7  C   UNL     1      19.096  11.761  35.373  1.00  0.00     0.006 C 
BRANCH   7   8
ATOM      8  C   UNL     1      19.979  10.558  35.733  1.00  0.00     0.053 C 
BRANCH   8   9
ATOM      9  C   UNL     1      19.649   9.359  34.897  1.00  0.00     0.041 C 
ATOM     10  O   UNL     1      18.803   8.519  35.299  1.00  0.00    -0.550 OA
ATOM     11  O   UNL     1      20.305   9.153  33.689  1.00  0.00    -0.550 OA
ENDBRANCH   8   9
ENDBRANCH   7   8
ENDBRANCH   6   7
ENDBRANCH   5   6
ENDBRANCH   4   5
ENDBRANCH   3   4
ENDBRANCH   2   3
ENDBRANCH   1   2
BRANCH   1  12
ATOM     12  C   UNL     1      23.165  11.423  34.244  1.00  0.00     0.000 C 
BRANCH  12  13
ATOM     13  C   UNL     1      23.563  12.328  35.421  1.00  0.00    -0.000 C 
BRANCH  13  14
ATOM     14  C   UNL     1      24.963  12.001  35.970  1.00  0.00    -0.000 C 
BRANCH  14  15
ATOM     15  C   UNL     1      25.836  11.233  34.960  1.00  0.00    -0.000 C 
BRANCH  15  16
ATOM     16  C   UNL     1      27.351  11.494  35.075  1.00  0.00    -0.000 C 
BRANCH  16  17
ATOM     17  C   UNL     1      27.777  12.969  34.932  1.00  0.00    -0.000 C 
BRANCH  17  18
ATOM     18  C   UNL     1      27.233  13.682  33.680  1.00  0.00    -0.000 C 
BRANCH  18  19
ATOM     19  C   UNL     1      27.534  12.919  32.382  1.00  0.00    -0.003 C 
ATOM     20  C   UNL     1      26.293  12.824  31.500  1.00  0.00     0.004 C 
ENDBRANCH  18  19
ENDBRANCH  17  18
ENDBRANCH  16  17
ENDBRANCH  15  16
ENDBRANCH  14  15
ENDBRANCH  13  14
ENDBRANCH  12  13
ENDBRANCH   1  12
TORSDOF 16
ENDMDL
MODEL 7
REMARK VINA RESULT:    -4.653      1.458      3.143
REMARK INTER + INTRA:         -11.676
REMARK INTER:                  -9.390
REMARK INTRA:                  -2.285
REMARK UNBOUND:                -2.671
REMARK SMILES CCCCCCCCCCCCCCCCCC(=O)[O-]
REMARK SMILES IDX 10 1 11 2 12 3 13 4 14 5 15 6 16 7 17 8 18 9 19 10 20 11
REMARK SMILES IDX 9 12 8 13 7 14 6 15 5 16 4 17 3 18 2 19 1 20
REMARK H PARENT
REMARK Flexibility Score: inf
ROOT
ATOM      1  C   UNL     1      22.830  12.371  34.822  1.00  0.00     0.000 C 
ENDROOT
BRANCH   1   2
ATOM      2  C   UNL     1      23.372  11.121  35.532  1.00  0.00     0.000 C 
BRANCH   2   3
ATOM      3  C   UNL     1      24.871  11.236  35.865  1.00  0.00     0.000 C 
BRANCH   3   4
ATOM      4  C   UNL     1      25.320  12.690  36.078  1.00  0.00     0.000 C 
BRANCH   4   5
ATOM      5  C   UNL     1      26.601  13.031  35.298  1.00  0.00     0.000 C 
BRANCH   5   6
ATOM      6  C   UNL     1      27.509  11.808  35.090  1.00  0.00     0.000 C 
BRANCH   6   7
ATOM      7  C   UNL     1      28.043  11.702  33.651  1.00  0.00     0.006 C 
BRANCH   7   8
ATOM      8  C   UNL     1      26.915  11.755  32.612  1.00  0.00     0.053 C 
BRANCH   8   9
ATOM      9  C   UNL     1      27.445  11.674  31.213  1.00  0.00     0.041 C 
ATOM     10  O   UNL     1      27.642  12.725  30.548  1.00  0.00    -0.550 OA
ATOM     11  O   UNL     1      27.689  10.436  30.633  1.00  0.00    -0.550 OA
ENDBRANCH   8   9
ENDBRANCH   7   8
ENDBRANCH   6   7
ENDBRANCH   5   6
ENDBRANCH   4   5
ENDBRANCH   3   4
ENDBRANCH   2   3
ENDBRANCH   1   2
BRANCH   1  12
ATOM     12  C   UNL     1      22.861  12.238  33.289  1.00  0.00     0.000 C 
BRANCH  12  13
ATOM     13  C   UNL     1      21.456  12.132  32.674  1.00  0.00    -0.000 C 
BRANCH  13  14
ATOM     14  C   UNL     1      21.227  10.791  31.955  1.00  0.00    -0.000 C 
BRANCH  14  15
ATOM     15  C   UNL     1      20.106   9.954  32.597  1.00  0.00    -0.000 C 
BRANCH  15  16
ATOM     16  C   UNL     1      20.475   9.280  33.934  1.00  0.00    -0.000 C 
BRANCH  16  17
ATOM     17  C   UNL     1      19.485   9.527  35.090  1.00  0.00    -0.000 C 
BRANCH  17  18
ATOM     18  C   UNL     1      19.734  10.816  35.892  1.00  0.00    -0.000 C 
BRANCH  18  19
ATOM     19  C   UNL     1      18.876  11.994  35.409  1.00  0.00    -0.003 C 
ATOM     20  C   UNL     1      19.429  13.322  35.917  1.00  0.00     0.004 C 
ENDBRANCH  18  19
ENDBRANCH  17  18
ENDBRANCH  16  17
ENDBRANCH  15  16
ENDBRANCH  14  15
ENDBRANCH  13  14
ENDBRANCH  12  13
ENDBRANCH   1  12
TORSDOF 16
ENDMDL
MODEL 8
REMARK VINA RESULT:    -4.629      1.766      6.280
REMARK INTER + INTRA:         -11.630
REMARK INTER:                  -9.665
REMARK INTRA:                  -1.964
REMARK UNBOUND:                -2.671
REMARK SMILES CCCCCCCCCCCCCCCCCC(=O)[O-]
REMARK SMILES IDX 10 1 11 2 12 3 13 4 14 5 15 6 16 7 17 8 18 9 19 10 20 11
REMARK SMILES IDX 9 12 8 13 7 14 6 15 5 16 4 17 3 18 2 19 1 20
REMARK H PARENT
REMARK Flexibility Score: inf
ROOT
ATOM      1  C   UNL     1      23.037  10.746  35.727  1.00  0.00     0.000 C 
ENDROOT
BRANCH   1   2
ATOM      2  C   UNL     1      21.767  10.373  34.945  1.00  0.00     0.000 C 
BRANCH   2   3
ATOM      3  C   UNL     1      20.563  10.111  35.868  1.00  0.00     0.000 C 
BRANCH   3   4
ATOM      4  C   UNL     1      19.367  11.025  35.555  1.00  0.00     0.000 C 
BRANCH   4   5
ATOM      5  C   UNL     1      19.505  12.417  36.194  1.00  0.00     0.000 C 
BRANCH   5   6
ATOM      6  C   UNL     1      19.219  13.554  35.199  1.00  0.00     0.000 C 
BRANCH   6   7
ATOM      7  C   UNL     1      20.494  14.078  34.515  1.00  0.00     0.006 C 
BRANCH   7   8
ATOM      8  C   UNL     1      20.375  14.065  32.985  1.00  0.00     0.053 C 
BRANCH   8   9
ATOM      9  C   UNL     1      20.862  12.773  32.402  1.00  0.00     0.041 C 
ATOM     10  O   UNL     1      22.091  12.593  32.198  1.00  0.00    -0.550 OA
ATOM     11  O   UNL     1      19.953  11.782  32.052  1.00  0.00    -0.550 OA
ENDBRANCH   8   9
ENDBRANCH   7   8
ENDBRANCH   6   7
ENDBRANCH   5   6
ENDBRANCH   4   5
ENDBRANCH   3   4
ENDBRANCH   2   3
ENDBRANCH   1   2
BRANCH   1  12
ATOM     12  C   UNL     1      23.331  12.256  35.685  1.00  0.00     0.000 C 
BRANCH  12  13
ATOM     13  C   UNL     1      24.787  12.567  35.304  1.00  0.00    -0.000 C 
BRANCH  13  14
ATOM     14  C   UNL     1      25.532  11.334  34.765  1.00  0.00    -0.000 C 
BRANCH  14  15
ATOM     15  C   UNL     1      27.030  11.338  35.119  1.00  0.00    -0.000 C 
BRANCH  15  16
ATOM     16  C   UNL     1      27.986  11.494  33.919  1.00  0.00    -0.000 C 
BRANCH  16  17
ATOM     17  C   UNL     1      27.789  12.775  33.084  1.00  0.00    -0.000 C 
BRANCH  17  18
ATOM     18  C   UNL     1      28.224  12.662  31.612  1.00  0.00    -0.000 C 
BRANCH  18  19
ATOM     19  C   UNL     1      27.037  12.510  30.650  1.00  0.00    -0.003 C 
ATOM     20  C   UNL     1      25.731  12.928  31.317  1.00  0.00     0.004 C 
ENDBRANCH  18  19
ENDBRANCH  17  18
ENDBRANCH  16  17
ENDBRANCH  15  16
ENDBRANCH  14  15
ENDBRANCH  13  14
ENDBRANCH  12  13
ENDBRANCH   1  12
TORSDOF 16
ENDMDL
MODEL 9
REMARK VINA RESULT:    -4.603      1.386      2.310
REMARK INTER + INTRA:         -11.579
REMARK INTER:                  -9.253
REMARK INTRA:                  -2.326
REMARK UNBOUND:                -2.671
REMARK SMILES CCCCCCCCCCCCCCCCCC(=O)[O-]
REMARK SMILES IDX 10 1 11 2 12 3 13 4 14 5 15 6 16 7 17 8 18 9 19 10 20 11
REMARK SMILES IDX 9 12 8 13 7 14 6 15 5 16 4 17 3 18 2 19 1 20
REMARK H PARENT
REMARK Flexibility Score: inf
ROOT
ATOM      1  C   UNL     1      22.584  10.361  35.867  1.00  0.00     0.000 C 
ENDROOT
BRANCH   1   2
ATOM      2  C   UNL     1      22.371  11.873  35.686  1.00  0.00     0.000 C 
BRANCH   2   3
ATOM      3  C   UNL     1      23.607  12.576  35.097  1.00  0.00     0.000 C 
BRANCH   3   4
ATOM      4  C   UNL     1      24.755  12.704  36.110  1.00  0.00     0.000 C 
BRANCH   4   5
ATOM      5  C   UNL     1      26.140  12.652  35.443  1.00  0.00     0.000 C 
BRANCH   5   6
ATOM      6  C   UNL     1      26.532  11.229  35.011  1.00  0.00     0.000 C 
BRANCH   6   7
ATOM      7  C   UNL     1      26.712  11.100  33.488  1.00  0.00     0.006 C 
BRANCH   7   8
ATOM      8  C   UNL     1      27.470  12.294  32.893  1.00  0.00     0.053 C 
BRANCH   8   9
ATOM      9  C   UNL     1      28.029  11.978  31.540  1.00  0.00     0.041 C 
ATOM     10  O   UNL     1      27.779  10.871  30.993  1.00  0.00    -0.550 OA
ATOM     11  O   UNL     1      28.854  12.892  30.897  1.00  0.00    -0.550 OA
ENDBRANCH   8   9
ENDBRANCH   7   8
ENDBRANCH   6   7
ENDBRANCH   5   6
ENDBRANCH   4   5
ENDBRANCH   3   4
ENDBRANCH   2   3
ENDBRANCH   1   2
BRANCH   1  12
ATOM     12  C   UNL     1      21.313   9.548  35.566  1.00  0.00     0.000 C 
BRANCH  12  13
ATOM     13  C   UNL     1      20.047  10.420  35.523  1.00  0.00    -0.000 C 
BRANCH  13  14
ATOM     14  C   UNL     1      19.128  10.067  34.341  1.00  0.00    -0.000 C 
BRANCH  14  15
ATOM     15  C   UNL     1      19.884   9.418  33.168  1.00  0.00    -0.000 C 
BRANCH  15  16
ATOM     16  C   UNL     1      20.226  10.369  32.004  1.00  0.00    -0.000 C 
BRANCH  16  17
ATOM     17  C   UNL     1      21.539  11.160  32.165  1.00  0.00    -0.000 C 
BRANCH  17  18
ATOM     18  C   UNL     1      21.380  12.691  32.142  1.00  0.00    -0.000 C 
BRANCH  18  19
ATOM     19  C   UNL     1      20.194  13.179  32.985  1.00  0.00    -0.003 C 
ATOM     20  C   UNL     1      20.561  14.429  33.779  1.00  0.00     0.004 C 
ENDBRANCH  18  19
ENDBRANCH  17  18
ENDBRANCH  16  17
ENDBRANCH  15  16
ENDBRANCH  14  15
ENDBRANCH  13  14
ENDBRANCH  12  13
ENDBRANCH   1  12
TORSDOF 16
ENDMDL
