MODEL 1
REMARK VINA RESULT:    -5.494      0.000      0.000
REMARK INTER + INTRA:          -6.581
REMARK INTER:                  -6.458
REMARK INTRA:                  -0.123
REMARK UNBOUND:                -0.123
REMARK SMILES O=C([O-])C=Cc1ccc(O)c(O)c1
REMARK SMILES IDX 6 1 13 2 7 3 11 4 8 5 9 6 5 7 4 8 2 9 1 10 3 11 12 12 10 14
REMARK H PARENT 12 13 10 15
REMARK Flexibility Score: inf
ROOT
ATOM      1  C   UNL     1       8.525  15.687 -21.599  1.00  0.00    -0.022 A 
ATOM      2  C   UNL     1       8.503  16.994 -21.071  1.00  0.00     0.058 A 
ATOM      3  C   UNL     1       8.180  14.612 -20.764  1.00  0.00     0.012 A 
ATOM      4  C   UNL     1       8.118  17.218 -19.741  1.00  0.00     0.157 A 
ATOM      5  C   UNL     1       7.793  14.836 -19.440  1.00  0.00     0.051 A 
ATOM      6  C   UNL     1       7.759  16.138 -18.926  1.00  0.00     0.157 A 
ENDROOT
BRANCH   1   7
ATOM      7  C   UNL     1       8.938  15.396 -22.995  1.00  0.00     0.010 C 
ATOM      8  C   UNL     1       9.589  16.271 -23.776  1.00  0.00     0.025 C 
BRANCH   8   9
ATOM      9  C   UNL     1       9.971  15.952 -25.162  1.00  0.00     0.064 C 
ATOM     10  O   UNL     1      11.181  15.837 -25.496  1.00  0.00    -0.545 OA
ATOM     11  O   UNL     1       8.980  15.777 -26.120  1.00  0.00    -0.545 OA
ENDBRANCH   8   9
ENDBRANCH   1   7
BRANCH   4  12
ATOM     12  O   UNL     1       8.094  18.512 -19.222  1.00  0.00    -0.504 OA
ATOM     13  H   UNL     1       7.251  19.073 -19.236  1.00  0.00     0.293 HD
ENDBRANCH   4  12
BRANCH   6  14
ATOM     14  O   UNL     1       7.373  16.366 -17.606  1.00  0.00    -0.504 OA
ATOM     15  H   UNL     1       7.005  17.261 -17.307  1.00  0.00     0.293 HD
ENDBRANCH   6  14
TORSDOF 4
ENDMDL
MODEL 2
REMARK VINA RESULT:    -5.395     10.807     14.363
REMARK INTER + INTRA:          -6.464
REMARK INTER:                  -6.335
REMARK INTRA:                  -0.129
REMARK UNBOUND:                -0.123
REMARK SMILES O=C([O-])C=Cc1ccc(O)c(O)c1
REMARK SMILES IDX 6 1 13 2 7 3 11 4 8 5 9 6 5 7 4 8 2 9 1 10 3 11 12 12 10 14
REMARK H PARENT 12 13 10 15
REMARK Flexibility Score: inf
ROOT
ATOM      1  C   UNL     1       6.633   8.314 -11.592  1.00  0.00    -0.022 A 
ATOM      2  C   UNL     1       6.621   7.137 -12.369  1.00  0.00     0.058 A 
ATOM      3  C   UNL     1       6.930   9.536 -12.217  1.00  0.00     0.012 A 
ATOM      4  C   UNL     1       6.878   7.191 -13.746  1.00  0.00     0.157 A 
ATOM      5  C   UNL     1       7.182   9.590 -13.590  1.00  0.00     0.051 A 
ATOM      6  C   UNL     1       7.154   8.420 -14.359  1.00  0.00     0.157 A 
ENDROOT
BRANCH   1   7
ATOM      7  C   UNL     1       6.381   8.307 -10.129  1.00  0.00     0.010 C 
ATOM      8  C   UNL     1       7.352   8.233  -9.207  1.00  0.00     0.025 C 
BRANCH   8   9
ATOM      9  C   UNL     1       7.064   8.216  -7.763  1.00  0.00     0.064 C 
ATOM     10  O   UNL     1       5.880   8.209  -7.333  1.00  0.00    -0.545 OA
ATOM     11  O   UNL     1       8.117   8.210  -6.857  1.00  0.00    -0.545 OA
ENDBRANCH   8   9
ENDBRANCH   1   7
BRANCH   4  12
ATOM     12  O   UNL     1       6.863   6.027 -14.513  1.00  0.00    -0.504 OA
ATOM     13  H   UNL     1       6.285   5.234 -14.262  1.00  0.00     0.293 HD
ENDBRANCH   4  12
BRANCH   6  14
ATOM     14  O   UNL     1       7.405   8.470 -15.729  1.00  0.00    -0.504 OA
ATOM     15  H   UNL     1       7.199   9.297 -16.276  1.00  0.00     0.293 HD
ENDBRANCH   6  14
TORSDOF 4
ENDMDL
MODEL 3
REMARK VINA RESULT:    -5.360      1.223      2.246
REMARK INTER + INTRA:          -6.423
REMARK INTER:                  -6.295
REMARK INTRA:                  -0.128
REMARK UNBOUND:                -0.123
REMARK SMILES O=C([O-])C=Cc1ccc(O)c(O)c1
REMARK SMILES IDX 6 1 13 2 7 3 11 4 8 5 9 6 5 7 4 8 2 9 1 10 3 11 12 12 10 14
REMARK H PARENT 12 13 10 15
REMARK Flexibility Score: inf
ROOT
ATOM      1  C   UNL     1       8.701  15.713 -21.809  1.00  0.00    -0.022 A 
ATOM      2  C   UNL     1       8.885  14.514 -21.089  1.00  0.00     0.058 A 
ATOM      3  C   UNL     1       8.414  16.891 -21.101  1.00  0.00     0.012 A 
ATOM      4  C   UNL     1       8.807  14.506 -19.689  1.00  0.00     0.157 A 
ATOM      5  C   UNL     1       8.340  16.883 -19.706  1.00  0.00     0.051 A 
ATOM      6  C   UNL     1       8.538  15.693 -18.996  1.00  0.00     0.157 A 
ENDROOT
BRANCH   1   7
ATOM      7  C   UNL     1       8.761  15.771 -23.291  1.00  0.00     0.010 C 
ATOM      8  C   UNL     1       9.904  15.857 -23.987  1.00  0.00     0.025 C 
BRANCH   8   9
ATOM      9  C   UNL     1       9.924  15.927 -25.458  1.00  0.00     0.064 C 
ATOM     10  O   UNL     1       8.855  15.975 -26.124  1.00  0.00    -0.545 OA
ATOM     11  O   UNL     1      11.142  15.937 -26.124  1.00  0.00    -0.545 OA
ENDBRANCH   8   9
ENDBRANCH   1   7
BRANCH   4  12
ATOM     12  O   UNL     1       8.992  13.321 -18.979  1.00  0.00    -0.504 OA
ATOM     13  H   UNL     1       8.576  12.449 -19.285  1.00  0.00     0.293 HD
ENDBRANCH   4  12
BRANCH   6  14
ATOM     14  O   UNL     1       8.465  15.681 -17.604  1.00  0.00    -0.504 OA
ATOM     15  H   UNL     1       7.905  14.998 -17.108  1.00  0.00     0.293 HD
ENDBRANCH   6  14
TORSDOF 4
ENDMDL
MODEL 4
REMARK VINA RESULT:    -4.837      9.039     12.111
REMARK INTER + INTRA:          -5.808
REMARK INTER:                  -5.672
REMARK INTRA:                  -0.136
REMARK UNBOUND:                -0.123
REMARK SMILES O=C([O-])C=Cc1ccc(O)c(O)c1
REMARK SMILES IDX 6 1 13 2 7 3 11 4 8 5 9 6 5 7 4 8 2 9 1 10 3 11 12 12 10 14
REMARK H PARENT 12 13 10 15
REMARK Flexibility Score: inf
ROOT
ATOM      1  C   UNL     1       8.151   7.855 -14.882  1.00  0.00    -0.022 A 
ATOM      2  C   UNL     1       7.466   8.194 -16.067  1.00  0.00     0.058 A 
ATOM      3  C   UNL     1       9.554   7.811 -14.899  1.00  0.00     0.012 A 
ATOM      4  C   UNL     1       8.176   8.505 -17.236  1.00  0.00     0.157 A 
ATOM      5  C   UNL     1      10.262   8.124 -16.063  1.00  0.00     0.051 A 
ATOM      6  C   UNL     1       9.576   8.475 -17.232  1.00  0.00     0.157 A 
ENDROOT
BRANCH   1   7
ATOM      7  C   UNL     1       7.445   7.505 -13.624  1.00  0.00     0.010 C 
ATOM      8  C   UNL     1       7.569   8.199 -12.484  1.00  0.00     0.025 C 
BRANCH   8   9
ATOM      9  C   UNL     1       6.863   7.814 -11.250  1.00  0.00     0.064 C 
ATOM     10  O   UNL     1       5.875   7.032 -11.279  1.00  0.00    -0.545 OA
ATOM     11  O   UNL     1       7.291   8.324 -10.031  1.00  0.00    -0.545 OA
ENDBRANCH   8   9
ENDBRANCH   1   7
BRANCH   4  12
ATOM     12  O   UNL     1       7.497   8.843 -18.405  1.00  0.00    -0.504 OA
ATOM     13  H   UNL     1       7.495   8.232 -19.212  1.00  0.00     0.293 HD
ENDBRANCH   4  12
BRANCH   6  14
ATOM     14  O   UNL     1      10.278   8.789 -18.395  1.00  0.00    -0.504 OA
ATOM     15  H   UNL     1       9.914   8.562 -19.312  1.00  0.00     0.293 HD
ENDBRANCH   6  14
TORSDOF 4
ENDMDL
MODEL 5
REMARK VINA RESULT:    -4.837      2.892      3.795
REMARK INTER + INTRA:          -5.807
REMARK INTER:                  -5.672
REMARK INTRA:                  -0.135
REMARK UNBOUND:                -0.123
REMARK SMILES O=C([O-])C=Cc1ccc(O)c(O)c1
REMARK SMILES IDX 6 1 13 2 7 3 11 4 8 5 9 6 5 7 4 8 2 9 1 10 3 11 12 12 10 14
REMARK H PARENT 12 13 10 15
REMARK Flexibility Score: inf
ROOT
ATOM      1  C   UNL     1       8.862  14.398 -20.375  1.00  0.00    -0.022 A 
ATOM      2  C   UNL     1       8.936  12.990 -20.413  1.00  0.00     0.058 A 
ATOM      3  C   UNL     1       9.130  15.058 -19.165  1.00  0.00     0.012 A 
ATOM      4  C   UNL     1       9.295  12.265 -19.268  1.00  0.00     0.157 A 
ATOM      5  C   UNL     1       9.491  14.335 -18.025  1.00  0.00     0.051 A 
ATOM      6  C   UNL     1       9.577  12.939 -18.073  1.00  0.00     0.157 A 
ENDROOT
BRANCH   1   7
ATOM      7  C   UNL     1       8.474  15.210 -21.556  1.00  0.00     0.010 C 
ATOM      8  C   UNL     1       9.303  16.059 -22.179  1.00  0.00     0.025 C 
BRANCH   8   9
ATOM      9  C   UNL     1       8.879  16.859 -23.341  1.00  0.00     0.064 C 
ATOM     10  O   UNL     1       7.775  17.466 -23.348  1.00  0.00    -0.545 OA
ATOM     11  O   UNL     1       9.710  16.944 -24.451  1.00  0.00    -0.545 OA
ENDBRANCH   8   9
ENDBRANCH   1   7
BRANCH   4  12
ATOM     12  O   UNL     1       9.370  10.874 -19.308  1.00  0.00    -0.504 OA
ATOM     13  H   UNL     1       8.551  10.294 -19.173  1.00  0.00     0.293 HD
ENDBRANCH   4  12
BRANCH   6  14
ATOM     14  O   UNL     1       9.937  12.214 -16.938  1.00  0.00    -0.504 OA
ATOM     15  H   UNL     1      10.805  11.693 -16.895  1.00  0.00     0.293 HD
ENDBRANCH   6  14
TORSDOF 4
ENDMDL
MODEL 6
REMARK VINA RESULT:    -4.792      3.377      5.472
REMARK INTER + INTRA:          -5.755
REMARK INTER:                  -5.621
REMARK INTRA:                  -0.134
REMARK UNBOUND:                -0.123
REMARK SMILES O=C([O-])C=Cc1ccc(O)c(O)c1
REMARK SMILES IDX 6 1 13 2 7 3 11 4 8 5 9 6 5 7 4 8 2 9 1 10 3 11 12 12 10 14
REMARK H PARENT 12 13 10 15
REMARK Flexibility Score: inf
ROOT
ATOM      1  C   UNL     1       8.908  15.746 -19.506  1.00  0.00    -0.022 A 
ATOM      2  C   UNL     1       9.258  14.696 -18.633  1.00  0.00     0.058 A 
ATOM      3  C   UNL     1       8.597  15.441 -20.842  1.00  0.00     0.012 A 
ATOM      4  C   UNL     1       9.271  13.369 -19.084  1.00  0.00     0.157 A 
ATOM      5  C   UNL     1       8.606  14.118 -21.290  1.00  0.00     0.051 A 
ATOM      6  C   UNL     1       8.940  13.078 -20.413  1.00  0.00     0.157 A 
ENDROOT
BRANCH   1   7
ATOM      7  C   UNL     1       8.893  17.168 -19.081  1.00  0.00     0.010 C 
ATOM      8  C   UNL     1       7.778  17.909 -19.004  1.00  0.00     0.025 C 
BRANCH   8   9
ATOM      9  C   UNL     1       7.803  19.323 -18.590  1.00  0.00     0.064 C 
ATOM     10  O   UNL     1       8.888  19.956 -18.493  1.00  0.00    -0.545 OA
ATOM     11  O   UNL     1       6.608  19.969 -18.299  1.00  0.00    -0.545 OA
ENDBRANCH   8   9
ENDBRANCH   1   7
BRANCH   4  12
ATOM     12  O   UNL     1       9.614  12.332 -18.217  1.00  0.00    -0.504 OA
ATOM     13  H   UNL     1       8.910  11.741 -17.793  1.00  0.00     0.293 HD
ENDBRANCH   4  12
BRANCH   6  14
ATOM     14  O   UNL     1       8.950  11.757 -20.856  1.00  0.00    -0.504 OA
ATOM     15  H   UNL     1       9.637  11.426 -21.522  1.00  0.00     0.293 HD
ENDBRANCH   6  14
TORSDOF 4
ENDMDL
MODEL 7
REMARK VINA RESULT:    -4.766      9.809     13.289
REMARK INTER + INTRA:          -5.724
REMARK INTER:                  -5.598
REMARK INTRA:                  -0.126
REMARK UNBOUND:                -0.123
REMARK SMILES O=C([O-])C=Cc1ccc(O)c(O)c1
REMARK SMILES IDX 6 1 13 2 7 3 11 4 8 5 9 6 5 7 4 8 2 9 1 10 3 11 12 12 10 14
REMARK H PARENT 12 13 10 15
REMARK Flexibility Score: inf
ROOT
ATOM      1  C   UNL     1       6.981   8.277 -12.941  1.00  0.00    -0.022 A 
ATOM      2  C   UNL     1       8.019   7.638 -13.648  1.00  0.00     0.058 A 
ATOM      3  C   UNL     1       6.403   9.436 -13.485  1.00  0.00     0.012 A 
ATOM      4  C   UNL     1       8.450   8.137 -14.886  1.00  0.00     0.157 A 
ATOM      5  C   UNL     1       6.831   9.931 -14.719  1.00  0.00     0.051 A 
ATOM      6  C   UNL     1       7.852   9.283 -15.424  1.00  0.00     0.157 A 
ENDROOT
BRANCH   1   7
ATOM      7  C   UNL     1       6.498   7.796 -11.622  1.00  0.00     0.010 C 
ATOM      8  C   UNL     1       6.993   8.218 -10.450  1.00  0.00     0.025 C 
BRANCH   8   9
ATOM      9  C   UNL     1       6.497   7.709  -9.160  1.00  0.00     0.064 C 
ATOM     10  O   UNL     1       6.626   6.495  -8.844  1.00  0.00    -0.545 OA
ATOM     11  O   UNL     1       5.875   8.580  -8.275  1.00  0.00    -0.545 OA
ENDBRANCH   8   9
ENDBRANCH   1   7
BRANCH   4  12
ATOM     12  O   UNL     1       9.475   7.501 -15.585  1.00  0.00    -0.504 OA
ATOM     13  H   UNL     1      10.232   7.030 -15.105  1.00  0.00     0.293 HD
ENDBRANCH   4  12
BRANCH   6  14
ATOM     14  O   UNL     1       8.281   9.774 -16.656  1.00  0.00    -0.504 OA
ATOM     15  H   UNL     1       9.263   9.930 -16.853  1.00  0.00     0.293 HD
ENDBRANCH   6  14
TORSDOF 4
ENDMDL
MODEL 8
REMARK VINA RESULT:    -4.755      2.411      3.250
REMARK INTER + INTRA:          -5.711
REMARK INTER:                  -5.582
REMARK INTRA:                  -0.129
REMARK UNBOUND:                -0.123
REMARK SMILES O=C([O-])C=Cc1ccc(O)c(O)c1
REMARK SMILES IDX 6 1 13 2 7 3 11 4 8 5 9 6 5 7 4 8 2 9 1 10 3 11 12 12 10 14
REMARK H PARENT 12 13 10 15
REMARK Flexibility Score: inf
ROOT
ATOM      1  C   UNL     1       9.005  15.991 -19.175  1.00  0.00    -0.022 A 
ATOM      2  C   UNL     1      10.132  15.476 -18.502  1.00  0.00     0.058 A 
ATOM      3  C   UNL     1       7.751  15.921 -18.547  1.00  0.00     0.012 A 
ATOM      4  C   UNL     1      10.006  14.927 -17.218  1.00  0.00     0.157 A 
ATOM      5  C   UNL     1       7.626  15.377 -17.267  1.00  0.00     0.051 A 
ATOM      6  C   UNL     1       8.751  14.881 -16.598  1.00  0.00     0.157 A 
ENDROOT
BRANCH   1   7
ATOM      7  C   UNL     1       9.084  16.570 -20.540  1.00  0.00     0.010 C 
ATOM      8  C   UNL     1       8.874  15.864 -21.660  1.00  0.00     0.025 C 
BRANCH   8   9
ATOM      9  C   UNL     1       8.974  16.469 -22.999  1.00  0.00     0.064 C 
ATOM     10  O   UNL     1       8.167  17.361 -23.375  1.00  0.00    -0.545 OA
ATOM     11  O   UNL     1       9.974  16.048 -23.866  1.00  0.00    -0.545 OA
ENDBRANCH   8   9
ENDBRANCH   1   7
BRANCH   4  12
ATOM     12  O   UNL     1      11.122  14.421 -16.554  1.00  0.00    -0.504 OA
ATOM     13  H   UNL     1      12.049  14.475 -16.958  1.00  0.00     0.293 HD
ENDBRANCH   4  12
BRANCH   6  14
ATOM     14  O   UNL     1       8.631  14.338 -15.320  1.00  0.00    -0.504 OA
ATOM     15  H   UNL     1       8.283  14.885 -14.541  1.00  0.00     0.293 HD
ENDBRANCH   6  14
TORSDOF 4
ENDMDL
MODEL 9
REMARK VINA RESULT:    -4.753      2.595      3.325
REMARK INTER + INTRA:          -5.709
REMARK INTER:                  -5.584
REMARK INTRA:                  -0.125
REMARK UNBOUND:                -0.123
REMARK SMILES O=C([O-])C=Cc1ccc(O)c(O)c1
REMARK SMILES IDX 6 1 13 2 7 3 11 4 8 5 9 6 5 7 4 8 2 9 1 10 3 11 12 12 10 14
REMARK H PARENT 12 13 10 15
REMARK Flexibility Score: inf
ROOT
ATOM      1  C   UNL     1       8.860  14.204 -20.417  1.00  0.00    -0.022 A 
ATOM      2  C   UNL     1       9.209  14.789 -19.183  1.00  0.00     0.058 A 
ATOM      3  C   UNL     1       8.872  12.805 -20.531  1.00  0.00     0.012 A 
ATOM      4  C   UNL     1       9.537  13.986 -18.081  1.00  0.00     0.157 A 
ATOM      5  C   UNL     1       9.195  12.004 -19.433  1.00  0.00     0.051 A 
ATOM      6  C   UNL     1       9.525  12.591 -18.205  1.00  0.00     0.157 A 
ENDROOT
BRANCH   1   7
ATOM      7  C   UNL     1       8.519  15.011 -21.616  1.00  0.00     0.010 C 
ATOM      8  C   UNL     1       9.277  16.017 -22.076  1.00  0.00     0.025 C 
BRANCH   8   9
ATOM      9  C   UNL     1       8.900  16.805 -23.262  1.00  0.00     0.064 C 
ATOM     10  O   UNL     1       7.816  17.447 -23.302  1.00  0.00    -0.545 OA
ATOM     11  O   UNL     1       9.752  16.839 -24.358  1.00  0.00    -0.545 OA
ENDBRANCH   8   9
ENDBRANCH   1   7
BRANCH   4  12
ATOM     12  O   UNL     1       9.877  14.566 -16.861  1.00  0.00    -0.504 OA
ATOM     13  H   UNL     1      10.784  14.415 -16.436  1.00  0.00     0.293 HD
ENDBRANCH   4  12
BRANCH   6  14
ATOM     14  O   UNL     1       9.848  11.796 -17.107  1.00  0.00    -0.504 OA
ATOM     15  H   UNL     1       9.136  11.299 -16.584  1.00  0.00     0.293 HD
ENDBRANCH   6  14
TORSDOF 4
ENDMDL
