MODEL 1
REMARK VINA RESULT:    -8.208      0.000      0.000
REMARK INTER + INTRA:         -10.177
REMARK INTER:                  -9.888
REMARK INTRA:                  -0.289
REMARK UNBOUND:                -0.289
REMARK SMILES O=c1c(O)c(-c2ccc(O)c(O)c2)oc2cc(O)cc(O)c12
REMARK SMILES IDX 5 1 3 2 2 3 1 4 22 5 20 6 19 7 17 8 16 9 15 10 14 11 6 12
REMARK SMILES IDX 7 13 8 14 9 15 13 16 11 17 10 18 12 20 4 22 21 24 18 26
REMARK H PARENT 10 19 12 21 4 23 21 25 18 27
REMARK Flexibility Score: inf
ROOT
ATOM      1  C   UNL     1     -12.770  -0.155 -26.509  1.00  0.00     0.180 A 
ATOM      2  C   UNL     1     -13.395  -0.752 -27.617  1.00  0.00     0.208 A 
ATOM      3  C   UNL     1     -14.340  -1.767 -27.400  1.00  0.00     0.238 A 
ATOM      4  O   UNL     1     -14.856  -2.336 -28.398  1.00  0.00    -0.285 OA
ATOM      5  C   UNL     1     -14.662  -2.160 -26.078  1.00  0.00     0.111 A 
ATOM      6  C   UNL     1     -15.634  -3.149 -25.740  1.00  0.00     0.134 A 
ATOM      7  C   UNL     1     -15.776  -3.549 -24.407  1.00  0.00     0.093 A 
ATOM      8  C   UNL     1     -15.028  -2.951 -23.391  1.00  0.00     0.123 A 
ATOM      9  C   UNL     1     -14.119  -1.943 -23.703  1.00  0.00     0.094 A 
ATOM     10  C   UNL     1     -13.929  -1.546 -25.029  1.00  0.00     0.146 A 
ATOM     11  O   UNL     1     -13.045  -0.590 -25.285  1.00  0.00    -0.452 OA
ENDROOT
BRANCH   1  12
ATOM     12  C   UNL     1     -11.782   0.939 -26.657  1.00  0.00     0.025 A 
ATOM     13  C   UNL     1     -12.183   2.253 -26.949  1.00  0.00     0.016 A 
ATOM     14  C   UNL     1     -11.234   3.274 -27.061  1.00  0.00     0.051 A 
ATOM     15  C   UNL     1      -9.877   3.001 -26.868  1.00  0.00     0.157 A 
ATOM     16  C   UNL     1     -10.420   0.672 -26.443  1.00  0.00     0.062 A 
ATOM     17  C   UNL     1      -9.465   1.695 -26.556  1.00  0.00     0.158 A 
BRANCH  15  18
ATOM     18  O   UNL     1      -8.953   4.039 -26.988  1.00  0.00    -0.504 OA
ATOM     19  H   UNL     1      -8.647   4.386 -27.889  1.00  0.00     0.293 HD
ENDBRANCH  15  18
BRANCH  17  20
ATOM     20  O   UNL     1      -8.115   1.417 -26.355  1.00  0.00    -0.504 OA
ATOM     21  H   UNL     1      -7.465   1.349 -27.131  1.00  0.00     0.293 HD
ENDBRANCH  17  20
ENDBRANCH   1  12
BRANCH   2  22
ATOM     22  O   UNL     1     -13.047  -0.364 -28.914  1.00  0.00    -0.502 OA
ATOM     23  H   UNL     1     -12.187   0.131 -29.121  1.00  0.00     0.293 HD
ENDBRANCH   2  22
BRANCH   6  24
ATOM     24  O   UNL     1     -16.497  -3.743 -26.666  1.00  0.00    -0.507 OA
ATOM     25  H   UNL     1     -17.377  -4.180 -26.434  1.00  0.00     0.293 HD
ENDBRANCH   6  24
BRANCH   8  26
ATOM     26  O   UNL     1     -15.187  -3.345 -22.064  1.00  0.00    -0.508 OA
ATOM     27  H   UNL     1     -14.810  -2.797 -21.299  1.00  0.00     0.293 HD
ENDBRANCH   8  26
TORSDOF 6
ENDMDL
MODEL 2
REMARK VINA RESULT:    -8.208      0.668      1.422
REMARK INTER + INTRA:         -10.176
REMARK INTER:                  -9.860
REMARK INTRA:                  -0.316
REMARK UNBOUND:                -0.289
REMARK SMILES O=c1c(O)c(-c2ccc(O)c(O)c2)oc2cc(O)cc(O)c12
REMARK SMILES IDX 5 1 3 2 2 3 1 4 22 5 20 6 19 7 17 8 16 9 15 10 14 11 6 12
REMARK SMILES IDX 7 13 8 14 9 15 13 16 11 17 10 18 12 20 4 22 21 24 18 26
REMARK H PARENT 10 19 12 21 4 23 21 25 18 27
REMARK Flexibility Score: inf
ROOT
ATOM      1  C   UNL     1     -12.750  -0.401 -26.332  1.00  0.00     0.180 A 
ATOM      2  C   UNL     1     -13.484  -0.826 -27.453  1.00  0.00     0.208 A 
ATOM      3  C   UNL     1     -14.563  -1.705 -27.267  1.00  0.00     0.238 A 
ATOM      4  O   UNL     1     -15.182  -2.124 -28.280  1.00  0.00    -0.285 OA
ATOM      5  C   UNL     1     -14.907  -2.133 -25.962  1.00  0.00     0.111 A 
ATOM      6  C   UNL     1     -16.005  -2.991 -25.653  1.00  0.00     0.134 A 
ATOM      7  C   UNL     1     -16.172  -3.455 -24.343  1.00  0.00     0.093 A 
ATOM      8  C   UNL     1     -15.318  -3.041 -23.318  1.00  0.00     0.123 A 
ATOM      9  C   UNL     1     -14.278  -2.158 -23.598  1.00  0.00     0.094 A 
ATOM     10  C   UNL     1     -14.064  -1.705 -24.903  1.00  0.00     0.146 A 
ATOM     11  O   UNL     1     -13.056  -0.873 -25.128  1.00  0.00    -0.452 OA
ENDROOT
BRANCH   1  12
ATOM     12  C   UNL     1     -11.615   0.543 -26.445  1.00  0.00     0.025 A 
ATOM     13  C   UNL     1     -10.292   0.086 -26.568  1.00  0.00     0.016 A 
ATOM     14  C   UNL     1      -9.239   0.997 -26.697  1.00  0.00     0.051 A 
ATOM     15  C   UNL     1      -9.491   2.372 -26.719  1.00  0.00     0.157 A 
ATOM     16  C   UNL     1     -11.868   1.924 -26.488  1.00  0.00     0.062 A 
ATOM     17  C   UNL     1     -10.812   2.840 -26.617  1.00  0.00     0.158 A 
BRANCH  15  18
ATOM     18  O   UNL     1      -8.421   3.255 -26.847  1.00  0.00    -0.504 OA
ATOM     19  H   UNL     1      -8.320   3.867 -27.649  1.00  0.00     0.293 HD
ENDBRANCH  15  18
BRANCH  17  20
ATOM     20  O   UNL     1     -11.072   4.208 -26.646  1.00  0.00    -0.504 OA
ATOM     21  H   UNL     1     -11.695   4.617 -27.333  1.00  0.00     0.293 HD
ENDBRANCH  17  20
ENDBRANCH   1  12
BRANCH   2  22
ATOM     22  O   UNL     1     -13.115  -0.407 -28.734  1.00  0.00    -0.502 OA
ATOM     23  H   UNL     1     -12.371   0.261 -28.894  1.00  0.00     0.293 HD
ENDBRANCH   2  22
BRANCH   6  24
ATOM     24  O   UNL     1     -16.969  -3.389 -26.584  1.00  0.00    -0.507 OA
ATOM     25  H   UNL     1     -16.992  -3.098 -27.550  1.00  0.00     0.293 HD
ENDBRANCH   6  24
BRANCH   8  26
ATOM     26  O   UNL     1     -15.500  -3.496 -22.014  1.00  0.00    -0.508 OA
ATOM     27  H   UNL     1     -15.829  -4.435 -21.820  1.00  0.00     0.293 HD
ENDBRANCH   8  26
TORSDOF 6
ENDMDL
MODEL 3
REMARK VINA RESULT:    -8.119      2.100      7.399
REMARK INTER + INTRA:         -10.069
REMARK INTER:                  -9.858
REMARK INTRA:                  -0.211
REMARK UNBOUND:                -0.289
REMARK SMILES O=c1c(O)c(-c2ccc(O)c(O)c2)oc2cc(O)cc(O)c12
REMARK SMILES IDX 5 1 3 2 2 3 1 4 22 5 20 6 19 7 17 8 16 9 15 10 14 11 6 12
REMARK SMILES IDX 7 13 8 14 9 15 13 16 11 17 10 18 12 20 4 22 21 24 18 26
REMARK H PARENT 10 19 12 21 4 23 21 25 18 27
REMARK Flexibility Score: inf
ROOT
ATOM      1  C   UNL     1     -12.479   0.289 -27.155  1.00  0.00     0.180 A 
ATOM      2  C   UNL     1     -11.519   0.371 -26.132  1.00  0.00     0.208 A 
ATOM      3  C   UNL     1     -10.491   1.322 -26.237  1.00  0.00     0.238 A 
ATOM      4  O   UNL     1      -9.604   1.353 -25.345  1.00  0.00    -0.285 OA
ATOM      5  C   UNL     1     -10.445   2.189 -27.356  1.00  0.00     0.111 A 
ATOM      6  C   UNL     1      -9.472   3.216 -27.546  1.00  0.00     0.134 A 
ATOM      7  C   UNL     1      -9.445   3.927 -28.752  1.00  0.00     0.093 A 
ATOM      8  C   UNL     1     -10.396   3.693 -29.747  1.00  0.00     0.123 A 
ATOM      9  C   UNL     1     -11.386   2.734 -29.547  1.00  0.00     0.094 A 
ATOM     10  C   UNL     1     -11.418   1.983 -28.369  1.00  0.00     0.146 A 
ATOM     11  O   UNL     1     -12.371   1.072 -28.223  1.00  0.00    -0.452 OA
ENDROOT
BRANCH   1  12
ATOM     12  C   UNL     1     -13.607  -0.669 -27.103  1.00  0.00     0.025 A 
ATOM     13  C   UNL     1     -14.932  -0.232 -26.936  1.00  0.00     0.016 A 
ATOM     14  C   UNL     1     -15.983  -1.153 -26.912  1.00  0.00     0.051 A 
ATOM     15  C   UNL     1     -15.729  -2.519 -27.069  1.00  0.00     0.157 A 
ATOM     16  C   UNL     1     -13.357  -2.040 -27.281  1.00  0.00     0.062 A 
ATOM     17  C   UNL     1     -14.411  -2.967 -27.257  1.00  0.00     0.158 A 
BRANCH  15  18
ATOM     18  O   UNL     1     -16.797  -3.415 -27.040  1.00  0.00    -0.504 OA
ATOM     19  H   UNL     1     -17.698  -3.166 -26.648  1.00  0.00     0.293 HD
ENDBRANCH  15  18
BRANCH  17  20
ATOM     20  O   UNL     1     -14.151  -4.326 -27.422  1.00  0.00    -0.504 OA
ATOM     21  H   UNL     1     -14.039  -4.946 -26.628  1.00  0.00     0.293 HD
ENDBRANCH  17  20
ENDBRANCH   1  12
BRANCH   2  22
ATOM     22  O   UNL     1     -11.571  -0.508 -25.047  1.00  0.00    -0.502 OA
ATOM     23  H   UNL     1     -12.424  -0.683 -24.529  1.00  0.00     0.293 HD
ENDBRANCH   2  22
BRANCH   6  24
ATOM     24  O   UNL     1      -8.535   3.592 -26.579  1.00  0.00    -0.507 OA
ATOM     25  H   UNL     1      -8.126   2.966 -25.901  1.00  0.00     0.293 HD
ENDBRANCH   6  24
BRANCH   8  26
ATOM     26  O   UNL     1     -10.371   4.416 -30.938  1.00  0.00    -0.508 OA
ATOM     27  H   UNL     1      -9.705   5.164 -31.091  1.00  0.00     0.293 HD
ENDBRANCH   8  26
TORSDOF 6
ENDMDL
MODEL 4
REMARK VINA RESULT:    -8.111      1.964      3.032
REMARK INTER + INTRA:         -10.059
REMARK INTER:                  -9.989
REMARK INTRA:                  -0.071
REMARK UNBOUND:                -0.289
REMARK SMILES O=c1c(O)c(-c2ccc(O)c(O)c2)oc2cc(O)cc(O)c12
REMARK SMILES IDX 5 1 3 2 2 3 1 4 22 5 20 6 19 7 17 8 16 9 15 10 14 11 6 12
REMARK SMILES IDX 7 13 8 14 9 15 13 16 11 17 10 18 12 20 4 22 21 24 18 26
REMARK H PARENT 10 19 12 21 4 23 21 25 18 27
REMARK Flexibility Score: inf
ROOT
ATOM      1  C   UNL     1     -12.929   0.115 -27.027  1.00  0.00     0.180 A 
ATOM      2  C   UNL     1     -12.573  -1.059 -26.342  1.00  0.00     0.208 A 
ATOM      3  C   UNL     1     -13.553  -2.038 -26.113  1.00  0.00     0.238 A 
ATOM      4  O   UNL     1     -13.241  -3.062 -25.450  1.00  0.00    -0.285 OA
ATOM      5  C   UNL     1     -14.872  -1.839 -26.588  1.00  0.00     0.111 A 
ATOM      6  C   UNL     1     -15.935  -2.781 -26.448  1.00  0.00     0.134 A 
ATOM      7  C   UNL     1     -17.230  -2.424 -26.840  1.00  0.00     0.093 A 
ATOM      8  C   UNL     1     -17.489  -1.183 -27.426  1.00  0.00     0.123 A 
ATOM      9  C   UNL     1     -16.448  -0.279 -27.621  1.00  0.00     0.094 A 
ATOM     10  C   UNL     1     -15.151  -0.592 -27.208  1.00  0.00     0.146 A 
ATOM     11  O   UNL     1     -14.189   0.301 -27.403  1.00  0.00    -0.452 OA
ENDROOT
BRANCH   1  12
ATOM     12  C   UNL     1     -11.946   1.181 -27.328  1.00  0.00     0.025 A 
ATOM     13  C   UNL     1     -11.208   1.805 -26.308  1.00  0.00     0.016 A 
ATOM     14  C   UNL     1     -10.269   2.793 -26.618  1.00  0.00     0.051 A 
ATOM     15  C   UNL     1     -10.040   3.160 -27.947  1.00  0.00     0.157 A 
ATOM     16  C   UNL     1     -11.699   1.537 -28.664  1.00  0.00     0.062 A 
ATOM     17  C   UNL     1     -10.757   2.528 -28.978  1.00  0.00     0.158 A 
BRANCH  15  18
ATOM     18  O   UNL     1      -9.098   4.149 -28.226  1.00  0.00    -0.504 OA
ATOM     19  H   UNL     1      -8.988   4.543 -29.153  1.00  0.00     0.293 HD
ENDBRANCH  15  18
BRANCH  17  20
ATOM     20  O   UNL     1     -10.530   2.883 -30.306  1.00  0.00    -0.504 OA
ATOM     21  H   UNL     1     -10.973   3.694 -30.723  1.00  0.00     0.293 HD
ENDBRANCH  17  20
ENDBRANCH   1  12
BRANCH   2  22
ATOM     22  O   UNL     1     -11.270  -1.226 -25.863  1.00  0.00    -0.502 OA
ATOM     23  H   UNL     1     -10.583  -1.794 -26.344  1.00  0.00     0.293 HD
ENDBRANCH   2  22
BRANCH   6  24
ATOM     24  O   UNL     1     -15.767  -4.080 -25.960  1.00  0.00    -0.507 OA
ATOM     25  H   UNL     1     -16.235  -4.896 -26.324  1.00  0.00     0.293 HD
ENDBRANCH   6  24
BRANCH   8  26
ATOM     26  O   UNL     1     -18.779  -0.841 -27.827  1.00  0.00    -0.508 OA
ATOM     27  H   UNL     1     -19.177   0.067 -27.618  1.00  0.00     0.293 HD
ENDBRANCH   8  26
TORSDOF 6
ENDMDL
MODEL 5
REMARK VINA RESULT:    -7.833      1.586      6.749
REMARK INTER + INTRA:          -9.725
REMARK INTER:                  -9.444
REMARK INTRA:                  -0.281
REMARK UNBOUND:                -0.289
REMARK SMILES O=c1c(O)c(-c2ccc(O)c(O)c2)oc2cc(O)cc(O)c12
REMARK SMILES IDX 5 1 3 2 2 3 1 4 22 5 20 6 19 7 17 8 16 9 15 10 14 11 6 12
REMARK SMILES IDX 7 13 8 14 9 15 13 16 11 17 10 18 12 20 4 22 21 24 18 26
REMARK H PARENT 10 19 12 21 4 23 21 25 18 27
REMARK Flexibility Score: inf
ROOT
ATOM      1  C   UNL     1     -13.596  -1.873 -25.518  1.00  0.00     0.180 A 
ATOM      2  C   UNL     1     -14.197  -1.504 -26.734  1.00  0.00     0.208 A 
ATOM      3  C   UNL     1     -13.556  -0.558 -27.551  1.00  0.00     0.238 A 
ATOM      4  O   UNL     1     -14.126  -0.191 -28.611  1.00  0.00    -0.285 OA
ATOM      5  C   UNL     1     -12.315  -0.006 -27.149  1.00  0.00     0.111 A 
ATOM      6  C   UNL     1     -11.558   0.930 -27.917  1.00  0.00     0.134 A 
ATOM      7  C   UNL     1     -10.410   1.507 -27.363  1.00  0.00     0.093 A 
ATOM      8  C   UNL     1      -9.955   1.135 -26.096  1.00  0.00     0.123 A 
ATOM      9  C   UNL     1     -10.654   0.178 -25.364  1.00  0.00     0.094 A 
ATOM     10  C   UNL     1     -11.823  -0.390 -25.874  1.00  0.00     0.146 A 
ATOM     11  O   UNL     1     -12.465  -1.289 -25.139  1.00  0.00    -0.452 OA
ENDROOT
BRANCH   1  12
ATOM     12  C   UNL     1     -14.198  -2.882 -24.617  1.00  0.00     0.025 A 
ATOM     13  C   UNL     1     -14.919  -2.503 -23.472  1.00  0.00     0.016 A 
ATOM     14  C   UNL     1     -15.499  -3.472 -22.648  1.00  0.00     0.051 A 
ATOM     15  C   UNL     1     -15.380  -4.829 -22.961  1.00  0.00     0.157 A 
ATOM     16  C   UNL     1     -14.098  -4.245 -24.940  1.00  0.00     0.062 A 
ATOM     17  C   UNL     1     -14.678  -5.220 -24.114  1.00  0.00     0.158 A 
BRANCH  15  18
ATOM     18  O   UNL     1     -15.967  -5.773 -22.120  1.00  0.00    -0.504 OA
ATOM     19  H   UNL     1     -15.705  -6.752 -22.143  1.00  0.00     0.293 HD
ENDBRANCH  15  18
BRANCH  17  20
ATOM     20  O   UNL     1     -14.562  -6.570 -24.438  1.00  0.00    -0.504 OA
ATOM     21  H   UNL     1     -15.009  -7.291 -23.881  1.00  0.00     0.293 HD
ENDBRANCH  17  20
ENDBRANCH   1  12
BRANCH   2  22
ATOM     22  O   UNL     1     -15.432  -2.045 -27.101  1.00  0.00    -0.502 OA
ATOM     23  H   UNL     1     -16.287  -1.836 -26.599  1.00  0.00     0.293 HD
ENDBRANCH   2  22
BRANCH   6  24
ATOM     24  O   UNL     1     -11.874   1.301 -29.227  1.00  0.00    -0.507 OA
ATOM     25  H   UNL     1     -11.780   2.234 -29.599  1.00  0.00     0.293 HD
ENDBRANCH   6  24
BRANCH   8  26
ATOM     26  O   UNL     1      -8.802   1.703 -25.559  1.00  0.00    -0.508 OA
ATOM     27  H   UNL     1      -8.329   1.292 -24.762  1.00  0.00     0.293 HD
ENDBRANCH   8  26
TORSDOF 6
ENDMDL
MODEL 6
REMARK VINA RESULT:    -7.593      2.037      7.135
REMARK INTER + INTRA:          -9.436
REMARK INTER:                  -9.221
REMARK INTRA:                  -0.215
REMARK UNBOUND:                -0.289
REMARK SMILES O=c1c(O)c(-c2ccc(O)c(O)c2)oc2cc(O)cc(O)c12
REMARK SMILES IDX 5 1 3 2 2 3 1 4 22 5 20 6 19 7 17 8 16 9 15 10 14 11 6 12
REMARK SMILES IDX 7 13 8 14 9 15 13 16 11 17 10 18 12 20 4 22 21 24 18 26
REMARK H PARENT 10 19 12 21 4 23 21 25 18 27
REMARK Flexibility Score: inf
ROOT
ATOM      1  C   UNL     1     -14.057  -0.985 -26.545  1.00  0.00     0.180 A 
ATOM      2  C   UNL     1     -12.921  -1.626 -26.020  1.00  0.00     0.208 A 
ATOM      3  C   UNL     1     -11.656  -1.055 -26.236  1.00  0.00     0.238 A 
ATOM      4  O   UNL     1     -10.639  -1.662 -25.811  1.00  0.00    -0.285 OA
ATOM      5  C   UNL     1     -11.545   0.158 -26.958  1.00  0.00     0.111 A 
ATOM      6  C   UNL     1     -10.318   0.847 -27.202  1.00  0.00     0.134 A 
ATOM      7  C   UNL     1     -10.311   1.968 -28.039  1.00  0.00     0.093 A 
ATOM      8  C   UNL     1     -11.495   2.464 -28.590  1.00  0.00     0.123 A 
ATOM      9  C   UNL     1     -12.705   1.835 -28.310  1.00  0.00     0.094 A 
ATOM     10  C   UNL     1     -12.741   0.692 -27.507  1.00  0.00     0.146 A 
ATOM     11  O   UNL     1     -13.913   0.116 -27.274  1.00  0.00    -0.452 OA
ENDROOT
BRANCH   1  12
ATOM     12  C   UNL     1     -15.425  -1.512 -26.338  1.00  0.00     0.025 A 
ATOM     13  C   UNL     1     -16.150  -2.100 -27.389  1.00  0.00     0.016 A 
ATOM     14  C   UNL     1     -17.431  -2.612 -27.164  1.00  0.00     0.051 A 
ATOM     15  C   UNL     1     -18.000  -2.559 -25.888  1.00  0.00     0.157 A 
ATOM     16  C   UNL     1     -15.991  -1.479 -25.053  1.00  0.00     0.062 A 
ATOM     17  C   UNL     1     -17.277  -1.992 -24.825  1.00  0.00     0.158 A 
BRANCH  15  18
ATOM     18  O   UNL     1     -19.280  -3.076 -25.695  1.00  0.00    -0.504 OA
ATOM     19  H   UNL     1     -19.630  -3.862 -26.230  1.00  0.00     0.293 HD
ENDBRANCH  15  18
BRANCH  17  20
ATOM     20  O   UNL     1     -17.835  -1.941 -23.549  1.00  0.00    -0.504 OA
ATOM     21  H   UNL     1     -17.309  -2.219 -22.728  1.00  0.00     0.293 HD
ENDBRANCH  17  20
ENDBRANCH   1  12
BRANCH   2  22
ATOM     22  O   UNL     1     -13.052  -2.833 -25.328  1.00  0.00    -0.502 OA
ATOM     23  H   UNL     1     -12.880  -2.910 -24.333  1.00  0.00     0.293 HD
ENDBRANCH   2  22
BRANCH   6  24
ATOM     24  O   UNL     1      -9.095   0.489 -26.628  1.00  0.00    -0.507 OA
ATOM     25  H   UNL     1      -8.194   0.812 -26.946  1.00  0.00     0.293 HD
ENDBRANCH   6  24
BRANCH   8  26
ATOM     26  O   UNL     1     -11.481   3.591 -29.410  1.00  0.00    -0.508 OA
ATOM     27  H   UNL     1     -12.339   4.030 -29.723  1.00  0.00     0.293 HD
ENDBRANCH   8  26
TORSDOF 6
ENDMDL
MODEL 7
REMARK VINA RESULT:    -7.320      1.827      2.254
REMARK INTER + INTRA:          -9.106
REMARK INTER:                  -9.256
REMARK INTRA:                   0.151
REMARK UNBOUND:                -0.289
REMARK SMILES O=c1c(O)c(-c2ccc(O)c(O)c2)oc2cc(O)cc(O)c12
REMARK SMILES IDX 5 1 3 2 2 3 1 4 22 5 20 6 19 7 17 8 16 9 15 10 14 11 6 12
REMARK SMILES IDX 7 13 8 14 9 15 13 16 11 17 10 18 12 20 4 22 21 24 18 26
REMARK H PARENT 10 19 12 21 4 23 21 25 18 27
REMARK Flexibility Score: inf
ROOT
ATOM      1  C   UNL     1     -13.325  -1.265 -26.178  1.00  0.00     0.180 A 
ATOM      2  C   UNL     1     -14.499  -0.878 -26.848  1.00  0.00     0.208 A 
ATOM      3  C   UNL     1     -15.609  -1.738 -26.829  1.00  0.00     0.238 A 
ATOM      4  O   UNL     1     -16.638  -1.411 -27.476  1.00  0.00    -0.285 OA
ATOM      5  C   UNL     1     -15.537  -2.966 -26.127  1.00  0.00     0.111 A 
ATOM      6  C   UNL     1     -16.613  -3.896 -26.008  1.00  0.00     0.134 A 
ATOM      7  C   UNL     1     -16.388  -5.138 -25.401  1.00  0.00     0.093 A 
ATOM      8  C   UNL     1     -15.145  -5.457 -24.852  1.00  0.00     0.123 A 
ATOM      9  C   UNL     1     -14.105  -4.532 -24.910  1.00  0.00     0.094 A 
ATOM     10  C   UNL     1     -14.287  -3.299 -25.541  1.00  0.00     0.146 A 
ATOM     11  O   UNL     1     -13.267  -2.451 -25.584  1.00  0.00    -0.452 OA
ENDROOT
BRANCH   1  12
ATOM     12  C   UNL     1     -12.124  -0.401 -26.132  1.00  0.00     0.025 A 
ATOM     13  C   UNL     1     -11.365  -0.264 -24.957  1.00  0.00     0.016 A 
ATOM     14  C   UNL     1     -10.221   0.540 -24.944  1.00  0.00     0.051 A 
ATOM     15  C   UNL     1      -9.810   1.204 -26.103  1.00  0.00     0.157 A 
ATOM     16  C   UNL     1     -11.697   0.252 -27.300  1.00  0.00     0.062 A 
ATOM     17  C   UNL     1     -10.549   1.059 -27.289  1.00  0.00     0.158 A 
BRANCH  15  18
ATOM     18  O   UNL     1      -8.666   2.000 -26.059  1.00  0.00    -0.504 OA
ATOM     19  H   UNL     1      -7.842   1.729 -25.535  1.00  0.00     0.293 HD
ENDBRANCH  15  18
BRANCH  17  20
ATOM     20  O   UNL     1     -10.141   1.713 -28.450  1.00  0.00    -0.504 OA
ATOM     21  H   UNL     1     -10.609   2.548 -28.782  1.00  0.00     0.293 HD
ENDBRANCH  17  20
ENDBRANCH   1  12
BRANCH   2  22
ATOM     22  O   UNL     1     -14.542   0.328 -27.552  1.00  0.00    -0.502 OA
ATOM     23  H   UNL     1     -14.977   0.411 -28.463  1.00  0.00     0.293 HD
ENDBRANCH   2  22
BRANCH   6  24
ATOM     24  O   UNL     1     -17.917  -3.640 -26.440  1.00  0.00    -0.507 OA
ATOM     25  H   UNL     1     -18.158  -3.044 -27.218  1.00  0.00     0.293 HD
ENDBRANCH   6  24
BRANCH   8  26
ATOM     26  O   UNL     1     -14.934  -6.689 -24.236  1.00  0.00    -0.508 OA
ATOM     27  H   UNL     1     -14.862  -6.773 -23.228  1.00  0.00     0.293 HD
ENDBRANCH   8  26
TORSDOF 6
ENDMDL
MODEL 8
REMARK VINA RESULT:    -7.274      2.175      6.835
REMARK INTER + INTRA:          -9.051
REMARK INTER:                  -8.720
REMARK INTRA:                  -0.331
REMARK UNBOUND:                -0.289
REMARK SMILES O=c1c(O)c(-c2ccc(O)c(O)c2)oc2cc(O)cc(O)c12
REMARK SMILES IDX 5 1 3 2 2 3 1 4 22 5 20 6 19 7 17 8 16 9 15 10 14 11 6 12
REMARK SMILES IDX 7 13 8 14 9 15 13 16 11 17 10 18 12 20 4 22 21 24 18 26
REMARK H PARENT 10 19 12 21 4 23 21 25 18 27
REMARK Flexibility Score: inf
ROOT
ATOM      1  C   UNL     1     -14.203  -1.791 -26.984  1.00  0.00     0.180 A 
ATOM      2  C   UNL     1     -13.904  -1.143 -28.195  1.00  0.00     0.208 A 
ATOM      3  C   UNL     1     -12.812  -0.261 -28.244  1.00  0.00     0.238 A 
ATOM      4  O   UNL     1     -12.583   0.358 -29.316  1.00  0.00    -0.285 OA
ATOM      5  C   UNL     1     -12.023  -0.052 -27.087  1.00  0.00     0.111 A 
ATOM      6  C   UNL     1     -10.870   0.788 -27.032  1.00  0.00     0.134 A 
ATOM      7  C   UNL     1     -10.244   1.022 -25.803  1.00  0.00     0.093 A 
ATOM      8  C   UNL     1     -10.690   0.396 -24.636  1.00  0.00     0.123 A 
ATOM      9  C   UNL     1     -11.778  -0.472 -24.689  1.00  0.00     0.094 A 
ATOM     10  C   UNL     1     -12.446  -0.698 -25.895  1.00  0.00     0.146 A 
ATOM     11  O   UNL     1     -13.484  -1.524 -25.900  1.00  0.00    -0.452 OA
ENDROOT
BRANCH   1  12
ATOM     12  C   UNL     1     -15.322  -2.753 -26.862  1.00  0.00     0.025 A 
ATOM     13  C   UNL     1     -15.137  -4.125 -27.102  1.00  0.00     0.016 A 
ATOM     14  C   UNL     1     -16.203  -5.018 -26.957  1.00  0.00     0.051 A 
ATOM     15  C   UNL     1     -17.462  -4.559 -26.558  1.00  0.00     0.157 A 
ATOM     16  C   UNL     1     -16.582  -2.297 -26.441  1.00  0.00     0.062 A 
ATOM     17  C   UNL     1     -17.654  -3.192 -26.295  1.00  0.00     0.158 A 
BRANCH  15  18
ATOM     18  O   UNL     1     -18.506  -5.473 -26.423  1.00  0.00    -0.504 OA
ATOM     19  H   UNL     1     -18.797  -6.073 -27.185  1.00  0.00     0.293 HD
ENDBRANCH  15  18
BRANCH  17  20
ATOM     20  O   UNL     1     -18.903  -2.727 -25.890  1.00  0.00    -0.504 OA
ATOM     21  H   UNL     1     -19.101  -1.736 -25.806  1.00  0.00     0.293 HD
ENDBRANCH  17  20
ENDBRANCH   1  12
BRANCH   2  22
ATOM     22  O   UNL     1     -14.708  -1.347 -29.319  1.00  0.00    -0.502 OA
ATOM     23  H   UNL     1     -14.340  -1.327 -30.263  1.00  0.00     0.293 HD
ENDBRANCH   2  22
BRANCH   6  24
ATOM     24  O   UNL     1     -10.289   1.388 -28.153  1.00  0.00    -0.507 OA
ATOM     25  H   UNL     1     -10.030   0.900 -28.998  1.00  0.00     0.293 HD
ENDBRANCH   6  24
BRANCH   8  26
ATOM     26  O   UNL     1     -10.051   0.623 -23.419  1.00  0.00    -0.508 OA
ATOM     27  H   UNL     1     -10.309   0.113 -22.582  1.00  0.00     0.293 HD
ENDBRANCH   8  26
TORSDOF 6
ENDMDL
MODEL 9
REMARK VINA RESULT:    -7.076      1.984      4.169
REMARK INTER + INTRA:          -8.813
REMARK INTER:                  -8.500
REMARK INTRA:                  -0.313
REMARK UNBOUND:                -0.289
REMARK SMILES O=c1c(O)c(-c2ccc(O)c(O)c2)oc2cc(O)cc(O)c12
REMARK SMILES IDX 5 1 3 2 2 3 1 4 22 5 20 6 19 7 17 8 16 9 15 10 14 11 6 12
REMARK SMILES IDX 7 13 8 14 9 15 13 16 11 17 10 18 12 20 4 22 21 24 18 26
REMARK H PARENT 10 19 12 21 4 23 21 25 18 27
REMARK Flexibility Score: inf
ROOT
ATOM      1  C   UNL     1     -14.055  -2.425 -25.488  1.00  0.00     0.180 A 
ATOM      2  C   UNL     1     -14.396  -2.504 -24.127  1.00  0.00     0.208 A 
ATOM      3  C   UNL     1     -15.368  -3.433 -23.721  1.00  0.00     0.238 A 
ATOM      4  O   UNL     1     -15.708  -3.461 -22.510  1.00  0.00    -0.285 OA
ATOM      5  C   UNL     1     -15.975  -4.282 -24.678  1.00  0.00     0.111 A 
ATOM      6  C   UNL     1     -16.942  -5.286 -24.374  1.00  0.00     0.134 A 
ATOM      7  C   UNL     1     -17.571  -5.978 -25.416  1.00  0.00     0.093 A 
ATOM      8  C   UNL     1     -17.221  -5.747 -26.748  1.00  0.00     0.123 A 
ATOM      9  C   UNL     1     -16.235  -4.811 -27.052  1.00  0.00     0.094 A 
ATOM     10  C   UNL     1     -15.615  -4.079 -26.037  1.00  0.00     0.146 A 
ATOM     11  O   UNL     1     -14.689  -3.189 -26.371  1.00  0.00    -0.452 OA
ENDROOT
BRANCH   1  12
ATOM     12  C   UNL     1     -13.022  -1.490 -25.989  1.00  0.00     0.025 A 
ATOM     13  C   UNL     1     -11.653  -1.792 -25.892  1.00  0.00     0.016 A 
ATOM     14  C   UNL     1     -10.696  -0.904 -26.393  1.00  0.00     0.051 A 
ATOM     15  C   UNL     1     -11.091   0.289 -27.007  1.00  0.00     0.157 A 
ATOM     16  C   UNL     1     -13.416  -0.301 -26.625  1.00  0.00     0.062 A 
ATOM     17  C   UNL     1     -12.457   0.592 -27.127  1.00  0.00     0.158 A 
BRANCH  15  18
ATOM     18  O   UNL     1     -10.114   1.155 -27.495  1.00  0.00    -0.504 OA
ATOM     19  H   UNL     1     -10.051   2.121 -27.194  1.00  0.00     0.293 HD
ENDBRANCH  15  18
BRANCH  17  20
ATOM     20  O   UNL     1     -12.859   1.775 -27.746  1.00  0.00    -0.504 OA
ATOM     21  H   UNL     1     -13.502   1.773 -28.530  1.00  0.00     0.293 HD
ENDBRANCH  17  20
ENDBRANCH   1  12
BRANCH   2  22
ATOM     22  O   UNL     1     -13.800  -1.643 -23.202  1.00  0.00    -0.502 OA
ATOM     23  H   UNL     1     -13.151  -1.968 -22.496  1.00  0.00     0.293 HD
ENDBRANCH   2  22
BRANCH   6  24
ATOM     24  O   UNL     1     -17.297  -5.659 -23.074  1.00  0.00    -0.507 OA
ATOM     25  H   UNL     1     -18.114  -6.201 -22.834  1.00  0.00     0.293 HD
ENDBRANCH   6  24
BRANCH   8  26
ATOM     26  O   UNL     1     -17.840  -6.451 -27.778  1.00  0.00    -0.508 OA
ATOM     27  H   UNL     1     -18.776  -6.828 -27.676  1.00  0.00     0.293 HD
ENDBRANCH   8  26
TORSDOF 6
ENDMDL
