MODEL 1
REMARK VINA RESULT:    -2.625      0.000      0.000
REMARK INTER + INTRA:          -4.774
REMARK INTER:                  -4.159
REMARK INTRA:                  -0.615
REMARK UNBOUND:                -0.615
REMARK SMILES CCCCCCCCCCCC(=O)[O-]
REMARK SMILES IDX 7 1 8 2 9 3 10 4 11 5 12 6 13 7 14 8 6 9 5 10 4 11 3 12 2 13
REMARK SMILES IDX 1 14
REMARK H PARENT
REMARK Flexibility Score: inf
ROOT
ATOM      1  C   UNL     1      -6.409  20.702  14.444  1.00  0.00     0.000 C 
ENDROOT
BRANCH   1   2
ATOM      2  C   UNL     1      -7.095  21.303  15.681  1.00  0.00     0.000 C 
BRANCH   2   3
ATOM      3  C   UNL     1      -8.440  20.612  15.951  1.00  0.00     0.000 C 
BRANCH   3   4
ATOM      4  C   UNL     1      -8.857  20.676  17.432  1.00  0.00     0.006 C 
BRANCH   4   5
ATOM      5  C   UNL     1      -7.792  21.274  18.365  1.00  0.00     0.053 C 
BRANCH   5   6
ATOM      6  C   UNL     1      -8.390  21.826  19.622  1.00  0.00     0.041 C 
ATOM      7  O   UNL     1      -8.666  21.060  20.582  1.00  0.00    -0.550 OA
ATOM      8  O   UNL     1      -8.676  23.182  19.719  1.00  0.00    -0.550 OA
ENDBRANCH   5   6
ENDBRANCH   4   5
ENDBRANCH   3   4
ENDBRANCH   2   3
ENDBRANCH   1   2
BRANCH   1   9
ATOM      9  C   UNL     1      -4.910  20.437  14.664  1.00  0.00     0.000 C 
BRANCH   9  10
ATOM     10  C   UNL     1      -4.559  20.229  16.146  1.00  0.00    -0.000 C 
BRANCH  10  11
ATOM     11  C   UNL     1      -3.076  19.875  16.367  1.00  0.00    -0.000 C 
BRANCH  11  12
ATOM     12  C   UNL     1      -2.555  20.105  17.797  1.00  0.00    -0.000 C 
BRANCH  12  13
ATOM     13  C   UNL     1      -1.166  20.761  17.829  1.00  0.00    -0.003 C 
ATOM     14  C   UNL     1      -0.767  21.273  16.448  1.00  0.00     0.004 C 
ENDBRANCH  12  13
ENDBRANCH  11  12
ENDBRANCH  10  11
ENDBRANCH   9  10
ENDBRANCH   1   9
TORSDOF 10
ENDMDL
MODEL 2
REMARK VINA RESULT:    -2.082     11.914     15.641
REMARK INTER + INTRA:          -3.915
REMARK INTER:                  -3.385
REMARK INTRA:                  -0.530
REMARK UNBOUND:                -0.615
REMARK SMILES CCCCCCCCCCCC(=O)[O-]
REMARK SMILES IDX 7 1 8 2 9 3 10 4 11 5 12 6 13 7 14 8 6 9 5 10 4 11 3 12 2 13
REMARK SMILES IDX 1 14
REMARK H PARENT
REMARK Flexibility Score: inf
ROOT
ATOM      1  C   UNL     1       9.603  21.461  12.927  1.00  0.00     0.000 C 
ENDROOT
BRANCH   1   2
ATOM      2  C   UNL     1      10.330  21.549  14.278  1.00  0.00     0.000 C 
BRANCH   2   3
ATOM      3  C   UNL     1       9.407  21.112  15.426  1.00  0.00     0.000 C 
BRANCH   3   4
ATOM      4  C   UNL     1       7.976  20.795  14.954  1.00  0.00     0.006 C 
BRANCH   4   5
ATOM      5  C   UNL     1       7.053  20.251  16.055  1.00  0.00     0.053 C 
BRANCH   5   6
ATOM      6  C   UNL     1       5.620  20.622  15.823  1.00  0.00     0.041 C 
ATOM      7  O   UNL     1       5.108  21.590  16.442  1.00  0.00    -0.550 OA
ATOM      8  O   UNL     1       4.841  19.875  14.948  1.00  0.00    -0.550 OA
ENDBRANCH   5   6
ENDBRANCH   4   5
ENDBRANCH   3   4
ENDBRANCH   2   3
ENDBRANCH   1   2
BRANCH   1   9
ATOM      9  C   UNL     1       9.913  20.161  12.167  1.00  0.00     0.000 C 
BRANCH   9  10
ATOM     10  C   UNL     1      10.528  20.419  10.783  1.00  0.00    -0.000 C 
BRANCH  10  11
ATOM     11  C   UNL     1      11.112  21.837  10.641  1.00  0.00    -0.000 C 
BRANCH  11  12
ATOM     12  C   UNL     1      10.893  22.500   9.269  1.00  0.00    -0.000 C 
BRANCH  12  13
ATOM     13  C   UNL     1      11.086  24.023   9.302  1.00  0.00    -0.003 C 
ATOM     14  C   UNL     1      10.691  24.598  10.660  1.00  0.00     0.004 C 
ENDBRANCH  12  13
ENDBRANCH  11  12
ENDBRANCH  10  11
ENDBRANCH   9  10
ENDBRANCH   1   9
TORSDOF 10
ENDMDL
MODEL 3
REMARK VINA RESULT:    -1.522     14.920     17.198
REMARK INTER + INTRA:          -3.026
REMARK INTER:                  -2.484
REMARK INTRA:                  -0.542
REMARK UNBOUND:                -0.615
REMARK SMILES CCCCCCCCCCCC(=O)[O-]
REMARK SMILES IDX 7 1 8 2 9 3 10 4 11 5 12 6 13 7 14 8 6 9 5 10 4 11 3 12 2 13
REMARK SMILES IDX 1 14
REMARK H PARENT
REMARK Flexibility Score: inf
ROOT
ATOM      1  C   UNL     1      10.193  24.848  11.053  1.00  0.00     0.000 C 
ENDROOT
BRANCH   1   2
ATOM      2  C   UNL     1      11.125  23.905  11.830  1.00  0.00     0.000 C 
BRANCH   2   3
ATOM      3  C   UNL     1      10.436  23.375  13.096  1.00  0.00     0.000 C 
BRANCH   3   4
ATOM      4  C   UNL     1      10.589  21.851  13.265  1.00  0.00     0.006 C 
BRANCH   4   5
ATOM      5  C   UNL     1       9.981  21.295  14.563  1.00  0.00     0.053 C 
BRANCH   5   6
ATOM      6  C   UNL     1       8.617  20.716  14.342  1.00  0.00     0.041 C 
ATOM      7  O   UNL     1       8.270  20.334  13.195  1.00  0.00    -0.550 OA
ATOM      8  O   UNL     1       7.719  20.632  15.398  1.00  0.00    -0.550 OA
ENDBRANCH   5   6
ENDBRANCH   4   5
ENDBRANCH   3   4
ENDBRANCH   2   3
ENDBRANCH   1   2
BRANCH   1   9
ATOM      9  C   UNL     1       9.872  24.336   9.639  1.00  0.00     0.000 C 
BRANCH   9  10
ATOM     10  C   UNL     1      11.124  23.858   8.886  1.00  0.00    -0.000 C 
BRANCH  10  11
ATOM     11  C   UNL     1      11.125  22.339   8.629  1.00  0.00    -0.000 C 
BRANCH  11  12
ATOM     12  C   UNL     1      10.744  21.470   9.841  1.00  0.00    -0.000 C 
BRANCH  12  13
ATOM     13  C   UNL     1       9.436  20.692   9.632  1.00  0.00    -0.003 C 
ATOM     14  C   UNL     1       9.232  20.344   8.160  1.00  0.00     0.004 C 
ENDBRANCH  12  13
ENDBRANCH  11  12
ENDBRANCH  10  11
ENDBRANCH   9  10
ENDBRANCH   1   9
TORSDOF 10
ENDMDL
MODEL 4
REMARK VINA RESULT:    -1.424     12.423     15.968
REMARK INTER + INTRA:          -2.871
REMARK INTER:                  -2.583
REMARK INTRA:                  -0.288
REMARK UNBOUND:                -0.615
REMARK SMILES CCCCCCCCCCCC(=O)[O-]
REMARK SMILES IDX 7 1 8 2 9 3 10 4 11 5 12 6 13 7 14 8 6 9 5 10 4 11 3 12 2 13
REMARK SMILES IDX 1 14
REMARK H PARENT
REMARK Flexibility Score: inf
ROOT
ATOM      1  C   UNL     1      10.374  20.828  11.251  1.00  0.00     0.000 C 
ENDROOT
BRANCH   1   2
ATOM      2  C   UNL     1       9.657  19.875  12.220  1.00  0.00     0.000 C 
BRANCH   2   3
ATOM      3  C   UNL     1       8.566  20.615  13.008  1.00  0.00     0.000 C 
BRANCH   3   4
ATOM      4  C   UNL     1       7.215  19.875  12.997  1.00  0.00     0.006 C 
BRANCH   4   5
ATOM      5  C   UNL     1       6.047  20.683  13.584  1.00  0.00     0.053 C 
BRANCH   5   6
ATOM      6  C   UNL     1       5.983  20.577  15.077  1.00  0.00     0.041 C 
ATOM      7  O   UNL     1       4.909  20.244  15.643  1.00  0.00    -0.550 OA
ATOM      8  O   UNL     1       7.100  20.881  15.844  1.00  0.00    -0.550 OA
ENDBRANCH   5   6
ENDBRANCH   4   5
ENDBRANCH   3   4
ENDBRANCH   2   3
ENDBRANCH   1   2
BRANCH   1   9
ATOM      9  C   UNL     1      10.985  20.098  10.043  1.00  0.00     0.000 C 
BRANCH   9  10
ATOM     10  C   UNL     1      11.122  21.008   8.811  1.00  0.00    -0.000 C 
BRANCH  10  11
ATOM     11  C   UNL     1      10.297  22.304   8.928  1.00  0.00    -0.000 C 
BRANCH  11  12
ATOM     12  C   UNL     1      11.123  23.596   9.065  1.00  0.00    -0.000 C 
BRANCH  12  13
ATOM     13  C   UNL     1      10.295  24.785   9.572  1.00  0.00    -0.003 C 
ATOM     14  C   UNL     1       9.267  25.222   8.531  1.00  0.00     0.004 C 
ENDBRANCH  12  13
ENDBRANCH  11  12
ENDBRANCH  10  11
ENDBRANCH   9  10
ENDBRANCH   1   9
TORSDOF 10
ENDMDL
MODEL 5
REMARK VINA RESULT:    -1.258     13.201     15.315
REMARK INTER + INTRA:          -2.608
REMARK INTER:                  -1.763
REMARK INTRA:                  -0.845
REMARK UNBOUND:                -0.615
REMARK SMILES CCCCCCCCCCCC(=O)[O-]
REMARK SMILES IDX 7 1 8 2 9 3 10 4 11 5 12 6 13 7 14 8 6 9 5 10 4 11 3 12 2 13
REMARK SMILES IDX 1 14
REMARK H PARENT
REMARK Flexibility Score: inf
ROOT
ATOM      1  C   UNL     1       5.743  20.841  13.774  1.00  0.00     0.000 C 
ENDROOT
BRANCH   1   2
ATOM      2  C   UNL     1       5.261  19.920  12.643  1.00  0.00     0.000 C 
BRANCH   2   3
ATOM      3  C   UNL     1       6.269  19.902  11.485  1.00  0.00     0.000 C 
BRANCH   3   4
ATOM      4  C   UNL     1       7.732  19.875  11.967  1.00  0.00     0.006 C 
BRANCH   4   5
ATOM      5  C   UNL     1       8.764  20.188  10.872  1.00  0.00     0.053 C 
BRANCH   5   6
ATOM      6  C   UNL     1      10.017  20.786  11.434  1.00  0.00     0.041 C 
ATOM      7  O   UNL     1      11.106  20.159  11.364  1.00  0.00    -0.550 OA
ATOM      8  O   UNL     1       9.974  22.022  12.067  1.00  0.00    -0.550 OA
ENDBRANCH   5   6
ENDBRANCH   4   5
ENDBRANCH   3   4
ENDBRANCH   2   3
ENDBRANCH   1   2
BRANCH   1   9
ATOM      9  C   UNL     1       5.750  20.145  15.146  1.00  0.00     0.000 C 
BRANCH   9  10
ATOM     10  C   UNL     1       7.170  19.952  15.702  1.00  0.00    -0.000 C 
BRANCH  10  11
ATOM     11  C   UNL     1       8.107  21.131  15.379  1.00  0.00    -0.000 C 
BRANCH  11  12
ATOM     12  C   UNL     1       9.591  20.760  15.209  1.00  0.00    -0.000 C 
BRANCH  12  13
ATOM     13  C   UNL     1      10.524  21.978  15.272  1.00  0.00    -0.003 C 
ATOM     14  C   UNL     1      10.457  22.651  16.641  1.00  0.00     0.004 C 
ENDBRANCH  12  13
ENDBRANCH  11  12
ENDBRANCH  10  11
ENDBRANCH   9  10
ENDBRANCH   1   9
TORSDOF 10
ENDMDL
MODEL 6
REMARK VINA RESULT:    -0.918     12.787     16.136
REMARK INTER + INTRA:          -2.069
REMARK INTER:                  -2.979
REMARK INTRA:                   0.909
REMARK UNBOUND:                -0.615
REMARK SMILES CCCCCCCCCCCC(=O)[O-]
REMARK SMILES IDX 7 1 8 2 9 3 10 4 11 5 12 6 13 7 14 8 6 9 5 10 4 11 3 12 2 13
REMARK SMILES IDX 1 14
REMARK H PARENT
REMARK Flexibility Score: inf
ROOT
ATOM      1  C   UNL     1       8.081  19.981  13.208  1.00  0.00     0.000 C 
ENDROOT
BRANCH   1   2
ATOM      2  C   UNL     1       8.997  20.283  12.013  1.00  0.00     0.000 C 
BRANCH   2   3
ATOM      3  C   UNL     1       9.902  21.489  12.307  1.00  0.00     0.000 C 
BRANCH   3   4
ATOM      4  C   UNL     1      11.053  21.633  11.295  1.00  0.00     0.006 C 
BRANCH   4   5
ATOM      5  C   UNL     1      11.120  23.004  10.604  1.00  0.00     0.053 C 
BRANCH   5   6
ATOM      6  C   UNL     1      10.847  24.128  11.556  1.00  0.00     0.041 C 
ATOM      7  O   UNL     1      10.563  25.274  11.119  1.00  0.00    -0.550 OA
ATOM      8  O   UNL     1      10.942  23.918  12.926  1.00  0.00    -0.550 OA
ENDBRANCH   5   6
ENDBRANCH   4   5
ENDBRANCH   3   4
ENDBRANCH   2   3
ENDBRANCH   1   2
BRANCH   1   9
ATOM      9  C   UNL     1       8.497  20.734  14.483  1.00  0.00     0.000 C 
BRANCH   9  10
ATOM     10  C   UNL     1       7.915  20.102  15.758  1.00  0.00    -0.000 C 
BRANCH  10  11
ATOM     11  C   UNL     1       6.377  20.033  15.744  1.00  0.00    -0.000 C 
BRANCH  11  12
ATOM     12  C   UNL     1       5.688  20.982  14.747  1.00  0.00    -0.000 C 
BRANCH  12  13
ATOM     13  C   UNL     1       4.606  20.286  13.909  1.00  0.00    -0.003 C 
ATOM     14  C   UNL     1       5.147  19.876  12.542  1.00  0.00     0.004 C 
ENDBRANCH  12  13
ENDBRANCH  11  12
ENDBRANCH  10  11
ENDBRANCH   9  10
ENDBRANCH   1   9
TORSDOF 10
ENDMDL
MODEL 7
REMARK VINA RESULT:    -0.829     13.928     16.370
REMARK INTER + INTRA:          -1.928
REMARK INTER:                  -1.238
REMARK INTRA:                  -0.690
REMARK UNBOUND:                -0.615
REMARK SMILES CCCCCCCCCCCC(=O)[O-]
REMARK SMILES IDX 7 1 8 2 9 3 10 4 11 5 12 6 13 7 14 8 6 9 5 10 4 11 3 12 2 13
REMARK SMILES IDX 1 14
REMARK H PARENT
REMARK Flexibility Score: inf
ROOT
ATOM      1  C   UNL     1       8.226  19.875  13.234  1.00  0.00     0.000 C 
ENDROOT
BRANCH   1   2
ATOM      2  C   UNL     1       8.871  21.269  13.290  1.00  0.00     0.000 C 
BRANCH   2   3
ATOM      3  C   UNL     1      10.207  21.285  12.533  1.00  0.00     0.000 C 
BRANCH   3   4
ATOM      4  C   UNL     1      10.239  20.292  11.356  1.00  0.00     0.006 C 
BRANCH   4   5
ATOM      5  C   UNL     1      11.121  20.734  10.178  1.00  0.00     0.053 C 
BRANCH   5   6
ATOM      6  C   UNL     1      10.350  21.515   9.159  1.00  0.00     0.041 C 
ATOM      7  O   UNL     1      10.722  22.673   8.834  1.00  0.00    -0.550 OA
ATOM      8  O   UNL     1       9.200  20.978   8.594  1.00  0.00    -0.550 OA
ENDBRANCH   5   6
ENDBRANCH   4   5
ENDBRANCH   3   4
ENDBRANCH   2   3
ENDBRANCH   1   2
BRANCH   1   9
ATOM      9  C   UNL     1       6.740  19.890  13.629  1.00  0.00     0.000 C 
BRANCH   9  10
ATOM     10  C   UNL     1       6.396  21.042  14.587  1.00  0.00    -0.000 C 
BRANCH  10  11
ATOM     11  C   UNL     1       6.551  20.655  16.069  1.00  0.00    -0.000 C 
BRANCH  11  12
ATOM     12  C   UNL     1       7.271  21.697  16.946  1.00  0.00    -0.000 C 
BRANCH  12  13
ATOM     13  C   UNL     1       8.792  21.707  16.736  1.00  0.00    -0.003 C 
ATOM     14  C   UNL     1       9.453  22.806  17.564  1.00  0.00     0.004 C 
ENDBRANCH  12  13
ENDBRANCH  11  12
ENDBRANCH  10  11
ENDBRANCH   9  10
ENDBRANCH   1   9
TORSDOF 10
ENDMDL
MODEL 8
REMARK VINA RESULT:    -0.768     13.559     16.020
REMARK INTER + INTRA:          -1.831
REMARK INTER:                  -1.270
REMARK INTRA:                  -0.562
REMARK UNBOUND:                -0.615
REMARK SMILES CCCCCCCCCCCC(=O)[O-]
REMARK SMILES IDX 7 1 8 2 9 3 10 4 11 5 12 6 13 7 14 8 6 9 5 10 4 11 3 12 2 13
REMARK SMILES IDX 1 14
REMARK H PARENT
REMARK Flexibility Score: inf
ROOT
ATOM      1  C   UNL     1       6.678  21.130  14.528  1.00  0.00     0.000 C 
ENDROOT
BRANCH   1   2
ATOM      2  C   UNL     1       7.553  19.926  14.146  1.00  0.00     0.000 C 
BRANCH   2   3
ATOM      3  C   UNL     1       8.410  20.242  12.912  1.00  0.00     0.000 C 
BRANCH   3   4
ATOM      4  C   UNL     1       9.415  21.383  13.158  1.00  0.00     0.006 C 
BRANCH   4   5
ATOM      5  C   UNL     1      10.598  21.408  12.178  1.00  0.00     0.053 C 
BRANCH   5   6
ATOM      6  C   UNL     1      10.940  22.800  11.743  1.00  0.00     0.041 C 
ATOM      7  O   UNL     1      11.030  23.724  12.593  1.00  0.00    -0.550 OA
ATOM      8  O   UNL     1      11.125  23.082  10.396  1.00  0.00    -0.550 OA
ENDBRANCH   5   6
ENDBRANCH   4   5
ENDBRANCH   3   4
ENDBRANCH   2   3
ENDBRANCH   1   2
BRANCH   1   9
ATOM      9  C   UNL     1       6.009  20.968  15.903  1.00  0.00     0.000 C 
BRANCH   9  10
ATOM     10  C   UNL     1       6.732  21.754  17.008  1.00  0.00    -0.000 C 
BRANCH  10  11
ATOM     11  C   UNL     1       8.266  21.684  16.887  1.00  0.00    -0.000 C 
BRANCH  11  12
ATOM     12  C   UNL     1       9.030  22.815  17.598  1.00  0.00    -0.000 C 
BRANCH  12  13
ATOM     13  C   UNL     1      10.552  22.712  17.422  1.00  0.00    -0.003 C 
ATOM     14  C   UNL     1      10.936  22.717  15.944  1.00  0.00     0.004 C 
ENDBRANCH  12  13
ENDBRANCH  11  12
ENDBRANCH  10  11
ENDBRANCH   9  10
ENDBRANCH   1   9
TORSDOF 10
ENDMDL
MODEL 9
REMARK VINA RESULT:    -0.498     12.802     15.686
REMARK INTER + INTRA:          -1.404
REMARK INTER:                  -0.877
REMARK INTRA:                  -0.527
REMARK UNBOUND:                -0.615
REMARK SMILES CCCCCCCCCCCC(=O)[O-]
REMARK SMILES IDX 7 1 8 2 9 3 10 4 11 5 12 6 13 7 14 8 6 9 5 10 4 11 3 12 2 13
REMARK SMILES IDX 1 14
REMARK H PARENT
REMARK Flexibility Score: inf
ROOT
ATOM      1  C   UNL     1       7.639  19.984  15.405  1.00  0.00     0.000 C 
ENDROOT
BRANCH   1   2
ATOM      2  C   UNL     1       8.694  20.970  15.929  1.00  0.00     0.000 C 
BRANCH   2   3
ATOM      3  C   UNL     1       9.999  20.852  15.128  1.00  0.00     0.000 C 
BRANCH   3   4
ATOM      4  C   UNL     1       9.777  20.946  13.607  1.00  0.00     0.006 C 
BRANCH   4   5
ATOM      5  C   UNL     1      10.975  20.484  12.763  1.00  0.00     0.053 C 
BRANCH   5   6
ATOM      6  C   UNL     1      10.907  21.000  11.358  1.00  0.00     0.041 C 
ATOM      7  O   UNL     1      10.830  20.198  10.391  1.00  0.00    -0.550 OA
ATOM      8  O   UNL     1      10.964  22.367  11.116  1.00  0.00    -0.550 OA
ENDBRANCH   5   6
ENDBRANCH   4   5
ENDBRANCH   3   4
ENDBRANCH   2   3
ENDBRANCH   1   2
BRANCH   1   9
ATOM      9  C   UNL     1       6.411  19.882  16.326  1.00  0.00     0.000 C 
BRANCH   9  10
ATOM     10  C   UNL     1       5.270  20.818  15.895  1.00  0.00    -0.000 C 
BRANCH  10  11
ATOM     11  C   UNL     1       4.575  20.360  14.600  1.00  0.00    -0.000 C 
BRANCH  11  12
ATOM     12  C   UNL     1       5.210  20.880  13.298  1.00  0.00    -0.000 C 
BRANCH  12  13
ATOM     13  C   UNL     1       5.101  19.880  12.138  1.00  0.00    -0.003 C 
ATOM     14  C   UNL     1       6.374  19.876  11.294  1.00  0.00     0.004 C 
ENDBRANCH  12  13
ENDBRANCH  11  12
ENDBRANCH  10  11
ENDBRANCH   9  10
ENDBRANCH   1   9
TORSDOF 10
ENDMDL
