MODEL 1
REMARK VINA RESULT:    -6.546      0.000      0.000
REMARK INTER + INTRA:          -8.365
REMARK INTER:                  -8.076
REMARK INTRA:                  -0.288
REMARK UNBOUND:                -0.288
REMARK SMILES Oc1cc(O)c2cc(O)c(-c3cc(O)c(O)c(O)c3)[o+]c2c1
REMARK SMILES IDX 10 1 20 2 21 3 22 4 2 5 3 6 4 7 6 8 7 9 8 10 11 11 12 12
REMARK SMILES IDX 13 13 19 14 15 15 17 16 14 17 16 19 18 21 9 23 1 25 5 27
REMARK H PARENT 14 18 16 20 18 22 9 24 1 26 5 28
REMARK Flexibility Score: inf
ROOT
ATOM      1  C   UNL     1     -24.067  19.157 -19.099  1.00  0.00     0.402 A 
ATOM      2  O   UNL     1     -23.534  19.897 -18.130  1.00  0.00    -0.202 OA
ATOM      3  C   UNL     1     -23.618  21.222 -18.093  1.00  0.00     0.368 A 
ATOM      4  C   UNL     1     -23.023  21.913 -17.034  1.00  0.00     0.162 A 
ATOM      5  C   UNL     1     -23.093  23.304 -16.971  1.00  0.00     0.128 A 
ATOM      6  C   UNL     1     -23.762  24.015 -17.974  1.00  0.00     0.093 A 
ATOM      7  C   UNL     1     -24.366  23.346 -19.046  1.00  0.00     0.136 A 
ATOM      8  C   UNL     1     -24.300  21.931 -19.111  1.00  0.00     0.125 A 
ATOM      9  C   UNL     1     -24.887  21.177 -20.141  1.00  0.00     0.078 A 
ATOM     10  C   UNL     1     -24.784  19.783 -20.136  1.00  0.00     0.223 A 
ENDROOT
BRANCH   1  11
ATOM     11  C   UNL     1     -23.897  17.688 -19.034  1.00  0.00     0.091 A 
ATOM     12  C   UNL     1     -23.110  17.001 -19.971  1.00  0.00     0.068 A 
ATOM     13  C   UNL     1     -22.942  15.616 -19.882  1.00  0.00     0.162 A 
ATOM     14  C   UNL     1     -24.485  16.971 -17.983  1.00  0.00     0.068 A 
ATOM     15  C   UNL     1     -23.553  14.893 -18.840  1.00  0.00     0.200 A 
ATOM     16  C   UNL     1     -24.328  15.585 -17.878  1.00  0.00     0.162 A 
BRANCH  13  17
ATOM     17  O   UNL     1     -22.156  14.974 -20.839  1.00  0.00    -0.504 OA
ATOM     18  H   UNL     1     -22.558  14.511 -21.645  1.00  0.00     0.293 HD
ENDBRANCH  13  17
BRANCH  15  19
ATOM     19  O   UNL     1     -23.366  13.509 -18.792  1.00  0.00    -0.502 OA
ATOM     20  H   UNL     1     -22.501  13.062 -18.529  1.00  0.00     0.293 HD
ENDBRANCH  15  19
BRANCH  16  21
ATOM     21  O   UNL     1     -24.956  14.940 -16.809  1.00  0.00    -0.504 OA
ATOM     22  H   UNL     1     -25.446  15.419 -16.068  1.00  0.00     0.293 HD
ENDBRANCH  16  21
ENDBRANCH   1  11
BRANCH  10  23
ATOM     23  O   UNL     1     -25.410  19.031 -21.131  1.00  0.00    -0.500 OA
ATOM     24  H   UNL     1     -25.730  19.453 -21.995  1.00  0.00     0.294 HD
ENDBRANCH  10  23
BRANCH   5  25
ATOM     25  O   UNL     1     -22.492  23.974 -15.906  1.00  0.00    -0.507 OA
ATOM     26  H   UNL     1     -21.519  24.255 -15.938  1.00  0.00     0.293 HD
ENDBRANCH   5  25
BRANCH   7  27
ATOM     27  O   UNL     1     -25.013  24.128 -20.009  1.00  0.00    -0.507 OA
ATOM     28  H   UNL     1     -24.756  24.158 -20.984  1.00  0.00     0.293 HD
ENDBRANCH   7  27
TORSDOF 7
ENDMDL
MODEL 2
REMARK VINA RESULT:    -6.487      4.631      7.101
REMARK INTER + INTRA:          -8.292
REMARK INTER:                  -7.990
REMARK INTRA:                  -0.303
REMARK UNBOUND:                -0.288
REMARK SMILES Oc1cc(O)c2cc(O)c(-c3cc(O)c(O)c(O)c3)[o+]c2c1
REMARK SMILES IDX 10 1 20 2 21 3 22 4 2 5 3 6 4 7 6 8 7 9 8 10 11 11 12 12
REMARK SMILES IDX 13 13 19 14 15 15 17 16 14 17 16 19 18 21 9 23 1 25 5 27
REMARK H PARENT 14 18 16 20 18 22 9 24 1 26 5 28
REMARK Flexibility Score: inf
ROOT
ATOM      1  C   UNL     1     -26.247  16.096 -20.958  1.00  0.00     0.402 A 
ATOM      2  O   UNL     1     -27.239  15.231 -21.156  1.00  0.00    -0.202 OA
ATOM      3  C   UNL     1     -28.361  15.542 -21.797  1.00  0.00     0.368 A 
ATOM      4  C   UNL     1     -29.348  14.567 -21.953  1.00  0.00     0.162 A 
ATOM      5  C   UNL     1     -30.536  14.865 -22.619  1.00  0.00     0.128 A 
ATOM      6  C   UNL     1     -30.744  16.150 -23.133  1.00  0.00     0.093 A 
ATOM      7  C   UNL     1     -29.770  17.146 -22.990  1.00  0.00     0.136 A 
ATOM      8  C   UNL     1     -28.558  16.845 -22.316  1.00  0.00     0.125 A 
ATOM      9  C   UNL     1     -27.522  17.776 -22.136  1.00  0.00     0.078 A 
ATOM     10  C   UNL     1     -26.353  17.404 -21.465  1.00  0.00     0.223 A 
ENDROOT
BRANCH   1  11
ATOM     11  C   UNL     1     -25.050  15.632 -20.219  1.00  0.00     0.091 A 
ATOM     12  C   UNL     1     -25.089  15.402 -18.835  1.00  0.00     0.068 A 
ATOM     13  C   UNL     1     -23.956  14.943 -18.158  1.00  0.00     0.162 A 
ATOM     14  C   UNL     1     -23.868  15.361 -20.922  1.00  0.00     0.068 A 
ATOM     15  C   UNL     1     -22.762  14.694 -18.860  1.00  0.00     0.200 A 
ATOM     16  C   UNL     1     -22.724  14.902 -20.259  1.00  0.00     0.162 A 
BRANCH  13  17
ATOM     17  O   UNL     1     -24.039  14.735 -16.781  1.00  0.00    -0.504 OA
ATOM     18  H   UNL     1     -24.450  15.416 -16.155  1.00  0.00     0.293 HD
ENDBRANCH  13  17
BRANCH  15  19
ATOM     19  O   UNL     1     -21.650  14.244 -18.143  1.00  0.00    -0.502 OA
ATOM     20  H   UNL     1     -21.586  13.336 -17.707  1.00  0.00     0.293 HD
ENDBRANCH  15  19
BRANCH  16  21
ATOM     21  O   UNL     1     -21.581  14.666 -21.028  1.00  0.00    -0.504 OA
ATOM     22  H   UNL     1     -20.644  14.899 -20.735  1.00  0.00     0.293 HD
ENDBRANCH  16  21
ENDBRANCH   1  11
BRANCH  10  23
ATOM     23  O   UNL     1     -25.304  18.314 -21.331  1.00  0.00    -0.500 OA
ATOM     24  H   UNL     1     -24.965  18.605 -20.422  1.00  0.00     0.294 HD
ENDBRANCH  10  23
BRANCH   5  25
ATOM     25  O   UNL     1     -31.509  13.878 -22.764  1.00  0.00    -0.507 OA
ATOM     26  H   UNL     1     -31.659  13.407 -23.649  1.00  0.00     0.293 HD
ENDBRANCH   5  25
BRANCH   7  27
ATOM     27  O   UNL     1     -30.053  18.405 -23.529  1.00  0.00    -0.507 OA
ATOM     28  H   UNL     1     -29.390  18.966 -24.044  1.00  0.00     0.293 HD
ENDBRANCH   7  27
TORSDOF 7
ENDMDL
MODEL 3
REMARK VINA RESULT:    -6.475      4.684      6.889
REMARK INTER + INTRA:          -8.277
REMARK INTER:                  -7.992
REMARK INTRA:                  -0.285
REMARK UNBOUND:                -0.288
REMARK SMILES Oc1cc(O)c2cc(O)c(-c3cc(O)c(O)c(O)c3)[o+]c2c1
REMARK SMILES IDX 10 1 20 2 21 3 22 4 2 5 3 6 4 7 6 8 7 9 8 10 11 11 12 12
REMARK SMILES IDX 13 13 19 14 15 15 17 16 14 17 16 19 18 21 9 23 1 25 5 27
REMARK H PARENT 14 18 16 20 18 22 9 24 1 26 5 28
REMARK Flexibility Score: inf
ROOT
ATOM      1  C   UNL     1     -26.231  16.016 -20.991  1.00  0.00     0.402 A 
ATOM      2  O   UNL     1     -27.239  15.166 -21.175  1.00  0.00    -0.202 OA
ATOM      3  C   UNL     1     -28.363  15.492 -21.804  1.00  0.00     0.368 A 
ATOM      4  C   UNL     1     -29.367  14.530 -21.945  1.00  0.00     0.162 A 
ATOM      5  C   UNL     1     -30.558  14.844 -22.598  1.00  0.00     0.128 A 
ATOM      6  C   UNL     1     -30.753  16.130 -23.113  1.00  0.00     0.093 A 
ATOM      7  C   UNL     1     -29.763  17.113 -22.984  1.00  0.00     0.136 A 
ATOM      8  C   UNL     1     -28.548  16.795 -22.324  1.00  0.00     0.125 A 
ATOM      9  C   UNL     1     -27.496  17.712 -22.159  1.00  0.00     0.078 A 
ATOM     10  C   UNL     1     -26.325  17.325 -21.501  1.00  0.00     0.223 A 
ENDROOT
BRANCH   1  11
ATOM     11  C   UNL     1     -25.033  15.537 -20.266  1.00  0.00     0.091 A 
ATOM     12  C   UNL     1     -23.818  15.312 -20.930  1.00  0.00     0.068 A 
ATOM     13  C   UNL     1     -22.690  14.882 -20.225  1.00  0.00     0.162 A 
ATOM     14  C   UNL     1     -25.094  15.357 -18.877  1.00  0.00     0.068 A 
ATOM     15  C   UNL     1     -22.758  14.678 -18.834  1.00  0.00     0.200 A 
ATOM     16  C   UNL     1     -23.976  14.925 -18.156  1.00  0.00     0.162 A 
BRANCH  13  17
ATOM     17  O   UNL     1     -21.504  14.665 -20.928  1.00  0.00    -0.504 OA
ATOM     18  H   UNL     1     -21.321  15.097 -21.825  1.00  0.00     0.293 HD
ENDBRANCH  13  17
BRANCH  15  19
ATOM     19  O   UNL     1     -21.610  14.238 -18.169  1.00  0.00    -0.502 OA
ATOM     20  H   UNL     1     -20.868  13.712 -18.605  1.00  0.00     0.293 HD
ENDBRANCH  15  19
BRANCH  16  21
ATOM     21  O   UNL     1     -24.119  14.758 -16.776  1.00  0.00    -0.504 OA
ATOM     22  H   UNL     1     -23.660  15.332 -16.085  1.00  0.00     0.293 HD
ENDBRANCH  16  21
ENDBRANCH   1  11
BRANCH  10  23
ATOM     23  O   UNL     1     -25.261  18.219 -21.382  1.00  0.00    -0.500 OA
ATOM     24  H   UNL     1     -25.290  19.140 -21.804  1.00  0.00     0.294 HD
ENDBRANCH  10  23
BRANCH   5  25
ATOM     25  O   UNL     1     -31.547  13.870 -22.728  1.00  0.00    -0.507 OA
ATOM     26  H   UNL     1     -31.318  12.884 -22.762  1.00  0.00     0.293 HD
ENDBRANCH   5  25
BRANCH   7  27
ATOM     27  O   UNL     1     -30.034  18.375 -23.523  1.00  0.00    -0.507 OA
ATOM     28  H   UNL     1     -30.843  18.932 -23.289  1.00  0.00     0.293 HD
ENDBRANCH   7  27
TORSDOF 7
ENDMDL
MODEL 4
REMARK VINA RESULT:    -6.121      5.517      9.208
REMARK INTER + INTRA:          -7.841
REMARK INTER:                  -7.561
REMARK INTRA:                  -0.280
REMARK UNBOUND:                -0.288
REMARK SMILES Oc1cc(O)c2cc(O)c(-c3cc(O)c(O)c(O)c3)[o+]c2c1
REMARK SMILES IDX 10 1 20 2 21 3 22 4 2 5 3 6 4 7 6 8 7 9 8 10 11 11 12 12
REMARK SMILES IDX 13 13 19 14 15 15 17 16 14 17 16 19 18 21 9 23 1 25 5 27
REMARK H PARENT 14 18 16 20 18 22 9 24 1 26 5 28
REMARK Flexibility Score: inf
ROOT
ATOM      1  C   UNL     1     -26.328  14.260 -22.019  1.00  0.00     0.402 A 
ATOM      2  O   UNL     1     -25.990  13.500 -23.058  1.00  0.00    -0.202 OA
ATOM      3  C   UNL     1     -26.875  12.996 -23.912  1.00  0.00     0.368 A 
ATOM      4  C   UNL     1     -26.424  12.206 -24.972  1.00  0.00     0.162 A 
ATOM      5  C   UNL     1     -27.330  11.661 -25.882  1.00  0.00     0.128 A 
ATOM      6  C   UNL     1     -28.700  11.905 -25.732  1.00  0.00     0.093 A 
ATOM      7  C   UNL     1     -29.178  12.693 -24.677  1.00  0.00     0.136 A 
ATOM      8  C   UNL     1     -28.258  13.252 -23.752  1.00  0.00     0.125 A 
ATOM      9  C   UNL     1     -28.645  14.063 -22.673  1.00  0.00     0.078 A 
ATOM     10  C   UNL     1     -27.681  14.582 -21.805  1.00  0.00     0.223 A 
ENDROOT
BRANCH   1  11
ATOM     11  C   UNL     1     -25.250  14.754 -21.133  1.00  0.00     0.091 A 
ATOM     12  C   UNL     1     -25.141  14.322 -19.802  1.00  0.00     0.068 A 
ATOM     13  C   UNL     1     -24.104  14.782 -18.986  1.00  0.00     0.162 A 
ATOM     14  C   UNL     1     -24.282  15.629 -21.646  1.00  0.00     0.068 A 
ATOM     15  C   UNL     1     -23.146  15.679 -19.495  1.00  0.00     0.200 A 
ATOM     16  C   UNL     1     -23.237  16.101 -20.843  1.00  0.00     0.162 A 
BRANCH  13  17
ATOM     17  O   UNL     1     -24.039  14.330 -17.668  1.00  0.00    -0.504 OA
ATOM     18  H   UNL     1     -23.719  14.920 -16.910  1.00  0.00     0.293 HD
ENDBRANCH  13  17
BRANCH  15  19
ATOM     19  O   UNL     1     -22.130  16.121 -18.643  1.00  0.00    -0.502 OA
ATOM     20  H   UNL     1     -21.165  15.835 -18.714  1.00  0.00     0.293 HD
ENDBRANCH  15  19
BRANCH  16  21
ATOM     21  O   UNL     1     -22.319  16.979 -21.424  1.00  0.00    -0.504 OA
ATOM     22  H   UNL     1     -21.489  16.686 -21.918  1.00  0.00     0.293 HD
ENDBRANCH  16  21
ENDBRANCH   1  11
BRANCH  10  23
ATOM     23  O   UNL     1     -28.060  15.430 -20.763  1.00  0.00    -0.500 OA
ATOM     24  H   UNL     1     -28.957  15.900 -20.760  1.00  0.00     0.294 HD
ENDBRANCH  10  23
BRANCH   5  25
ATOM     25  O   UNL     1     -26.860  10.876 -26.933  1.00  0.00    -0.507 OA
ATOM     26  H   UNL     1     -26.068  11.163 -27.496  1.00  0.00     0.293 HD
ENDBRANCH   5  25
BRANCH   7  27
ATOM     27  O   UNL     1     -30.560  12.887 -24.595  1.00  0.00    -0.507 OA
ATOM     28  H   UNL     1     -31.233  12.146 -24.467  1.00  0.00     0.293 HD
ENDBRANCH   7  27
TORSDOF 7
ENDMDL
MODEL 5
REMARK VINA RESULT:    -5.939      5.618      7.334
REMARK INTER + INTRA:          -7.616
REMARK INTER:                  -7.465
REMARK INTRA:                  -0.150
REMARK UNBOUND:                -0.288
REMARK SMILES Oc1cc(O)c2cc(O)c(-c3cc(O)c(O)c(O)c3)[o+]c2c1
REMARK SMILES IDX 10 1 20 2 21 3 22 4 2 5 3 6 4 7 6 8 7 9 8 10 11 11 12 12
REMARK SMILES IDX 13 13 19 14 15 15 17 16 14 17 16 19 18 21 9 23 1 25 5 27
REMARK H PARENT 14 18 16 20 18 22 9 24 1 26 5 28
REMARK Flexibility Score: inf
ROOT
ATOM      1  C   UNL     1     -26.591  15.129 -21.788  1.00  0.00     0.402 A 
ATOM      2  O   UNL     1     -25.864  14.715 -20.753  1.00  0.00    -0.202 OA
ATOM      3  C   UNL     1     -24.564  14.959 -20.629  1.00  0.00     0.368 A 
ATOM      4  C   UNL     1     -23.885  14.479 -19.507  1.00  0.00     0.162 A 
ATOM      5  C   UNL     1     -22.520  14.719 -19.351  1.00  0.00     0.128 A 
ATOM      6  C   UNL     1     -21.824  15.442 -20.326  1.00  0.00     0.093 A 
ATOM      7  C   UNL     1     -22.481  15.934 -21.461  1.00  0.00     0.136 A 
ATOM      8  C   UNL     1     -23.871  15.695 -21.620  1.00  0.00     0.125 A 
ATOM      9  C   UNL     1     -24.613  16.160 -22.718  1.00  0.00     0.078 A 
ATOM     10  C   UNL     1     -25.982  15.889 -22.804  1.00  0.00     0.223 A 
ENDROOT
BRANCH   1  11
ATOM     11  C   UNL     1     -28.030  14.784 -21.817  1.00  0.00     0.091 A 
ATOM     12  C   UNL     1     -28.602  14.124 -22.916  1.00  0.00     0.068 A 
ATOM     13  C   UNL     1     -29.958  13.786 -22.917  1.00  0.00     0.162 A 
ATOM     14  C   UNL     1     -28.831  15.070 -20.702  1.00  0.00     0.068 A 
ATOM     15  C   UNL     1     -30.767  14.095 -21.807  1.00  0.00     0.200 A 
ATOM     16  C   UNL     1     -30.190  14.739 -20.687  1.00  0.00     0.162 A 
BRANCH  13  17
ATOM     17  O   UNL     1     -30.485  13.136 -24.033  1.00  0.00    -0.504 OA
ATOM     18  H   UNL     1     -31.110  12.344 -23.953  1.00  0.00     0.293 HD
ENDBRANCH  13  17
BRANCH  15  19
ATOM     19  O   UNL     1     -32.120  13.746 -21.852  1.00  0.00    -0.502 OA
ATOM     20  H   UNL     1     -32.863  14.387 -22.086  1.00  0.00     0.293 HD
ENDBRANCH  15  19
BRANCH  16  21
ATOM     21  O   UNL     1     -30.924  15.067 -19.544  1.00  0.00    -0.504 OA
ATOM     22  H   UNL     1     -31.925  14.969 -19.466  1.00  0.00     0.293 HD
ENDBRANCH  16  21
ENDBRANCH   1  11
BRANCH  10  23
ATOM     23  O   UNL     1     -26.730  16.394 -23.869  1.00  0.00    -0.500 OA
ATOM     24  H   UNL     1     -26.748  15.934 -24.771  1.00  0.00     0.294 HD
ENDBRANCH  10  23
BRANCH   5  25
ATOM     25  O   UNL     1     -21.861  14.231 -18.224  1.00  0.00    -0.507 OA
ATOM     26  H   UNL     1     -22.035  13.298 -17.871  1.00  0.00     0.293 HD
ENDBRANCH   5  25
BRANCH   7  27
ATOM     27  O   UNL     1     -21.715  16.645 -22.390  1.00  0.00    -0.507 OA
ATOM     28  H   UNL     1     -22.097  17.143 -23.181  1.00  0.00     0.293 HD
ENDBRANCH   7  27
TORSDOF 7
ENDMDL
MODEL 6
REMARK VINA RESULT:    -5.869      4.466      6.341
REMARK INTER + INTRA:          -7.530
REMARK INTER:                  -7.343
REMARK INTRA:                  -0.187
REMARK UNBOUND:                -0.288
REMARK SMILES Oc1cc(O)c2cc(O)c(-c3cc(O)c(O)c(O)c3)[o+]c2c1
REMARK SMILES IDX 10 1 20 2 21 3 22 4 2 5 3 6 4 7 6 8 7 9 8 10 11 11 12 12
REMARK SMILES IDX 13 13 19 14 15 15 17 16 14 17 16 19 18 21 9 23 1 25 5 27
REMARK H PARENT 14 18 16 20 18 22 9 24 1 26 5 28
REMARK Flexibility Score: inf
ROOT
ATOM      1  C   UNL     1     -22.614  16.964 -22.288  1.00  0.00     0.402 A 
ATOM      2  O   UNL     1     -21.586  16.533 -23.015  1.00  0.00    -0.202 OA
ATOM      3  C   UNL     1     -21.017  17.255 -23.974  1.00  0.00     0.368 A 
ATOM      4  C   UNL     1     -19.943  16.716 -24.686  1.00  0.00     0.162 A 
ATOM      5  C   UNL     1     -19.328  17.450 -25.699  1.00  0.00     0.128 A 
ATOM      6  C   UNL     1     -19.789  18.735 -26.008  1.00  0.00     0.093 A 
ATOM      7  C   UNL     1     -20.864  19.298 -25.309  1.00  0.00     0.136 A 
ATOM      8  C   UNL     1     -21.490  18.555 -24.275  1.00  0.00     0.125 A 
ATOM      9  C   UNL     1     -22.565  19.045 -23.514  1.00  0.00     0.078 A 
ATOM     10  C   UNL     1     -23.128  18.256 -22.507  1.00  0.00     0.223 A 
ENDROOT
BRANCH   1  11
ATOM     11  C   UNL     1     -23.169  16.060 -21.254  1.00  0.00     0.091 A 
ATOM     12  C   UNL     1     -22.394  15.634 -20.164  1.00  0.00     0.068 A 
ATOM     13  C   UNL     1     -22.941  14.800 -19.185  1.00  0.00     0.162 A 
ATOM     14  C   UNL     1     -24.512  15.667 -21.331  1.00  0.00     0.068 A 
ATOM     15  C   UNL     1     -24.283  14.384 -19.276  1.00  0.00     0.200 A 
ATOM     16  C   UNL     1     -25.075  14.831 -20.360  1.00  0.00     0.162 A 
BRANCH  13  17
ATOM     17  O   UNL     1     -22.132  14.395 -18.123  1.00  0.00    -0.504 OA
ATOM     18  H   UNL     1     -21.170  14.110 -18.255  1.00  0.00     0.293 HD
ENDBRANCH  13  17
BRANCH  15  19
ATOM     19  O   UNL     1     -24.787  13.543 -18.280  1.00  0.00    -0.502 OA
ATOM     20  H   UNL     1     -24.270  12.784 -17.863  1.00  0.00     0.293 HD
ENDBRANCH  15  19
BRANCH  16  21
ATOM     21  O   UNL     1     -26.417  14.473 -20.513  1.00  0.00    -0.504 OA
ATOM     22  H   UNL     1     -26.854  14.278 -21.401  1.00  0.00     0.293 HD
ENDBRANCH  16  21
ENDBRANCH   1  11
BRANCH  10  23
ATOM     23  O   UNL     1     -24.162  18.761 -21.718  1.00  0.00    -0.500 OA
ATOM     24  H   UNL     1     -24.337  18.411 -20.784  1.00  0.00     0.294 HD
ENDBRANCH  10  23
BRANCH   5  25
ATOM     25  O   UNL     1     -18.258  16.893 -26.398  1.00  0.00    -0.507 OA
ATOM     26  H   UNL     1     -17.302  17.010 -26.084  1.00  0.00     0.293 HD
ENDBRANCH   5  25
BRANCH   7  27
ATOM     27  O   UNL     1     -21.268  20.586 -25.679  1.00  0.00    -0.507 OA
ATOM     28  H   UNL     1     -22.050  21.076 -25.271  1.00  0.00     0.293 HD
ENDBRANCH   7  27
TORSDOF 7
ENDMDL
MODEL 7
REMARK VINA RESULT:    -5.869      4.448      6.384
REMARK INTER + INTRA:          -7.529
REMARK INTER:                  -7.277
REMARK INTRA:                  -0.252
REMARK UNBOUND:                -0.288
REMARK SMILES Oc1cc(O)c2cc(O)c(-c3cc(O)c(O)c(O)c3)[o+]c2c1
REMARK SMILES IDX 10 1 20 2 21 3 22 4 2 5 3 6 4 7 6 8 7 9 8 10 11 11 12 12
REMARK SMILES IDX 13 13 19 14 15 15 17 16 14 17 16 19 18 21 9 23 1 25 5 27
REMARK H PARENT 14 18 16 20 18 22 9 24 1 26 5 28
REMARK Flexibility Score: inf
ROOT
ATOM      1  C   UNL     1     -22.627  16.998 -22.294  1.00  0.00     0.402 A 
ATOM      2  O   UNL     1     -21.610  16.540 -23.019  1.00  0.00    -0.202 OA
ATOM      3  C   UNL     1     -21.020  17.247 -23.977  1.00  0.00     0.368 A 
ATOM      4  C   UNL     1     -19.960  16.678 -24.688  1.00  0.00     0.162 A 
ATOM      5  C   UNL     1     -19.323  17.396 -25.700  1.00  0.00     0.128 A 
ATOM      6  C   UNL     1     -19.748  18.693 -26.008  1.00  0.00     0.093 A 
ATOM      7  C   UNL     1     -20.809  19.285 -25.311  1.00  0.00     0.136 A 
ATOM      8  C   UNL     1     -21.456  18.559 -24.278  1.00  0.00     0.125 A 
ATOM      9  C   UNL     1     -22.518  19.077 -23.519  1.00  0.00     0.078 A 
ATOM     10  C   UNL     1     -23.104  18.304 -22.513  1.00  0.00     0.223 A 
ENDROOT
BRANCH   1  11
ATOM     11  C   UNL     1     -23.207  16.110 -21.261  1.00  0.00     0.091 A 
ATOM     12  C   UNL     1     -24.533  15.658 -21.347  1.00  0.00     0.068 A 
ATOM     13  C   UNL     1     -25.058  14.801 -20.375  1.00  0.00     0.162 A 
ATOM     14  C   UNL     1     -22.402  15.663 -20.204  1.00  0.00     0.068 A 
ATOM     15  C   UNL     1     -24.256  14.372 -19.300  1.00  0.00     0.200 A 
ATOM     16  C   UNL     1     -22.912  14.807 -19.221  1.00  0.00     0.162 A 
BRANCH  13  17
ATOM     17  O   UNL     1     -26.383  14.383 -20.497  1.00  0.00    -0.504 OA
ATOM     18  H   UNL     1     -26.645  13.570 -21.041  1.00  0.00     0.293 HD
ENDBRANCH  13  17
BRANCH  15  19
ATOM     19  O   UNL     1     -24.823  13.523 -18.346  1.00  0.00    -0.502 OA
ATOM     20  H   UNL     1     -24.575  12.552 -18.232  1.00  0.00     0.293 HD
ENDBRANCH  15  19
BRANCH  16  21
ATOM     21  O   UNL     1     -22.050  14.415 -18.193  1.00  0.00    -0.504 OA
ATOM     22  H   UNL     1     -21.209  13.876 -18.334  1.00  0.00     0.293 HD
ENDBRANCH  16  21
ENDBRANCH   1  11
BRANCH  10  23
ATOM     23  O   UNL     1     -24.125  18.836 -21.726  1.00  0.00    -0.500 OA
ATOM     24  H   UNL     1     -23.988  19.038 -20.742  1.00  0.00     0.294 HD
ENDBRANCH  10  23
BRANCH   5  25
ATOM     25  O   UNL     1     -18.268  16.810 -26.397  1.00  0.00    -0.507 OA
ATOM     26  H   UNL     1     -18.082  17.038 -27.367  1.00  0.00     0.293 HD
ENDBRANCH   5  25
BRANCH   7  27
ATOM     27  O   UNL     1     -21.176  20.583 -25.681  1.00  0.00    -0.507 OA
ATOM     28  H   UNL     1     -20.522  21.330 -25.863  1.00  0.00     0.293 HD
ENDBRANCH   7  27
TORSDOF 7
ENDMDL
MODEL 8
REMARK VINA RESULT:    -5.835      1.390      6.894
REMARK INTER + INTRA:          -7.487
REMARK INTER:                  -7.820
REMARK INTRA:                   0.333
REMARK UNBOUND:                -0.288
REMARK SMILES Oc1cc(O)c2cc(O)c(-c3cc(O)c(O)c(O)c3)[o+]c2c1
REMARK SMILES IDX 10 1 20 2 21 3 22 4 2 5 3 6 4 7 6 8 7 9 8 10 11 11 12 12
REMARK SMILES IDX 13 13 19 14 15 15 17 16 14 17 16 19 18 21 9 23 1 25 5 27
REMARK H PARENT 14 18 16 20 18 22 9 24 1 26 5 28
REMARK Flexibility Score: inf
ROOT
ATOM      1  C   UNL     1     -24.313  19.612 -19.426  1.00  0.00     0.402 A 
ATOM      2  O   UNL     1     -23.558  18.641 -18.919  1.00  0.00    -0.202 OA
ATOM      3  C   UNL     1     -23.645  17.372 -19.305  1.00  0.00     0.368 A 
ATOM      4  C   UNL     1     -22.812  16.421 -18.710  1.00  0.00     0.162 A 
ATOM      5  C   UNL     1     -22.883  15.082 -19.094  1.00  0.00     0.128 A 
ATOM      6  C   UNL     1     -23.795  14.686 -20.078  1.00  0.00     0.093 A 
ATOM      7  C   UNL     1     -24.643  15.620 -20.689  1.00  0.00     0.136 A 
ATOM      8  C   UNL     1     -24.570  16.983 -20.304  1.00  0.00     0.125 A 
ATOM      9  C   UNL     1     -25.371  17.989 -20.870  1.00  0.00     0.078 A 
ATOM     10  C   UNL     1     -25.240  19.314 -20.442  1.00  0.00     0.223 A 
ENDROOT
BRANCH   1  11
ATOM     11  C   UNL     1     -24.129  20.986 -18.906  1.00  0.00     0.091 A 
ATOM     12  C   UNL     1     -24.598  22.104 -19.612  1.00  0.00     0.068 A 
ATOM     13  C   UNL     1     -24.436  23.393 -19.095  1.00  0.00     0.162 A 
ATOM     14  C   UNL     1     -23.526  21.175 -17.654  1.00  0.00     0.068 A 
ATOM     15  C   UNL     1     -23.808  23.584 -17.850  1.00  0.00     0.200 A 
ATOM     16  C   UNL     1     -23.355  22.458 -17.122  1.00  0.00     0.162 A 
BRANCH  13  17
ATOM     17  O   UNL     1     -24.912  24.476 -19.836  1.00  0.00    -0.504 OA
ATOM     18  H   UNL     1     -24.607  24.658 -20.783  1.00  0.00     0.293 HD
ENDBRANCH  13  17
BRANCH  15  19
ATOM     19  O   UNL     1     -23.659  24.889 -17.374  1.00  0.00    -0.502 OA
ATOM     20  H   UNL     1     -24.404  25.569 -17.339  1.00  0.00     0.293 HD
ENDBRANCH  15  19
BRANCH  16  21
ATOM     21  O   UNL     1     -22.734  22.565 -15.875  1.00  0.00    -0.504 OA
ATOM     22  H   UNL     1     -22.061  23.277 -15.637  1.00  0.00     0.293 HD
ENDBRANCH  16  21
ENDBRANCH   1  11
BRANCH  10  23
ATOM     23  O   UNL     1     -25.999  20.320 -21.040  1.00  0.00    -0.500 OA
ATOM     24  H   UNL     1     -26.503  20.164 -21.904  1.00  0.00     0.294 HD
ENDBRANCH  10  23
BRANCH   5  25
ATOM     25  O   UNL     1     -22.042  14.149 -18.489  1.00  0.00    -0.507 OA
ATOM     26  H   UNL     1     -21.705  13.336 -18.991  1.00  0.00     0.293 HD
ENDBRANCH   5  25
BRANCH   7  27
ATOM     27  O   UNL     1     -25.529  15.145 -21.661  1.00  0.00    -0.507 OA
ATOM     28  H   UNL     1     -26.526  15.061 -21.531  1.00  0.00     0.293 HD
ENDBRANCH   7  27
TORSDOF 7
ENDMDL
MODEL 9
REMARK VINA RESULT:    -5.677      5.632      7.617
REMARK INTER + INTRA:          -7.293
REMARK INTER:                  -6.974
REMARK INTRA:                  -0.319
REMARK UNBOUND:                -0.288
REMARK SMILES Oc1cc(O)c2cc(O)c(-c3cc(O)c(O)c(O)c3)[o+]c2c1
REMARK SMILES IDX 10 1 20 2 21 3 22 4 2 5 3 6 4 7 6 8 7 9 8 10 11 11 12 12
REMARK SMILES IDX 13 13 19 14 15 15 17 16 14 17 16 19 18 21 9 23 1 25 5 27
REMARK H PARENT 14 18 16 20 18 22 9 24 1 26 5 28
REMARK Flexibility Score: inf
ROOT
ATOM      1  C   UNL     1     -26.335  15.252 -22.805  1.00  0.00     0.402 A 
ATOM      2  O   UNL     1     -27.309  16.117 -22.535  1.00  0.00    -0.202 OA
ATOM      3  C   UNL     1     -28.367  16.293 -23.319  1.00  0.00     0.368 A 
ATOM      4  C   UNL     1     -29.338  17.229 -22.953  1.00  0.00     0.162 A 
ATOM      5  C   UNL     1     -30.457  17.436 -23.758  1.00  0.00     0.128 A 
ATOM      6  C   UNL     1     -30.611  16.705 -24.941  1.00  0.00     0.093 A 
ATOM      7  C   UNL     1     -29.652  15.761 -25.331  1.00  0.00     0.136 A 
ATOM      8  C   UNL     1     -28.514  15.545 -24.512  1.00  0.00     0.125 A 
ATOM      9  C   UNL     1     -27.509  14.611 -24.817  1.00  0.00     0.078 A 
ATOM     10  C   UNL     1     -26.417  14.451 -23.959  1.00  0.00     0.223 A 
ENDROOT
BRANCH   1  11
ATOM     11  C   UNL     1     -25.201  15.155 -21.857  1.00  0.00     0.091 A 
ATOM     12  C   UNL     1     -23.928  15.641 -22.189  1.00  0.00     0.068 A 
ATOM     13  C   UNL     1     -22.874  15.562 -21.274  1.00  0.00     0.162 A 
ATOM     14  C   UNL     1     -25.414  14.618 -20.580  1.00  0.00     0.068 A 
ATOM     15  C   UNL     1     -23.082  15.000 -20.000  1.00  0.00     0.200 A 
ATOM     16  C   UNL     1     -24.371  14.529 -19.652  1.00  0.00     0.162 A 
BRANCH  13  17
ATOM     17  O   UNL     1     -21.623  16.052 -21.649  1.00  0.00    -0.504 OA
ATOM     18  H   UNL     1     -21.517  16.844 -22.271  1.00  0.00     0.293 HD
ENDBRANCH  13  17
BRANCH  15  19
ATOM     19  O   UNL     1     -22.000  14.932 -19.118  1.00  0.00    -0.502 OA
ATOM     20  H   UNL     1     -21.753  14.112 -18.585  1.00  0.00     0.293 HD
ENDBRANCH  15  19
BRANCH  16  21
ATOM     21  O   UNL     1     -24.659  13.971 -18.404  1.00  0.00    -0.504 OA
ATOM     22  H   UNL     1     -25.446  13.365 -18.222  1.00  0.00     0.293 HD
ENDBRANCH  16  21
ENDBRANCH   1  11
BRANCH  10  23
ATOM     23  O   UNL     1     -25.446  13.488 -24.236  1.00  0.00    -0.500 OA
ATOM     24  H   UNL     1     -25.693  12.562 -24.563  1.00  0.00     0.294 HD
ENDBRANCH  10  23
BRANCH   5  25
ATOM     25  O   UNL     1     -31.414  18.375 -23.375  1.00  0.00    -0.507 OA
ATOM     26  H   UNL     1     -32.147  18.145 -22.714  1.00  0.00     0.293 HD
ENDBRANCH   5  25
BRANCH   7  27
ATOM     27  O   UNL     1     -29.876  15.073 -26.528  1.00  0.00    -0.507 OA
ATOM     28  H   UNL     1     -30.682  14.493 -26.709  1.00  0.00     0.293 HD
ENDBRANCH   7  27
TORSDOF 7
ENDMDL
