MODEL 1
REMARK VINA RESULT:    -3.431      0.000      0.000
REMARK INTER + INTRA:          -9.026
REMARK INTER:                  -6.239
REMARK INTRA:                  -2.787
REMARK UNBOUND:                -2.787
REMARK SMILES CCCCCCCCCCCCCCCC(=O)[O-]
REMARK SMILES IDX 9 1 10 2 11 3 12 4 13 5 14 6 15 7 16 8 17 9 18 10 8 11 7 12
REMARK SMILES IDX 6 13 5 14 4 15 3 16 2 17 1 18
REMARK H PARENT
REMARK Flexibility Score: inf
ROOT
ATOM      1  C   UNL     1      17.072  13.282  31.795  1.00  0.00     0.000 C 
ENDROOT
BRANCH   1   2
ATOM      2  C   UNL     1      16.123  14.069  30.876  1.00  0.00     0.000 C 
BRANCH   2   3
ATOM      3  C   UNL     1      16.687  15.445  30.480  1.00  0.00     0.000 C 
BRANCH   3   4
ATOM      4  C   UNL     1      16.235  15.884  29.078  1.00  0.00     0.000 C 
BRANCH   4   5
ATOM      5  C   UNL     1      15.236  14.899  28.445  1.00  0.00     0.000 C 
BRANCH   5   6
ATOM      6  C   UNL     1      15.322  14.878  26.911  1.00  0.00     0.006 C 
BRANCH   6   7
ATOM      7  C   UNL     1      16.079  16.086  26.345  1.00  0.00     0.053 C 
BRANCH   7   8
ATOM      8  C   UNL     1      16.627  15.771  24.989  1.00  0.00     0.041 C 
ATOM      9  O   UNL     1      17.788  15.299  24.869  1.00  0.00    -0.550 OA
ATOM     10  O   UNL     1      15.838  15.953  23.861  1.00  0.00    -0.550 OA
ENDBRANCH   7   8
ENDBRANCH   6   7
ENDBRANCH   5   6
ENDBRANCH   4   5
ENDBRANCH   3   4
ENDBRANCH   2   3
ENDBRANCH   1   2
BRANCH   1  11
ATOM     11  C   UNL     1      18.301  14.106  32.219  1.00  0.00     0.000 C 
BRANCH  11  12
ATOM     12  C   UNL     1      19.626  13.416  31.857  1.00  0.00    -0.000 C 
BRANCH  12  13
ATOM     13  C   UNL     1      20.417  14.179  30.779  1.00  0.00    -0.000 C 
BRANCH  13  14
ATOM     14  C   UNL     1      20.397  13.467  29.416  1.00  0.00    -0.000 C 
BRANCH  14  15
ATOM     15  C   UNL     1      19.558  14.220  28.368  1.00  0.00    -0.000 C 
BRANCH  15  16
ATOM     16  C   UNL     1      18.500  13.324  27.706  1.00  0.00    -0.000 C 
BRANCH  16  17
ATOM     17  C   UNL     1      18.200  12.057  28.522  1.00  0.00    -0.003 C 
ATOM     18  C   UNL     1      16.816  11.507  28.192  1.00  0.00     0.004 C 
ENDBRANCH  16  17
ENDBRANCH  15  16
ENDBRANCH  14  15
ENDBRANCH  13  14
ENDBRANCH  12  13
ENDBRANCH  11  12
ENDBRANCH   1  11
TORSDOF 14
ENDMDL
MODEL 2
REMARK VINA RESULT:    -3.119      3.105      4.856
REMARK INTER + INTRA:          -8.459
REMARK INTER:                  -6.964
REMARK INTRA:                  -1.494
REMARK UNBOUND:                -2.787
REMARK SMILES CCCCCCCCCCCCCCCC(=O)[O-]
REMARK SMILES IDX 9 1 10 2 11 3 12 4 13 5 14 6 15 7 16 8 17 9 18 10 8 11 7 12
REMARK SMILES IDX 6 13 5 14 4 15 3 16 2 17 1 18
REMARK H PARENT
REMARK Flexibility Score: inf
ROOT
ATOM      1  C   UNL     1      16.200  13.393  31.160  1.00  0.00     0.000 C 
ENDROOT
BRANCH   1   2
ATOM      2  C   UNL     1      16.160  12.322  32.263  1.00  0.00     0.000 C 
BRANCH   2   3
ATOM      3  C   UNL     1      14.760  11.709  32.444  1.00  0.00     0.000 C 
BRANCH   3   4
ATOM      4  C   UNL     1      13.845  11.963  31.236  1.00  0.00     0.000 C 
BRANCH   4   5
ATOM      5  C   UNL     1      12.432  12.410  31.650  1.00  0.00     0.000 C 
BRANCH   5   6
ATOM      6  C   UNL     1      12.220  13.923  31.486  1.00  0.00     0.006 C 
BRANCH   6   7
ATOM      7  C   UNL     1      12.850  14.470  30.199  1.00  0.00     0.053 C 
BRANCH   7   8
ATOM      8  C   UNL     1      11.879  14.382  29.064  1.00  0.00     0.041 C 
ATOM      9  O   UNL     1      10.825  15.071  29.077  1.00  0.00    -0.550 OA
ATOM     10  O   UNL     1      12.163  13.579  27.967  1.00  0.00    -0.550 OA
ENDBRANCH   7   8
ENDBRANCH   6   7
ENDBRANCH   5   6
ENDBRANCH   4   5
ENDBRANCH   3   4
ENDBRANCH   2   3
ENDBRANCH   1   2
BRANCH   1  11
ATOM     11  C   UNL     1      17.427  14.314  31.277  1.00  0.00     0.000 C 
BRANCH  11  12
ATOM     12  C   UNL     1      17.562  15.269  30.079  1.00  0.00    -0.000 C 
BRANCH  12  13
ATOM     13  C   UNL     1      16.225  15.925  29.690  1.00  0.00    -0.000 C 
BRANCH  13  14
ATOM     14  C   UNL     1      15.810  15.610  28.242  1.00  0.00    -0.000 C 
BRANCH  14  15
ATOM     15  C   UNL     1      16.892  14.829  27.475  1.00  0.00    -0.000 C 
BRANCH  15  16
ATOM     16  C   UNL     1      17.360  15.562  26.208  1.00  0.00    -0.000 C 
BRANCH  16  17
ATOM     17  C   UNL     1      16.236  16.366  25.537  1.00  0.00    -0.003 C 
ATOM     18  C   UNL     1      15.802  15.714  24.228  1.00  0.00     0.004 C 
ENDBRANCH  16  17
ENDBRANCH  15  16
ENDBRANCH  14  15
ENDBRANCH  13  14
ENDBRANCH  12  13
ENDBRANCH  11  12
ENDBRANCH   1  11
TORSDOF 14
ENDMDL
MODEL 3
REMARK VINA RESULT:    -3.114      4.826      6.078
REMARK INTER + INTRA:          -8.450
REMARK INTER:                  -7.281
REMARK INTRA:                  -1.169
REMARK UNBOUND:                -2.787
REMARK SMILES CCCCCCCCCCCCCCCC(=O)[O-]
REMARK SMILES IDX 9 1 10 2 11 3 12 4 13 5 14 6 15 7 16 8 17 9 18 10 8 11 7 12
REMARK SMILES IDX 6 13 5 14 4 15 3 16 2 17 1 18
REMARK H PARENT
REMARK Flexibility Score: inf
ROOT
ATOM      1  C   UNL     1      12.828  13.701  29.588  1.00  0.00     0.000 C 
ENDROOT
BRANCH   1   2
ATOM      2  C   UNL     1      11.670  14.363  30.353  1.00  0.00     0.000 C 
BRANCH   2   3
ATOM      3  C   UNL     1      10.688  15.097  29.424  1.00  0.00     0.000 C 
BRANCH   3   4
ATOM      4  C   UNL     1      10.613  14.462  28.027  1.00  0.00     0.000 C 
BRANCH   4   5
ATOM      5  C   UNL     1       9.255  14.699  27.343  1.00  0.00     0.000 C 
BRANCH   5   6
ATOM      6  C   UNL     1       8.851  16.182  27.333  1.00  0.00     0.006 C 
BRANCH   6   7
ATOM      7  C   UNL     1       8.770  16.762  25.916  1.00  0.00     0.053 C 
BRANCH   7   8
ATOM      8  C   UNL     1       8.202  18.146  25.949  1.00  0.00     0.041 C 
ATOM      9  O   UNL     1       8.372  18.876  26.961  1.00  0.00    -0.550 OA
ATOM     10  O   UNL     1       7.529  18.648  24.843  1.00  0.00    -0.550 OA
ENDBRANCH   7   8
ENDBRANCH   6   7
ENDBRANCH   5   6
ENDBRANCH   4   5
ENDBRANCH   3   4
ENDBRANCH   2   3
ENDBRANCH   1   2
BRANCH   1  11
ATOM     11  C   UNL     1      14.139  14.498  29.697  1.00  0.00     0.000 C 
BRANCH  11  12
ATOM     12  C   UNL     1      14.774  14.778  28.326  1.00  0.00    -0.000 C 
BRANCH  12  13
ATOM     13  C   UNL     1      16.074  15.598  28.430  1.00  0.00    -0.000 C 
BRANCH  13  14
ATOM     14  C   UNL     1      16.525  15.809  29.885  1.00  0.00    -0.000 C 
BRANCH  14  15
ATOM     15  C   UNL     1      17.716  14.914  30.269  1.00  0.00    -0.000 C 
BRANCH  15  16
ATOM     16  C   UNL     1      17.649  14.437  31.729  1.00  0.00    -0.000 C 
BRANCH  16  17
ATOM     17  C   UNL     1      17.014  13.045  31.870  1.00  0.00    -0.003 C 
ATOM     18  C   UNL     1      17.069  12.281  30.550  1.00  0.00     0.004 C 
ENDBRANCH  16  17
ENDBRANCH  15  16
ENDBRANCH  14  15
ENDBRANCH  13  14
ENDBRANCH  12  13
ENDBRANCH  11  12
ENDBRANCH   1  11
TORSDOF 14
ENDMDL
MODEL 4
REMARK VINA RESULT:    -3.108      2.533      4.652
REMARK INTER + INTRA:          -8.439
REMARK INTER:                  -6.388
REMARK INTRA:                  -2.051
REMARK UNBOUND:                -2.787
REMARK SMILES CCCCCCCCCCCCCCCC(=O)[O-]
REMARK SMILES IDX 9 1 10 2 11 3 12 4 13 5 14 6 15 7 16 8 17 9 18 10 8 11 7 12
REMARK SMILES IDX 6 13 5 14 4 15 3 16 2 17 1 18
REMARK H PARENT
REMARK Flexibility Score: inf
ROOT
ATOM      1  C   UNL     1      17.150  12.676  31.556  1.00  0.00     0.000 C 
ENDROOT
BRANCH   1   2
ATOM      2  C   UNL     1      17.325  14.191  31.752  1.00  0.00     0.000 C 
BRANCH   2   3
ATOM      3  C   UNL     1      17.722  14.916  30.454  1.00  0.00     0.000 C 
BRANCH   3   4
ATOM      4  C   UNL     1      16.747  16.046  30.089  1.00  0.00     0.000 C 
BRANCH   4   5
ATOM      5  C   UNL     1      15.964  15.756  28.796  1.00  0.00     0.000 C 
BRANCH   5   6
ATOM      6  C   UNL     1      16.653  14.702  27.915  1.00  0.00     0.006 C 
BRANCH   6   7
ATOM      7  C   UNL     1      15.888  14.431  26.614  1.00  0.00     0.053 C 
BRANCH   7   8
ATOM      8  C   UNL     1      16.481  15.213  25.485  1.00  0.00     0.041 C 
ATOM      9  O   UNL     1      17.470  14.760  24.851  1.00  0.00    -0.550 OA
ATOM     10  O   UNL     1      15.911  16.420  25.101  1.00  0.00    -0.550 OA
ENDBRANCH   7   8
ENDBRANCH   6   7
ENDBRANCH   5   6
ENDBRANCH   4   5
ENDBRANCH   3   4
ENDBRANCH   2   3
ENDBRANCH   1   2
BRANCH   1  11
ATOM     11  C   UNL     1      15.696  12.218  31.769  1.00  0.00     0.000 C 
BRANCH  11  12
ATOM     12  C   UNL     1      14.682  13.123  31.051  1.00  0.00    -0.000 C 
BRANCH  12  13
ATOM     13  C   UNL     1      14.071  12.456  29.805  1.00  0.00    -0.000 C 
BRANCH  13  14
ATOM     14  C   UNL     1      13.086  13.376  29.064  1.00  0.00    -0.000 C 
BRANCH  14  15
ATOM     15  C   UNL     1      12.610  14.553  29.932  1.00  0.00    -0.000 C 
BRANCH  15  16
ATOM     16  C   UNL     1      11.132  14.429  30.334  1.00  0.00    -0.000 C 
BRANCH  16  17
ATOM     17  C   UNL     1      10.878  14.833  31.795  1.00  0.00    -0.003 C 
ATOM     18  C   UNL     1      11.363  13.752  32.755  1.00  0.00     0.004 C 
ENDBRANCH  16  17
ENDBRANCH  15  16
ENDBRANCH  14  15
ENDBRANCH  13  14
ENDBRANCH  12  13
ENDBRANCH  11  12
ENDBRANCH   1  11
TORSDOF 14
ENDMDL
MODEL 5
REMARK VINA RESULT:    -3.086      2.890      5.173
REMARK INTER + INTRA:          -8.398
REMARK INTER:                  -6.718
REMARK INTRA:                  -1.680
REMARK UNBOUND:                -2.787
REMARK SMILES CCCCCCCCCCCCCCCC(=O)[O-]
REMARK SMILES IDX 9 1 10 2 11 3 12 4 13 5 14 6 15 7 16 8 17 9 18 10 8 11 7 12
REMARK SMILES IDX 6 13 5 14 4 15 3 16 2 17 1 18
REMARK H PARENT
REMARK Flexibility Score: inf
ROOT
ATOM      1  C   UNL     1      16.287  13.000  30.657  1.00  0.00     0.000 C 
ENDROOT
BRANCH   1   2
ATOM      2  C   UNL     1      16.943  14.232  31.301  1.00  0.00     0.000 C 
BRANCH   2   3
ATOM      3  C   UNL     1      17.054  15.421  30.330  1.00  0.00     0.000 C 
BRANCH   3   4
ATOM      4  C   UNL     1      15.764  15.644  29.524  1.00  0.00     0.000 C 
BRANCH   4   5
ATOM      5  C   UNL     1      16.016  15.687  28.007  1.00  0.00     0.000 C 
BRANCH   5   6
ATOM      6  C   UNL     1      15.378  14.500  27.270  1.00  0.00     0.006 C 
BRANCH   6   7
ATOM      7  C   UNL     1      16.082  14.181  25.945  1.00  0.00     0.053 C 
BRANCH   7   8
ATOM      8  C   UNL     1      15.419  14.902  24.814  1.00  0.00     0.041 C 
ATOM      9  O   UNL     1      14.496  14.347  24.162  1.00  0.00    -0.550 OA
ATOM     10  O   UNL     1      15.787  16.207  24.511  1.00  0.00    -0.550 OA
ENDBRANCH   7   8
ENDBRANCH   6   7
ENDBRANCH   5   6
ENDBRANCH   4   5
ENDBRANCH   3   4
ENDBRANCH   2   3
ENDBRANCH   1   2
BRANCH   1  11
ATOM     11  C   UNL     1      15.016  12.553  31.400  1.00  0.00     0.000 C 
BRANCH  11  12
ATOM     12  C   UNL     1      13.742  12.757  30.564  1.00  0.00    -0.000 C 
BRANCH  12  13
ATOM     13  C   UNL     1      12.755  13.741  31.218  1.00  0.00    -0.000 C 
BRANCH  13  14
ATOM     14  C   UNL     1      11.982  14.579  30.184  1.00  0.00    -0.000 C 
BRANCH  14  15
ATOM     15  C   UNL     1      12.110  14.020  28.757  1.00  0.00    -0.000 C 
BRANCH  15  16
ATOM     16  C   UNL     1      10.808  14.153  27.952  1.00  0.00    -0.000 C 
BRANCH  16  17
ATOM     17  C   UNL     1       9.823  15.153  28.578  1.00  0.00    -0.003 C 
ATOM     18  C   UNL     1       9.080  15.937  27.501  1.00  0.00     0.004 C 
ENDBRANCH  16  17
ENDBRANCH  15  16
ENDBRANCH  14  15
ENDBRANCH  13  14
ENDBRANCH  12  13
ENDBRANCH  11  12
ENDBRANCH   1  11
TORSDOF 14
ENDMDL
MODEL 6
REMARK VINA RESULT:    -3.072      4.131      6.863
REMARK INTER + INTRA:          -8.373
REMARK INTER:                  -6.453
REMARK INTRA:                  -1.920
REMARK UNBOUND:                -2.787
REMARK SMILES CCCCCCCCCCCCCCCC(=O)[O-]
REMARK SMILES IDX 9 1 10 2 11 3 12 4 13 5 14 6 15 7 16 8 17 9 18 10 8 11 7 12
REMARK SMILES IDX 6 13 5 14 4 15 3 16 2 17 1 18
REMARK H PARENT
REMARK Flexibility Score: inf
ROOT
ATOM      1  C   UNL     1      13.901  14.099  28.209  1.00  0.00     0.000 C 
ENDROOT
BRANCH   1   2
ATOM      2  C   UNL     1      15.281  14.303  27.563  1.00  0.00     0.000 C 
BRANCH   2   3
ATOM      3  C   UNL     1      15.931  15.640  27.963  1.00  0.00     0.000 C 
BRANCH   3   4
ATOM      4  C   UNL     1      16.009  15.824  29.487  1.00  0.00     0.000 C 
BRANCH   4   5
ATOM      5  C   UNL     1      17.292  15.225  30.089  1.00  0.00     0.000 C 
BRANCH   5   6
ATOM      6  C   UNL     1      17.003  14.247  31.239  1.00  0.00     0.006 C 
BRANCH   6   7
ATOM      7  C   UNL     1      18.178  14.124  32.217  1.00  0.00     0.053 C 
BRANCH   7   8
ATOM      8  C   UNL     1      18.306  12.716  32.706  1.00  0.00     0.041 C 
ATOM      9  O   UNL     1      18.288  11.758  31.889  1.00  0.00    -0.550 OA
ATOM     10  O   UNL     1      18.495  12.464  34.059  1.00  0.00    -0.550 OA
ENDBRANCH   7   8
ENDBRANCH   6   7
ENDBRANCH   5   6
ENDBRANCH   4   5
ENDBRANCH   3   4
ENDBRANCH   2   3
ENDBRANCH   1   2
BRANCH   1  11
ATOM     11  C   UNL     1      13.651  12.636  28.615  1.00  0.00     0.000 C 
BRANCH  11  12
ATOM     12  C   UNL     1      13.583  12.452  30.140  1.00  0.00    -0.000 C 
BRANCH  12  13
ATOM     13  C   UNL     1      13.295  13.769  30.884  1.00  0.00    -0.000 C 
BRANCH  13  14
ATOM     14  C   UNL     1      12.030  13.693  31.755  1.00  0.00    -0.000 C 
BRANCH  14  15
ATOM     15  C   UNL     1      10.761  14.109  30.991  1.00  0.00    -0.000 C 
BRANCH  15  16
ATOM     16  C   UNL     1      11.029  15.224  29.968  1.00  0.00    -0.000 C 
BRANCH  16  17
ATOM     17  C   UNL     1      10.107  15.139  28.742  1.00  0.00    -0.003 C 
ATOM     18  C   UNL     1      10.179  13.758  28.097  1.00  0.00     0.004 C 
ENDBRANCH  16  17
ENDBRANCH  15  16
ENDBRANCH  14  15
ENDBRANCH  13  14
ENDBRANCH  12  13
ENDBRANCH  11  12
ENDBRANCH   1  11
TORSDOF 14
ENDMDL
MODEL 7
REMARK VINA RESULT:    -3.066      4.522      5.718
REMARK INTER + INTRA:          -8.363
REMARK INTER:                  -6.483
REMARK INTRA:                  -1.881
REMARK UNBOUND:                -2.787
REMARK SMILES CCCCCCCCCCCCCCCC(=O)[O-]
REMARK SMILES IDX 9 1 10 2 11 3 12 4 13 5 14 6 15 7 16 8 17 9 18 10 8 11 7 12
REMARK SMILES IDX 6 13 5 14 4 15 3 16 2 17 1 18
REMARK H PARENT
REMARK Flexibility Score: inf
ROOT
ATOM      1  C   UNL     1      15.251  13.369  30.933  1.00  0.00     0.000 C 
ENDROOT
BRANCH   1   2
ATOM      2  C   UNL     1      14.980  12.549  29.661  1.00  0.00     0.000 C 
BRANCH   2   3
ATOM      3  C   UNL     1      13.754  13.054  28.879  1.00  0.00     0.000 C 
BRANCH   3   4
ATOM      4  C   UNL     1      13.248  14.411  29.392  1.00  0.00     0.000 C 
BRANCH   4   5
ATOM      5  C   UNL     1      11.712  14.506  29.390  1.00  0.00     0.000 C 
BRANCH   5   6
ATOM      6  C   UNL     1      11.146  14.928  30.755  1.00  0.00     0.006 C 
BRANCH   6   7
ATOM      7  C   UNL     1      11.712  14.094  31.911  1.00  0.00     0.053 C 
BRANCH   7   8
ATOM      8  C   UNL     1      10.612  13.365  32.616  1.00  0.00     0.041 C 
ATOM      9  O   UNL     1       9.630  12.918  31.967  1.00  0.00    -0.550 OA
ATOM     10  O   UNL     1      10.696  13.135  33.984  1.00  0.00    -0.550 OA
ENDBRANCH   7   8
ENDBRANCH   6   7
ENDBRANCH   5   6
ENDBRANCH   4   5
ENDBRANCH   3   4
ENDBRANCH   2   3
ENDBRANCH   1   2
BRANCH   1  11
ATOM     11  C   UNL     1      16.671  13.149  31.485  1.00  0.00     0.000 C 
BRANCH  11  12
ATOM     12  C   UNL     1      17.463  14.460  31.614  1.00  0.00    -0.000 C 
BRANCH  12  13
ATOM     13  C   UNL     1      17.362  15.339  30.354  1.00  0.00    -0.000 C 
BRANCH  13  14
ATOM     14  C   UNL     1      18.404  14.967  29.286  1.00  0.00    -0.000 C 
BRANCH  14  15
ATOM     15  C   UNL     1      17.795  14.862  27.877  1.00  0.00    -0.000 C 
BRANCH  15  16
ATOM     16  C   UNL     1      16.398  15.496  27.791  1.00  0.00    -0.000 C 
BRANCH  16  17
ATOM     17  C   UNL     1      15.734  15.283  26.422  1.00  0.00    -0.003 C 
ATOM     18  C   UNL     1      16.222  16.314  25.409  1.00  0.00     0.004 C 
ENDBRANCH  16  17
ENDBRANCH  15  16
ENDBRANCH  14  15
ENDBRANCH  13  14
ENDBRANCH  12  13
ENDBRANCH  11  12
ENDBRANCH   1  11
TORSDOF 14
ENDMDL
MODEL 8
REMARK VINA RESULT:    -3.037      2.362      4.076
REMARK INTER + INTRA:          -8.310
REMARK INTER:                  -5.990
REMARK INTRA:                  -2.319
REMARK UNBOUND:                -2.787
REMARK SMILES CCCCCCCCCCCCCCCC(=O)[O-]
REMARK SMILES IDX 9 1 10 2 11 3 12 4 13 5 14 6 15 7 16 8 17 9 18 10 8 11 7 12
REMARK SMILES IDX 6 13 5 14 4 15 3 16 2 17 1 18
REMARK H PARENT
REMARK Flexibility Score: inf
ROOT
ATOM      1  C   UNL     1      18.875  13.084  29.660  1.00  0.00     0.000 C 
ENDROOT
BRANCH   1   2
ATOM      2  C   UNL     1      18.497  13.087  31.150  1.00  0.00     0.000 C 
BRANCH   2   3
ATOM      3  C   UNL     1      17.707  14.343  31.560  1.00  0.00     0.000 C 
BRANCH   3   4
ATOM      4  C   UNL     1      16.359  14.455  30.830  1.00  0.00     0.000 C 
BRANCH   4   5
ATOM      5  C   UNL     1      16.273  15.704  29.937  1.00  0.00     0.000 C 
BRANCH   5   6
ATOM      6  C   UNL     1      15.542  15.433  28.613  1.00  0.00     0.006 C 
BRANCH   6   7
ATOM      7  C   UNL     1      14.982  14.008  28.530  1.00  0.00     0.053 C 
BRANCH   7   8
ATOM      8  C   UNL     1      13.488  14.027  28.615  1.00  0.00     0.041 C 
ATOM      9  O   UNL     1      12.918  14.440  29.659  1.00  0.00    -0.550 OA
ATOM     10  O   UNL     1      12.725  13.636  27.522  1.00  0.00    -0.550 OA
ENDBRANCH   7   8
ENDBRANCH   6   7
ENDBRANCH   5   6
ENDBRANCH   4   5
ENDBRANCH   3   4
ENDBRANCH   2   3
ENDBRANCH   1   2
BRANCH   1  11
ATOM     11  C   UNL     1      19.764  14.280  29.274  1.00  0.00     0.000 C 
BRANCH  11  12
ATOM     12  C   UNL     1      19.317  14.948  27.964  1.00  0.00    -0.000 C 
BRANCH  12  13
ATOM     13  C   UNL     1      18.409  14.040  27.115  1.00  0.00    -0.000 C 
BRANCH  13  14
ATOM     14  C   UNL     1      18.223  14.562  25.680  1.00  0.00    -0.000 C 
BRANCH  14  15
ATOM     15  C   UNL     1      17.753  16.027  25.642  1.00  0.00    -0.000 C 
BRANCH  15  16
ATOM     16  C   UNL     1      16.314  16.170  25.121  1.00  0.00    -0.000 C 
BRANCH  16  17
ATOM     17  C   UNL     1      15.923  15.051  24.143  1.00  0.00    -0.003 C 
ATOM     18  C   UNL     1      14.759  14.230  24.687  1.00  0.00     0.004 C 
ENDBRANCH  16  17
ENDBRANCH  15  16
ENDBRANCH  14  15
ENDBRANCH  13  14
ENDBRANCH  12  13
ENDBRANCH  11  12
ENDBRANCH   1  11
TORSDOF 14
ENDMDL
MODEL 9
REMARK VINA RESULT:    -3.014      2.856      4.859
REMARK INTER + INTRA:          -8.268
REMARK INTER:                  -6.304
REMARK INTRA:                  -1.964
REMARK UNBOUND:                -2.787
REMARK SMILES CCCCCCCCCCCCCCCC(=O)[O-]
REMARK SMILES IDX 9 1 10 2 11 3 12 4 13 5 14 6 15 7 16 8 17 9 18 10 8 11 7 12
REMARK SMILES IDX 6 13 5 14 4 15 3 16 2 17 1 18
REMARK H PARENT
REMARK Flexibility Score: inf
ROOT
ATOM      1  C   UNL     1      17.529  15.300  30.142  1.00  0.00     0.000 C 
ENDROOT
BRANCH   1   2
ATOM      2  C   UNL     1      17.324  14.496  31.436  1.00  0.00     0.000 C 
BRANCH   2   3
ATOM      3  C   UNL     1      17.645  13.001  31.264  1.00  0.00     0.000 C 
BRANCH   3   4
ATOM      4  C   UNL     1      16.438  12.194  30.761  1.00  0.00     0.000 C 
BRANCH   4   5
ATOM      5  C   UNL     1      15.104  12.719  31.320  1.00  0.00     0.000 C 
BRANCH   5   6
ATOM      6  C   UNL     1      14.065  12.980  30.218  1.00  0.00     0.006 C 
BRANCH   6   7
ATOM      7  C   UNL     1      13.155  14.173  30.535  1.00  0.00     0.053 C 
BRANCH   7   8
ATOM      8  C   UNL     1      12.195  14.411  29.412  1.00  0.00     0.041 C 
ATOM      9  O   UNL     1      12.439  13.958  28.263  1.00  0.00    -0.550 OA
ATOM     10  O   UNL     1      11.007  15.092  29.646  1.00  0.00    -0.550 OA
ENDBRANCH   7   8
ENDBRANCH   6   7
ENDBRANCH   5   6
ENDBRANCH   4   5
ENDBRANCH   3   4
ENDBRANCH   2   3
ENDBRANCH   1   2
BRANCH   1  11
ATOM     11  C   UNL     1      16.240  15.997  29.671  1.00  0.00     0.000 C 
BRANCH  11  12
ATOM     12  C   UNL     1      15.858  15.618  28.230  1.00  0.00    -0.000 C 
BRANCH  12  13
ATOM     13  C   UNL     1      16.969  14.831  27.510  1.00  0.00    -0.000 C 
BRANCH  13  14
ATOM     14  C   UNL     1      17.521  15.575  26.282  1.00  0.00    -0.000 C 
BRANCH  14  15
ATOM     15  C   UNL     1      17.082  14.931  24.956  1.00  0.00    -0.000 C 
BRANCH  15  16
ATOM     16  C   UNL     1      15.829  15.595  24.364  1.00  0.00    -0.000 C 
BRANCH  16  17
ATOM     17  C   UNL     1      14.752  14.576  23.960  1.00  0.00    -0.003 C 
ATOM     18  C   UNL     1      14.416  13.645  25.121  1.00  0.00     0.004 C 
ENDBRANCH  16  17
ENDBRANCH  15  16
ENDBRANCH  14  15
ENDBRANCH  13  14
ENDBRANCH  12  13
ENDBRANCH  11  12
ENDBRANCH   1  11
TORSDOF 14
ENDMDL
