MODEL 1
REMARK VINA RESULT:    -0.736      0.000      0.000
REMARK INTER + INTRA:          -4.389
REMARK INTER:                  -1.855
REMARK INTRA:                  -2.534
REMARK UNBOUND:                -2.534
REMARK SMILES CCCCCCCCCCCCCCCCCCCCCCCCCCCC(=O)[O-]
REMARK SMILES IDX 15 1 16 2 17 3 18 4 19 5 20 6 21 7 22 8 23 9 24 10 25 11
REMARK SMILES IDX 26 12 27 13 28 14 29 15 30 16 14 17 13 18 12 19 11 20 10 21
REMARK SMILES IDX 9 22 8 23 7 24 6 25 5 26 4 27 3 28 2 29 1 30
REMARK H PARENT
REMARK Flexibility Score: inf
ROOT
ATOM      1  C   UNL     1      22.626 -14.577  -3.294  1.00  0.00     0.000 C 
ENDROOT
BRANCH   1   2
ATOM      2  C   UNL     1      23.122 -15.844  -2.568  1.00  0.00     0.000 C 
BRANCH   2   3
ATOM      3  C   UNL     1      23.496 -17.020  -3.487  1.00  0.00     0.000 C 
BRANCH   3   4
ATOM      4  C   UNL     1      25.012 -17.162  -3.687  1.00  0.00     0.000 C 
BRANCH   4   5
ATOM      5  C   UNL     1      25.634 -15.827  -4.125  1.00  0.00     0.000 C 
BRANCH   5   6
ATOM      6  C   UNL     1      26.870 -15.439  -3.292  1.00  0.00     0.000 C 
BRANCH   6   7
ATOM      7  C   UNL     1      28.171 -16.162  -3.688  1.00  0.00     0.000 C 
BRANCH   7   8
ATOM      8  C   UNL     1      29.418 -15.281  -3.522  1.00  0.00     0.000 C 
BRANCH   8   9
ATOM      9  C   UNL     1      30.699 -16.100  -3.741  1.00  0.00     0.000 C 
BRANCH   9  10
ATOM     10  C   UNL     1      30.433 -17.613  -3.852  1.00  0.00     0.000 C 
BRANCH  10  11
ATOM     11  C   UNL     1      31.125 -18.475  -2.778  1.00  0.00     0.000 C 
BRANCH  11  12
ATOM     12  C   UNL     1      30.228 -18.747  -1.557  1.00  0.00     0.006 C 
BRANCH  12  13
ATOM     13  C   UNL     1      30.806 -18.149  -0.268  1.00  0.00     0.053 C 
BRANCH  13  14
ATOM     14  C   UNL     1      30.363 -16.732  -0.063  1.00  0.00     0.041 C 
ATOM     15  O   UNL     1      31.113 -15.778  -0.406  1.00  0.00    -0.550 OA
ATOM     16  O   UNL     1      29.137 -16.464   0.530  1.00  0.00    -0.550 OA
ENDBRANCH  13  14
ENDBRANCH  12  13
ENDBRANCH  11  12
ENDBRANCH  10  11
ENDBRANCH   9  10
ENDBRANCH   8   9
ENDBRANCH   7   8
ENDBRANCH   6   7
ENDBRANCH   5   6
ENDBRANCH   4   5
ENDBRANCH   3   4
ENDBRANCH   2   3
ENDBRANCH   1   2
BRANCH   1  17
ATOM     17  C   UNL     1      23.682 -13.474  -3.493  1.00  0.00     0.000 C 
BRANCH  17  18
ATOM     18  C   UNL     1      23.439 -12.245  -2.599  1.00  0.00     0.000 C 
BRANCH  18  19
ATOM     19  C   UNL     1      24.642 -11.931  -1.696  1.00  0.00     0.000 C 
BRANCH  19  20
ATOM     20  C   UNL     1      25.177 -13.174  -0.962  1.00  0.00     0.000 C 
BRANCH  20  21
ATOM     21  C   UNL     1      26.720 -13.236  -0.978  1.00  0.00     0.000 C 
BRANCH  21  22
ATOM     22  C   UNL     1      27.324 -13.985   0.222  1.00  0.00    -0.000 C 
BRANCH  22  23
ATOM     23  C   UNL     1      27.652 -13.056   1.402  1.00  0.00    -0.000 C 
BRANCH  23  24
ATOM     24  C   UNL     1      28.663 -13.668   2.389  1.00  0.00    -0.000 C 
BRANCH  24  25
ATOM     25  C   UNL     1      30.104 -13.134   2.268  1.00  0.00    -0.000 C 
BRANCH  25  26
ATOM     26  C   UNL     1      30.193 -11.606   2.389  1.00  0.00    -0.000 C 
BRANCH  26  27
ATOM     27  C   UNL     1      30.791 -10.985   1.117  1.00  0.00    -0.000 C 
BRANCH  27  28
ATOM     28  C   UNL     1      30.325 -11.691  -0.170  1.00  0.00    -0.000 C 
BRANCH  28  29
ATOM     29  C   UNL     1      31.120 -11.316  -1.433  1.00  0.00    -0.003 C 
ATOM     30  C   UNL     1      30.692 -12.110  -2.666  1.00  0.00     0.004 C 
ENDBRANCH  28  29
ENDBRANCH  27  28
ENDBRANCH  26  27
ENDBRANCH  25  26
ENDBRANCH  24  25
ENDBRANCH  23  24
ENDBRANCH  22  23
ENDBRANCH  21  22
ENDBRANCH  20  21
ENDBRANCH  19  20
ENDBRANCH  18  19
ENDBRANCH  17  18
ENDBRANCH   1  17
TORSDOF 26
ENDMDL
MODEL 2
REMARK VINA RESULT:    -0.719      1.432      4.335
REMARK INTER + INTRA:          -4.345
REMARK INTER:                  -1.099
REMARK INTRA:                  -3.246
REMARK UNBOUND:                -2.534
REMARK SMILES CCCCCCCCCCCCCCCCCCCCCCCCCCCC(=O)[O-]
REMARK SMILES IDX 15 1 16 2 17 3 18 4 19 5 20 6 21 7 22 8 23 9 24 10 25 11
REMARK SMILES IDX 26 12 27 13 28 14 29 15 30 16 14 17 13 18 12 19 11 20 10 21
REMARK SMILES IDX 9 22 8 23 7 24 6 25 5 26 4 27 3 28 2 29 1 30
REMARK H PARENT
REMARK Flexibility Score: inf
ROOT
ATOM      1  C   UNL     1      22.951 -16.327  -1.631  1.00  0.00     0.000 C 
ENDROOT
BRANCH   1   2
ATOM      2  C   UNL     1      22.969 -14.879  -2.163  1.00  0.00     0.000 C 
BRANCH   2   3
ATOM      3  C   UNL     1      24.308 -14.139  -2.002  1.00  0.00     0.000 C 
BRANCH   3   4
ATOM      4  C   UNL     1      24.411 -13.375  -0.674  1.00  0.00     0.000 C 
BRANCH   4   5
ATOM      5  C   UNL     1      25.816 -12.780  -0.491  1.00  0.00     0.000 C 
BRANCH   5   6
ATOM      6  C   UNL     1      26.916 -13.622  -1.165  1.00  0.00     0.000 C 
BRANCH   6   7
ATOM      7  C   UNL     1      28.003 -14.149  -0.210  1.00  0.00     0.000 C 
BRANCH   7   8
ATOM      8  C   UNL     1      27.778 -13.721   1.248  1.00  0.00     0.000 C 
BRANCH   8   9
ATOM      9  C   UNL     1      28.981 -14.104   2.122  1.00  0.00     0.000 C 
BRANCH   9  10
ATOM     10  C   UNL     1      29.863 -15.195   1.487  1.00  0.00     0.000 C 
BRANCH  10  11
ATOM     11  C   UNL     1      30.792 -14.706   0.360  1.00  0.00     0.000 C 
BRANCH  11  12
ATOM     12  C   UNL     1      31.066 -15.785  -0.704  1.00  0.00     0.006 C 
BRANCH  12  13
ATOM     13  C   UNL     1      30.334 -17.099  -0.399  1.00  0.00     0.053 C 
BRANCH  13  14
ATOM     14  C   UNL     1      30.569 -18.128  -1.463  1.00  0.00     0.041 C 
ATOM     15  O   UNL     1      30.375 -19.349  -1.217  1.00  0.00    -0.550 OA
ATOM     16  O   UNL     1      31.029 -17.743  -2.715  1.00  0.00    -0.550 OA
ENDBRANCH  13  14
ENDBRANCH  12  13
ENDBRANCH  11  12
ENDBRANCH  10  11
ENDBRANCH   9  10
ENDBRANCH   8   9
ENDBRANCH   7   8
ENDBRANCH   6   7
ENDBRANCH   5   6
ENDBRANCH   4   5
ENDBRANCH   3   4
ENDBRANCH   2   3
ENDBRANCH   1   2
BRANCH   1  17
ATOM     17  C   UNL     1      24.077 -17.237  -2.156  1.00  0.00     0.000 C 
BRANCH  17  18
ATOM     18  C   UNL     1      24.432 -16.961  -3.628  1.00  0.00     0.000 C 
BRANCH  18  19
ATOM     19  C   UNL     1      25.918 -17.210  -3.928  1.00  0.00     0.000 C 
BRANCH  19  20
ATOM     20  C   UNL     1      26.721 -15.906  -4.085  1.00  0.00     0.000 C 
BRANCH  20  21
ATOM     21  C   UNL     1      28.067 -15.960  -3.329  1.00  0.00     0.000 C 
BRANCH  21  22
ATOM     22  C   UNL     1      29.226 -15.272  -4.072  1.00  0.00    -0.000 C 
BRANCH  22  23
ATOM     23  C   UNL     1      29.884 -14.156  -3.246  1.00  0.00    -0.000 C 
BRANCH  23  24
ATOM     24  C   UNL     1      29.750 -12.766  -3.896  1.00  0.00    -0.000 C 
BRANCH  24  25
ATOM     25  C   UNL     1      30.398 -11.609  -3.111  1.00  0.00    -0.000 C 
BRANCH  25  26
ATOM     26  C   UNL     1      30.972 -12.048  -1.755  1.00  0.00    -0.000 C 
BRANCH  26  27
ATOM     27  C   UNL     1      31.125 -10.848  -0.807  1.00  0.00    -0.000 C 
BRANCH  27  28
ATOM     28  C   UNL     1      31.125 -11.254   0.678  1.00  0.00    -0.000 C 
BRANCH  28  29
ATOM     29  C   UNL     1      30.138 -10.469   1.560  1.00  0.00    -0.003 C 
ATOM     30  C   UNL     1      30.255 -10.816   3.043  1.00  0.00     0.004 C 
ENDBRANCH  28  29
ENDBRANCH  27  28
ENDBRANCH  26  27
ENDBRANCH  25  26
ENDBRANCH  24  25
ENDBRANCH  23  24
ENDBRANCH  22  23
ENDBRANCH  21  22
ENDBRANCH  20  21
ENDBRANCH  19  20
ENDBRANCH  18  19
ENDBRANCH  17  18
ENDBRANCH   1  17
TORSDOF 26
ENDMDL
MODEL 3
REMARK VINA RESULT:    -0.513      1.549      6.280
REMARK INTER + INTRA:          -3.827
REMARK INTER:                  -4.616
REMARK INTRA:                   0.789
REMARK UNBOUND:                -2.534
REMARK SMILES CCCCCCCCCCCCCCCCCCCCCCCCCCCC(=O)[O-]
REMARK SMILES IDX 15 1 16 2 17 3 18 4 19 5 20 6 21 7 22 8 23 9 24 10 25 11
REMARK SMILES IDX 26 12 27 13 28 14 29 15 30 16 14 17 13 18 12 19 11 20 10 21
REMARK SMILES IDX 9 22 8 23 7 24 6 25 5 26 4 27 3 28 2 29 1 30
REMARK H PARENT
REMARK Flexibility Score: inf
ROOT
ATOM      1  C   UNL     1      26.009 -13.948  -0.897  1.00  0.00     0.000 C 
ENDROOT
BRANCH   1   2
ATOM      2  C   UNL     1      27.344 -13.182  -0.999  1.00  0.00     0.000 C 
BRANCH   2   3
ATOM      3  C   UNL     1      28.481 -13.730  -0.119  1.00  0.00     0.000 C 
BRANCH   3   4
ATOM      4  C   UNL     1      28.036 -14.011   1.324  1.00  0.00     0.000 C 
BRANCH   4   5
ATOM      5  C   UNL     1      29.124 -13.592   2.324  1.00  0.00     0.000 C 
BRANCH   5   6
ATOM      6  C   UNL     1      30.546 -13.704   1.746  1.00  0.00     0.000 C 
BRANCH   6   7
ATOM      7  C   UNL     1      31.084 -12.415   1.097  1.00  0.00     0.000 C 
BRANCH   7   8
ATOM      8  C   UNL     1      30.932 -11.182   2.002  1.00  0.00     0.000 C 
BRANCH   8   9
ATOM      9  C   UNL     1      30.382  -9.988   1.209  1.00  0.00     0.000 C 
BRANCH   9  10
ATOM     10  C   UNL     1      31.124  -9.754  -0.120  1.00  0.00     0.000 C 
BRANCH  10  11
ATOM     11  C   UNL     1      30.756 -10.733  -1.252  1.00  0.00     0.000 C 
BRANCH  11  12
ATOM     12  C   UNL     1      30.922 -10.119  -2.654  1.00  0.00     0.006 C 
BRANCH  12  13
ATOM     13  C   UNL     1      31.125 -11.189  -3.735  1.00  0.00     0.053 C 
BRANCH  13  14
ATOM     14  C   UNL     1      30.894 -12.570  -3.202  1.00  0.00     0.041 C 
ATOM     15  O   UNL     1      31.089 -12.820  -1.982  1.00  0.00    -0.550 OA
ATOM     16  O   UNL     1      30.490 -13.588  -4.056  1.00  0.00    -0.550 OA
ENDBRANCH  13  14
ENDBRANCH  12  13
ENDBRANCH  11  12
ENDBRANCH  10  11
ENDBRANCH   9  10
ENDBRANCH   8   9
ENDBRANCH   7   8
ENDBRANCH   6   7
ENDBRANCH   5   6
ENDBRANCH   4   5
ENDBRANCH   3   4
ENDBRANCH   2   3
ENDBRANCH   1   2
BRANCH   1  17
ATOM     17  C   UNL     1      24.823 -13.137  -0.344  1.00  0.00     0.000 C 
BRANCH  17  18
ATOM     18  C   UNL     1      23.534 -13.325  -1.164  1.00  0.00     0.000 C 
BRANCH  18  19
ATOM     19  C   UNL     1      23.528 -14.645  -1.950  1.00  0.00     0.000 C 
BRANCH  19  20
ATOM     20  C   UNL     1      24.602 -14.687  -3.053  1.00  0.00     0.000 C 
BRANCH  20  21
ATOM     21  C   UNL     1      24.627 -16.047  -3.785  1.00  0.00     0.000 C 
BRANCH  21  22
ATOM     22  C   UNL     1      26.044 -16.587  -4.044  1.00  0.00    -0.000 C 
BRANCH  22  23
ATOM     23  C   UNL     1      27.111 -15.481  -4.063  1.00  0.00    -0.000 C 
BRANCH  23  24
ATOM     24  C   UNL     1      28.546 -16.024  -3.932  1.00  0.00    -0.000 C 
BRANCH  24  25
ATOM     25  C   UNL     1      29.015 -16.298  -2.489  1.00  0.00    -0.000 C 
BRANCH  25  26
ATOM     26  C   UNL     1      30.450 -16.839  -2.414  1.00  0.00    -0.000 C 
BRANCH  26  27
ATOM     27  C   UNL     1      30.455 -18.368  -2.261  1.00  0.00    -0.000 C 
BRANCH  27  28
ATOM     28  C   UNL     1      30.166 -18.828  -0.820  1.00  0.00    -0.000 C 
BRANCH  28  29
ATOM     29  C   UNL     1      31.108 -18.239   0.245  1.00  0.00    -0.003 C 
ATOM     30  C   UNL     1      30.726 -16.821   0.664  1.00  0.00     0.004 C 
ENDBRANCH  28  29
ENDBRANCH  27  28
ENDBRANCH  26  27
ENDBRANCH  25  26
ENDBRANCH  24  25
ENDBRANCH  23  24
ENDBRANCH  22  23
ENDBRANCH  21  22
ENDBRANCH  20  21
ENDBRANCH  19  20
ENDBRANCH  18  19
ENDBRANCH  17  18
ENDBRANCH   1  17
TORSDOF 26
ENDMDL
MODEL 4
REMARK VINA RESULT:    -0.276      1.850      5.693
REMARK INTER + INTRA:          -3.228
REMARK INTER:                  -1.499
REMARK INTRA:                  -1.729
REMARK UNBOUND:                -2.534
REMARK SMILES CCCCCCCCCCCCCCCCCCCCCCCCCCCC(=O)[O-]
REMARK SMILES IDX 15 1 16 2 17 3 18 4 19 5 20 6 21 7 22 8 23 9 24 10 25 11
REMARK SMILES IDX 26 12 27 13 28 14 29 15 30 16 14 17 13 18 12 19 11 20 10 21
REMARK SMILES IDX 9 22 8 23 7 24 6 25 5 26 4 27 3 28 2 29 1 30
REMARK H PARENT
REMARK Flexibility Score: inf
ROOT
ATOM      1  C   UNL     1      24.012 -14.188  -0.891  1.00  0.00     0.000 C 
ENDROOT
BRANCH   1   2
ATOM      2  C   UNL     1      24.942 -13.196  -0.162  1.00  0.00     0.000 C 
BRANCH   2   3
ATOM      3  C   UNL     1      26.337 -13.742   0.187  1.00  0.00     0.000 C 
BRANCH   3   4
ATOM      4  C   UNL     1      27.324 -13.649  -0.987  1.00  0.00     0.000 C 
BRANCH   4   5
ATOM      5  C   UNL     1      28.695 -13.144  -0.511  1.00  0.00     0.000 C 
BRANCH   5   6
ATOM      6  C   UNL     1      29.816 -13.399  -1.535  1.00  0.00     0.000 C 
BRANCH   6   7
ATOM      7  C   UNL     1      29.816 -12.446  -2.746  1.00  0.00     0.000 C 
BRANCH   7   8
ATOM      8  C   UNL     1      31.116 -11.637  -2.869  1.00  0.00     0.000 C 
BRANCH   8   9
ATOM      9  C   UNL     1      31.098 -10.427  -1.923  1.00  0.00     0.000 C 
BRANCH   9  10
ATOM     10  C   UNL     1      30.931 -10.822  -0.444  1.00  0.00     0.000 C 
BRANCH  10  11
ATOM     11  C   UNL     1      30.683  -9.646   0.519  1.00  0.00     0.000 C 
BRANCH  11  12
ATOM     12  C   UNL     1      31.122  -9.949   1.963  1.00  0.00     0.006 C 
BRANCH  12  13
ATOM     13  C   UNL     1      30.824 -11.399   2.369  1.00  0.00     0.053 C 
BRANCH  13  14
ATOM     14  C   UNL     1      29.429 -11.555   2.893  1.00  0.00     0.041 C 
ATOM     15  O   UNL     1      28.789 -12.620   2.682  1.00  0.00    -0.550 OA
ATOM     16  O   UNL     1      28.826 -10.517   3.589  1.00  0.00    -0.550 OA
ENDBRANCH  13  14
ENDBRANCH  12  13
ENDBRANCH  11  12
ENDBRANCH  10  11
ENDBRANCH   9  10
ENDBRANCH   8   9
ENDBRANCH   7   8
ENDBRANCH   6   7
ENDBRANCH   5   6
ENDBRANCH   4   5
ENDBRANCH   3   4
ENDBRANCH   2   3
ENDBRANCH   1   2
BRANCH   1  17
ATOM     17  C   UNL     1      23.492 -13.719  -2.262  1.00  0.00     0.000 C 
BRANCH  17  18
ATOM     18  C   UNL     1      24.508 -13.942  -3.396  1.00  0.00     0.000 C 
BRANCH  18  19
ATOM     19  C   UNL     1      25.655 -14.876  -2.980  1.00  0.00     0.000 C 
BRANCH  19  20
ATOM     20  C   UNL     1      25.945 -15.967  -4.026  1.00  0.00     0.000 C 
BRANCH  20  21
ATOM     21  C   UNL     1      27.400 -16.479  -3.940  1.00  0.00     0.000 C 
BRANCH  21  22
ATOM     22  C   UNL     1      28.457 -15.365  -4.026  1.00  0.00    -0.000 C 
BRANCH  22  23
ATOM     23  C   UNL     1      29.891 -15.909  -4.123  1.00  0.00    -0.000 C 
BRANCH  23  24
ATOM     24  C   UNL     1      30.525 -16.186  -2.747  1.00  0.00    -0.000 C 
BRANCH  24  25
ATOM     25  C   UNL     1      30.673 -17.677  -2.382  1.00  0.00    -0.000 C 
BRANCH  25  26
ATOM     26  C   UNL     1      29.550 -18.187  -1.467  1.00  0.00    -0.000 C 
BRANCH  26  27
ATOM     27  C   UNL     1      29.051 -17.074  -0.532  1.00  0.00    -0.000 C 
BRANCH  27  28
ATOM     28  C   UNL     1      29.936 -16.897   0.715  1.00  0.00    -0.000 C 
BRANCH  28  29
ATOM     29  C   UNL     1      30.946 -15.740   0.629  1.00  0.00    -0.003 C 
ATOM     30  C   UNL     1      30.864 -14.783   1.817  1.00  0.00     0.004 C 
ENDBRANCH  28  29
ENDBRANCH  27  28
ENDBRANCH  26  27
ENDBRANCH  25  26
ENDBRANCH  24  25
ENDBRANCH  23  24
ENDBRANCH  22  23
ENDBRANCH  21  22
ENDBRANCH  20  21
ENDBRANCH  19  20
ENDBRANCH  18  19
ENDBRANCH  17  18
ENDBRANCH   1  17
TORSDOF 26
ENDMDL
MODEL 5
REMARK VINA RESULT:     0.074      1.173      3.623
REMARK INTER + INTRA:          -2.348
REMARK INTER:                  -2.702
REMARK INTRA:                   0.354
REMARK UNBOUND:                -2.534
REMARK SMILES CCCCCCCCCCCCCCCCCCCCCCCCCCCC(=O)[O-]
REMARK SMILES IDX 15 1 16 2 17 3 18 4 19 5 20 6 21 7 22 8 23 9 24 10 25 11
REMARK SMILES IDX 26 12 27 13 28 14 29 15 30 16 14 17 13 18 12 19 11 20 10 21
REMARK SMILES IDX 9 22 8 23 7 24 6 25 5 26 4 27 3 28 2 29 1 30
REMARK H PARENT
REMARK Flexibility Score: inf
ROOT
ATOM      1  C   UNL     1      25.582 -12.820   0.667  1.00  0.00     0.000 C 
ENDROOT
BRANCH   1   2
ATOM      2  C   UNL     1      24.977 -12.534  -0.724  1.00  0.00     0.000 C 
BRANCH   2   3
ATOM      3  C   UNL     1      24.251 -13.721  -1.379  1.00  0.00     0.000 C 
BRANCH   3   4
ATOM      4  C   UNL     1      25.205 -14.671  -2.116  1.00  0.00     0.000 C 
BRANCH   4   5
ATOM      5  C   UNL     1      24.444 -15.528  -3.138  1.00  0.00     0.000 C 
BRANCH   5   6
ATOM      6  C   UNL     1      25.152 -16.859  -3.451  1.00  0.00     0.000 C 
BRANCH   6   7
ATOM      7  C   UNL     1      26.529 -16.717  -4.125  1.00  0.00     0.000 C 
BRANCH   7   8
ATOM      8  C   UNL     1      27.606 -16.172  -3.174  1.00  0.00     0.000 C 
BRANCH   8   9
ATOM      9  C   UNL     1      28.537 -15.195  -3.907  1.00  0.00     0.000 C 
BRANCH   9  10
ATOM     10  C   UNL     1      29.965 -15.744  -4.086  1.00  0.00     0.000 C 
BRANCH  10  11
ATOM     11  C   UNL     1      30.112 -17.260  -3.858  1.00  0.00     0.000 C 
BRANCH  11  12
ATOM     12  C   UNL     1      31.089 -17.603  -2.718  1.00  0.00     0.006 C 
BRANCH  12  13
ATOM     13  C   UNL     1      30.395 -18.331  -1.559  1.00  0.00     0.053 C 
BRANCH  13  14
ATOM     14  C   UNL     1      30.128 -17.414  -0.404  1.00  0.00     0.041 C 
ATOM     15  O   UNL     1      29.012 -16.836  -0.299  1.00  0.00    -0.550 OA
ATOM     16  O   UNL     1      31.118 -17.175   0.539  1.00  0.00    -0.550 OA
ENDBRANCH  13  14
ENDBRANCH  12  13
ENDBRANCH  11  12
ENDBRANCH  10  11
ENDBRANCH   9  10
ENDBRANCH   8   9
ENDBRANCH   7   8
ENDBRANCH   6   7
ENDBRANCH   5   6
ENDBRANCH   4   5
ENDBRANCH   3   4
ENDBRANCH   2   3
ENDBRANCH   1   2
BRANCH   1  17
ATOM     17  C   UNL     1      27.109 -13.014   0.695  1.00  0.00     0.000 C 
BRANCH  17  18
ATOM     18  C   UNL     1      27.709 -13.249  -0.703  1.00  0.00     0.000 C 
BRANCH  18  19
ATOM     19  C   UNL     1      28.862 -14.264  -0.682  1.00  0.00     0.000 C 
BRANCH  19  20
ATOM     20  C   UNL     1      30.247 -13.593  -0.666  1.00  0.00     0.000 C 
BRANCH  20  21
ATOM     21  C   UNL     1      30.994 -13.774  -2.006  1.00  0.00     0.000 C 
BRANCH  21  22
ATOM     22  C   UNL     1      30.925 -12.544  -2.927  1.00  0.00    -0.000 C 
BRANCH  22  23
ATOM     23  C   UNL     1      30.824 -11.222  -2.150  1.00  0.00    -0.000 C 
BRANCH  23  24
ATOM     24  C   UNL     1      31.054 -11.393  -0.637  1.00  0.00    -0.000 C 
BRANCH  24  25
ATOM     25  C   UNL     1      30.282 -10.405   0.259  1.00  0.00    -0.000 C 
BRANCH  25  26
ATOM     26  C   UNL     1      31.123  -9.862   1.424  1.00  0.00    -0.000 C 
BRANCH  26  27
ATOM     27  C   UNL     1      30.657 -10.454   2.764  1.00  0.00    -0.000 C 
BRANCH  27  28
ATOM     28  C   UNL     1      30.746 -11.991   2.804  1.00  0.00    -0.000 C 
BRANCH  28  29
ATOM     29  C   UNL     1      29.391 -12.713   2.897  1.00  0.00    -0.003 C 
ATOM     30  C   UNL     1      29.504 -14.225   2.713  1.00  0.00     0.004 C 
ENDBRANCH  28  29
ENDBRANCH  27  28
ENDBRANCH  26  27
ENDBRANCH  25  26
ENDBRANCH  24  25
ENDBRANCH  23  24
ENDBRANCH  22  23
ENDBRANCH  21  22
ENDBRANCH  20  21
ENDBRANCH  19  20
ENDBRANCH  18  19
ENDBRANCH  17  18
ENDBRANCH   1  17
TORSDOF 26
ENDMDL
MODEL 6
REMARK VINA RESULT:     0.143      1.740      3.971
REMARK INTER + INTRA:          -2.173
REMARK INTER:                  -1.779
REMARK INTRA:                  -0.395
REMARK UNBOUND:                -2.534
REMARK SMILES CCCCCCCCCCCCCCCCCCCCCCCCCCCC(=O)[O-]
REMARK SMILES IDX 15 1 16 2 17 3 18 4 19 5 20 6 21 7 22 8 23 9 24 10 25 11
REMARK SMILES IDX 26 12 27 13 28 14 29 15 30 16 14 17 13 18 12 19 11 20 10 21
REMARK SMILES IDX 9 22 8 23 7 24 6 25 5 26 4 27 3 28 2 29 1 30
REMARK H PARENT
REMARK Flexibility Score: inf
ROOT
ATOM      1  C   UNL     1      26.535 -16.237  -2.671  1.00  0.00     0.000 C 
ENDROOT
BRANCH   1   2
ATOM      2  C   UNL     1      28.039 -15.989  -2.909  1.00  0.00     0.000 C 
BRANCH   2   3
ATOM      3  C   UNL     1      28.754 -17.060  -3.750  1.00  0.00     0.000 C 
BRANCH   3   4
ATOM      4  C   UNL     1      30.215 -16.700  -4.056  1.00  0.00     0.000 C 
BRANCH   4   5
ATOM      5  C   UNL     1      31.113 -16.973  -2.840  1.00  0.00     0.000 C 
BRANCH   5   6
ATOM      6  C   UNL     1      31.071 -18.441  -2.380  1.00  0.00     0.000 C 
BRANCH   6   7
ATOM      7  C   UNL     1      29.996 -18.758  -1.324  1.00  0.00     0.000 C 
BRANCH   7   8
ATOM      8  C   UNL     1      30.549 -18.764   0.109  1.00  0.00     0.000 C 
BRANCH   8   9
ATOM      9  C   UNL     1      31.123 -17.389   0.478  1.00  0.00     0.000 C 
BRANCH   9  10
ATOM     10  C   UNL     1      30.088 -16.254   0.363  1.00  0.00     0.000 C 
BRANCH  10  11
ATOM     11  C   UNL     1      30.566 -14.883   0.878  1.00  0.00     0.000 C 
BRANCH  11  12
ATOM     12  C   UNL     1      31.032 -13.946  -0.252  1.00  0.00     0.006 C 
BRANCH  12  13
ATOM     13  C   UNL     1      30.503 -14.384  -1.624  1.00  0.00     0.053 C 
BRANCH  13  14
ATOM     14  C   UNL     1      30.545 -13.265  -2.620  1.00  0.00     0.041 C 
ATOM     15  O   UNL     1      30.869 -12.103  -2.254  1.00  0.00    -0.550 OA
ATOM     16  O   UNL     1      30.200 -13.498  -3.944  1.00  0.00    -0.550 OA
ENDBRANCH  13  14
ENDBRANCH  12  13
ENDBRANCH  11  12
ENDBRANCH  10  11
ENDBRANCH   9  10
ENDBRANCH   8   9
ENDBRANCH   7   8
ENDBRANCH   6   7
ENDBRANCH   5   6
ENDBRANCH   4   5
ENDBRANCH   3   4
ENDBRANCH   2   3
ENDBRANCH   1   2
BRANCH   1  17
ATOM     17  C   UNL     1      25.613 -15.884  -3.853  1.00  0.00     0.000 C 
BRANCH  17  18
ATOM     18  C   UNL     1      25.484 -14.368  -4.080  1.00  0.00     0.000 C 
BRANCH  18  19
ATOM     19  C   UNL     1      24.389 -13.737  -3.206  1.00  0.00     0.000 C 
BRANCH  19  20
ATOM     20  C   UNL     1      23.977 -14.634  -2.025  1.00  0.00     0.000 C 
BRANCH  20  21
ATOM     21  C   UNL     1      24.435 -14.054  -0.669  1.00  0.00     0.000 C 
BRANCH  21  22
ATOM     22  C   UNL     1      25.575 -13.026  -0.786  1.00  0.00    -0.000 C 
BRANCH  22  23
ATOM     23  C   UNL     1      26.953 -13.624  -0.462  1.00  0.00    -0.000 C 
BRANCH  23  24
ATOM     24  C   UNL     1      27.130 -13.955   1.032  1.00  0.00    -0.000 C 
BRANCH  24  25
ATOM     25  C   UNL     1      27.820 -12.859   1.869  1.00  0.00    -0.000 C 
BRANCH  25  26
ATOM     26  C   UNL     1      29.340 -13.048   1.974  1.00  0.00    -0.000 C 
BRANCH  26  27
ATOM     27  C   UNL     1      29.941 -12.108   3.031  1.00  0.00    -0.000 C 
BRANCH  27  28
ATOM     28  C   UNL     1      29.886 -10.626   2.615  1.00  0.00    -0.000 C 
BRANCH  28  29
ATOM     29  C   UNL     1      31.122 -10.127   1.847  1.00  0.00    -0.003 C 
ATOM     30  C   UNL     1      30.864  -9.944   0.352  1.00  0.00     0.004 C 
ENDBRANCH  28  29
ENDBRANCH  27  28
ENDBRANCH  26  27
ENDBRANCH  25  26
ENDBRANCH  24  25
ENDBRANCH  23  24
ENDBRANCH  22  23
ENDBRANCH  21  22
ENDBRANCH  20  21
ENDBRANCH  19  20
ENDBRANCH  18  19
ENDBRANCH  17  18
ENDBRANCH   1  17
TORSDOF 26
ENDMDL
MODEL 7
REMARK VINA RESULT:     1.148      1.529      4.182
REMARK INTER + INTRA:           0.360
REMARK INTER:                   2.385
REMARK INTRA:                  -2.025
REMARK UNBOUND:                -2.534
REMARK SMILES CCCCCCCCCCCCCCCCCCCCCCCCCCCC(=O)[O-]
REMARK SMILES IDX 15 1 16 2 17 3 18 4 19 5 20 6 21 7 22 8 23 9 24 10 25 11
REMARK SMILES IDX 26 12 27 13 28 14 29 15 30 16 14 17 13 18 12 19 11 20 10 21
REMARK SMILES IDX 9 22 8 23 7 24 6 25 5 26 4 27 3 28 2 29 1 30
REMARK H PARENT
REMARK Flexibility Score: inf
ROOT
ATOM      1  C   UNL     1      26.852 -13.426  -1.197  1.00  0.00     0.000 C 
ENDROOT
BRANCH   1   2
ATOM      2  C   UNL     1      25.666 -13.021  -0.296  1.00  0.00     0.000 C 
BRANCH   2   3
ATOM      3  C   UNL     1      24.275 -13.187  -0.932  1.00  0.00     0.000 C 
BRANCH   3   4
ATOM      4  C   UNL     1      24.276 -12.928  -2.445  1.00  0.00     0.000 C 
BRANCH   4   5
ATOM      5  C   UNL     1      24.789 -14.157  -3.211  1.00  0.00     0.000 C 
BRANCH   5   6
ATOM      6  C   UNL     1      24.161 -15.475  -2.720  1.00  0.00     0.000 C 
BRANCH   6   7
ATOM      7  C   UNL     1      25.050 -16.720  -2.895  1.00  0.00     0.000 C 
BRANCH   7   8
ATOM      8  C   UNL     1      26.205 -16.496  -3.883  1.00  0.00     0.000 C 
BRANCH   8   9
ATOM      9  C   UNL     1      27.458 -15.992  -3.153  1.00  0.00     0.000 C 
BRANCH   9  10
ATOM     10  C   UNL     1      28.733 -16.084  -4.013  1.00  0.00     0.000 C 
BRANCH  10  11
ATOM     11  C   UNL     1      29.950 -15.323  -3.454  1.00  0.00     0.000 C 
BRANCH  11  12
ATOM     12  C   UNL     1      30.860 -16.205  -2.580  1.00  0.00     0.006 C 
BRANCH  12  13
ATOM     13  C   UNL     1      30.925 -17.652  -3.085  1.00  0.00     0.053 C 
BRANCH  13  14
ATOM     14  C   UNL     1      30.750 -18.640  -1.972  1.00  0.00     0.041 C 
ATOM     15  O   UNL     1      30.564 -19.860  -2.231  1.00  0.00    -0.550 OA
ATOM     16  O   UNL     1      30.763 -18.211  -0.652  1.00  0.00    -0.550 OA
ENDBRANCH  13  14
ENDBRANCH  12  13
ENDBRANCH  11  12
ENDBRANCH  10  11
ENDBRANCH   9  10
ENDBRANCH   8   9
ENDBRANCH   7   8
ENDBRANCH   6   7
ENDBRANCH   5   6
ENDBRANCH   4   5
ENDBRANCH   3   4
ENDBRANCH   2   3
ENDBRANCH   1   2
BRANCH   1  17
ATOM     17  C   UNL     1      28.243 -13.014  -0.681  1.00  0.00     0.000 C 
BRANCH  17  18
ATOM     18  C   UNL     1      29.274 -12.846  -1.811  1.00  0.00     0.000 C 
BRANCH  18  19
ATOM     19  C   UNL     1      30.588 -12.220  -1.317  1.00  0.00     0.000 C 
BRANCH  19  20
ATOM     20  C   UNL     1      30.855 -10.833  -1.930  1.00  0.00     0.000 C 
BRANCH  20  21
ATOM     21  C   UNL     1      30.165  -9.705  -1.133  1.00  0.00     0.000 C 
BRANCH  21  22
ATOM     22  C   UNL     1      31.125  -8.890  -0.250  1.00  0.00    -0.000 C 
BRANCH  22  23
ATOM     23  C   UNL     1      31.121  -9.349   1.217  1.00  0.00    -0.000 C 
BRANCH  23  24
ATOM     24  C   UNL     1      30.330 -10.651   1.440  1.00  0.00    -0.000 C 
BRANCH  24  25
ATOM     25  C   UNL     1      29.774 -10.846   2.864  1.00  0.00    -0.000 C 
BRANCH  25  26
ATOM     26  C   UNL     1      29.649 -12.323   3.267  1.00  0.00    -0.000 C 
BRANCH  26  27
ATOM     27  C   UNL     1      30.152 -13.245   2.145  1.00  0.00    -0.000 C 
BRANCH  27  28
ATOM     28  C   UNL     1      29.441 -14.610   2.127  1.00  0.00    -0.000 C 
BRANCH  28  29
ATOM     29  C   UNL     1      29.632 -15.420   0.832  1.00  0.00    -0.003 C 
ATOM     30  C   UNL     1      28.388 -16.212   0.433  1.00  0.00     0.004 C 
ENDBRANCH  28  29
ENDBRANCH  27  28
ENDBRANCH  26  27
ENDBRANCH  25  26
ENDBRANCH  24  25
ENDBRANCH  23  24
ENDBRANCH  22  23
ENDBRANCH  21  22
ENDBRANCH  20  21
ENDBRANCH  19  20
ENDBRANCH  18  19
ENDBRANCH  17  18
ENDBRANCH   1  17
TORSDOF 26
ENDMDL
