MODEL 1
REMARK VINA RESULT:     7.183      0.000      0.000
REMARK INTER + INTRA:           9.394
REMARK INTER:                  10.332
REMARK INTRA:                  -0.938
REMARK UNBOUND:                -0.938
REMARK SMILES O=c1c(O[C@@H]2O[C@H](CO)[C@H](O)[C@@H](O)[C@@H]2O)c(-c2ccc(O)cc2)oc2cc(O)cc(O)c12
REMARK SMILES IDX 4 1 3 2 16 3 24 4 2 5 25 6 1 7 32 8 26 9 30 10 27 11 29 12
REMARK SMILES IDX 17 13 18 14 19 15 20 16 23 17 22 18 21 19 31 21 28 23 5 25
REMARK SMILES IDX 14 26 6 27 12 28 7 29 10 30 15 31 13 33 8 35 9 36 11 38
REMARK H PARENT 21 20 31 22 28 24 15 32 13 34 9 37 11 39
REMARK Flexibility Score: inf
ROOT
ATOM      1  O   UNL     1      16.340  -1.706  28.739  1.00  0.00    -0.454 OA
ENDROOT
BRANCH   1   2
ATOM      2  C   UNL     1      15.821  -1.077  27.596  1.00  0.00     0.214 A 
ATOM      3  C   UNL     1      15.601  -1.769  26.384  1.00  0.00     0.180 A 
ATOM      4  O   UNL     1      15.209  -1.101  25.304  1.00  0.00    -0.452 OA
ATOM      5  C   UNL     1      15.515   0.287  27.655  1.00  0.00     0.239 A 
ATOM      6  C   UNL     1      14.957   0.203  25.306  1.00  0.00     0.146 A 
ATOM      7  O   UNL     1      15.647   0.900  28.750  1.00  0.00    -0.285 OA
ATOM      8  C   UNL     1      15.083   0.959  26.494  1.00  0.00     0.111 A 
ATOM      9  C   UNL     1      14.553   0.820  24.118  1.00  0.00     0.094 A 
ATOM     10  C   UNL     1      14.787   2.344  26.466  1.00  0.00     0.134 A 
ATOM     11  C   UNL     1      14.263   2.189  24.096  1.00  0.00     0.123 A 
ATOM     12  C   UNL     1      14.380   2.944  25.265  1.00  0.00     0.093 A 
BRANCH   3  13
ATOM     13  C   UNL     1      15.763  -3.234  26.269  1.00  0.00     0.021 A 
ATOM     14  C   UNL     1      17.016  -3.819  26.509  1.00  0.00     0.016 A 
ATOM     15  C   UNL     1      17.180  -5.202  26.406  1.00  0.00     0.047 A 
ATOM     16  C   UNL     1      16.097  -6.015  26.043  1.00  0.00     0.115 A 
ATOM     17  C   UNL     1      14.686  -4.050  25.882  1.00  0.00     0.016 A 
ATOM     18  C   UNL     1      14.854  -5.434  25.776  1.00  0.00     0.047 A 
BRANCH  16  19
ATOM     19  O   UNL     1      16.245  -7.397  25.950  1.00  0.00    -0.508 OA
ATOM     20  H   UNL     1      15.452  -8.021  26.042  1.00  0.00     0.293 HD
ENDBRANCH  16  19
ENDBRANCH   3  13
BRANCH  10  21
ATOM     21  O   UNL     1      14.898   3.125  27.617  1.00  0.00    -0.507 OA
ATOM     22  H   UNL     1      14.081   3.482  28.100  1.00  0.00     0.293 HD
ENDBRANCH  10  21
BRANCH  11  23
ATOM     23  O   UNL     1      13.858   2.809  22.915  1.00  0.00    -0.508 OA
ATOM     24  H   UNL     1      14.092   3.773  22.716  1.00  0.00     0.293 HD
ENDBRANCH  11  23
ENDBRANCH   1   2
BRANCH   1  25
ATOM     25  C   UNL     1      17.690  -1.543  29.189  1.00  0.00     0.339 C 
ATOM     26  C   UNL     1      18.120  -2.771  30.054  1.00  0.00     0.214 C 
ATOM     27  O   UNL     1      18.509  -1.356  28.042  1.00  0.00    -0.332 OA
ATOM     28  C   UNL     1      18.946  -3.753  29.207  1.00  0.00     0.180 C 
ATOM     29  C   UNL     1      19.876  -1.530  28.361  1.00  0.00     0.179 C 
ATOM     30  C   UNL     1      20.172  -3.038  28.589  1.00  0.00     0.177 C 
BRANCH  26  31
ATOM     31  O   UNL     1      17.005  -3.430  30.596  1.00  0.00    -0.384 OA
ATOM     32  H   UNL     1      17.356  -4.205  31.110  1.00  0.00     0.211 HD
ENDBRANCH  26  31
BRANCH  28  33
ATOM     33  O   UNL     1      19.384  -4.829  29.998  1.00  0.00    -0.387 OA
ATOM     34  H   UNL     1      19.784  -5.496  29.382  1.00  0.00     0.211 HD
ENDBRANCH  28  33
BRANCH  29  35
ATOM     35  C   UNL     1      20.740  -0.917  27.252  1.00  0.00     0.191 C 
BRANCH  35  36
ATOM     36  O   UNL     1      19.971  -0.753  26.094  1.00  0.00    -0.394 OA
ATOM     37  H   UNL     1      19.283  -0.071  26.312  1.00  0.00     0.210 HD
ENDBRANCH  35  36
ENDBRANCH  29  35
BRANCH  30  38
ATOM     38  O   UNL     1      20.513  -3.670  27.379  1.00  0.00    -0.387 OA
ATOM     39  H   UNL     1      21.462  -3.953  27.461  1.00  0.00     0.211 HD
ENDBRANCH  30  38
ENDBRANCH   1  25
TORSDOF 11
ENDMDL
MODEL 2
REMARK VINA RESULT:     8.160      1.636      5.623
REMARK INTER + INTRA:          10.800
REMARK INTER:                  10.583
REMARK INTRA:                   0.216
REMARK UNBOUND:                -0.938
REMARK SMILES O=c1c(O[C@@H]2O[C@H](CO)[C@H](O)[C@@H](O)[C@@H]2O)c(-c2ccc(O)cc2)oc2cc(O)cc(O)c12
REMARK SMILES IDX 4 1 3 2 16 3 24 4 2 5 25 6 1 7 32 8 26 9 30 10 27 11 29 12
REMARK SMILES IDX 17 13 18 14 19 15 20 16 23 17 22 18 21 19 31 21 28 23 5 25
REMARK SMILES IDX 14 26 6 27 12 28 7 29 10 30 15 31 13 33 8 35 9 36 11 38
REMARK H PARENT 21 20 31 22 28 24 15 32 13 34 9 37 11 39
REMARK Flexibility Score: inf
ROOT
ATOM      1  O   UNL     1      16.230  -2.817  28.086  1.00  0.00    -0.454 OA
ENDROOT
BRANCH   1   2
ATOM      2  C   UNL     1      15.962  -3.481  26.878  1.00  0.00     0.214 A 
ATOM      3  C   UNL     1      15.390  -2.826  25.765  1.00  0.00     0.180 A 
ATOM      4  O   UNL     1      15.059  -3.527  24.685  1.00  0.00    -0.452 OA
ATOM      5  C   UNL     1      16.267  -4.842  26.773  1.00  0.00     0.239 A 
ATOM      6  C   UNL     1      15.285  -4.830  24.565  1.00  0.00     0.146 A 
ATOM      7  O   UNL     1      16.836  -5.421  27.739  1.00  0.00    -0.285 OA
ATOM      8  C   UNL     1      15.919  -5.550  25.605  1.00  0.00     0.111 A 
ATOM      9  C   UNL     1      14.898  -5.484  23.392  1.00  0.00     0.094 A 
ATOM     10  C   UNL     1      16.163  -6.935  25.437  1.00  0.00     0.134 A 
ATOM     11  C   UNL     1      15.141  -6.852  23.231  1.00  0.00     0.123 A 
ATOM     12  C   UNL     1      15.770  -7.571  24.251  1.00  0.00     0.093 A 
BRANCH   3  13
ATOM     13  C   UNL     1      15.165  -1.366  25.735  1.00  0.00     0.021 A 
ATOM     14  C   UNL     1      15.056  -0.702  24.502  1.00  0.00     0.016 A 
ATOM     15  C   UNL     1      14.840   0.678  24.461  1.00  0.00     0.047 A 
ATOM     16  C   UNL     1      14.748   1.412  25.652  1.00  0.00     0.115 A 
ATOM     17  C   UNL     1      15.096  -0.621  26.924  1.00  0.00     0.016 A 
ATOM     18  C   UNL     1      14.883   0.760  26.881  1.00  0.00     0.047 A 
BRANCH  16  19
ATOM     19  O   UNL     1      14.519   2.786  25.623  1.00  0.00    -0.508 OA
ATOM     20  H   UNL     1      15.115   3.432  26.130  1.00  0.00     0.293 HD
ENDBRANCH  16  19
ENDBRANCH   3  13
BRANCH  10  21
ATOM     21  O   UNL     1      16.787  -7.680  26.438  1.00  0.00    -0.507 OA
ATOM     22  H   UNL     1      16.385  -8.542  26.790  1.00  0.00     0.293 HD
ENDBRANCH  10  21
BRANCH  11  23
ATOM     23  O   UNL     1      14.759  -7.509  22.063  1.00  0.00    -0.508 OA
ATOM     24  H   UNL     1      14.868  -7.078  21.153  1.00  0.00     0.293 HD
ENDBRANCH  11  23
ENDBRANCH   1   2
BRANCH   1  25
ATOM     25  C   UNL     1      17.358  -1.957  28.284  1.00  0.00     0.339 C 
ATOM     26  C   UNL     1      18.337  -2.587  29.327  1.00  0.00     0.214 C 
ATOM     27  O   UNL     1      17.963  -1.737  27.016  1.00  0.00    -0.332 OA
ATOM     28  C   UNL     1      19.503  -3.284  28.607  1.00  0.00     0.180 C 
ATOM     29  C   UNL     1      19.260  -1.192  27.161  1.00  0.00     0.179 C 
ATOM     30  C   UNL     1      20.234  -2.290  27.671  1.00  0.00     0.177 C 
BRANCH  26  31
ATOM     31  O   UNL     1      17.676  -3.503  30.161  1.00  0.00    -0.384 OA
ATOM     32  H   UNL     1      18.381  -4.063  30.582  1.00  0.00     0.211 HD
ENDBRANCH  26  31
BRANCH  28  33
ATOM     33  O   UNL     1      20.415  -3.799  29.543  1.00  0.00    -0.387 OA
ATOM     34  H   UNL     1      20.985  -3.041  29.838  1.00  0.00     0.211 HD
ENDBRANCH  28  33
BRANCH  29  35
ATOM     35  C   UNL     1      19.705  -0.577  25.828  1.00  0.00     0.191 C 
BRANCH  35  36
ATOM     36  O   UNL     1      18.641  -0.608  24.918  1.00  0.00    -0.394 OA
ATOM     37  H   UNL     1      18.672   0.253  24.426  1.00  0.00     0.210 HD
ENDBRANCH  35  36
ENDBRANCH  29  35
BRANCH  30  38
ATOM     38  O   UNL     1      20.798  -2.999  26.595  1.00  0.00    -0.387 OA
ATOM     39  H   UNL     1      20.067  -3.154  25.939  1.00  0.00     0.211 HD
ENDBRANCH  30  38
ENDBRANCH   1  25
TORSDOF 11
ENDMDL
MODEL 3
REMARK VINA RESULT:     9.515      6.977     11.092
REMARK INTER + INTRA:          12.749
REMARK INTER:                  12.575
REMARK INTRA:                   0.174
REMARK UNBOUND:                -0.938
REMARK SMILES O=c1c(O[C@@H]2O[C@H](CO)[C@H](O)[C@@H](O)[C@@H]2O)c(-c2ccc(O)cc2)oc2cc(O)cc(O)c12
REMARK SMILES IDX 4 1 3 2 16 3 24 4 2 5 25 6 1 7 32 8 26 9 30 10 27 11 29 12
REMARK SMILES IDX 17 13 18 14 19 15 20 16 23 17 22 18 21 19 31 21 28 23 5 25
REMARK SMILES IDX 14 26 6 27 12 28 7 29 10 30 15 31 13 33 8 35 9 36 11 38
REMARK H PARENT 21 20 31 22 28 24 15 32 13 34 9 37 11 39
REMARK Flexibility Score: inf
ROOT
ATOM      1  O   UNL     1      15.631 -11.927  28.672  1.00  0.00    -0.454 OA
ENDROOT
BRANCH   1   2
ATOM      2  C   UNL     1      15.270 -10.711  28.070  1.00  0.00     0.214 A 
ATOM      3  C   UNL     1      13.942 -10.231  28.069  1.00  0.00     0.180 A 
ATOM      4  O   UNL     1      13.639  -9.127  27.393  1.00  0.00    -0.452 OA
ATOM      5  C   UNL     1      16.261  -9.947  27.444  1.00  0.00     0.239 A 
ATOM      6  C   UNL     1      14.541  -8.402  26.742  1.00  0.00     0.146 A 
ATOM      7  O   UNL     1      17.461 -10.334  27.494  1.00  0.00    -0.285 OA
ATOM      8  C   UNL     1      15.906  -8.771  26.752  1.00  0.00     0.111 A 
ATOM      9  C   UNL     1      14.127  -7.257  26.055  1.00  0.00     0.094 A 
ATOM     10  C   UNL     1      16.845  -7.964  26.065  1.00  0.00     0.134 A 
ATOM     11  C   UNL     1      15.059  -6.463  25.377  1.00  0.00     0.123 A 
ATOM     12  C   UNL     1      16.410  -6.818  25.384  1.00  0.00     0.093 A 
BRANCH   3  13
ATOM     13  C   UNL     1      12.859 -10.897  28.823  1.00  0.00     0.021 A 
ATOM     14  C   UNL     1      12.858 -10.854  30.226  1.00  0.00     0.016 A 
ATOM     15  C   UNL     1      11.837 -11.477  30.950  1.00  0.00     0.047 A 
ATOM     16  C   UNL     1      10.817 -12.165  30.278  1.00  0.00     0.115 A 
ATOM     17  C   UNL     1      11.847 -11.608  28.156  1.00  0.00     0.016 A 
ATOM     18  C   UNL     1      10.829 -12.233  28.882  1.00  0.00     0.047 A 
BRANCH  16  19
ATOM     19  O   UNL     1       9.787 -12.779  30.988  1.00  0.00    -0.508 OA
ATOM     20  H   UNL     1       9.398 -12.359  31.825  1.00  0.00     0.293 HD
ENDBRANCH  16  19
ENDBRANCH   3  13
BRANCH  10  21
ATOM     21  O   UNL     1      18.201  -8.294  26.051  1.00  0.00    -0.507 OA
ATOM     22  H   UNL     1      18.525  -9.208  25.756  1.00  0.00     0.293 HD
ENDBRANCH  10  21
BRANCH  11  23
ATOM     23  O   UNL     1      14.652  -5.320  24.691  1.00  0.00    -0.508 OA
ATOM     24  H   UNL     1      13.827  -5.319  24.105  1.00  0.00     0.293 HD
ENDBRANCH  11  23
ENDBRANCH   1   2
BRANCH   1  25
ATOM     25  C   UNL     1      14.752 -13.053  28.773  1.00  0.00     0.339 C 
ATOM     26  C   UNL     1      14.774 -13.874  27.444  1.00  0.00     0.214 C 
ATOM     27  O   UNL     1      15.153 -13.815  29.904  1.00  0.00    -0.332 OA
ATOM     28  C   UNL     1      15.700 -15.093  27.589  1.00  0.00     0.180 C 
ATOM     29  C   UNL     1      14.571 -15.104  29.880  1.00  0.00     0.179 C 
ATOM     30  C   UNL     1      15.261 -15.969  28.788  1.00  0.00     0.177 C 
BRANCH  26  31
ATOM     31  O   UNL     1      15.194 -13.083  26.362  1.00  0.00    -0.384 OA
ATOM     32  H   UNL     1      15.468 -13.711  25.641  1.00  0.00     0.211 HD
ENDBRANCH  26  31
BRANCH  28  33
ATOM     33  O   UNL     1      15.676 -15.865  26.415  1.00  0.00    -0.387 OA
ATOM     34  H   UNL     1      15.885 -15.253  25.662  1.00  0.00     0.211 HD
ENDBRANCH  28  33
BRANCH  29  35
ATOM     35  C   UNL     1      14.662 -15.730  31.277  1.00  0.00     0.191 C 
BRANCH  35  36
ATOM     36  O   UNL     1      14.583 -17.124  31.173  1.00  0.00    -0.394 OA
ATOM     37  H   UNL     1      13.998 -17.311  30.393  1.00  0.00     0.210 HD
ENDBRANCH  35  36
ENDBRANCH  29  35
BRANCH  30  38
ATOM     38  O   UNL     1      16.385 -16.633  29.312  1.00  0.00    -0.387 OA
ATOM     39  H   UNL     1      16.627 -16.166  30.154  1.00  0.00     0.211 HD
ENDBRANCH  30  38
ENDBRANCH   1  25
TORSDOF 11
ENDMDL
MODEL 4
REMARK VINA RESULT:     9.714      1.687      6.426
REMARK INTER + INTRA:          13.035
REMARK INTER:                  13.456
REMARK INTRA:                  -0.421
REMARK UNBOUND:                -0.938
REMARK SMILES O=c1c(O[C@@H]2O[C@H](CO)[C@H](O)[C@@H](O)[C@@H]2O)c(-c2ccc(O)cc2)oc2cc(O)cc(O)c12
REMARK SMILES IDX 4 1 3 2 16 3 24 4 2 5 25 6 1 7 32 8 26 9 30 10 27 11 29 12
REMARK SMILES IDX 17 13 18 14 19 15 20 16 23 17 22 18 21 19 31 21 28 23 5 25
REMARK SMILES IDX 14 26 6 27 12 28 7 29 10 30 15 31 13 33 8 35 9 36 11 38
REMARK H PARENT 21 20 31 22 28 24 15 32 13 34 9 37 11 39
REMARK Flexibility Score: inf
ROOT
ATOM      1  O   UNL     1      18.288  -2.590  26.974  1.00  0.00    -0.454 OA
ENDROOT
BRANCH   1   2
ATOM      2  C   UNL     1      17.295  -3.473  26.520  1.00  0.00     0.214 A 
ATOM      3  C   UNL     1      15.999  -3.037  26.164  1.00  0.00     0.180 A 
ATOM      4  O   UNL     1      15.067  -3.930  25.843  1.00  0.00    -0.452 OA
ATOM      5  C   UNL     1      17.596  -4.836  26.421  1.00  0.00     0.239 A 
ATOM      6  C   UNL     1      15.298  -5.236  25.788  1.00  0.00     0.146 A 
ATOM      7  O   UNL     1      18.768  -5.227  26.674  1.00  0.00    -0.285 OA
ATOM      8  C   UNL     1      16.587  -5.752  26.059  1.00  0.00     0.111 A 
ATOM      9  C   UNL     1      14.253  -6.099  25.444  1.00  0.00     0.094 A 
ATOM     10  C   UNL     1      16.805  -7.148  25.971  1.00  0.00     0.134 A 
ATOM     11  C   UNL     1      14.473  -7.478  25.359  1.00  0.00     0.123 A 
ATOM     12  C   UNL     1      15.744  -7.996  25.621  1.00  0.00     0.093 A 
BRANCH   3  13
ATOM     13  C   UNL     1      15.634  -1.606  26.104  1.00  0.00     0.021 A 
ATOM     14  C   UNL     1      16.043  -0.828  25.009  1.00  0.00     0.016 A 
ATOM     15  C   UNL     1      15.701   0.525  24.939  1.00  0.00     0.047 A 
ATOM     16  C   UNL     1      14.962   1.119  25.971  1.00  0.00     0.115 A 
ATOM     17  C   UNL     1      14.914  -1.000  27.147  1.00  0.00     0.016 A 
ATOM     18  C   UNL     1      14.576   0.354  27.076  1.00  0.00     0.047 A 
BRANCH  16  19
ATOM     19  O   UNL     1      14.604   2.464  25.906  1.00  0.00    -0.508 OA
ATOM     20  H   UNL     1      14.870   3.118  26.634  1.00  0.00     0.293 HD
ENDBRANCH  16  19
ENDBRANCH   3  13
BRANCH  10  21
ATOM     21  O   UNL     1      18.061  -7.696  26.230  1.00  0.00    -0.507 OA
ATOM     22  H   UNL     1      18.232  -8.279  27.041  1.00  0.00     0.293 HD
ENDBRANCH  10  21
BRANCH  11  23
ATOM     23  O   UNL     1      13.436  -8.342  25.015  1.00  0.00    -0.508 OA
ATOM     24  H   UNL     1      12.629  -8.021  24.495  1.00  0.00     0.293 HD
ENDBRANCH  11  23
ENDBRANCH   1   2
BRANCH   1  25
ATOM     25  C   UNL     1      18.482  -2.257  28.353  1.00  0.00     0.339 C 
ATOM     26  C   UNL     1      18.264  -0.726  28.572  1.00  0.00     0.214 C 
ATOM     27  O   UNL     1      17.595  -3.060  29.121  1.00  0.00    -0.332 OA
ATOM     28  C   UNL     1      16.853  -0.463  29.122  1.00  0.00     0.180 C 
ATOM     29  C   UNL     1      17.473  -2.563  30.439  1.00  0.00     0.179 C 
ATOM     30  C   UNL     1      16.624  -1.261  30.430  1.00  0.00     0.177 C 
BRANCH  26  31
ATOM     31  O   UNL     1      18.451  -0.007  27.380  1.00  0.00    -0.384 OA
ATOM     32  H   UNL     1      19.310   0.485  27.477  1.00  0.00     0.211 HD
ENDBRANCH  26  31
BRANCH  28  33
ATOM     33  O   UNL     1      16.676   0.907  29.376  1.00  0.00    -0.387 OA
ATOM     34  H   UNL     1      16.757   1.032  30.358  1.00  0.00     0.211 HD
ENDBRANCH  28  33
BRANCH  29  35
ATOM     35  C   UNL     1      16.878  -3.651  31.342  1.00  0.00     0.191 C 
BRANCH  35  36
ATOM     36  O   UNL     1      16.576  -3.107  32.596  1.00  0.00    -0.394 OA
ATOM     37  H   UNL     1      17.440  -3.018  33.075  1.00  0.00     0.210 HD
ENDBRANCH  35  36
ENDBRANCH  29  35
BRANCH  30  38
ATOM     38  O   UNL     1      15.254  -1.555  30.558  1.00  0.00    -0.387 OA
ATOM     39  H   UNL     1      15.012  -1.384  31.506  1.00  0.00     0.211 HD
ENDBRANCH  30  38
ENDBRANCH   1  25
TORSDOF 11
ENDMDL
MODEL 5
REMARK VINA RESULT:    10.178      7.465     10.921
REMARK INTER + INTRA:          13.703
REMARK INTER:                  13.386
REMARK INTRA:                   0.317
REMARK UNBOUND:                -0.938
REMARK SMILES O=c1c(O[C@@H]2O[C@H](CO)[C@H](O)[C@@H](O)[C@@H]2O)c(-c2ccc(O)cc2)oc2cc(O)cc(O)c12
REMARK SMILES IDX 4 1 3 2 16 3 24 4 2 5 25 6 1 7 32 8 26 9 30 10 27 11 29 12
REMARK SMILES IDX 17 13 18 14 19 15 20 16 23 17 22 18 21 19 31 21 28 23 5 25
REMARK SMILES IDX 14 26 6 27 12 28 7 29 10 30 15 31 13 33 8 35 9 36 11 38
REMARK H PARENT 21 20 31 22 28 24 15 32 13 34 9 37 11 39
REMARK Flexibility Score: inf
ROOT
ATOM      1  O   UNL     1      14.071 -10.936  29.225  1.00  0.00    -0.454 OA
ENDROOT
BRANCH   1   2
ATOM      2  C   UNL     1      14.329 -10.605  27.885  1.00  0.00     0.214 A 
ATOM      3  C   UNL     1      14.901 -11.521  26.976  1.00  0.00     0.180 A 
ATOM      4  O   UNL     1      15.222 -11.121  25.749  1.00  0.00    -0.452 OA
ATOM      5  C   UNL     1      14.013  -9.319  27.434  1.00  0.00     0.239 A 
ATOM      6  C   UNL     1      14.986  -9.895  25.298  1.00  0.00     0.146 A 
ATOM      7  O   UNL     1      13.443  -8.514  28.220  1.00  0.00    -0.285 OA
ATOM      8  C   UNL     1      14.350  -8.935  26.120  1.00  0.00     0.111 A 
ATOM      9  C   UNL     1      15.363  -9.564  23.993  1.00  0.00     0.094 A 
ATOM     10  C   UNL     1      14.095  -7.642  25.602  1.00  0.00     0.134 A 
ATOM     11  C   UNL     1      15.109  -8.285  23.486  1.00  0.00     0.123 A 
ATOM     12  C   UNL     1      14.478  -7.331  24.289  1.00  0.00     0.093 A 
BRANCH   3  13
ATOM     13  C   UNL     1      15.138 -12.938  27.322  1.00  0.00     0.021 A 
ATOM     14  C   UNL     1      15.415 -13.868  26.307  1.00  0.00     0.016 A 
ATOM     15  C   UNL     1      15.643 -15.210  26.623  1.00  0.00     0.047 A 
ATOM     16  C   UNL     1      15.579 -15.641  27.956  1.00  0.00     0.115 A 
ATOM     17  C   UNL     1      15.050 -13.380  28.653  1.00  0.00     0.016 A 
ATOM     18  C   UNL     1      15.276 -14.723  28.967  1.00  0.00     0.047 A 
BRANCH  16  19
ATOM     19  O   UNL     1      15.818 -16.973  28.284  1.00  0.00    -0.508 OA
ATOM     20  H   UNL     1      15.401 -17.731  27.755  1.00  0.00     0.293 HD
ENDBRANCH  16  19
ENDBRANCH   3  13
BRANCH  10  21
ATOM     21  O   UNL     1      13.470  -6.667  26.380  1.00  0.00    -0.507 OA
ATOM     22  H   UNL     1      13.998  -6.041  26.976  1.00  0.00     0.293 HD
ENDBRANCH  10  21
BRANCH  11  23
ATOM     23  O   UNL     1      15.481  -7.950  22.185  1.00  0.00    -0.508 OA
ATOM     24  H   UNL     1      14.902  -7.357  21.605  1.00  0.00     0.293 HD
ENDBRANCH  11  23
ENDBRANCH   1   2
BRANCH   1  25
ATOM     25  C   UNL     1      12.923 -11.678  29.651  1.00  0.00     0.339 C 
ATOM     26  C   UNL     1      12.012 -10.786  30.555  1.00  0.00     0.214 C 
ATOM     27  O   UNL     1      12.257 -12.152  28.487  1.00  0.00    -0.332 OA
ATOM     28  C   UNL     1      10.842 -10.219  29.735  1.00  0.00     0.180 C 
ATOM     29  C   UNL     1      10.949 -12.592  28.795  1.00  0.00     0.179 C 
ATOM     30  C   UNL     1      10.036 -11.365  29.074  1.00  0.00     0.177 C 
BRANCH  26  31
ATOM     31  O   UNL     1      12.740  -9.735  31.136  1.00  0.00    -0.384 OA
ATOM     32  H   UNL     1      12.101  -8.985  31.264  1.00  0.00     0.211 HD
ENDBRANCH  26  31
BRANCH  28  33
ATOM     33  O   UNL     1       9.989  -9.466  30.559  1.00  0.00    -0.387 OA
ATOM     34  H   UNL     1      10.491  -9.271  31.393  1.00  0.00     0.211 HD
ENDBRANCH  28  33
BRANCH  29  35
ATOM     35  C   UNL     1      10.426 -13.472  27.653  1.00  0.00     0.191 C 
BRANCH  35  36
ATOM     36  O   UNL     1      11.476 -13.780  26.779  1.00  0.00    -0.394 OA
ATOM     37  H   UNL     1      11.822 -12.912  26.445  1.00  0.00     0.210 HD
ENDBRANCH  35  36
ENDBRANCH  29  35
BRANCH  30  38
ATOM     38  O   UNL     1       9.453 -10.893  27.884  1.00  0.00    -0.387 OA
ATOM     39  H   UNL     1       9.002 -10.036  28.106  1.00  0.00     0.211 HD
ENDBRANCH  30  38
ENDBRANCH   1  25
TORSDOF 11
ENDMDL
