MODEL 1
REMARK VINA RESULT:    -4.088      0.000      0.000
REMARK INTER + INTRA:          -9.213
REMARK INTER:                  -7.434
REMARK INTRA:                  -1.778
REMARK UNBOUND:                -1.778
REMARK SMILES CCCCCCCCCCCCCCCC(=O)[O-]
REMARK SMILES IDX 9 1 10 2 11 3 12 4 13 5 14 6 15 7 16 8 17 9 18 10 8 11 7 12
REMARK SMILES IDX 6 13 5 14 4 15 3 16 2 17 1 18
REMARK H PARENT
REMARK Flexibility Score: inf
ROOT
ATOM      1  C   UNL     1      49.963  -2.713  83.227  1.00  0.00     0.000 C 
ENDROOT
BRANCH   1   2
ATOM      2  C   UNL     1      49.991  -2.317  84.714  1.00  0.00     0.000 C 
BRANCH   2   3
ATOM      3  C   UNL     1      49.144  -3.254  85.590  1.00  0.00     0.000 C 
BRANCH   3   4
ATOM      4  C   UNL     1      47.757  -3.529  84.990  1.00  0.00     0.000 C 
BRANCH   4   5
ATOM      5  C   UNL     1      46.645  -3.171  85.989  1.00  0.00     0.000 C 
BRANCH   5   6
ATOM      6  C   UNL     1      46.327  -1.668  86.007  1.00  0.00     0.006 C 
BRANCH   6   7
ATOM      7  C   UNL     1      46.414  -1.029  84.616  1.00  0.00     0.053 C 
BRANCH   7   8
ATOM      8  C   UNL     1      47.230   0.224  84.666  1.00  0.00     0.041 C 
ATOM      9  O   UNL     1      47.200   1.039  83.709  1.00  0.00    -0.550 OA
ATOM     10  O   UNL     1      48.062   0.468  85.752  1.00  0.00    -0.550 OA
ENDBRANCH   7   8
ENDBRANCH   6   7
ENDBRANCH   5   6
ENDBRANCH   4   5
ENDBRANCH   3   4
ENDBRANCH   2   3
ENDBRANCH   1   2
BRANCH   1  11
ATOM     11  C   UNL     1      49.435  -1.585  82.325  1.00  0.00     0.000 C 
BRANCH  11  12
ATOM     12  C   UNL     1      48.264  -2.040  81.436  1.00  0.00    -0.000 C 
BRANCH  12  13
ATOM     13  C   UNL     1      48.038  -3.560  81.494  1.00  0.00    -0.000 C 
BRANCH  13  14
ATOM     14  C   UNL     1      48.260  -4.241  80.134  1.00  0.00    -0.000 C 
BRANCH  14  15
ATOM     15  C   UNL     1      49.749  -4.430  79.798  1.00  0.00    -0.000 C 
BRANCH  15  16
ATOM     16  C   UNL     1      50.106  -5.862  79.343  1.00  0.00    -0.000 C 
BRANCH  16  17
ATOM     17  C   UNL     1      48.985  -6.865  79.652  1.00  0.00    -0.003 C 
ATOM     18  C   UNL     1      49.217  -8.190  78.931  1.00  0.00     0.004 C 
ENDBRANCH  16  17
ENDBRANCH  15  16
ENDBRANCH  14  15
ENDBRANCH  13  14
ENDBRANCH  12  13
ENDBRANCH  11  12
ENDBRANCH   1  11
TORSDOF 14
ENDMDL
MODEL 2
REMARK VINA RESULT:    -4.052      8.492     10.437
REMARK INTER + INTRA:          -9.146
REMARK INTER:                  -7.220
REMARK INTRA:                  -1.926
REMARK UNBOUND:                -1.778
REMARK SMILES CCCCCCCCCCCCCCCC(=O)[O-]
REMARK SMILES IDX 9 1 10 2 11 3 12 4 13 5 14 6 15 7 16 8 17 9 18 10 8 11 7 12
REMARK SMILES IDX 6 13 5 14 4 15 3 16 2 17 1 18
REMARK H PARENT
REMARK Flexibility Score: inf
ROOT
ATOM      1  C   UNL     1      48.061  -1.545  75.893  1.00  0.00     0.000 C 
ENDROOT
BRANCH   1   2
ATOM      2  C   UNL     1      48.293  -0.025  75.827  1.00  0.00     0.000 C 
BRANCH   2   3
ATOM      3  C   UNL     1      47.764   0.597  74.526  1.00  0.00     0.000 C 
BRANCH   3   4
ATOM      4  C   UNL     1      48.823   0.632  73.414  1.00  0.00     0.000 C 
BRANCH   4   5
ATOM      5  C   UNL     1      48.557  -0.460  72.367  1.00  0.00     0.000 C 
BRANCH   5   6
ATOM      6  C   UNL     1      49.848  -1.118  71.856  1.00  0.00     0.006 C 
BRANCH   6   7
ATOM      7  C   UNL     1      51.010  -0.988  72.848  1.00  0.00     0.053 C 
BRANCH   7   8
ATOM      8  C   UNL     1      52.180  -0.320  72.198  1.00  0.00     0.041 C 
ATOM      9  O   UNL     1      53.280  -0.921  72.101  1.00  0.00    -0.550 OA
ATOM     10  O   UNL     1      52.068   0.989  71.744  1.00  0.00    -0.550 OA
ENDBRANCH   7   8
ENDBRANCH   6   7
ENDBRANCH   5   6
ENDBRANCH   4   5
ENDBRANCH   3   4
ENDBRANCH   2   3
ENDBRANCH   1   2
BRANCH   1  11
ATOM     11  C   UNL     1      49.376  -2.344  75.915  1.00  0.00     0.000 C 
BRANCH  11  12
ATOM     12  C   UNL     1      49.384  -3.493  74.892  1.00  0.00    -0.000 C 
BRANCH  12  13
ATOM     13  C   UNL     1      47.986  -3.785  74.323  1.00  0.00    -0.000 C 
BRANCH  13  14
ATOM     14  C   UNL     1      48.026  -4.192  72.841  1.00  0.00    -0.000 C 
BRANCH  14  15
ATOM     15  C   UNL     1      48.005  -5.718  72.641  1.00  0.00    -0.000 C 
BRANCH  15  16
ATOM     16  C   UNL     1      46.601  -6.284  72.338  1.00  0.00    -0.000 C 
BRANCH  16  17
ATOM     17  C   UNL     1      45.726  -6.369  73.597  1.00  0.00    -0.003 C 
ATOM     18  C   UNL     1      46.270  -7.405  74.577  1.00  0.00     0.004 C 
ENDBRANCH  16  17
ENDBRANCH  15  16
ENDBRANCH  14  15
ENDBRANCH  13  14
ENDBRANCH  12  13
ENDBRANCH  11  12
ENDBRANCH   1  11
TORSDOF 14
ENDMDL
MODEL 3
REMARK VINA RESULT:    -4.045      9.937     11.874
REMARK INTER + INTRA:          -9.133
REMARK INTER:                  -7.396
REMARK INTRA:                  -1.737
REMARK UNBOUND:                -1.778
REMARK SMILES CCCCCCCCCCCCCCCC(=O)[O-]
REMARK SMILES IDX 9 1 10 2 11 3 12 4 13 5 14 6 15 7 16 8 17 9 18 10 8 11 7 12
REMARK SMILES IDX 6 13 5 14 4 15 3 16 2 17 1 18
REMARK H PARENT
REMARK Flexibility Score: inf
ROOT
ATOM      1  C   UNL     1      48.748  -2.098  73.632  1.00  0.00     0.000 C 
ENDROOT
BRANCH   1   2
ATOM      2  C   UNL     1      49.132  -3.157  72.583  1.00  0.00     0.000 C 
BRANCH   2   3
ATOM      3  C   UNL     1      48.565  -4.547  72.913  1.00  0.00     0.000 C 
BRANCH   3   4
ATOM      4  C   UNL     1      47.250  -4.476  73.704  1.00  0.00     0.000 C 
BRANCH   4   5
ATOM      5  C   UNL     1      46.366  -5.699  73.411  1.00  0.00     0.000 C 
BRANCH   5   6
ATOM      6  C   UNL     1      46.851  -6.502  72.195  1.00  0.00     0.006 C 
BRANCH   6   7
ATOM      7  C   UNL     1      46.845  -8.015  72.445  1.00  0.00     0.053 C 
BRANCH   7   8
ATOM      8  C   UNL     1      46.506  -8.752  71.188  1.00  0.00     0.041 C 
ATOM      9  O   UNL     1      46.107  -8.123  70.173  1.00  0.00    -0.550 OA
ATOM     10  O   UNL     1      46.583 -10.139  71.152  1.00  0.00    -0.550 OA
ENDBRANCH   7   8
ENDBRANCH   6   7
ENDBRANCH   5   6
ENDBRANCH   4   5
ENDBRANCH   3   4
ENDBRANCH   2   3
ENDBRANCH   1   2
BRANCH   1  11
ATOM     11  C   UNL     1      49.355  -0.718  73.328  1.00  0.00     0.000 C 
BRANCH  11  12
ATOM     12  C   UNL     1      50.260  -0.733  72.084  1.00  0.00    -0.000 C 
BRANCH  12  13
ATOM     13  C   UNL     1      51.625  -0.074  72.342  1.00  0.00    -0.000 C 
BRANCH  13  14
ATOM     14  C   UNL     1      52.790  -1.073  72.243  1.00  0.00    -0.000 C 
BRANCH  14  15
ATOM     15  C   UNL     1      52.914  -1.969  73.488  1.00  0.00    -0.000 C 
BRANCH  15  16
ATOM     16  C   UNL     1      52.719  -3.472  73.193  1.00  0.00    -0.000 C 
BRANCH  16  17
ATOM     17  C   UNL     1      52.375  -4.271  74.458  1.00  0.00    -0.003 C 
ATOM     18  C   UNL     1      51.697  -3.388  75.501  1.00  0.00     0.004 C 
ENDBRANCH  16  17
ENDBRANCH  15  16
ENDBRANCH  14  15
ENDBRANCH  13  14
ENDBRANCH  12  13
ENDBRANCH  11  12
ENDBRANCH   1  11
TORSDOF 14
ENDMDL
MODEL 4
REMARK VINA RESULT:    -4.039      8.897     11.626
REMARK INTER + INTRA:          -9.122
REMARK INTER:                  -7.179
REMARK INTRA:                  -1.943
REMARK UNBOUND:                -1.778
REMARK SMILES CCCCCCCCCCCCCCCC(=O)[O-]
REMARK SMILES IDX 9 1 10 2 11 3 12 4 13 5 14 6 15 7 16 8 17 9 18 10 8 11 7 12
REMARK SMILES IDX 6 13 5 14 4 15 3 16 2 17 1 18
REMARK H PARENT
REMARK Flexibility Score: inf
ROOT
ATOM      1  C   UNL     1      52.232   0.307  71.922  1.00  0.00     0.000 C 
ENDROOT
BRANCH   1   2
ATOM      2  C   UNL     1      53.352  -0.745  72.006  1.00  0.00     0.000 C 
BRANCH   2   3
ATOM      3  C   UNL     1      53.177  -1.700  73.197  1.00  0.00     0.000 C 
BRANCH   3   4
ATOM      4  C   UNL     1      53.476  -3.161  72.831  1.00  0.00     0.000 C 
BRANCH   4   5
ATOM      5  C   UNL     1      52.624  -4.124  73.674  1.00  0.00     0.000 C 
BRANCH   5   6
ATOM      6  C   UNL     1      53.474  -5.022  74.586  1.00  0.00     0.006 C 
BRANCH   6   7
ATOM      7  C   UNL     1      54.974  -4.920  74.286  1.00  0.00     0.053 C 
BRANCH   7   8
ATOM      8  C   UNL     1      55.575  -6.284  74.157  1.00  0.00     0.041 C 
ATOM      9  O   UNL     1      54.837  -7.287  73.972  1.00  0.00    -0.550 OA
ATOM     10  O   UNL     1      56.947  -6.455  74.290  1.00  0.00    -0.550 OA
ENDBRANCH   7   8
ENDBRANCH   6   7
ENDBRANCH   5   6
ENDBRANCH   4   5
ENDBRANCH   3   4
ENDBRANCH   2   3
ENDBRANCH   1   2
BRANCH   1  11
ATOM     11  C   UNL     1      51.032  -0.033  72.823  1.00  0.00     0.000 C 
BRANCH  11  12
ATOM     12  C   UNL     1      49.831  -0.571  72.026  1.00  0.00    -0.000 C 
BRANCH  12  13
ATOM     13  C   UNL     1      49.807  -2.107  71.964  1.00  0.00    -0.000 C 
BRANCH  13  14
ATOM     14  C   UNL     1      48.659  -2.713  72.788  1.00  0.00    -0.000 C 
BRANCH  14  15
ATOM     15  C   UNL     1      49.015  -4.083  73.390  1.00  0.00    -0.000 C 
BRANCH  15  16
ATOM     16  C   UNL     1      49.095  -4.081  74.932  1.00  0.00    -0.000 C 
BRANCH  16  17
ATOM     17  C   UNL     1      49.285  -2.668  75.502  1.00  0.00    -0.003 C 
ATOM     18  C   UNL     1      50.662  -2.514  76.142  1.00  0.00     0.004 C 
ENDBRANCH  16  17
ENDBRANCH  15  16
ENDBRANCH  14  15
ENDBRANCH  13  14
ENDBRANCH  12  13
ENDBRANCH  11  12
ENDBRANCH   1  11
TORSDOF 14
ENDMDL
MODEL 5
REMARK VINA RESULT:    -4.021      8.212     10.824
REMARK INTER + INTRA:          -9.090
REMARK INTER:                  -6.673
REMARK INTRA:                  -2.418
REMARK UNBOUND:                -1.778
REMARK SMILES CCCCCCCCCCCCCCCC(=O)[O-]
REMARK SMILES IDX 9 1 10 2 11 3 12 4 13 5 14 6 15 7 16 8 17 9 18 10 8 11 7 12
REMARK SMILES IDX 6 13 5 14 4 15 3 16 2 17 1 18
REMARK H PARENT
REMARK Flexibility Score: inf
ROOT
ATOM      1  C   UNL     1      50.981  -1.414  72.476  1.00  0.00     0.000 C 
ENDROOT
BRANCH   1   2
ATOM      2  C   UNL     1      51.247  -2.912  72.713  1.00  0.00     0.000 C 
BRANCH   2   3
ATOM      3  C   UNL     1      50.195  -3.811  72.044  1.00  0.00     0.000 C 
BRANCH   3   4
ATOM      4  C   UNL     1      49.375  -4.618  73.062  1.00  0.00     0.000 C 
BRANCH   4   5
ATOM      5  C   UNL     1      47.873  -4.529  72.751  1.00  0.00     0.000 C 
BRANCH   5   6
ATOM      6  C   UNL     1      46.996  -4.905  73.956  1.00  0.00     0.006 C 
BRANCH   6   7
ATOM      7  C   UNL     1      45.841  -5.840  73.578  1.00  0.00     0.053 C 
BRANCH   7   8
ATOM      8  C   UNL     1      46.360  -7.202  73.240  1.00  0.00     0.041 C 
ATOM      9  O   UNL     1      46.415  -7.579  72.041  1.00  0.00    -0.550 OA
ATOM     10  O   UNL     1      46.739  -8.073  74.254  1.00  0.00    -0.550 OA
ENDBRANCH   7   8
ENDBRANCH   6   7
ENDBRANCH   5   6
ENDBRANCH   4   5
ENDBRANCH   3   4
ENDBRANCH   2   3
ENDBRANCH   1   2
BRANCH   1  11
ATOM     11  C   UNL     1      49.751  -1.165  71.587  1.00  0.00     0.000 C 
BRANCH  11  12
ATOM     12  C   UNL     1      48.613  -0.455  72.340  1.00  0.00    -0.000 C 
BRANCH  12  13
ATOM     13  C   UNL     1      49.081   0.162  73.668  1.00  0.00    -0.000 C 
BRANCH  13  14
ATOM     14  C   UNL     1      48.158  -0.198  74.844  1.00  0.00    -0.000 C 
BRANCH  14  15
ATOM     15  C   UNL     1      48.307  -1.662  75.293  1.00  0.00    -0.000 C 
BRANCH  15  16
ATOM     16  C   UNL     1      49.687  -1.985  75.905  1.00  0.00    -0.000 C 
BRANCH  16  17
ATOM     17  C   UNL     1      49.744  -3.403  76.491  1.00  0.00    -0.003 C 
ATOM     18  C   UNL     1      51.136  -4.008  76.337  1.00  0.00     0.004 C 
ENDBRANCH  16  17
ENDBRANCH  15  16
ENDBRANCH  14  15
ENDBRANCH  13  14
ENDBRANCH  12  13
ENDBRANCH  11  12
ENDBRANCH   1  11
TORSDOF 14
ENDMDL
MODEL 6
REMARK VINA RESULT:    -4.019      7.900     10.297
REMARK INTER + INTRA:          -9.086
REMARK INTER:                  -6.892
REMARK INTRA:                  -2.194
REMARK UNBOUND:                -1.778
REMARK SMILES CCCCCCCCCCCCCCCC(=O)[O-]
REMARK SMILES IDX 9 1 10 2 11 3 12 4 13 5 14 6 15 7 16 8 17 9 18 10 8 11 7 12
REMARK SMILES IDX 6 13 5 14 4 15 3 16 2 17 1 18
REMARK H PARENT
REMARK Flexibility Score: inf
ROOT
ATOM      1  C   UNL     1      48.568  -0.395  72.376  1.00  0.00     0.000 C 
ENDROOT
BRANCH   1   2
ATOM      2  C   UNL     1      49.910  -0.858  71.782  1.00  0.00     0.000 C 
BRANCH   2   3
ATOM      3  C   UNL     1      51.099  -0.032  72.299  1.00  0.00     0.000 C 
BRANCH   3   4
ATOM      4  C   UNL     1      52.402  -0.844  72.353  1.00  0.00     0.000 C 
BRANCH   4   5
ATOM      5  C   UNL     1      52.139  -2.273  72.853  1.00  0.00     0.000 C 
BRANCH   5   6
ATOM      6  C   UNL     1      53.016  -2.651  74.056  1.00  0.00     0.006 C 
BRANCH   6   7
ATOM      7  C   UNL     1      52.237  -2.656  75.377  1.00  0.00     0.053 C 
BRANCH   7   8
ATOM      8  C   UNL     1      51.855  -4.052  75.753  1.00  0.00     0.041 C 
ATOM      9  O   UNL     1      52.291  -5.029  75.091  1.00  0.00    -0.550 OA
ATOM     10  O   UNL     1      50.977  -4.273  76.808  1.00  0.00    -0.550 OA
ENDBRANCH   7   8
ENDBRANCH   6   7
ENDBRANCH   5   6
ENDBRANCH   4   5
ENDBRANCH   3   4
ENDBRANCH   2   3
ENDBRANCH   1   2
BRANCH   1  11
ATOM     11  C   UNL     1      48.744   0.474  73.633  1.00  0.00     0.000 C 
BRANCH  11  12
ATOM     12  C   UNL     1      48.099  -0.156  74.880  1.00  0.00    -0.000 C 
BRANCH  12  13
ATOM     13  C   UNL     1      48.844  -1.414  75.355  1.00  0.00    -0.000 C 
BRANCH  13  14
ATOM     14  C   UNL     1      47.895  -2.479  75.931  1.00  0.00    -0.000 C 
BRANCH  14  15
ATOM     15  C   UNL     1      47.916  -3.792  75.130  1.00  0.00    -0.000 C 
BRANCH  15  16
ATOM     16  C   UNL     1      48.773  -3.723  73.848  1.00  0.00    -0.000 C 
BRANCH  16  17
ATOM     17  C   UNL     1      48.165  -4.539  72.698  1.00  0.00    -0.003 C 
ATOM     18  C   UNL     1      46.950  -5.334  73.170  1.00  0.00     0.004 C 
ENDBRANCH  16  17
ENDBRANCH  15  16
ENDBRANCH  14  15
ENDBRANCH  13  14
ENDBRANCH  12  13
ENDBRANCH  11  12
ENDBRANCH   1  11
TORSDOF 14
ENDMDL
MODEL 7
REMARK VINA RESULT:    -3.953      8.707     10.941
REMARK INTER + INTRA:          -8.966
REMARK INTER:                  -6.627
REMARK INTRA:                  -2.339
REMARK UNBOUND:                -1.778
REMARK SMILES CCCCCCCCCCCCCCCC(=O)[O-]
REMARK SMILES IDX 9 1 10 2 11 3 12 4 13 5 14 6 15 7 16 8 17 9 18 10 8 11 7 12
REMARK SMILES IDX 6 13 5 14 4 15 3 16 2 17 1 18
REMARK H PARENT
REMARK Flexibility Score: inf
ROOT
ATOM      1  C   UNL     1      51.839  -2.730  75.070  1.00  0.00     0.000 C 
ENDROOT
BRANCH   1   2
ATOM      2  C   UNL     1      50.530  -3.091  75.795  1.00  0.00     0.000 C 
BRANCH   2   3
ATOM      3  C   UNL     1      49.498  -1.953  75.748  1.00  0.00     0.000 C 
BRANCH   3   4
ATOM      4  C   UNL     1      48.066  -2.464  75.525  1.00  0.00     0.000 C 
BRANCH   4   5
ATOM      5  C   UNL     1      48.075  -3.887  74.944  1.00  0.00     0.000 C 
BRANCH   5   6
ATOM      6  C   UNL     1      47.926  -3.903  73.415  1.00  0.00     0.006 C 
BRANCH   6   7
ATOM      7  C   UNL     1      48.726  -5.032  72.755  1.00  0.00     0.053 C 
BRANCH   7   8
ATOM      8  C   UNL     1      47.874  -6.251  72.595  1.00  0.00     0.041 C 
ATOM      9  O   UNL     1      48.404  -7.371  72.378  1.00  0.00    -0.550 OA
ATOM     10  O   UNL     1      46.489  -6.142  72.636  1.00  0.00    -0.550 OA
ENDBRANCH   7   8
ENDBRANCH   6   7
ENDBRANCH   5   6
ENDBRANCH   4   5
ENDBRANCH   3   4
ENDBRANCH   2   3
ENDBRANCH   1   2
BRANCH   1  11
ATOM     11  C   UNL     1      51.739  -2.909  73.545  1.00  0.00     0.000 C 
BRANCH  11  12
ATOM     12  C   UNL     1      52.361  -1.733  72.772  1.00  0.00    -0.000 C 
BRANCH  12  13
ATOM     13  C   UNL     1      51.313  -0.694  72.339  1.00  0.00    -0.000 C 
BRANCH  13  14
ATOM     14  C   UNL     1      49.978  -1.339  71.932  1.00  0.00    -0.000 C 
BRANCH  14  15
ATOM     15  C   UNL     1      48.761  -0.474  72.304  1.00  0.00    -0.000 C 
BRANCH  15  16
ATOM     16  C   UNL     1      49.083   0.648  73.315  1.00  0.00    -0.000 C 
BRANCH  16  17
ATOM     17  C   UNL     1      47.825   1.167  74.026  1.00  0.00    -0.003 C 
ATOM     18  C   UNL     1      47.510   2.602  73.611  1.00  0.00     0.004 C 
ENDBRANCH  16  17
ENDBRANCH  15  16
ENDBRANCH  14  15
ENDBRANCH  13  14
ENDBRANCH  12  13
ENDBRANCH  11  12
ENDBRANCH   1  11
TORSDOF 14
ENDMDL
MODEL 8
REMARK VINA RESULT:    -3.951      9.882     11.471
REMARK INTER + INTRA:          -8.963
REMARK INTER:                  -6.760
REMARK INTRA:                  -2.202
REMARK UNBOUND:                -1.778
REMARK SMILES CCCCCCCCCCCCCCCC(=O)[O-]
REMARK SMILES IDX 9 1 10 2 11 3 12 4 13 5 14 6 15 7 16 8 17 9 18 10 8 11 7 12
REMARK SMILES IDX 6 13 5 14 4 15 3 16 2 17 1 18
REMARK H PARENT
REMARK Flexibility Score: inf
ROOT
ATOM      1  C   UNL     1      50.145  -4.875  74.046  1.00  0.00     0.000 C 
ENDROOT
BRANCH   1   2
ATOM      2  C   UNL     1      49.668  -4.392  72.665  1.00  0.00     0.000 C 
BRANCH   2   3
ATOM      3  C   UNL     1      48.156  -4.123  72.623  1.00  0.00     0.000 C 
BRANCH   3   4
ATOM      4  C   UNL     1      47.483  -4.320  73.990  1.00  0.00     0.000 C 
BRANCH   4   5
ATOM      5  C   UNL     1      46.212  -5.173  73.859  1.00  0.00     0.000 C 
BRANCH   5   6
ATOM      6  C   UNL     1      46.357  -6.297  72.821  1.00  0.00     0.006 C 
BRANCH   6   7
ATOM      7  C   UNL     1      46.542  -7.676  73.465  1.00  0.00     0.053 C 
BRANCH   7   8
ATOM      8  C   UNL     1      47.824  -8.298  73.010  1.00  0.00     0.041 C 
ATOM      9  O   UNL     1      48.288  -9.304  73.608  1.00  0.00    -0.550 OA
ATOM     10  O   UNL     1      48.533  -7.736  71.955  1.00  0.00    -0.550 OA
ENDBRANCH   7   8
ENDBRANCH   6   7
ENDBRANCH   5   6
ENDBRANCH   4   5
ENDBRANCH   3   4
ENDBRANCH   2   3
ENDBRANCH   1   2
BRANCH   1  11
ATOM     11  C   UNL     1      51.373  -4.099  74.552  1.00  0.00     0.000 C 
BRANCH  11  12
ATOM     12  C   UNL     1      52.197  -3.487  73.406  1.00  0.00    -0.000 C 
BRANCH  12  13
ATOM     13  C   UNL     1      52.472  -1.989  73.614  1.00  0.00    -0.000 C 
BRANCH  13  14
ATOM     14  C   UNL     1      52.353  -1.181  72.311  1.00  0.00    -0.000 C 
BRANCH  14  15
ATOM     15  C   UNL     1      51.165  -0.203  72.322  1.00  0.00    -0.000 C 
BRANCH  15  16
ATOM     16  C   UNL     1      49.837  -0.836  71.855  1.00  0.00    -0.000 C 
BRANCH  16  17
ATOM     17  C   UNL     1      48.657  -0.439  72.754  1.00  0.00    -0.003 C 
ATOM     18  C   UNL     1      48.894  -0.875  74.197  1.00  0.00     0.004 C 
ENDBRANCH  16  17
ENDBRANCH  15  16
ENDBRANCH  14  15
ENDBRANCH  13  14
ENDBRANCH  12  13
ENDBRANCH  11  12
ENDBRANCH   1  11
TORSDOF 14
ENDMDL
MODEL 9
REMARK VINA RESULT:    -3.945      3.157      6.512
REMARK INTER + INTRA:          -8.951
REMARK INTER:                  -7.166
REMARK INTRA:                  -1.785
REMARK UNBOUND:                -1.778
REMARK SMILES CCCCCCCCCCCCCCCC(=O)[O-]
REMARK SMILES IDX 9 1 10 2 11 3 12 4 13 5 14 6 15 7 16 8 17 9 18 10 8 11 7 12
REMARK SMILES IDX 6 13 5 14 4 15 3 16 2 17 1 18
REMARK H PARENT
REMARK Flexibility Score: inf
ROOT
ATOM      1  C   UNL     1      50.463  -3.119  84.785  1.00  0.00     0.000 C 
ENDROOT
BRANCH   1   2
ATOM      2  C   UNL     1      50.151  -2.123  83.654  1.00  0.00     0.000 C 
BRANCH   2   3
ATOM      3  C   UNL     1      50.468  -2.692  82.262  1.00  0.00     0.000 C 
BRANCH   3   4
ATOM      4  C   UNL     1      49.311  -2.505  81.270  1.00  0.00     0.000 C 
BRANCH   4   5
ATOM      5  C   UNL     1      48.136  -3.434  81.616  1.00  0.00     0.000 C 
BRANCH   5   6
ATOM      6  C   UNL     1      47.597  -4.189  80.391  1.00  0.00     0.006 C 
BRANCH   6   7
ATOM      7  C   UNL     1      48.606  -5.196  79.827  1.00  0.00     0.053 C 
BRANCH   7   8
ATOM      8  C   UNL     1      48.970  -4.839  78.420  1.00  0.00     0.041 C 
ATOM      9  O   UNL     1      48.197  -5.133  77.472  1.00  0.00    -0.550 OA
ATOM     10  O   UNL     1      50.187  -4.225  78.152  1.00  0.00    -0.550 OA
ENDBRANCH   7   8
ENDBRANCH   6   7
ENDBRANCH   5   6
ENDBRANCH   4   5
ENDBRANCH   3   4
ENDBRANCH   2   3
ENDBRANCH   1   2
BRANCH   1  11
ATOM     11  C   UNL     1      49.301  -3.267  85.781  1.00  0.00     0.000 C 
BRANCH  11  12
ATOM     12  C   UNL     1      47.958  -3.545  85.082  1.00  0.00    -0.000 C 
BRANCH  12  13
ATOM     13  C   UNL     1      46.767  -2.920  85.828  1.00  0.00    -0.000 C 
BRANCH  13  14
ATOM     14  C   UNL     1      46.813  -1.383  85.829  1.00  0.00    -0.000 C 
BRANCH  14  15
ATOM     15  C   UNL     1      45.527  -0.748  85.271  1.00  0.00    -0.000 C 
BRANCH  15  16
ATOM     16  C   UNL     1      45.769   0.187  84.066  1.00  0.00    -0.000 C 
BRANCH  16  17
ATOM     17  C   UNL     1      46.948  -0.278  83.199  1.00  0.00    -0.003 C 
ATOM     18  C   UNL     1      47.967   0.842  83.008  1.00  0.00     0.004 C 
ENDBRANCH  16  17
ENDBRANCH  15  16
ENDBRANCH  14  15
ENDBRANCH  13  14
ENDBRANCH  12  13
ENDBRANCH  11  12
ENDBRANCH   1  11
TORSDOF 14
ENDMDL
