MODEL 1
REMARK VINA RESULT:    -3.153      0.000      0.000
REMARK INTER + INTRA:          -9.166
REMARK INTER:                  -6.101
REMARK INTRA:                  -3.065
REMARK UNBOUND:                -3.065
REMARK SMILES CCCCCCCCCCCCCCCCCC(=O)[O-]
REMARK SMILES IDX 10 1 11 2 12 3 13 4 14 5 15 6 16 7 17 8 18 9 19 10 20 11
REMARK SMILES IDX 9 12 8 13 7 14 6 15 5 16 4 17 3 18 2 19 1 20
REMARK H PARENT
REMARK Flexibility Score: inf
ROOT
ATOM      1  C   UNL     1      58.840  28.343  53.390  1.00  0.00     0.000 C 
ENDROOT
BRANCH   1   2
ATOM      2  C   UNL     1      57.676  29.340  53.208  1.00  0.00     0.000 C 
BRANCH   2   3
ATOM      3  C   UNL     1      57.651  30.029  51.829  1.00  0.00     0.000 C 
BRANCH   3   4
ATOM      4  C   UNL     1      58.963  29.947  51.031  1.00  0.00     0.000 C 
BRANCH   4   5
ATOM      5  C   UNL     1      58.878  29.134  49.726  1.00  0.00     0.000 C 
BRANCH   5   6
ATOM      6  C   UNL     1      60.021  28.107  49.553  1.00  0.00     0.000 C 
BRANCH   6   7
ATOM      7  C   UNL     1      59.629  26.666  49.920  1.00  0.00     0.006 C 
BRANCH   7   8
ATOM      8  C   UNL     1      60.761  25.905  50.623  1.00  0.00     0.053 C 
BRANCH   8   9
ATOM      9  C   UNL     1      60.424  24.452  50.736  1.00  0.00     0.041 C 
ATOM     10  O   UNL     1      60.915  23.622  49.926  1.00  0.00    -0.550 OA
ATOM     11  O   UNL     1      59.535  24.015  51.712  1.00  0.00    -0.550 OA
ENDBRANCH   8   9
ENDBRANCH   7   8
ENDBRANCH   6   7
ENDBRANCH   5   6
ENDBRANCH   4   5
ENDBRANCH   3   4
ENDBRANCH   2   3
ENDBRANCH   1   2
BRANCH   1  12
ATOM     12  C   UNL     1      58.370  26.877  53.370  1.00  0.00     0.000 C 
BRANCH  12  13
ATOM     13  C   UNL     1      56.854  26.739  53.154  1.00  0.00    -0.000 C 
BRANCH  13  14
ATOM     14  C   UNL     1      56.478  25.881  51.927  1.00  0.00    -0.000 C 
BRANCH  14  15
ATOM     15  C   UNL     1      56.168  26.741  50.689  1.00  0.00    -0.000 C 
BRANCH  15  16
ATOM     16  C   UNL     1      54.799  26.419  50.065  1.00  0.00    -0.000 C 
BRANCH  16  17
ATOM     17  C   UNL     1      53.771  27.545  50.273  1.00  0.00    -0.000 C 
BRANCH  17  18
ATOM     18  C   UNL     1      54.438  28.909  50.521  1.00  0.00    -0.000 C 
BRANCH  18  19
ATOM     19  C   UNL     1      53.939  29.584  51.807  1.00  0.00    -0.003 C 
ATOM     20  C   UNL     1      53.622  28.550  52.883  1.00  0.00     0.004 C 
ENDBRANCH  18  19
ENDBRANCH  17  18
ENDBRANCH  16  17
ENDBRANCH  15  16
ENDBRANCH  14  15
ENDBRANCH  13  14
ENDBRANCH  12  13
ENDBRANCH   1  12
TORSDOF 16
ENDMDL
MODEL 2
REMARK VINA RESULT:    -2.939      3.191      5.446
REMARK INTER + INTRA:          -8.753
REMARK INTER:                  -7.406
REMARK INTRA:                  -1.347
REMARK UNBOUND:                -3.065
REMARK SMILES CCCCCCCCCCCCCCCCCC(=O)[O-]
REMARK SMILES IDX 10 1 11 2 12 3 13 4 14 5 15 6 16 7 17 8 18 9 19 10 20 11
REMARK SMILES IDX 9 12 8 13 7 14 6 15 5 16 4 17 3 18 2 19 1 20
REMARK H PARENT
REMARK Flexibility Score: inf
ROOT
ATOM      1  C   UNL     1      59.995  26.320  50.789  1.00  0.00     0.000 C 
ENDROOT
BRANCH   1   2
ATOM      2  C   UNL     1      60.043  24.812  50.461  1.00  0.00     0.000 C 
BRANCH   2   3
ATOM      3  C   UNL     1      61.414  24.158  50.719  1.00  0.00     0.000 C 
BRANCH   3   4
ATOM      4  C   UNL     1      61.445  22.627  50.586  1.00  0.00     0.000 C 
BRANCH   4   5
ATOM      5  C   UNL     1      60.894  22.080  49.256  1.00  0.00     0.000 C 
BRANCH   5   6
ATOM      6  C   UNL     1      59.771  21.032  49.428  1.00  0.00     0.000 C 
BRANCH   6   7
ATOM      7  C   UNL     1      59.737  20.372  50.816  1.00  0.00     0.006 C 
BRANCH   7   8
ATOM      8  C   UNL     1      59.861  18.843  50.749  1.00  0.00     0.053 C 
BRANCH   8   9
ATOM      9  C   UNL     1      58.751  18.264  49.928  1.00  0.00     0.041 C 
ATOM     10  O   UNL     1      59.008  17.641  48.864  1.00  0.00    -0.550 OA
ATOM     11  O   UNL     1      57.429  18.445  50.316  1.00  0.00    -0.550 OA
ENDBRANCH   8   9
ENDBRANCH   7   8
ENDBRANCH   6   7
ENDBRANCH   5   6
ENDBRANCH   4   5
ENDBRANCH   3   4
ENDBRANCH   2   3
ENDBRANCH   1   2
BRANCH   1  12
ATOM     12  C   UNL     1      59.475  27.165  49.613  1.00  0.00     0.000 C 
BRANCH  12  13
ATOM     13  C   UNL     1      59.736  28.669  49.797  1.00  0.00    -0.000 C 
BRANCH  13  14
ATOM     14  C   UNL     1      58.450  29.511  49.928  1.00  0.00    -0.000 C 
BRANCH  14  15
ATOM     15  C   UNL     1      58.030  29.708  51.395  1.00  0.00    -0.000 C 
BRANCH  15  16
ATOM     16  C   UNL     1      56.865  28.793  51.812  1.00  0.00    -0.000 C 
BRANCH  16  17
ATOM     17  C   UNL     1      56.043  28.293  50.612  1.00  0.00    -0.000 C 
BRANCH  17  18
ATOM     18  C   UNL     1      55.960  26.758  50.556  1.00  0.00    -0.000 C 
BRANCH  18  19
ATOM     19  C   UNL     1      54.668  26.260  49.892  1.00  0.00    -0.003 C 
ATOM     20  C   UNL     1      53.499  27.189  50.202  1.00  0.00     0.004 C 
ENDBRANCH  18  19
ENDBRANCH  17  18
ENDBRANCH  16  17
ENDBRANCH  15  16
ENDBRANCH  14  15
ENDBRANCH  13  14
ENDBRANCH  12  13
ENDBRANCH   1  12
TORSDOF 16
ENDMDL
MODEL 3
REMARK VINA RESULT:    -2.939      1.322      2.895
REMARK INTER + INTRA:          -8.753
REMARK INTER:                  -6.438
REMARK INTRA:                  -2.315
REMARK UNBOUND:                -3.065
REMARK SMILES CCCCCCCCCCCCCCCCCC(=O)[O-]
REMARK SMILES IDX 10 1 11 2 12 3 13 4 14 5 15 6 16 7 17 8 18 9 19 10 20 11
REMARK SMILES IDX 9 12 8 13 7 14 6 15 5 16 4 17 3 18 2 19 1 20
REMARK H PARENT
REMARK Flexibility Score: inf
ROOT
ATOM      1  C   UNL     1      56.310  26.428  51.341  1.00  0.00     0.000 C 
ENDROOT
BRANCH   1   2
ATOM      2  C   UNL     1      57.218  27.643  51.631  1.00  0.00     0.000 C 
BRANCH   2   3
ATOM      3  C   UNL     1      57.155  28.743  50.553  1.00  0.00     0.000 C 
BRANCH   3   4
ATOM      4  C   UNL     1      58.516  29.304  50.109  1.00  0.00     0.000 C 
BRANCH   4   5
ATOM      5  C   UNL     1      59.444  28.285  49.421  1.00  0.00     0.000 C 
BRANCH   5   6
ATOM      6  C   UNL     1      60.861  28.215  50.036  1.00  0.00     0.000 C 
BRANCH   6   7
ATOM      7  C   UNL     1      61.127  26.937  50.849  1.00  0.00     0.006 C 
BRANCH   7   8
ATOM      8  C   UNL     1      60.239  25.763  50.414  1.00  0.00     0.053 C 
BRANCH   8   9
ATOM      9  C   UNL     1      60.997  24.475  50.497  1.00  0.00     0.041 C 
ATOM     10  O   UNL     1      60.463  23.400  50.115  1.00  0.00    -0.550 OA
ATOM     11  O   UNL     1      62.279  24.453  51.031  1.00  0.00    -0.550 OA
ENDBRANCH   8   9
ENDBRANCH   7   8
ENDBRANCH   6   7
ENDBRANCH   5   6
ENDBRANCH   4   5
ENDBRANCH   3   4
ENDBRANCH   2   3
ENDBRANCH   1   2
BRANCH   1  12
ATOM     12  C   UNL     1      55.464  26.612  50.069  1.00  0.00     0.000 C 
BRANCH  12  13
ATOM     13  C   UNL     1      54.037  26.059  50.216  1.00  0.00    -0.000 C 
BRANCH  13  14
ATOM     14  C   UNL     1      52.940  27.140  50.122  1.00  0.00    -0.000 C 
BRANCH  14  15
ATOM     15  C   UNL     1      53.507  28.561  50.283  1.00  0.00    -0.000 C 
BRANCH  15  16
ATOM     16  C   UNL     1      53.387  29.093  51.723  1.00  0.00    -0.000 C 
BRANCH  16  17
ATOM     17  C   UNL     1      54.257  30.338  51.971  1.00  0.00    -0.000 C 
BRANCH  17  18
ATOM     18  C   UNL     1      55.046  30.248  53.288  1.00  0.00    -0.000 C 
BRANCH  18  19
ATOM     19  C   UNL     1      56.013  31.426  53.477  1.00  0.00    -0.003 C 
ATOM     20  C   UNL     1      57.460  30.946  53.532  1.00  0.00     0.004 C 
ENDBRANCH  18  19
ENDBRANCH  17  18
ENDBRANCH  16  17
ENDBRANCH  15  16
ENDBRANCH  14  15
ENDBRANCH  13  14
ENDBRANCH  12  13
ENDBRANCH   1  12
TORSDOF 16
ENDMDL
MODEL 4
REMARK VINA RESULT:    -2.885      3.054      4.551
REMARK INTER + INTRA:          -8.649
REMARK INTER:                  -5.825
REMARK INTRA:                  -2.824
REMARK UNBOUND:                -3.065
REMARK SMILES CCCCCCCCCCCCCCCCCC(=O)[O-]
REMARK SMILES IDX 10 1 11 2 12 3 13 4 14 5 15 6 16 7 17 8 18 9 19 10 20 11
REMARK SMILES IDX 9 12 8 13 7 14 6 15 5 16 4 17 3 18 2 19 1 20
REMARK H PARENT
REMARK Flexibility Score: inf
ROOT
ATOM      1  C   UNL     1      57.330  26.557  51.844  1.00  0.00     0.000 C 
ENDROOT
BRANCH   1   2
ATOM      2  C   UNL     1      58.717  26.013  51.444  1.00  0.00     0.000 C 
BRANCH   2   3
ATOM      3  C   UNL     1      59.152  26.392  50.015  1.00  0.00     0.000 C 
BRANCH   3   4
ATOM      4  C   UNL     1      59.893  27.733  49.890  1.00  0.00     0.000 C 
BRANCH   4   5
ATOM      5  C   UNL     1      59.066  28.877  49.273  1.00  0.00     0.000 C 
BRANCH   5   6
ATOM      6  C   UNL     1      58.398  29.800  50.318  1.00  0.00     0.000 C 
BRANCH   6   7
ATOM      7  C   UNL     1      59.204  29.958  51.619  1.00  0.00     0.006 C 
BRANCH   7   8
ATOM      8  C   UNL     1      58.311  29.988  52.868  1.00  0.00     0.053 C 
BRANCH   8   9
ATOM      9  C   UNL     1      58.351  31.340  53.507  1.00  0.00     0.041 C 
ATOM     10  O   UNL     1      57.558  31.621  54.445  1.00  0.00    -0.550 OA
ATOM     11  O   UNL     1      59.237  32.305  53.044  1.00  0.00    -0.550 OA
ENDBRANCH   8   9
ENDBRANCH   7   8
ENDBRANCH   6   7
ENDBRANCH   5   6
ENDBRANCH   4   5
ENDBRANCH   3   4
ENDBRANCH   2   3
ENDBRANCH   1   2
BRANCH   1  12
ATOM     12  C   UNL     1      56.284  26.390  50.727  1.00  0.00     0.000 C 
BRANCH  12  13
ATOM     13  C   UNL     1      55.467  27.668  50.478  1.00  0.00    -0.000 C 
BRANCH  13  14
ATOM     14  C   UNL     1      53.940  27.453  50.554  1.00  0.00    -0.000 C 
BRANCH  14  15
ATOM     15  C   UNL     1      53.156  28.754  50.303  1.00  0.00    -0.000 C 
BRANCH  15  16
ATOM     16  C   UNL     1      53.969  30.016  50.643  1.00  0.00    -0.000 C 
BRANCH  16  17
ATOM     17  C   UNL     1      53.632  30.584  52.033  1.00  0.00    -0.000 C 
BRANCH  17  18
ATOM     18  C   UNL     1      54.689  30.215  53.088  1.00  0.00    -0.000 C 
BRANCH  18  19
ATOM     19  C   UNL     1      54.267  29.019  53.953  1.00  0.00    -0.003 C 
ATOM     20  C   UNL     1      55.484  28.296  54.522  1.00  0.00     0.004 C 
ENDBRANCH  18  19
ENDBRANCH  17  18
ENDBRANCH  16  17
ENDBRANCH  15  16
ENDBRANCH  14  15
ENDBRANCH  13  14
ENDBRANCH  12  13
ENDBRANCH   1  12
TORSDOF 16
ENDMDL
MODEL 5
REMARK VINA RESULT:    -2.840      2.383      3.708
REMARK INTER + INTRA:          -8.560
REMARK INTER:                  -6.261
REMARK INTRA:                  -2.299
REMARK UNBOUND:                -3.065
REMARK SMILES CCCCCCCCCCCCCCCCCC(=O)[O-]
REMARK SMILES IDX 10 1 11 2 12 3 13 4 14 5 15 6 16 7 17 8 18 9 19 10 20 11
REMARK SMILES IDX 9 12 8 13 7 14 6 15 5 16 4 17 3 18 2 19 1 20
REMARK H PARENT
REMARK Flexibility Score: inf
ROOT
ATOM      1  C   UNL     1      57.215  28.019  53.524  1.00  0.00     0.000 C 
ENDROOT
BRANCH   1   2
ATOM      2  C   UNL     1      58.119  26.945  52.882  1.00  0.00     0.000 C 
BRANCH   2   3
ATOM      3  C   UNL     1      57.422  26.112  51.787  1.00  0.00     0.000 C 
BRANCH   3   4
ATOM      4  C   UNL     1      57.900  26.386  50.352  1.00  0.00     0.000 C 
BRANCH   4   5
ATOM      5  C   UNL     1      59.426  26.311  50.151  1.00  0.00     0.000 C 
BRANCH   5   6
ATOM      6  C   UNL     1      60.081  27.672  49.818  1.00  0.00     0.000 C 
BRANCH   6   7
ATOM      7  C   UNL     1      59.084  28.753  49.369  1.00  0.00     0.006 C 
BRANCH   7   8
ATOM      8  C   UNL     1      59.280  30.084  50.109  1.00  0.00     0.053 C 
BRANCH   8   9
ATOM      9  C   UNL     1      60.555  30.064  50.892  1.00  0.00     0.041 C 
ATOM     10  O   UNL     1      61.637  30.416  50.351  1.00  0.00    -0.550 OA
ATOM     11  O   UNL     1      60.558  29.621  52.209  1.00  0.00    -0.550 OA
ENDBRANCH   8   9
ENDBRANCH   7   8
ENDBRANCH   6   7
ENDBRANCH   5   6
ENDBRANCH   4   5
ENDBRANCH   3   4
ENDBRANCH   2   3
ENDBRANCH   1   2
BRANCH   1  12
ATOM     12  C   UNL     1      57.011  29.242  52.612  1.00  0.00     0.000 C 
BRANCH  12  13
ATOM     13  C   UNL     1      55.534  29.486  52.261  1.00  0.00    -0.000 C 
BRANCH  13  14
ATOM     14  C   UNL     1      55.176  29.134  50.802  1.00  0.00    -0.000 C 
BRANCH  14  15
ATOM     15  C   UNL     1      53.659  29.176  50.549  1.00  0.00    -0.000 C 
BRANCH  15  16
ATOM     16  C   UNL     1      53.116  27.867  49.947  1.00  0.00    -0.000 C 
BRANCH  16  17
ATOM     17  C   UNL     1      54.131  26.713  50.023  1.00  0.00    -0.000 C 
BRANCH  17  18
ATOM     18  C   UNL     1      53.454  25.352  50.260  1.00  0.00    -0.000 C 
BRANCH  18  19
ATOM     19  C   UNL     1      53.004  25.163  51.716  1.00  0.00    -0.003 C 
ATOM     20  C   UNL     1      54.019  25.760  52.686  1.00  0.00     0.004 C 
ENDBRANCH  18  19
ENDBRANCH  17  18
ENDBRANCH  16  17
ENDBRANCH  15  16
ENDBRANCH  14  15
ENDBRANCH  13  14
ENDBRANCH  12  13
ENDBRANCH   1  12
TORSDOF 16
ENDMDL
MODEL 6
REMARK VINA RESULT:    -2.756      2.584      3.892
REMARK INTER + INTRA:          -8.398
REMARK INTER:                  -5.192
REMARK INTRA:                  -3.205
REMARK UNBOUND:                -3.065
REMARK SMILES CCCCCCCCCCCCCCCCCC(=O)[O-]
REMARK SMILES IDX 10 1 11 2 12 3 13 4 14 5 15 6 16 7 17 8 18 9 19 10 20 11
REMARK SMILES IDX 9 12 8 13 7 14 6 15 5 16 4 17 3 18 2 19 1 20
REMARK H PARENT
REMARK Flexibility Score: inf
ROOT
ATOM      1  C   UNL     1      59.538  26.243  50.368  1.00  0.00     0.000 C 
ENDROOT
BRANCH   1   2
ATOM      2  C   UNL     1      60.109  27.597  49.896  1.00  0.00     0.000 C 
BRANCH   2   3
ATOM      3  C   UNL     1      59.048  28.565  49.338  1.00  0.00     0.000 C 
BRANCH   3   4
ATOM      4  C   UNL     1      59.073  29.981  49.936  1.00  0.00     0.000 C 
BRANCH   4   5
ATOM      5  C   UNL     1      60.119  30.198  51.045  1.00  0.00     0.000 C 
BRANCH   5   6
ATOM      6  C   UNL     1      59.527  30.739  52.367  1.00  0.00     0.000 C 
BRANCH   6   7
ATOM      7  C   UNL     1      59.783  29.833  53.583  1.00  0.00     0.006 C 
BRANCH   7   8
ATOM      8  C   UNL     1      60.876  28.786  53.323  1.00  0.00     0.053 C 
BRANCH   8   9
ATOM      9  C   UNL     1      62.167  29.212  53.947  1.00  0.00     0.041 C 
ATOM     10  O   UNL     1      62.985  29.915  53.297  1.00  0.00    -0.550 OA
ATOM     11  O   UNL     1      62.488  28.801  55.236  1.00  0.00    -0.550 OA
ENDBRANCH   8   9
ENDBRANCH   7   8
ENDBRANCH   6   7
ENDBRANCH   5   6
ENDBRANCH   4   5
ENDBRANCH   3   4
ENDBRANCH   2   3
ENDBRANCH   1   2
BRANCH   1  12
ATOM     12  C   UNL     1      58.002  26.249  50.459  1.00  0.00     0.000 C 
BRANCH  12  13
ATOM     13  C   UNL     1      57.487  25.946  51.876  1.00  0.00    -0.000 C 
BRANCH  13  14
ATOM     14  C   UNL     1      57.553  27.155  52.833  1.00  0.00    -0.000 C 
BRANCH  14  15
ATOM     15  C   UNL     1      56.199  27.876  52.953  1.00  0.00    -0.000 C 
BRANCH  15  16
ATOM     16  C   UNL     1      56.144  29.184  52.144  1.00  0.00    -0.000 C 
BRANCH  16  17
ATOM     17  C   UNL     1      55.574  28.984  50.729  1.00  0.00    -0.000 C 
BRANCH  17  18
ATOM     18  C   UNL     1      54.214  28.266  50.741  1.00  0.00    -0.000 C 
BRANCH  18  19
ATOM     19  C   UNL     1      54.248  26.925  49.993  1.00  0.00    -0.003 C 
ATOM     20  C   UNL     1      53.883  25.770  50.920  1.00  0.00     0.004 C 
ENDBRANCH  18  19
ENDBRANCH  17  18
ENDBRANCH  16  17
ENDBRANCH  15  16
ENDBRANCH  14  15
ENDBRANCH  13  14
ENDBRANCH  12  13
ENDBRANCH   1  12
TORSDOF 16
ENDMDL
MODEL 7
REMARK VINA RESULT:    -2.756      1.409      2.176
REMARK INTER + INTRA:          -8.398
REMARK INTER:                  -5.964
REMARK INTRA:                  -2.434
REMARK UNBOUND:                -3.065
REMARK SMILES CCCCCCCCCCCCCCCCCC(=O)[O-]
REMARK SMILES IDX 10 1 11 2 12 3 13 4 14 5 15 6 16 7 17 8 18 9 19 10 20 11
REMARK SMILES IDX 9 12 8 13 7 14 6 15 5 16 4 17 3 18 2 19 1 20
REMARK H PARENT
REMARK Flexibility Score: inf
ROOT
ATOM      1  C   UNL     1      56.815  27.090  53.978  1.00  0.00     0.000 C 
ENDROOT
BRANCH   1   2
ATOM      2  C   UNL     1      56.632  28.586  53.647  1.00  0.00     0.000 C 
BRANCH   2   3
ATOM      3  C   UNL     1      57.922  29.286  53.175  1.00  0.00     0.000 C 
BRANCH   3   4
ATOM      4  C   UNL     1      57.775  30.148  51.910  1.00  0.00     0.000 C 
BRANCH   4   5
ATOM      5  C   UNL     1      57.614  29.355  50.600  1.00  0.00     0.000 C 
BRANCH   5   6
ATOM      6  C   UNL     1      58.771  29.563  49.596  1.00  0.00     0.000 C 
BRANCH   6   7
ATOM      7  C   UNL     1      60.171  29.484  50.229  1.00  0.00     0.006 C 
BRANCH   7   8
ATOM      8  C   UNL     1      60.876  28.151  49.941  1.00  0.00     0.053 C 
BRANCH   8   9
ATOM      9  C   UNL     1      60.223  27.039  50.700  1.00  0.00     0.041 C 
ATOM     10  O   UNL     1      60.410  26.922  51.940  1.00  0.00    -0.550 OA
ATOM     11  O   UNL     1      59.437  26.107  50.033  1.00  0.00    -0.550 OA
ENDBRANCH   8   9
ENDBRANCH   7   8
ENDBRANCH   6   7
ENDBRANCH   5   6
ENDBRANCH   4   5
ENDBRANCH   3   4
ENDBRANCH   2   3
ENDBRANCH   1   2
BRANCH   1  12
ATOM     12  C   UNL     1      56.986  26.222  52.718  1.00  0.00     0.000 C 
BRANCH  12  13
ATOM     13  C   UNL     1      55.654  25.932  52.007  1.00  0.00    -0.000 C 
BRANCH  13  14
ATOM     14  C   UNL     1      55.638  26.350  50.522  1.00  0.00    -0.000 C 
BRANCH  14  15
ATOM     15  C   UNL     1      54.208  26.481  49.969  1.00  0.00    -0.000 C 
BRANCH  15  16
ATOM     16  C   UNL     1      53.449  27.687  50.552  1.00  0.00    -0.000 C 
BRANCH  16  17
ATOM     17  C   UNL     1      54.249  28.997  50.452  1.00  0.00    -0.000 C 
BRANCH  17  18
ATOM     18  C   UNL     1      53.464  30.205  50.991  1.00  0.00    -0.000 C 
BRANCH  18  19
ATOM     19  C   UNL     1      53.540  30.324  52.520  1.00  0.00    -0.003 C 
ATOM     20  C   UNL     1      54.371  31.533  52.937  1.00  0.00     0.004 C 
ENDBRANCH  18  19
ENDBRANCH  17  18
ENDBRANCH  16  17
ENDBRANCH  15  16
ENDBRANCH  14  15
ENDBRANCH  13  14
ENDBRANCH  12  13
ENDBRANCH   1  12
TORSDOF 16
ENDMDL
MODEL 8
REMARK VINA RESULT:    -2.743      2.422      4.270
REMARK INTER + INTRA:          -8.374
REMARK INTER:                  -5.619
REMARK INTRA:                  -2.755
REMARK UNBOUND:                -3.065
REMARK SMILES CCCCCCCCCCCCCCCCCC(=O)[O-]
REMARK SMILES IDX 10 1 11 2 12 3 13 4 14 5 15 6 16 7 17 8 18 9 19 10 20 11
REMARK SMILES IDX 9 12 8 13 7 14 6 15 5 16 4 17 3 18 2 19 1 20
REMARK H PARENT
REMARK Flexibility Score: inf
ROOT
ATOM      1  C   UNL     1      58.373  29.843  51.068  1.00  0.00     0.000 C 
ENDROOT
BRANCH   1   2
ATOM      2  C   UNL     1      58.721  29.265  49.680  1.00  0.00     0.000 C 
BRANCH   2   3
ATOM      3  C   UNL     1      60.027  28.446  49.651  1.00  0.00     0.000 C 
BRANCH   3   4
ATOM      4  C   UNL     1      59.918  27.020  50.216  1.00  0.00     0.000 C 
BRANCH   4   5
ATOM      5  C   UNL     1      58.528  26.371  50.076  1.00  0.00     0.000 C 
BRANCH   5   6
ATOM      6  C   UNL     1      57.891  25.960  51.423  1.00  0.00     0.000 C 
BRANCH   6   7
ATOM      7  C   UNL     1      56.507  26.582  51.676  1.00  0.00     0.006 C 
BRANCH   7   8
ATOM      8  C   UNL     1      55.721  26.824  50.380  1.00  0.00     0.053 C 
BRANCH   8   9
ATOM      9  C   UNL     1      54.477  25.992  50.360  1.00  0.00     0.041 C 
ATOM     10  O   UNL     1      53.888  25.759  49.272  1.00  0.00    -0.550 OA
ATOM     11  O   UNL     1      53.944  25.504  51.548  1.00  0.00    -0.550 OA
ENDBRANCH   8   9
ENDBRANCH   7   8
ENDBRANCH   6   7
ENDBRANCH   5   6
ENDBRANCH   4   5
ENDBRANCH   3   4
ENDBRANCH   2   3
ENDBRANCH   1   2
BRANCH   1  12
ATOM     12  C   UNL     1      59.611  30.359  51.822  1.00  0.00     0.000 C 
BRANCH  12  13
ATOM     13  C   UNL     1      59.639  29.921  53.295  1.00  0.00    -0.000 C 
BRANCH  13  14
ATOM     14  C   UNL     1      58.550  28.889  53.656  1.00  0.00    -0.000 C 
BRANCH  14  15
ATOM     15  C   UNL     1      57.534  29.445  54.670  1.00  0.00    -0.000 C 
BRANCH  15  16
ATOM     16  C   UNL     1      56.074  29.171  54.266  1.00  0.00    -0.000 C 
BRANCH  16  17
ATOM     17  C   UNL     1      55.427  30.359  53.534  1.00  0.00    -0.000 C 
BRANCH  17  18
ATOM     18  C   UNL     1      55.030  30.011  52.089  1.00  0.00    -0.000 C 
BRANCH  18  19
ATOM     19  C   UNL     1      53.515  30.099  51.855  1.00  0.00    -0.003 C 
ATOM     20  C   UNL     1      53.135  29.526  50.494  1.00  0.00     0.004 C 
ENDBRANCH  18  19
ENDBRANCH  17  18
ENDBRANCH  16  17
ENDBRANCH  15  16
ENDBRANCH  14  15
ENDBRANCH  13  14
ENDBRANCH  12  13
ENDBRANCH   1  12
TORSDOF 16
ENDMDL
MODEL 9
REMARK VINA RESULT:    -2.727      3.267      4.595
REMARK INTER + INTRA:          -8.342
REMARK INTER:                  -5.717
REMARK INTRA:                  -2.624
REMARK UNBOUND:                -3.065
REMARK SMILES CCCCCCCCCCCCCCCCCC(=O)[O-]
REMARK SMILES IDX 10 1 11 2 12 3 13 4 14 5 15 6 16 7 17 8 18 9 19 10 20 11
REMARK SMILES IDX 9 12 8 13 7 14 6 15 5 16 4 17 3 18 2 19 1 20
REMARK H PARENT
REMARK Flexibility Score: inf
ROOT
ATOM      1  C   UNL     1      59.500  25.006  51.302  1.00  0.00     0.000 C 
ENDROOT
BRANCH   1   2
ATOM      2  C   UNL     1      60.172  26.014  50.346  1.00  0.00     0.000 C 
BRANCH   2   3
ATOM      3  C   UNL     1      59.189  26.997  49.680  1.00  0.00     0.000 C 
BRANCH   3   4
ATOM      4  C   UNL     1      59.641  28.467  49.665  1.00  0.00     0.000 C 
BRANCH   4   5
ATOM      5  C   UNL     1      60.878  28.774  50.529  1.00  0.00     0.000 C 
BRANCH   5   6
ATOM      6  C   UNL     1      60.689  29.970  51.491  1.00  0.00     0.000 C 
BRANCH   6   7
ATOM      7  C   UNL     1      61.874  30.949  51.512  1.00  0.00     0.006 C 
BRANCH   7   8
ATOM      8  C   UNL     1      62.003  31.751  50.209  1.00  0.00     0.053 C 
BRANCH   8   9
ATOM      9  C   UNL     1      63.363  31.566  49.613  1.00  0.00     0.041 C 
ATOM     10  O   UNL     1      63.837  30.409  49.463  1.00  0.00    -0.550 OA
ATOM     11  O   UNL     1      64.125  32.672  49.258  1.00  0.00    -0.550 OA
ENDBRANCH   8   9
ENDBRANCH   7   8
ENDBRANCH   6   7
ENDBRANCH   5   6
ENDBRANCH   4   5
ENDBRANCH   3   4
ENDBRANCH   2   3
ENDBRANCH   1   2
BRANCH   1  12
ATOM     12  C   UNL     1      58.487  25.673  52.249  1.00  0.00     0.000 C 
BRANCH  12  13
ATOM     13  C   UNL     1      59.160  26.455  53.388  1.00  0.00    -0.000 C 
BRANCH  13  14
ATOM     14  C   UNL     1      58.462  27.789  53.723  1.00  0.00    -0.000 C 
BRANCH  14  15
ATOM     15  C   UNL     1      57.147  27.970  52.944  1.00  0.00    -0.000 C 
BRANCH  15  16
ATOM     16  C   UNL     1      57.134  29.243  52.080  1.00  0.00    -0.000 C 
BRANCH  16  17
ATOM     17  C   UNL     1      56.201  29.124  50.861  1.00  0.00    -0.000 C 
BRANCH  17  18
ATOM     18  C   UNL     1      55.766  27.673  50.596  1.00  0.00    -0.000 C 
BRANCH  18  19
ATOM     19  C   UNL     1      54.241  27.522  50.500  1.00  0.00    -0.003 C 
ATOM     20  C   UNL     1      53.562  28.882  50.364  1.00  0.00     0.004 C 
ENDBRANCH  18  19
ENDBRANCH  17  18
ENDBRANCH  16  17
ENDBRANCH  15  16
ENDBRANCH  14  15
ENDBRANCH  13  14
ENDBRANCH  12  13
ENDBRANCH   1  12
TORSDOF 16
ENDMDL
