MODEL 1
REMARK VINA RESULT:    -4.606      0.000      0.000
REMARK INTER + INTRA:         -12.384
REMARK INTER:                  -9.991
REMARK INTRA:                  -2.394
REMARK UNBOUND:                -2.394
REMARK SMILES CCCCCCCCCCCCCCCCCCCCCC(=O)[O-]
REMARK SMILES IDX 12 1 11 2 10 3 9 4 8 5 7 6 6 7 5 8 4 9 3 10 2 11 1 12 13 13
REMARK SMILES IDX 14 14 15 15 16 16 17 17 18 18 19 19 20 20 21 21 22 22 23 23
REMARK SMILES IDX 24 24
REMARK H PARENT
REMARK Flexibility Score: inf
ROOT
ATOM      1  C   UNL     1      13.092  11.108  13.609  1.00  0.00     0.000 C 
ENDROOT
BRANCH   1   2
ATOM      2  C   UNL     1      11.701  11.723  13.370  1.00  0.00     0.000 C 
BRANCH   2   3
ATOM      3  C   UNL     1      10.608  10.723  12.947  1.00  0.00     0.000 C 
BRANCH   3   4
ATOM      4  C   UNL     1      10.932   9.999  11.632  1.00  0.00    -0.000 C 
BRANCH   4   5
ATOM      5  C   UNL     1      11.048  11.000  10.472  1.00  0.00    -0.000 C 
BRANCH   5   6
ATOM      6  C   UNL     1      12.428  10.973   9.791  1.00  0.00    -0.000 C 
BRANCH   6   7
ATOM      7  C   UNL     1      13.000  12.355   9.410  1.00  0.00    -0.000 C 
BRANCH   7   8
ATOM      8  C   UNL     1      12.975  13.409  10.533  1.00  0.00    -0.000 C 
BRANCH   8   9
ATOM      9  C   UNL     1      12.071  14.611  10.207  1.00  0.00    -0.000 C 
BRANCH   9  10
ATOM     10  C   UNL     1      11.162  14.997  11.386  1.00  0.00    -0.000 C 
BRANCH  10  11
ATOM     11  C   UNL     1       9.743  14.425  11.249  1.00  0.00    -0.003 C 
ATOM     12  C   UNL     1       9.111  14.193  12.619  1.00  0.00     0.004 C 
ENDBRANCH  10  11
ENDBRANCH   9  10
ENDBRANCH   8   9
ENDBRANCH   7   8
ENDBRANCH   6   7
ENDBRANCH   5   6
ENDBRANCH   4   5
ENDBRANCH   3   4
ENDBRANCH   2   3
ENDBRANCH   1   2
BRANCH   1  13
ATOM     13  C   UNL     1      13.802  11.694  14.841  1.00  0.00     0.000 C 
BRANCH  13  14
ATOM     14  C   UNL     1      15.245  11.179  14.998  1.00  0.00     0.000 C 
BRANCH  14  15
ATOM     15  C   UNL     1      16.343  12.164  14.552  1.00  0.00     0.000 C 
BRANCH  15  16
ATOM     16  C   UNL     1      17.748  11.550  14.384  1.00  0.00     0.000 C 
BRANCH  16  17
ATOM     17  C   UNL     1      18.917  12.528  14.607  1.00  0.00     0.000 C 
BRANCH  17  18
ATOM     18  C   UNL     1      19.128  12.870  16.091  1.00  0.00     0.000 C 
BRANCH  18  19
ATOM     19  C   UNL     1      19.736  11.707  16.890  1.00  0.00     0.000 C 
BRANCH  19  20
ATOM     20  C   UNL     1      18.971  11.412  18.191  1.00  0.00     0.006 C 
BRANCH  20  21
ATOM     21  C   UNL     1      18.006  12.551  18.530  1.00  0.00     0.053 C 
BRANCH  21  22
ATOM     22  C   UNL     1      16.716  12.009  19.060  1.00  0.00     0.041 C 
ATOM     23  O   UNL     1      15.680  12.026  18.344  1.00  0.00    -0.550 OA
ATOM     24  O   UNL     1      16.667  11.447  20.330  1.00  0.00    -0.550 OA
ENDBRANCH  21  22
ENDBRANCH  20  21
ENDBRANCH  19  20
ENDBRANCH  18  19
ENDBRANCH  17  18
ENDBRANCH  16  17
ENDBRANCH  15  16
ENDBRANCH  14  15
ENDBRANCH  13  14
ENDBRANCH   1  13
TORSDOF 20
ENDMDL
MODEL 2
REMARK VINA RESULT:    -4.583      2.126      3.776
REMARK INTER + INTRA:         -12.335
REMARK INTER:                  -9.780
REMARK INTRA:                  -2.555
REMARK UNBOUND:                -2.394
REMARK SMILES CCCCCCCCCCCCCCCCCCCCCC(=O)[O-]
REMARK SMILES IDX 12 1 11 2 10 3 9 4 8 5 7 6 6 7 5 8 4 9 3 10 2 11 1 12 13 13
REMARK SMILES IDX 14 14 15 15 16 16 17 17 18 18 19 19 20 20 21 21 22 22 23 23
REMARK SMILES IDX 24 24
REMARK H PARENT
REMARK Flexibility Score: inf
ROOT
ATOM      1  C   UNL     1      14.330  10.971  14.695  1.00  0.00     0.000 C 
ENDROOT
BRANCH   1   2
ATOM      2  C   UNL     1      13.338  11.621  13.713  1.00  0.00     0.000 C 
BRANCH   2   3
ATOM      3  C   UNL     1      12.540  10.635  12.840  1.00  0.00     0.000 C 
BRANCH   3   4
ATOM      4  C   UNL     1      11.056  11.010  12.714  1.00  0.00    -0.000 C 
BRANCH   4   5
ATOM      5  C   UNL     1      10.686  12.121  13.709  1.00  0.00    -0.000 C 
BRANCH   5   6
ATOM      6  C   UNL     1       9.583  13.055  13.183  1.00  0.00    -0.000 C 
BRANCH   6   7
ATOM      7  C   UNL     1       9.844  13.658  11.786  1.00  0.00    -0.000 C 
BRANCH   7   8
ATOM      8  C   UNL     1      10.832  14.839  11.754  1.00  0.00    -0.000 C 
BRANCH   8   9
ATOM      9  C   UNL     1      11.838  14.745  10.593  1.00  0.00    -0.000 C 
BRANCH   9  10
ATOM     10  C   UNL     1      12.961  13.731  10.872  1.00  0.00    -0.000 C 
BRANCH  10  11
ATOM     11  C   UNL     1      13.106  12.689   9.754  1.00  0.00    -0.003 C 
ATOM     12  C   UNL     1      11.832  12.602   8.916  1.00  0.00     0.004 C 
ENDBRANCH  10  11
ENDBRANCH   9  10
ENDBRANCH   8   9
ENDBRANCH   7   8
ENDBRANCH   6   7
ENDBRANCH   5   6
ENDBRANCH   4   5
ENDBRANCH   3   4
ENDBRANCH   2   3
ENDBRANCH   1   2
BRANCH   1  13
ATOM     13  C   UNL     1      15.000  11.989  15.632  1.00  0.00     0.000 C 
BRANCH  13  14
ATOM     14  C   UNL     1      14.446  11.932  17.068  1.00  0.00     0.000 C 
BRANCH  14  15
ATOM     15  C   UNL     1      15.244  12.739  18.110  1.00  0.00     0.000 C 
BRANCH  15  16
ATOM     16  C   UNL     1      16.373  11.965  18.819  1.00  0.00     0.000 C 
BRANCH  16  17
ATOM     17  C   UNL     1      17.783  12.556  18.638  1.00  0.00     0.000 C 
BRANCH  17  18
ATOM     18  C   UNL     1      18.802  11.517  18.139  1.00  0.00     0.000 C 
BRANCH  18  19
ATOM     19  C   UNL     1      19.644  12.029  16.960  1.00  0.00     0.000 C 
BRANCH  19  20
ATOM     20  C   UNL     1      18.808  12.778  15.910  1.00  0.00     0.006 C 
BRANCH  20  21
ATOM     21  C   UNL     1      18.620  11.928  14.650  1.00  0.00     0.053 C 
BRANCH  21  22
ATOM     22  C   UNL     1      18.353  12.798  13.463  1.00  0.00     0.041 C 
ATOM     23  O   UNL     1      17.169  13.025  13.098  1.00  0.00    -0.550 OA
ATOM     24  O   UNL     1      19.408  13.393  12.783  1.00  0.00    -0.550 OA
ENDBRANCH  21  22
ENDBRANCH  20  21
ENDBRANCH  19  20
ENDBRANCH  18  19
ENDBRANCH  17  18
ENDBRANCH  16  17
ENDBRANCH  15  16
ENDBRANCH  14  15
ENDBRANCH  13  14
ENDBRANCH   1  13
TORSDOF 20
ENDMDL
MODEL 3
REMARK VINA RESULT:    -4.433      1.857      2.942
REMARK INTER + INTRA:         -12.008
REMARK INTER:                  -9.693
REMARK INTRA:                  -2.316
REMARK UNBOUND:                -2.394
REMARK SMILES CCCCCCCCCCCCCCCCCCCCCC(=O)[O-]
REMARK SMILES IDX 12 1 11 2 10 3 9 4 8 5 7 6 6 7 5 8 4 9 3 10 2 11 1 12 13 13
REMARK SMILES IDX 14 14 15 15 16 16 17 17 18 18 19 19 20 20 21 21 22 22 23 23
REMARK SMILES IDX 24 24
REMARK H PARENT
REMARK Flexibility Score: inf
ROOT
ATOM      1  C   UNL     1      13.828  11.659  13.794  1.00  0.00     0.000 C 
ENDROOT
BRANCH   1   2
ATOM      2  C   UNL     1      12.637  10.844  13.258  1.00  0.00     0.000 C 
BRANCH   2   3
ATOM      3  C   UNL     1      11.286  11.583  13.258  1.00  0.00     0.000 C 
BRANCH   3   4
ATOM      4  C   UNL     1      10.208  10.864  12.431  1.00  0.00    -0.000 C 
BRANCH   4   5
ATOM      5  C   UNL     1      10.835  10.134  11.234  1.00  0.00    -0.000 C 
BRANCH   5   6
ATOM      6  C   UNL     1      11.007  11.040  10.001  1.00  0.00    -0.000 C 
BRANCH   6   7
ATOM      7  C   UNL     1      12.451  11.515   9.732  1.00  0.00    -0.000 C 
BRANCH   7   8
ATOM      8  C   UNL     1      12.682  13.031   9.877  1.00  0.00    -0.000 C 
BRANCH   8   9
ATOM      9  C   UNL     1      11.456  13.865   9.465  1.00  0.00    -0.000 C 
BRANCH   9  10
ATOM     10  C   UNL     1      11.376  15.201  10.222  1.00  0.00    -0.000 C 
BRANCH  10  11
ATOM     11  C   UNL     1      11.073  15.016  11.716  1.00  0.00    -0.003 C 
ATOM     12  C   UNL     1       9.621  14.596  11.933  1.00  0.00     0.004 C 
ENDBRANCH  10  11
ENDBRANCH   9  10
ENDBRANCH   8   9
ENDBRANCH   7   8
ENDBRANCH   6   7
ENDBRANCH   5   6
ENDBRANCH   4   5
ENDBRANCH   3   4
ENDBRANCH   2   3
ENDBRANCH   1   2
BRANCH   1  13
ATOM     13  C   UNL     1      14.437  11.061  15.072  1.00  0.00     0.000 C 
BRANCH  13  14
ATOM     14  C   UNL     1      15.001  12.133  16.023  1.00  0.00     0.000 C 
BRANCH  14  15
ATOM     15  C   UNL     1      14.584  11.985  17.499  1.00  0.00     0.000 C 
BRANCH  15  16
ATOM     16  C   UNL     1      15.569  12.581  18.524  1.00  0.00     0.000 C 
BRANCH  16  17
ATOM     17  C   UNL     1      16.796  11.704  18.836  1.00  0.00     0.000 C 
BRANCH  17  18
ATOM     18  C   UNL     1      18.125  12.454  18.641  1.00  0.00     0.000 C 
BRANCH  18  19
ATOM     19  C   UNL     1      19.131  11.668  17.786  1.00  0.00     0.000 C 
BRANCH  19  20
ATOM     20  C   UNL     1      19.618  12.459  16.560  1.00  0.00     0.006 C 
BRANCH  20  21
ATOM     21  C   UNL     1      18.438  12.914  15.697  1.00  0.00     0.053 C 
BRANCH  21  22
ATOM     22  C   UNL     1      18.537  12.335  14.322  1.00  0.00     0.041 C 
ATOM     23  O   UNL     1      18.064  11.193  14.080  1.00  0.00    -0.550 OA
ATOM     24  O   UNL     1      19.114  13.073  13.295  1.00  0.00    -0.550 OA
ENDBRANCH  21  22
ENDBRANCH  20  21
ENDBRANCH  19  20
ENDBRANCH  18  19
ENDBRANCH  17  18
ENDBRANCH  16  17
ENDBRANCH  15  16
ENDBRANCH  14  15
ENDBRANCH  13  14
ENDBRANCH   1  13
TORSDOF 20
ENDMDL
MODEL 4
REMARK VINA RESULT:    -4.421      1.919      3.397
REMARK INTER + INTRA:         -11.985
REMARK INTER:                  -9.742
REMARK INTRA:                  -2.243
REMARK UNBOUND:                -2.394
REMARK SMILES CCCCCCCCCCCCCCCCCCCCCC(=O)[O-]
REMARK SMILES IDX 12 1 11 2 10 3 9 4 8 5 7 6 6 7 5 8 4 9 3 10 2 11 1 12 13 13
REMARK SMILES IDX 14 14 15 15 16 16 17 17 18 18 19 19 20 20 21 21 22 22 23 23
REMARK SMILES IDX 24 24
REMARK H PARENT
REMARK Flexibility Score: inf
ROOT
ATOM      1  C   UNL     1      12.870  11.646  13.929  1.00  0.00     0.000 C 
ENDROOT
BRANCH   1   2
ATOM      2  C   UNL     1      12.627  10.460  12.977  1.00  0.00     0.000 C 
BRANCH   2   3
ATOM      3  C   UNL     1      12.274  10.846  11.529  1.00  0.00     0.000 C 
BRANCH   3   4
ATOM      4  C   UNL     1      10.883  10.358  11.099  1.00  0.00    -0.000 C 
BRANCH   4   5
ATOM      5  C   UNL     1      10.240  11.341  10.109  1.00  0.00    -0.000 C 
BRANCH   5   6
ATOM      6  C   UNL     1       9.013  12.064  10.693  1.00  0.00    -0.000 C 
BRANCH   6   7
ATOM      7  C   UNL     1       8.924  12.066  12.234  1.00  0.00    -0.000 C 
BRANCH   7   8
ATOM      8  C   UNL     1       9.725  13.178  12.937  1.00  0.00    -0.000 C 
BRANCH   8   9
ATOM      9  C   UNL     1       9.470  14.571  12.335  1.00  0.00    -0.000 C 
BRANCH   9  10
ATOM     10  C   UNL     1      10.774  15.299  11.969  1.00  0.00    -0.000 C 
BRANCH  10  11
ATOM     11  C   UNL     1      11.218  15.026  10.524  1.00  0.00    -0.003 C 
ATOM     12  C   UNL     1      12.557  14.293  10.491  1.00  0.00     0.004 C 
ENDBRANCH  10  11
ENDBRANCH   9  10
ENDBRANCH   8   9
ENDBRANCH   7   8
ENDBRANCH   6   7
ENDBRANCH   5   6
ENDBRANCH   4   5
ENDBRANCH   3   4
ENDBRANCH   2   3
ENDBRANCH   1   2
BRANCH   1  13
ATOM     13  C   UNL     1      14.249  11.597  14.607  1.00  0.00     0.000 C 
BRANCH  13  14
ATOM     14  C   UNL     1      14.193  11.970  16.100  1.00  0.00     0.000 C 
BRANCH  14  15
ATOM     15  C   UNL     1      15.558  12.016  16.815  1.00  0.00     0.000 C 
BRANCH  15  16
ATOM     16  C   UNL     1      15.493  12.048  18.355  1.00  0.00     0.000 C 
BRANCH  16  17
ATOM     17  C   UNL     1      16.859  12.024  19.066  1.00  0.00     0.000 C 
BRANCH  17  18
ATOM     18  C   UNL     1      17.985  12.623  18.206  1.00  0.00     0.000 C 
BRANCH  18  19
ATOM     19  C   UNL     1      19.032  11.579  17.787  1.00  0.00     0.000 C 
BRANCH  19  20
ATOM     20  C   UNL     1      19.840  12.007  16.550  1.00  0.00     0.006 C 
BRANCH  20  21
ATOM     21  C   UNL     1      19.041  12.987  15.686  1.00  0.00     0.053 C 
BRANCH  21  22
ATOM     22  C   UNL     1      18.670  12.357  14.381  1.00  0.00     0.041 C 
ATOM     23  O   UNL     1      18.187  11.194  14.354  1.00  0.00    -0.550 OA
ATOM     24  O   UNL     1      18.817  13.069  13.197  1.00  0.00    -0.550 OA
ENDBRANCH  21  22
ENDBRANCH  20  21
ENDBRANCH  19  20
ENDBRANCH  18  19
ENDBRANCH  17  18
ENDBRANCH  16  17
ENDBRANCH  15  16
ENDBRANCH  14  15
ENDBRANCH  13  14
ENDBRANCH   1  13
TORSDOF 20
ENDMDL
MODEL 5
REMARK VINA RESULT:    -4.401      3.587      8.966
REMARK INTER + INTRA:         -11.940
REMARK INTER:                  -9.894
REMARK INTRA:                  -2.046
REMARK UNBOUND:                -2.394
REMARK SMILES CCCCCCCCCCCCCCCCCCCCCC(=O)[O-]
REMARK SMILES IDX 12 1 11 2 10 3 9 4 8 5 7 6 6 7 5 8 4 9 3 10 2 11 1 12 13 13
REMARK SMILES IDX 14 14 15 15 16 16 17 17 18 18 19 19 20 20 21 21 22 22 23 23
REMARK SMILES IDX 24 24
REMARK H PARENT
REMARK Flexibility Score: inf
ROOT
ATOM      1  C   UNL     1      12.651  11.096  13.502  1.00  0.00     0.000 C 
ENDROOT
BRANCH   1   2
ATOM      2  C   UNL     1      14.046  11.680  13.792  1.00  0.00     0.000 C 
BRANCH   2   3
ATOM      3  C   UNL     1      14.434  11.738  15.281  1.00  0.00     0.000 C 
BRANCH   3   4
ATOM      4  C   UNL     1      15.953  11.690  15.508  1.00  0.00    -0.000 C 
BRANCH   4   5
ATOM      5  C   UNL     1      16.709  12.067  14.225  1.00  0.00    -0.000 C 
BRANCH   5   6
ATOM      6  C   UNL     1      18.238  11.989  14.385  1.00  0.00    -0.000 C 
BRANCH   6   7
ATOM      7  C   UNL     1      18.785  12.516  15.729  1.00  0.00    -0.000 C 
BRANCH   7   8
ATOM      8  C   UNL     1      19.482  11.465  16.613  1.00  0.00    -0.000 C 
BRANCH   8   9
ATOM      9  C   UNL     1      19.057  11.550  18.090  1.00  0.00    -0.000 C 
BRANCH   9  10
ATOM     10  C   UNL     1      17.974  12.615  18.327  1.00  0.00    -0.000 C 
BRANCH  10  11
ATOM     11  C   UNL     1      16.729  12.046  19.023  1.00  0.00    -0.003 C 
ATOM     12  C   UNL     1      17.057  11.581  20.440  1.00  0.00     0.004 C 
ENDBRANCH  10  11
ENDBRANCH   9  10
ENDBRANCH   8   9
ENDBRANCH   7   8
ENDBRANCH   6   7
ENDBRANCH   5   6
ENDBRANCH   4   5
ENDBRANCH   3   4
ENDBRANCH   2   3
ENDBRANCH   1   2
BRANCH   1  13
ATOM     13  C   UNL     1      12.296  11.110  12.007  1.00  0.00     0.000 C 
BRANCH  13  14
ATOM     14  C   UNL     1      11.492   9.870  11.573  1.00  0.00     0.000 C 
BRANCH  14  15
ATOM     15  C   UNL     1      10.039  10.149  11.141  1.00  0.00     0.000 C 
BRANCH  15  16
ATOM     16  C   UNL     1       9.583  11.616  11.275  1.00  0.00     0.000 C 
BRANCH  16  17
ATOM     17  C   UNL     1       8.876  11.960  12.599  1.00  0.00     0.000 C 
BRANCH  17  18
ATOM     18  C   UNL     1       9.401  13.261  13.231  1.00  0.00     0.000 C 
BRANCH  18  19
ATOM     19  C   UNL     1       9.290  14.468  12.287  1.00  0.00     0.000 C 
BRANCH  19  20
ATOM     20  C   UNL     1      10.593  15.280  12.200  1.00  0.00     0.006 C 
BRANCH  20  21
ATOM     21  C   UNL     1      11.625  14.567  11.320  1.00  0.00     0.053 C 
BRANCH  21  22
ATOM     22  C   UNL     1      11.414  14.908   9.879  1.00  0.00     0.041 C 
ATOM     23  O   UNL     1      11.556  16.095   9.482  1.00  0.00    -0.550 OA
ATOM     24  O   UNL     1      11.101  13.910   8.965  1.00  0.00    -0.550 OA
ENDBRANCH  21  22
ENDBRANCH  20  21
ENDBRANCH  19  20
ENDBRANCH  18  19
ENDBRANCH  17  18
ENDBRANCH  16  17
ENDBRANCH  15  16
ENDBRANCH  14  15
ENDBRANCH  13  14
ENDBRANCH   1  13
TORSDOF 20
ENDMDL
MODEL 6
REMARK VINA RESULT:    -4.391      0.673      2.240
REMARK INTER + INTRA:         -11.919
REMARK INTER:                  -9.556
REMARK INTRA:                  -2.363
REMARK UNBOUND:                -2.394
REMARK SMILES CCCCCCCCCCCCCCCCCCCCCC(=O)[O-]
REMARK SMILES IDX 12 1 11 2 10 3 9 4 8 5 7 6 6 7 5 8 4 9 3 10 2 11 1 12 13 13
REMARK SMILES IDX 14 14 15 15 16 16 17 17 18 18 19 19 20 20 21 21 22 22 23 23
REMARK SMILES IDX 24 24
REMARK H PARENT
REMARK Flexibility Score: inf
ROOT
ATOM      1  C   UNL     1      13.359  11.179  13.648  1.00  0.00     0.000 C 
ENDROOT
BRANCH   1   2
ATOM      2  C   UNL     1      12.138  11.990  13.178  1.00  0.00     0.000 C 
BRANCH   2   3
ATOM      3  C   UNL     1      10.790  11.554  13.783  1.00  0.00     0.000 C 
BRANCH   3   4
ATOM      4  C   UNL     1       9.583  12.015  12.953  1.00  0.00    -0.000 C 
BRANCH   4   5
ATOM      5  C   UNL     1       9.463  13.546  12.966  1.00  0.00    -0.000 C 
BRANCH   5   6
ATOM      6  C   UNL     1       9.769  14.184  11.599  1.00  0.00    -0.000 C 
BRANCH   6   7
ATOM      7  C   UNL     1      11.013  15.097  11.564  1.00  0.00    -0.000 C 
BRANCH   7   8
ATOM      8  C   UNL     1      11.926  14.917  10.338  1.00  0.00    -0.000 C 
BRANCH   8   9
ATOM      9  C   UNL     1      11.645  13.615   9.568  1.00  0.00    -0.000 C 
BRANCH   9  10
ATOM     10  C   UNL     1      12.841  12.648   9.596  1.00  0.00    -0.000 C 
BRANCH  10  11
ATOM     11  C   UNL     1      12.409  11.179   9.706  1.00  0.00    -0.003 C 
ATOM     12  C   UNL     1      10.887  11.052   9.700  1.00  0.00     0.004 C 
ENDBRANCH  10  11
ENDBRANCH   9  10
ENDBRANCH   8   9
ENDBRANCH   7   8
ENDBRANCH   6   7
ENDBRANCH   5   6
ENDBRANCH   4   5
ENDBRANCH   3   4
ENDBRANCH   2   3
ENDBRANCH   1   2
BRANCH   1  13
ATOM     13  C   UNL     1      14.035  11.780  14.891  1.00  0.00     0.000 C 
BRANCH  13  14
ATOM     14  C   UNL     1      15.480  11.283  15.083  1.00  0.00     0.000 C 
BRANCH  14  15
ATOM     15  C   UNL     1      16.559  12.112  14.359  1.00  0.00     0.000 C 
BRANCH  15  16
ATOM     16  C   UNL     1      18.014  11.679  14.630  1.00  0.00     0.000 C 
BRANCH  16  17
ATOM     17  C   UNL     1      19.009  12.834  14.846  1.00  0.00     0.000 C 
BRANCH  17  18
ATOM     18  C   UNL     1      19.567  12.876  16.279  1.00  0.00     0.000 C 
BRANCH  18  19
ATOM     19  C   UNL     1      19.667  11.483  16.920  1.00  0.00     0.000 C 
BRANCH  19  20
ATOM     20  C   UNL     1      18.982  11.409  18.294  1.00  0.00     0.006 C 
BRANCH  20  21
ATOM     21  C   UNL     1      17.946  12.525  18.452  1.00  0.00     0.053 C 
BRANCH  21  22
ATOM     22  C   UNL     1      16.673  11.986  19.023  1.00  0.00     0.041 C 
ATOM     23  O   UNL     1      15.592  12.110  18.388  1.00  0.00    -0.550 OA
ATOM     24  O   UNL     1      16.684  11.308  20.236  1.00  0.00    -0.550 OA
ENDBRANCH  21  22
ENDBRANCH  20  21
ENDBRANCH  19  20
ENDBRANCH  18  19
ENDBRANCH  17  18
ENDBRANCH  16  17
ENDBRANCH  15  16
ENDBRANCH  14  15
ENDBRANCH  13  14
ENDBRANCH   1  13
TORSDOF 20
ENDMDL
MODEL 7
REMARK VINA RESULT:    -4.370      2.969      8.724
REMARK INTER + INTRA:         -11.873
REMARK INTER:                  -9.912
REMARK INTRA:                  -1.962
REMARK UNBOUND:                -2.394
REMARK SMILES CCCCCCCCCCCCCCCCCCCCCC(=O)[O-]
REMARK SMILES IDX 12 1 11 2 10 3 9 4 8 5 7 6 6 7 5 8 4 9 3 10 2 11 1 12 13 13
REMARK SMILES IDX 14 14 15 15 16 16 17 17 18 18 19 19 20 20 21 21 22 22 23 23
REMARK SMILES IDX 24 24
REMARK H PARENT
REMARK Flexibility Score: inf
ROOT
ATOM      1  C   UNL     1      11.993  11.929  13.095  1.00  0.00     0.000 C 
ENDROOT
BRANCH   1   2
ATOM      2  C   UNL     1      13.096  11.017  13.663  1.00  0.00     0.000 C 
BRANCH   2   3
ATOM      3  C   UNL     1      14.006  11.671  14.720  1.00  0.00     0.000 C 
BRANCH   3   4
ATOM      4  C   UNL     1      15.383  10.999  14.826  1.00  0.00    -0.000 C 
BRANCH   4   5
ATOM      5  C   UNL     1      16.483  12.044  15.067  1.00  0.00    -0.000 C 
BRANCH   5   6
ATOM      6  C   UNL     1      17.817  11.678  14.391  1.00  0.00    -0.000 C 
BRANCH   6   7
ATOM      7  C   UNL     1      18.998  12.615  14.719  1.00  0.00    -0.000 C 
BRANCH   7   8
ATOM      8  C   UNL     1      19.240  12.868  16.219  1.00  0.00    -0.000 C 
BRANCH   8   9
ATOM      9  C   UNL     1      19.687  11.604  16.974  1.00  0.00    -0.000 C 
BRANCH   9  10
ATOM     10  C   UNL     1      18.982  11.454  18.333  1.00  0.00    -0.000 C 
BRANCH  10  11
ATOM     11  C   UNL     1      17.774  12.391  18.478  1.00  0.00    -0.003 C 
ATOM     12  C   UNL     1      17.092  12.202  19.830  1.00  0.00     0.004 C 
ENDBRANCH  10  11
ENDBRANCH   9  10
ENDBRANCH   8   9
ENDBRANCH   7   8
ENDBRANCH   6   7
ENDBRANCH   5   6
ENDBRANCH   4   5
ENDBRANCH   3   4
ENDBRANCH   2   3
ENDBRANCH   1   2
BRANCH   1  13
ATOM     13  C   UNL     1      10.593  11.571  13.619  1.00  0.00     0.000 C 
BRANCH  13  14
ATOM     14  C   UNL     1       9.592  12.734  13.487  1.00  0.00     0.000 C 
BRANCH  14  15
ATOM     15  C   UNL     1       9.021  12.950  12.072  1.00  0.00     0.000 C 
BRANCH  15  16
ATOM     16  C   UNL     1       9.249  14.355  11.477  1.00  0.00     0.000 C 
BRANCH  16  17
ATOM     17  C   UNL     1      10.597  15.005  11.838  1.00  0.00     0.000 C 
BRANCH  17  18
ATOM     18  C   UNL     1      11.491  15.236  10.608  1.00  0.00     0.000 C 
BRANCH  18  19
ATOM     19  C   UNL     1      12.468  14.078  10.356  1.00  0.00     0.000 C 
BRANCH  19  20
ATOM     20  C   UNL     1      12.145  13.291   9.075  1.00  0.00     0.006 C 
BRANCH  20  21
ATOM     21  C   UNL     1      12.757  11.888   9.123  1.00  0.00     0.053 C 
BRANCH  21  22
ATOM     22  C   UNL     1      11.797  10.915   9.730  1.00  0.00     0.041 C 
ATOM     23  O   UNL     1      10.558  11.057   9.559  1.00  0.00    -0.550 OA
ATOM     24  O   UNL     1      12.272   9.826  10.451  1.00  0.00    -0.550 OA
ENDBRANCH  21  22
ENDBRANCH  20  21
ENDBRANCH  19  20
ENDBRANCH  18  19
ENDBRANCH  17  18
ENDBRANCH  16  17
ENDBRANCH  15  16
ENDBRANCH  14  15
ENDBRANCH  13  14
ENDBRANCH   1  13
TORSDOF 20
ENDMDL
MODEL 8
REMARK VINA RESULT:    -4.368      3.156      8.931
REMARK INTER + INTRA:         -11.869
REMARK INTER:                  -9.443
REMARK INTRA:                  -2.426
REMARK UNBOUND:                -2.394
REMARK SMILES CCCCCCCCCCCCCCCCCCCCCC(=O)[O-]
REMARK SMILES IDX 12 1 11 2 10 3 9 4 8 5 7 6 6 7 5 8 4 9 3 10 2 11 1 12 13 13
REMARK SMILES IDX 14 14 15 15 16 16 17 17 18 18 19 19 20 20 21 21 22 22 23 23
REMARK SMILES IDX 24 24
REMARK H PARENT
REMARK Flexibility Score: inf
ROOT
ATOM      1  C   UNL     1      13.112  11.765  13.288  1.00  0.00     0.000 C 
ENDROOT
BRANCH   1   2
ATOM      2  C   UNL     1      13.774  10.953  14.417  1.00  0.00     0.000 C 
BRANCH   2   3
ATOM      3  C   UNL     1      14.772  11.738  15.288  1.00  0.00     0.000 C 
BRANCH   3   4
ATOM      4  C   UNL     1      14.280  11.943  16.729  1.00  0.00    -0.000 C 
BRANCH   4   5
ATOM      5  C   UNL     1      15.334  12.685  17.566  1.00  0.00    -0.000 C 
BRANCH   5   6
ATOM      6  C   UNL     1      15.884  11.837  18.726  1.00  0.00    -0.000 C 
BRANCH   6   7
ATOM      7  C   UNL     1      17.262  12.277  19.265  1.00  0.00    -0.000 C 
BRANCH   7   8
ATOM      8  C   UNL     1      18.272  12.732  18.194  1.00  0.00    -0.000 C 
BRANCH   8   9
ATOM      9  C   UNL     1      19.258  11.621  17.792  1.00  0.00    -0.000 C 
BRANCH   9  10
ATOM     10  C   UNL     1      19.429  11.514  16.267  1.00  0.00    -0.000 C 
BRANCH  10  11
ATOM     11  C   UNL     1      18.561  12.525  15.504  1.00  0.00    -0.003 C 
ATOM     12  C   UNL     1      18.232  12.017  14.102  1.00  0.00     0.004 C 
ENDBRANCH  10  11
ENDBRANCH   9  10
ENDBRANCH   8   9
ENDBRANCH   7   8
ENDBRANCH   6   7
ENDBRANCH   5   6
ENDBRANCH   4   5
ENDBRANCH   3   4
ENDBRANCH   2   3
ENDBRANCH   1   2
BRANCH   1  13
ATOM     13  C   UNL     1      11.679  11.302  12.979  1.00  0.00     0.000 C 
BRANCH  13  14
ATOM     14  C   UNL     1      10.677  11.688  14.083  1.00  0.00     0.000 C 
BRANCH  14  15
ATOM     15  C   UNL     1       9.405  12.406  13.592  1.00  0.00     0.000 C 
BRANCH  15  16
ATOM     16  C   UNL     1       9.358  12.700  12.078  1.00  0.00     0.000 C 
BRANCH  16  17
ATOM     17  C   UNL     1       9.417  14.192  11.701  1.00  0.00     0.000 C 
BRANCH  17  18
ATOM     18  C   UNL     1      10.812  14.802  11.916  1.00  0.00     0.000 C 
BRANCH  18  19
ATOM     19  C   UNL     1      11.586  14.994  10.603  1.00  0.00     0.000 C 
BRANCH  19  20
ATOM     20  C   UNL     1      12.562  13.842  10.311  1.00  0.00     0.006 C 
BRANCH  20  21
ATOM     21  C   UNL     1      12.213  13.148   8.991  1.00  0.00     0.053 C 
BRANCH  21  22
ATOM     22  C   UNL     1      11.728  11.755   9.241  1.00  0.00     0.041 C 
ATOM     23  O   UNL     1      10.525  11.454   9.019  1.00  0.00    -0.550 OA
ATOM     24  O   UNL     1      12.613  10.777   9.679  1.00  0.00    -0.550 OA
ENDBRANCH  21  22
ENDBRANCH  20  21
ENDBRANCH  19  20
ENDBRANCH  18  19
ENDBRANCH  17  18
ENDBRANCH  16  17
ENDBRANCH  15  16
ENDBRANCH  14  15
ENDBRANCH  13  14
ENDBRANCH   1  13
TORSDOF 20
ENDMDL
MODEL 9
REMARK VINA RESULT:    -4.313      1.174      2.871
REMARK INTER + INTRA:         -11.750
REMARK INTER:                  -9.541
REMARK INTRA:                  -2.209
REMARK UNBOUND:                -2.394
REMARK SMILES CCCCCCCCCCCCCCCCCCCCCC(=O)[O-]
REMARK SMILES IDX 12 1 11 2 10 3 9 4 8 5 7 6 6 7 5 8 4 9 3 10 2 11 1 12 13 13
REMARK SMILES IDX 14 14 15 15 16 16 17 17 18 18 19 19 20 20 21 21 22 22 23 23
REMARK SMILES IDX 24 24
REMARK H PARENT
REMARK Flexibility Score: inf
ROOT
ATOM      1  C   UNL     1      11.235  11.333  12.755  1.00  0.00     0.000 C 
ENDROOT
BRANCH   1   2
ATOM      2  C   UNL     1      10.396  11.779  13.967  1.00  0.00     0.000 C 
BRANCH   2   3
ATOM      3  C   UNL     1       9.217  12.713  13.638  1.00  0.00     0.000 C 
BRANCH   3   4
ATOM      4  C   UNL     1       9.263  13.258  12.203  1.00  0.00    -0.000 C 
BRANCH   4   5
ATOM      5  C   UNL     1       9.740  14.718  12.188  1.00  0.00    -0.000 C 
BRANCH   5   6
ATOM      6  C   UNL     1      11.188  14.872  11.690  1.00  0.00    -0.000 C 
BRANCH   6   7
ATOM      7  C   UNL     1      11.333  15.290  10.211  1.00  0.00    -0.000 C 
BRANCH   7   8
ATOM      8  C   UNL     1      10.198  14.822   9.281  1.00  0.00    -0.000 C 
BRANCH   8   9
ATOM      9  C   UNL     1      10.636  13.703   8.320  1.00  0.00    -0.000 C 
BRANCH   9  10
ATOM     10  C   UNL     1      10.490  12.305   8.944  1.00  0.00    -0.000 C 
BRANCH  10  11
ATOM     11  C   UNL     1      11.738  11.434   8.739  1.00  0.00    -0.003 C 
ATOM     12  C   UNL     1      12.984  12.125   9.287  1.00  0.00     0.004 C 
ENDBRANCH  10  11
ENDBRANCH   9  10
ENDBRANCH   8   9
ENDBRANCH   7   8
ENDBRANCH   6   7
ENDBRANCH   5   6
ENDBRANCH   4   5
ENDBRANCH   3   4
ENDBRANCH   2   3
ENDBRANCH   1   2
BRANCH   1  13
ATOM     13  C   UNL     1      12.725  11.685  12.895  1.00  0.00     0.000 C 
BRANCH  13  14
ATOM     14  C   UNL     1      13.412  10.924  14.045  1.00  0.00     0.000 C 
BRANCH  14  15
ATOM     15  C   UNL     1      14.524  11.703  14.774  1.00  0.00     0.000 C 
BRANCH  15  16
ATOM     16  C   UNL     1      15.964  11.276  14.425  1.00  0.00     0.000 C 
BRANCH  16  17
ATOM     17  C   UNL     1      17.055  12.297  14.797  1.00  0.00     0.000 C 
BRANCH  17  18
ATOM     18  C   UNL     1      18.472  11.702  14.727  1.00  0.00     0.000 C 
BRANCH  18  19
ATOM     19  C   UNL     1      19.325  12.051  15.956  1.00  0.00     0.000 C 
BRANCH  19  20
ATOM     20  C   UNL     1      18.519  12.751  17.063  1.00  0.00     0.006 C 
BRANCH  20  21
ATOM     21  C   UNL     1      18.544  11.936  18.359  1.00  0.00     0.053 C 
BRANCH  21  22
ATOM     22  C   UNL     1      17.185  11.894  18.982  1.00  0.00     0.041 C 
ATOM     23  O   UNL     1      17.062  11.717  20.223  1.00  0.00    -0.550 OA
ATOM     24  O   UNL     1      16.054  12.091  18.199  1.00  0.00    -0.550 OA
ENDBRANCH  21  22
ENDBRANCH  20  21
ENDBRANCH  19  20
ENDBRANCH  18  19
ENDBRANCH  17  18
ENDBRANCH  16  17
ENDBRANCH  15  16
ENDBRANCH  14  15
ENDBRANCH  13  14
ENDBRANCH   1  13
TORSDOF 20
ENDMDL
