MODEL 1
REMARK VINA RESULT:    -4.089      0.000      0.000
REMARK INTER + INTRA:         -10.099
REMARK INTER:                  -7.676
REMARK INTRA:                  -2.424
REMARK UNBOUND:                -2.424
REMARK SMILES CCCCCCCCC=CCCCCCCCC(=O)[O-]
REMARK SMILES IDX 10 1 9 2 11 3 12 4 13 5 14 6 15 7 16 8 17 9 18 10 19 11
REMARK SMILES IDX 20 12 8 13 7 14 6 15 5 16 4 17 3 18 2 19 1 20
REMARK H PARENT
REMARK Flexibility Score: inf
ROOT
ATOM      1  C   UNL     1      21.422  31.334  28.576  1.00  0.00    -0.031 C 
ATOM      2  C   UNL     1      20.375  31.340  29.422  1.00  0.00    -0.031 C 
ENDROOT
BRANCH   1   3
ATOM      3  C   UNL     1      21.505  32.125  27.295  1.00  0.00     0.027 C 
BRANCH   3   4
ATOM      4  C   UNL     1      22.053  33.551  27.504  1.00  0.00     0.004 C 
BRANCH   4   5
ATOM      5  C   UNL     1      21.183  34.648  26.864  1.00  0.00     0.000 C 
BRANCH   5   6
ATOM      6  C   UNL     1      20.036  34.081  26.010  1.00  0.00     0.000 C 
BRANCH   6   7
ATOM      7  C   UNL     1      20.372  34.044  24.508  1.00  0.00     0.000 C 
BRANCH   7   8
ATOM      8  C   UNL     1      20.185  32.668  23.836  1.00  0.00     0.006 C 
BRANCH   8   9
ATOM      9  C   UNL     1      21.492  31.907  23.560  1.00  0.00     0.053 C 
BRANCH   9  10
ATOM     10  C   UNL     1      21.305  30.423  23.634  1.00  0.00     0.041 C 
ATOM     11  O   UNL     1      20.819  29.796  22.657  1.00  0.00    -0.550 OA
ATOM     12  O   UNL     1      21.645  29.735  24.792  1.00  0.00    -0.550 OA
ENDBRANCH   9  10
ENDBRANCH   8   9
ENDBRANCH   7   8
ENDBRANCH   6   7
ENDBRANCH   5   6
ENDBRANCH   4   5
ENDBRANCH   3   4
ENDBRANCH   1   3
BRANCH   2  13
ATOM     13  C   UNL     1      19.110  32.143  29.242  1.00  0.00     0.027 C 
BRANCH  13  14
ATOM     14  C   UNL     1      19.242  33.502  29.945  1.00  0.00     0.004 C 
BRANCH  14  15
ATOM     15  C   UNL     1      19.161  33.391  31.476  1.00  0.00     0.000 C 
BRANCH  15  16
ATOM     16  C   UNL     1      20.391  33.993  32.177  1.00  0.00     0.000 C 
BRANCH  16  17
ATOM     17  C   UNL     1      21.541  34.286  31.199  1.00  0.00    -0.000 C 
BRANCH  17  18
ATOM     18  C   UNL     1      22.891  33.751  31.705  1.00  0.00    -0.000 C 
BRANCH  18  19
ATOM     19  C   UNL     1      22.839  32.256  32.057  1.00  0.00    -0.003 C 
ATOM     20  C   UNL     1      24.052  31.791  32.867  1.00  0.00     0.004 C 
ENDBRANCH  18  19
ENDBRANCH  17  18
ENDBRANCH  16  17
ENDBRANCH  15  16
ENDBRANCH  14  15
ENDBRANCH  13  14
ENDBRANCH   2  13
TORSDOF 15
ENDMDL
MODEL 2
REMARK VINA RESULT:    -3.912      1.857      3.301
REMARK INTER + INTRA:          -9.767
REMARK INTER:                  -8.281
REMARK INTRA:                  -1.486
REMARK UNBOUND:                -2.424
REMARK SMILES CCCCCCCCC=CCCCCCCCC(=O)[O-]
REMARK SMILES IDX 10 1 9 2 11 3 12 4 13 5 14 6 15 7 16 8 17 9 18 10 19 11
REMARK SMILES IDX 20 12 8 13 7 14 6 15 5 16 4 17 3 18 2 19 1 20
REMARK H PARENT
REMARK Flexibility Score: inf
ROOT
ATOM      1  C   UNL     1      20.652  31.540  29.386  1.00  0.00    -0.031 C 
ATOM      2  C   UNL     1      21.768  31.838  30.077  1.00  0.00    -0.031 C 
ENDROOT
BRANCH   1   3
ATOM      3  C   UNL     1      19.413  32.398  29.329  1.00  0.00     0.027 C 
BRANCH   3   4
ATOM      4  C   UNL     1      19.319  33.232  28.036  1.00  0.00     0.004 C 
BRANCH   4   5
ATOM      5  C   UNL     1      19.994  34.612  28.139  1.00  0.00     0.000 C 
BRANCH   5   6
ATOM      6  C   UNL     1      20.941  34.904  26.964  1.00  0.00     0.000 C 
BRANCH   6   7
ATOM      7  C   UNL     1      21.937  33.761  26.699  1.00  0.00     0.000 C 
BRANCH   7   8
ATOM      8  C   UNL     1      22.002  33.284  25.233  1.00  0.00     0.006 C 
BRANCH   8   9
ATOM      9  C   UNL     1      20.965  32.211  24.863  1.00  0.00     0.053 C 
BRANCH   9  10
ATOM     10  C   UNL     1      21.595  31.025  24.201  1.00  0.00     0.041 C 
ATOM     11  O   UNL     1      22.159  31.147  23.083  1.00  0.00    -0.550 OA
ATOM     12  O   UNL     1      21.538  29.777  24.809  1.00  0.00    -0.550 OA
ENDBRANCH   9  10
ENDBRANCH   8   9
ENDBRANCH   7   8
ENDBRANCH   6   7
ENDBRANCH   5   6
ENDBRANCH   4   5
ENDBRANCH   3   4
ENDBRANCH   1   3
BRANCH   2  13
ATOM     13  C   UNL     1      21.976  33.082  30.906  1.00  0.00     0.027 C 
BRANCH  13  14
ATOM     14  C   UNL     1      22.237  32.704  32.371  1.00  0.00     0.004 C 
BRANCH  14  15
ATOM     15  C   UNL     1      23.436  31.757  32.538  1.00  0.00     0.000 C 
BRANCH  15  16
ATOM     16  C   UNL     1      24.351  32.165  33.706  1.00  0.00     0.000 C 
BRANCH  16  17
ATOM     17  C   UNL     1      24.759  30.967  34.579  1.00  0.00    -0.000 C 
BRANCH  17  18
ATOM     18  C   UNL     1      23.922  29.712  34.281  1.00  0.00    -0.000 C 
BRANCH  18  19
ATOM     19  C   UNL     1      24.518  28.442  34.910  1.00  0.00    -0.003 C 
ATOM     20  C   UNL     1      25.813  27.991  34.230  1.00  0.00     0.004 C 
ENDBRANCH  18  19
ENDBRANCH  17  18
ENDBRANCH  16  17
ENDBRANCH  15  16
ENDBRANCH  14  15
ENDBRANCH  13  14
ENDBRANCH   2  13
TORSDOF 15
ENDMDL
MODEL 3
REMARK VINA RESULT:    -3.898     13.584     15.204
REMARK INTER + INTRA:          -9.741
REMARK INTER:                  -6.943
REMARK INTRA:                  -2.798
REMARK UNBOUND:                -2.424
REMARK SMILES CCCCCCCCC=CCCCCCCCC(=O)[O-]
REMARK SMILES IDX 10 1 9 2 11 3 12 4 13 5 14 6 15 7 16 8 17 9 18 10 19 11
REMARK SMILES IDX 20 12 8 13 7 14 6 15 5 16 4 17 3 18 2 19 1 20
REMARK H PARENT
REMARK Flexibility Score: inf
ROOT
ATOM      1  C   UNL     1      19.576  19.839  31.799  1.00  0.00    -0.031 C 
ATOM      2  C   UNL     1      18.237  19.953  31.871  1.00  0.00    -0.031 C 
ENDROOT
BRANCH   1   3
ATOM      3  C   UNL     1      20.395  20.027  30.546  1.00  0.00     0.027 C 
BRANCH   3   4
ATOM      4  C   UNL     1      20.985  18.707  30.011  1.00  0.00     0.004 C 
BRANCH   4   5
ATOM      5  C   UNL     1      19.933  17.757  29.410  1.00  0.00     0.000 C 
BRANCH   5   6
ATOM      6  C   UNL     1      19.334  18.282  28.095  1.00  0.00     0.000 C 
BRANCH   6   7
ATOM      7  C   UNL     1      19.431  17.263  26.945  1.00  0.00     0.000 C 
BRANCH   7   8
ATOM      8  C   UNL     1      20.653  16.323  27.013  1.00  0.00     0.006 C 
BRANCH   8   9
ATOM      9  C   UNL     1      21.525  16.316  25.746  1.00  0.00     0.053 C 
BRANCH   9  10
ATOM     10  C   UNL     1      22.586  17.372  25.789  1.00  0.00     0.041 C 
ATOM     11  O   UNL     1      23.405  17.487  24.841  1.00  0.00    -0.550 OA
ATOM     12  O   UNL     1      22.688  18.212  26.891  1.00  0.00    -0.550 OA
ENDBRANCH   9  10
ENDBRANCH   8   9
ENDBRANCH   7   8
ENDBRANCH   6   7
ENDBRANCH   5   6
ENDBRANCH   4   5
ENDBRANCH   3   4
ENDBRANCH   1   3
BRANCH   2  13
ATOM     13  C   UNL     1      17.325  20.296  30.719  1.00  0.00     0.027 C 
BRANCH  13  14
ATOM     14  C   UNL     1      16.445  19.089  30.364  1.00  0.00     0.004 C 
BRANCH  14  15
ATOM     15  C   UNL     1      16.448  18.007  31.456  1.00  0.00     0.000 C 
BRANCH  15  16
ATOM     16  C   UNL     1      16.837  16.622  30.914  1.00  0.00     0.000 C 
BRANCH  16  17
ATOM     17  C   UNL     1      17.905  15.930  31.778  1.00  0.00    -0.000 C 
BRANCH  17  18
ATOM     18  C   UNL     1      18.080  16.609  33.147  1.00  0.00    -0.000 C 
BRANCH  18  19
ATOM     19  C   UNL     1      19.443  16.300  33.788  1.00  0.00    -0.003 C 
ATOM     20  C   UNL     1      20.593  16.315  32.780  1.00  0.00     0.004 C 
ENDBRANCH  18  19
ENDBRANCH  17  18
ENDBRANCH  16  17
ENDBRANCH  15  16
ENDBRANCH  14  15
ENDBRANCH  13  14
ENDBRANCH   2  13
TORSDOF 15
ENDMDL
MODEL 4
REMARK VINA RESULT:    -3.881     12.878     14.490
REMARK INTER + INTRA:          -9.708
REMARK INTER:                  -6.906
REMARK INTRA:                  -2.801
REMARK UNBOUND:                -2.424
REMARK SMILES CCCCCCCCC=CCCCCCCCC(=O)[O-]
REMARK SMILES IDX 10 1 9 2 11 3 12 4 13 5 14 6 15 7 16 8 17 9 18 10 19 11
REMARK SMILES IDX 20 12 8 13 7 14 6 15 5 16 4 17 3 18 2 19 1 20
REMARK H PARENT
REMARK Flexibility Score: inf
ROOT
ATOM      1  C   UNL     1      20.562  18.937  31.371  1.00  0.00    -0.031 C 
ATOM      2  C   UNL     1      19.945  20.022  30.869  1.00  0.00    -0.031 C 
ENDROOT
BRANCH   1   3
ATOM      3  C   UNL     1      20.420  17.534  30.836  1.00  0.00     0.027 C 
BRANCH   3   4
ATOM      4  C   UNL     1      19.206  16.787  31.425  1.00  0.00     0.004 C 
BRANCH   4   5
ATOM      5  C   UNL     1      18.178  16.347  30.366  1.00  0.00     0.000 C 
BRANCH   5   6
ATOM      6  C   UNL     1      18.817  16.044  29.000  1.00  0.00     0.000 C 
BRANCH   6   7
ATOM      7  C   UNL     1      18.272  16.941  27.874  1.00  0.00     0.000 C 
BRANCH   7   8
ATOM      8  C   UNL     1      19.351  17.617  27.003  1.00  0.00     0.006 C 
BRANCH   8   9
ATOM      9  C   UNL     1      20.716  16.910  27.014  1.00  0.00     0.053 C 
BRANCH   9  10
ATOM     10  C   UNL     1      21.849  17.873  26.841  1.00  0.00     0.041 C 
ATOM     11  O   UNL     1      22.604  17.792  25.837  1.00  0.00    -0.550 OA
ATOM     12  O   UNL     1      22.088  18.847  27.803  1.00  0.00    -0.550 OA
ENDBRANCH   9  10
ENDBRANCH   8   9
ENDBRANCH   7   8
ENDBRANCH   6   7
ENDBRANCH   5   6
ENDBRANCH   4   5
ENDBRANCH   3   4
ENDBRANCH   1   3
BRANCH   2  13
ATOM     13  C   UNL     1      19.013  20.026  29.682  1.00  0.00     0.027 C 
BRANCH  13  14
ATOM     14  C   UNL     1      17.552  19.986  30.156  1.00  0.00     0.004 C 
BRANCH  14  15
ATOM     15  C   UNL     1      17.384  20.464  31.608  1.00  0.00     0.000 C 
BRANCH  15  16
ATOM     16  C   UNL     1      16.735  19.399  32.508  1.00  0.00     0.000 C 
BRANCH  16  17
ATOM     17  C   UNL     1      17.411  19.301  33.885  1.00  0.00    -0.000 C 
BRANCH  17  18
ATOM     18  C   UNL     1      18.382  20.465  34.145  1.00  0.00    -0.000 C 
BRANCH  18  19
ATOM     19  C   UNL     1      17.811  21.502  35.126  1.00  0.00    -0.003 C 
ATOM     20  C   UNL     1      18.668  22.767  35.221  1.00  0.00     0.004 C 
ENDBRANCH  18  19
ENDBRANCH  17  18
ENDBRANCH  16  17
ENDBRANCH  15  16
ENDBRANCH  14  15
ENDBRANCH  13  14
ENDBRANCH   2  13
TORSDOF 15
ENDMDL
MODEL 5
REMARK VINA RESULT:    -3.876      1.350      2.599
REMARK INTER + INTRA:          -9.699
REMARK INTER:                  -6.962
REMARK INTRA:                  -2.737
REMARK UNBOUND:                -2.424
REMARK SMILES CCCCCCCCC=CCCCCCCCC(=O)[O-]
REMARK SMILES IDX 10 1 9 2 11 3 12 4 13 5 14 6 15 7 16 8 17 9 18 10 19 11
REMARK SMILES IDX 20 12 8 13 7 14 6 15 5 16 4 17 3 18 2 19 1 20
REMARK H PARENT
REMARK Flexibility Score: inf
ROOT
ATOM      1  C   UNL     1      17.900  32.930  28.470  1.00  0.00    -0.031 C 
ATOM      2  C   UNL     1      17.821  32.405  29.708  1.00  0.00    -0.031 C 
ENDROOT
BRANCH   1   3
ATOM      3  C   UNL     1      17.629  34.372  28.122  1.00  0.00     0.027 C 
BRANCH   3   4
ATOM      4  C   UNL     1      18.875  35.104  27.585  1.00  0.00     0.004 C 
BRANCH   4   5
ATOM      5  C   UNL     1      19.799  34.212  26.736  1.00  0.00     0.000 C 
BRANCH   5   6
ATOM      6  C   UNL     1      21.245  34.731  26.679  1.00  0.00     0.000 C 
BRANCH   6   7
ATOM      7  C   UNL     1      22.205  33.748  25.984  1.00  0.00     0.000 C 
BRANCH   7   8
ATOM      8  C   UNL     1      21.607  32.357  25.688  1.00  0.00     0.006 C 
BRANCH   8   9
ATOM      9  C   UNL     1      21.489  32.017  24.194  1.00  0.00     0.053 C 
BRANCH   9  10
ATOM     10  C   UNL     1      21.398  30.541  23.959  1.00  0.00     0.041 C 
ATOM     11  O   UNL     1      21.616  29.734  24.900  1.00  0.00    -0.550 OA
ATOM     12  O   UNL     1      21.097  30.054  22.693  1.00  0.00    -0.550 OA
ENDBRANCH   9  10
ENDBRANCH   8   9
ENDBRANCH   7   8
ENDBRANCH   6   7
ENDBRANCH   5   6
ENDBRANCH   4   5
ENDBRANCH   3   4
ENDBRANCH   1   3
BRANCH   2  13
ATOM     13  C   UNL     1      17.458  33.167  30.958  1.00  0.00     0.027 C 
BRANCH  13  14
ATOM     14  C   UNL     1      18.718  33.447  31.791  1.00  0.00     0.004 C 
BRANCH  14  15
ATOM     15  C   UNL     1      19.421  34.753  31.388  1.00  0.00     0.000 C 
BRANCH  15  16
ATOM     16  C   UNL     1      20.746  34.506  30.647  1.00  0.00     0.000 C 
BRANCH  16  17
ATOM     17  C   UNL     1      21.730  33.657  31.468  1.00  0.00    -0.000 C 
BRANCH  17  18
ATOM     18  C   UNL     1      22.005  32.289  30.820  1.00  0.00    -0.000 C 
BRANCH  18  19
ATOM     19  C   UNL     1      21.421  32.179  29.402  1.00  0.00    -0.003 C 
ATOM     20  C   UNL     1      21.350  30.736  28.898  1.00  0.00     0.004 C 
ENDBRANCH  18  19
ENDBRANCH  17  18
ENDBRANCH  16  17
ENDBRANCH  15  16
ENDBRANCH  14  15
ENDBRANCH  13  14
ENDBRANCH   2  13
TORSDOF 15
ENDMDL
MODEL 6
REMARK VINA RESULT:    -3.769      3.650      8.123
REMARK INTER + INTRA:          -9.499
REMARK INTER:                  -8.325
REMARK INTRA:                  -1.173
REMARK UNBOUND:                -2.424
REMARK SMILES CCCCCCCCC=CCCCCCCCC(=O)[O-]
REMARK SMILES IDX 10 1 9 2 11 3 12 4 13 5 14 6 15 7 16 8 17 9 18 10 19 11
REMARK SMILES IDX 20 12 8 13 7 14 6 15 5 16 4 17 3 18 2 19 1 20
REMARK H PARENT
REMARK Flexibility Score: inf
ROOT
ATOM      1  C   UNL     1      21.402  31.752  28.555  1.00  0.00    -0.031 C 
ATOM      2  C   UNL     1      21.409  32.272  27.314  1.00  0.00    -0.031 C 
ENDROOT
BRANCH   1   3
ATOM      3  C   UNL     1      20.303  31.947  29.569  1.00  0.00     0.027 C 
BRANCH   3   4
ATOM      4  C   UNL     1      20.484  33.223  30.415  1.00  0.00     0.004 C 
BRANCH   4   5
ATOM      5  C   UNL     1      21.311  33.004  31.695  1.00  0.00     0.000 C 
BRANCH   5   6
ATOM      6  C   UNL     1      22.661  33.740  31.668  1.00  0.00     0.000 C 
BRANCH   6   7
ATOM      7  C   UNL     1      23.766  32.990  32.434  1.00  0.00     0.000 C 
BRANCH   7   8
ATOM      8  C   UNL     1      23.350  31.611  32.986  1.00  0.00     0.006 C 
BRANCH   8   9
ATOM      9  C   UNL     1      24.195  31.115  34.171  1.00  0.00     0.053 C 
BRANCH   9  10
ATOM     10  C   UNL     1      24.270  29.620  34.221  1.00  0.00     0.041 C 
ATOM     11  O   UNL     1      25.316  29.025  33.851  1.00  0.00    -0.550 OA
ATOM     12  O   UNL     1      23.176  28.882  34.652  1.00  0.00    -0.550 OA
ENDBRANCH   9  10
ENDBRANCH   8   9
ENDBRANCH   7   8
ENDBRANCH   6   7
ENDBRANCH   5   6
ENDBRANCH   4   5
ENDBRANCH   3   4
ENDBRANCH   1   3
BRANCH   2  13
ATOM     13  C   UNL     1      20.319  33.129  26.718  1.00  0.00     0.027 C 
BRANCH  13  14
ATOM     14  C   UNL     1      20.895  34.022  25.609  1.00  0.00     0.004 C 
BRANCH  14  15
ATOM     15  C   UNL     1      22.157  33.430  24.962  1.00  0.00     0.000 C 
BRANCH  15  16
ATOM     16  C   UNL     1      22.249  33.738  23.458  1.00  0.00     0.000 C 
BRANCH  16  17
ATOM     17  C   UNL     1      21.561  32.668  22.596  1.00  0.00    -0.000 C 
BRANCH  17  18
ATOM     18  C   UNL     1      21.618  31.271  23.238  1.00  0.00    -0.000 C 
BRANCH  18  19
ATOM     19  C   UNL     1      20.751  30.243  22.492  1.00  0.00    -0.003 C 
ATOM     20  C   UNL     1      20.749  30.452  20.977  1.00  0.00     0.004 C 
ENDBRANCH  18  19
ENDBRANCH  17  18
ENDBRANCH  16  17
ENDBRANCH  15  16
ENDBRANCH  14  15
ENDBRANCH  13  14
ENDBRANCH   2  13
TORSDOF 15
ENDMDL
MODEL 7
REMARK VINA RESULT:    -3.712      1.250      2.844
REMARK INTER + INTRA:          -9.392
REMARK INTER:                  -6.806
REMARK INTRA:                  -2.585
REMARK UNBOUND:                -2.424
REMARK SMILES CCCCCCCCC=CCCCCCCCC(=O)[O-]
REMARK SMILES IDX 10 1 9 2 11 3 12 4 13 5 14 6 15 7 16 8 17 9 18 10 19 11
REMARK SMILES IDX 20 12 8 13 7 14 6 15 5 16 4 17 3 18 2 19 1 20
REMARK H PARENT
REMARK Flexibility Score: inf
ROOT
ATOM      1  C   UNL     1      21.133  31.626  27.981  1.00  0.00    -0.031 C 
ATOM      2  C   UNL     1      21.129  31.493  29.321  1.00  0.00    -0.031 C 
ENDROOT
BRANCH   1   3
ATOM      3  C   UNL     1      21.869  32.700  27.221  1.00  0.00     0.027 C 
BRANCH   3   4
ATOM      4  C   UNL     1      21.002  33.945  26.946  1.00  0.00     0.004 C 
BRANCH   4   5
ATOM      5  C   UNL     1      19.581  33.612  26.456  1.00  0.00     0.000 C 
BRANCH   5   6
ATOM      6  C   UNL     1      19.204  34.350  25.161  1.00  0.00     0.000 C 
BRANCH   6   7
ATOM      7  C   UNL     1      20.190  34.078  24.010  1.00  0.00     0.000 C 
BRANCH   7   8
ATOM      8  C   UNL     1      20.179  32.631  23.475  1.00  0.00     0.006 C 
BRANCH   8   9
ATOM      9  C   UNL     1      21.524  31.896  23.592  1.00  0.00     0.053 C 
BRANCH   9  10
ATOM     10  C   UNL     1      21.345  30.416  23.733  1.00  0.00     0.041 C 
ATOM     11  O   UNL     1      20.903  29.736  22.771  1.00  0.00    -0.550 OA
ATOM     12  O   UNL     1      21.643  29.790  24.937  1.00  0.00    -0.550 OA
ENDBRANCH   9  10
ENDBRANCH   8   9
ENDBRANCH   7   8
ENDBRANCH   6   7
ENDBRANCH   5   6
ENDBRANCH   4   5
ENDBRANCH   3   4
ENDBRANCH   1   3
BRANCH   2  13
ATOM     13  C   UNL     1      21.864  32.385  30.290  1.00  0.00     0.027 C 
BRANCH  13  14
ATOM     14  C   UNL     1      21.042  33.651  30.572  1.00  0.00     0.004 C 
BRANCH  14  15
ATOM     15  C   UNL     1      20.146  33.515  31.814  1.00  0.00     0.000 C 
BRANCH  15  16
ATOM     16  C   UNL     1      18.797  34.235  31.649  1.00  0.00     0.000 C 
BRANCH  16  17
ATOM     17  C   UNL     1      18.477  34.557  30.180  1.00  0.00    -0.000 C 
BRANCH  17  18
ATOM     18  C   UNL     1      17.230  33.812  29.675  1.00  0.00    -0.000 C 
BRANCH  18  19
ATOM     19  C   UNL     1      17.568  32.442  29.064  1.00  0.00    -0.003 C 
ATOM     20  C   UNL     1      17.359  31.285  30.044  1.00  0.00     0.004 C 
ENDBRANCH  18  19
ENDBRANCH  17  18
ENDBRANCH  16  17
ENDBRANCH  15  16
ENDBRANCH  14  15
ENDBRANCH  13  14
ENDBRANCH   2  13
TORSDOF 15
ENDMDL
MODEL 8
REMARK VINA RESULT:    -3.703      3.342      7.404
REMARK INTER + INTRA:          -9.375
REMARK INTER:                  -7.298
REMARK INTRA:                  -2.077
REMARK UNBOUND:                -2.424
REMARK SMILES CCCCCCCCC=CCCCCCCCC(=O)[O-]
REMARK SMILES IDX 10 1 9 2 11 3 12 4 13 5 14 6 15 7 16 8 17 9 18 10 19 11
REMARK SMILES IDX 20 12 8 13 7 14 6 15 5 16 4 17 3 18 2 19 1 20
REMARK H PARENT
REMARK Flexibility Score: inf
ROOT
ATOM      1  C   UNL     1      20.317  31.496  29.076  1.00  0.00    -0.031 C 
ATOM      2  C   UNL     1      21.486  31.875  28.528  1.00  0.00    -0.031 C 
ENDROOT
BRANCH   1   3
ATOM      3  C   UNL     1      19.170  32.421  29.398  1.00  0.00     0.027 C 
BRANCH   3   4
ATOM      4  C   UNL     1      18.998  32.661  30.911  1.00  0.00     0.004 C 
BRANCH   4   5
ATOM      5  C   UNL     1      19.416  34.071  31.365  1.00  0.00     0.000 C 
BRANCH   5   6
ATOM      6  C   UNL     1      20.598  34.059  32.348  1.00  0.00     0.000 C 
BRANCH   6   7
ATOM      7  C   UNL     1      21.905  34.572  31.717  1.00  0.00     0.000 C 
BRANCH   7   8
ATOM      8  C   UNL     1      23.059  33.549  31.692  1.00  0.00     0.006 C 
BRANCH   8   9
ATOM      9  C   UNL     1      22.658  32.123  32.105  1.00  0.00     0.053 C 
BRANCH   9  10
ATOM     10  C   UNL     1      23.489  31.613  33.241  1.00  0.00     0.041 C 
ATOM     11  O   UNL     1      24.172  32.410  33.936  1.00  0.00    -0.550 OA
ATOM     12  O   UNL     1      23.531  30.252  33.517  1.00  0.00    -0.550 OA
ENDBRANCH   9  10
ENDBRANCH   8   9
ENDBRANCH   7   8
ENDBRANCH   6   7
ENDBRANCH   5   6
ENDBRANCH   4   5
ENDBRANCH   3   4
ENDBRANCH   1   3
BRANCH   2  13
ATOM     13  C   UNL     1      21.849  33.285  28.132  1.00  0.00     0.027 C 
BRANCH  13  14
ATOM     14  C   UNL     1      21.745  33.451  26.609  1.00  0.00     0.004 C 
BRANCH  14  15
ATOM     15  C   UNL     1      21.537  32.115  25.877  1.00  0.00     0.000 C 
BRANCH  15  16
ATOM     16  C   UNL     1      20.861  32.292  24.507  1.00  0.00     0.000 C 
BRANCH  16  17
ATOM     17  C   UNL     1      21.740  31.795  23.348  1.00  0.00    -0.000 C 
BRANCH  17  18
ATOM     18  C   UNL     1      21.995  32.888  22.296  1.00  0.00    -0.000 C 
BRANCH  18  19
ATOM     19  C   UNL     1      22.091  34.292  22.915  1.00  0.00    -0.003 C 
ATOM     20  C   UNL     1      23.510  34.651  23.361  1.00  0.00     0.004 C 
ENDBRANCH  18  19
ENDBRANCH  17  18
ENDBRANCH  16  17
ENDBRANCH  15  16
ENDBRANCH  14  15
ENDBRANCH  13  14
ENDBRANCH   2  13
TORSDOF 15
ENDMDL
MODEL 9
REMARK VINA RESULT:    -3.679      3.924      7.602
REMARK INTER + INTRA:          -9.328
REMARK INTER:                  -7.459
REMARK INTRA:                  -1.869
REMARK UNBOUND:                -2.424
REMARK SMILES CCCCCCCCC=CCCCCCCCC(=O)[O-]
REMARK SMILES IDX 10 1 9 2 11 3 12 4 13 5 14 6 15 7 16 8 17 9 18 10 19 11
REMARK SMILES IDX 20 12 8 13 7 14 6 15 5 16 4 17 3 18 2 19 1 20
REMARK H PARENT
REMARK Flexibility Score: inf
ROOT
ATOM      1  C   UNL     1      21.467  31.853  29.380  1.00  0.00    -0.031 C 
ATOM      2  C   UNL     1      21.440  31.700  28.043  1.00  0.00    -0.031 C 
ENDROOT
BRANCH   1   3
ATOM      3  C   UNL     1      21.833  33.127  30.099  1.00  0.00     0.027 C 
BRANCH   3   4
ATOM      4  C   UNL     1      21.846  32.969  31.633  1.00  0.00     0.004 C 
BRANCH   4   5
ATOM      5  C   UNL     1      22.867  31.934  32.139  1.00  0.00     0.000 C 
BRANCH   5   6
ATOM      6  C   UNL     1      24.141  32.578  32.711  1.00  0.00     0.000 C 
BRANCH   6   7
ATOM      7  C   UNL     1      24.462  32.103  34.139  1.00  0.00     0.000 C 
BRANCH   7   8
ATOM      8  C   UNL     1      24.818  30.607  34.260  1.00  0.00     0.006 C 
BRANCH   8   9
ATOM      9  C   UNL     1      24.037  29.849  35.346  1.00  0.00     0.053 C 
BRANCH   9  10
ATOM     10  C   UNL     1      23.805  28.417  34.975  1.00  0.00     0.041 C 
ATOM     11  O   UNL     1      22.633  27.973  34.859  1.00  0.00    -0.550 OA
ATOM     12  O   UNL     1      24.884  27.563  34.783  1.00  0.00    -0.550 OA
ENDBRANCH   9  10
ENDBRANCH   8   9
ENDBRANCH   7   8
ENDBRANCH   6   7
ENDBRANCH   5   6
ENDBRANCH   4   5
ENDBRANCH   3   4
ENDBRANCH   1   3
BRANCH   2  13
ATOM     13  C   UNL     1      21.763  32.775  27.034  1.00  0.00     0.027 C 
BRANCH  13  14
ATOM     14  C   UNL     1      20.750  32.737  25.880  1.00  0.00     0.004 C 
BRANCH  14  15
ATOM     15  C   UNL     1      19.776  33.926  25.903  1.00  0.00     0.000 C 
BRANCH  15  16
ATOM     16  C   UNL     1      19.901  34.766  27.186  1.00  0.00     0.000 C 
BRANCH  16  17
ATOM     17  C   UNL     1      18.552  34.955  27.899  1.00  0.00    -0.000 C 
BRANCH  17  18
ATOM     18  C   UNL     1      18.431  34.084  29.161  1.00  0.00    -0.000 C 
BRANCH  18  19
ATOM     19  C   UNL     1      17.886  32.678  28.858  1.00  0.00    -0.003 C 
ATOM     20  C   UNL     1      17.904  31.756  30.079  1.00  0.00     0.004 C 
ENDBRANCH  18  19
ENDBRANCH  17  18
ENDBRANCH  16  17
ENDBRANCH  15  16
ENDBRANCH  14  15
ENDBRANCH  13  14
ENDBRANCH   2  13
TORSDOF 15
ENDMDL
