MODEL 1
REMARK VINA RESULT:    -6.483      0.000      0.000
REMARK INTER + INTRA:          -7.885
REMARK INTER:                  -7.620
REMARK INTRA:                  -0.265
REMARK UNBOUND:                -0.265
REMARK SMILES O=c1cc(-c2ccc(O)c(O)c2)oc2cc(O)cc(O)c12
REMARK SMILES IDX 4 1 3 2 2 3 1 4 21 5 19 6 18 7 16 8 15 9 14 10 13 11 5 12
REMARK SMILES IDX 6 13 7 14 8 15 12 16 10 17 9 18 11 20 20 22 17 24
REMARK H PARENT 9 19 11 21 20 23 17 25
REMARK Flexibility Score: inf
ROOT
ATOM      1  C   UNL     1       2.070 -11.659 -32.626  1.00  0.00     0.138 A 
ATOM      2  C   UNL     1       0.837 -10.994 -32.600  1.00  0.00     0.100 A 
ATOM      3  C   UNL     1       0.091 -10.966 -31.422  1.00  0.00     0.197 A 
ATOM      4  O   UNL     1      -1.040 -10.416 -31.446  1.00  0.00    -0.289 OA
ATOM      5  C   UNL     1       0.599 -11.583 -30.253  1.00  0.00     0.107 A 
ATOM      6  C   UNL     1      -0.054 -11.583 -28.984  1.00  0.00     0.134 A 
ATOM      7  C   UNL     1       0.489 -12.326 -27.928  1.00  0.00     0.093 A 
ATOM      8  C   UNL     1       1.691 -13.017 -28.078  1.00  0.00     0.123 A 
ATOM      9  C   UNL     1       2.366 -12.979 -29.299  1.00  0.00     0.094 A 
ATOM     10  C   UNL     1       1.832 -12.276 -30.381  1.00  0.00     0.146 A 
ATOM     11  O   UNL     1       2.499 -12.277 -31.530  1.00  0.00    -0.456 OA
ENDROOT
BRANCH   1  12
ATOM     12  C   UNL     1       2.904 -11.718 -33.853  1.00  0.00     0.021 A 
ATOM     13  C   UNL     1       4.205 -11.181 -33.889  1.00  0.00     0.016 A 
ATOM     14  C   UNL     1       4.972 -11.260 -35.055  1.00  0.00     0.051 A 
ATOM     15  C   UNL     1       4.457 -11.881 -36.200  1.00  0.00     0.157 A 
ATOM     16  C   UNL     1       2.401 -12.352 -35.003  1.00  0.00     0.062 A 
ATOM     17  C   UNL     1       3.166 -12.431 -36.172  1.00  0.00     0.158 A 
BRANCH  15  18
ATOM     18  O   UNL     1       5.225 -11.956 -37.361  1.00  0.00    -0.504 OA
ATOM     19  H   UNL     1       5.937 -11.266 -37.572  1.00  0.00     0.293 HD
ENDBRANCH  15  18
BRANCH  17  20
ATOM     20  O   UNL     1       2.626 -13.059 -37.294  1.00  0.00    -0.504 OA
ATOM     21  H   UNL     1       2.994 -12.907 -38.225  1.00  0.00     0.293 HD
ENDBRANCH  17  20
ENDBRANCH   1  12
BRANCH   6  22
ATOM     22  O   UNL     1      -1.215 -10.857 -28.704  1.00  0.00    -0.507 OA
ATOM     23  H   UNL     1      -1.480  -9.995 -29.155  1.00  0.00     0.293 HD
ENDBRANCH   6  22
BRANCH   8  24
ATOM     24  O   UNL     1       2.210 -13.733 -27.001  1.00  0.00    -0.508 OA
ATOM     25  H   UNL     1       1.616 -14.296 -26.402  1.00  0.00     0.293 HD
ENDBRANCH   8  24
TORSDOF 5
ENDMDL
MODEL 2
REMARK VINA RESULT:    -6.411      2.007      2.994
REMARK INTER + INTRA:          -7.800
REMARK INTER:                  -7.515
REMARK INTRA:                  -0.285
REMARK UNBOUND:                -0.265
REMARK SMILES O=c1cc(-c2ccc(O)c(O)c2)oc2cc(O)cc(O)c12
REMARK SMILES IDX 4 1 3 2 2 3 1 4 21 5 19 6 18 7 16 8 15 9 14 10 13 11 5 12
REMARK SMILES IDX 6 13 7 14 8 15 12 16 10 17 9 18 11 20 20 22 17 24
REMARK H PARENT 9 19 11 21 20 23 17 25
REMARK Flexibility Score: inf
ROOT
ATOM      1  C   UNL     1       3.513 -11.454 -31.605  1.00  0.00     0.138 A 
ATOM      2  C   UNL     1       4.198 -10.386 -31.009  1.00  0.00     0.100 A 
ATOM      3  C   UNL     1       4.134 -10.212 -29.627  1.00  0.00     0.197 A 
ATOM      4  O   UNL     1       4.707  -9.209 -29.127  1.00  0.00    -0.289 OA
ATOM      5  C   UNL     1       3.407 -11.132 -28.834  1.00  0.00     0.107 A 
ATOM      6  C   UNL     1       3.305 -11.077 -27.412  1.00  0.00     0.134 A 
ATOM      7  C   UNL     1       2.461 -11.974 -26.744  1.00  0.00     0.093 A 
ATOM      8  C   UNL     1       1.763 -12.959 -27.441  1.00  0.00     0.123 A 
ATOM      9  C   UNL     1       1.896 -13.056 -28.827  1.00  0.00     0.094 A 
ATOM     10  C   UNL     1       2.703 -12.154 -29.524  1.00  0.00     0.146 A 
ATOM     11  O   UNL     1       2.792 -12.271 -30.845  1.00  0.00    -0.456 OA
ENDROOT
BRANCH   1  12
ATOM     12  C   UNL     1       3.547 -11.687 -33.072  1.00  0.00     0.021 A 
ATOM     13  C   UNL     1       2.455 -12.252 -33.757  1.00  0.00     0.016 A 
ATOM     14  C   UNL     1       2.511 -12.450 -35.139  1.00  0.00     0.051 A 
ATOM     15  C   UNL     1       3.653 -12.081 -35.861  1.00  0.00     0.157 A 
ATOM     16  C   UNL     1       4.685 -11.306 -33.807  1.00  0.00     0.062 A 
ATOM     17  C   UNL     1       4.744 -11.504 -35.190  1.00  0.00     0.158 A 
BRANCH  15  18
ATOM     18  O   UNL     1       3.706 -12.281 -37.240  1.00  0.00    -0.504 OA
ATOM     19  H   UNL     1       3.229 -11.662 -37.885  1.00  0.00     0.293 HD
ENDBRANCH  15  18
BRANCH  17  20
ATOM     20  O   UNL     1       5.894 -11.122 -35.881  1.00  0.00    -0.504 OA
ATOM     21  H   UNL     1       6.041 -10.170 -36.196  1.00  0.00     0.293 HD
ENDBRANCH  17  20
ENDBRANCH   1  12
BRANCH   6  22
ATOM     22  O   UNL     1       4.026 -10.186 -26.611  1.00  0.00    -0.507 OA
ATOM     23  H   UNL     1       3.987 -10.154 -25.604  1.00  0.00     0.293 HD
ENDBRANCH   6  22
BRANCH   8  24
ATOM     24  O   UNL     1       0.944 -13.844 -26.743  1.00  0.00    -0.508 OA
ATOM     25  H   UNL     1      -0.062 -13.850 -26.870  1.00  0.00     0.293 HD
ENDBRANCH   8  24
TORSDOF 5
ENDMDL
MODEL 3
REMARK VINA RESULT:    -6.317      2.179      7.362
REMARK INTER + INTRA:          -7.691
REMARK INTER:                  -7.398
REMARK INTRA:                  -0.293
REMARK UNBOUND:                -0.265
REMARK SMILES O=c1cc(-c2ccc(O)c(O)c2)oc2cc(O)cc(O)c12
REMARK SMILES IDX 4 1 3 2 2 3 1 4 21 5 19 6 18 7 16 8 15 9 14 10 13 11 5 12
REMARK SMILES IDX 6 13 7 14 8 15 12 16 10 17 9 18 11 20 20 22 17 24
REMARK H PARENT 9 19 11 21 20 23 17 25
REMARK Flexibility Score: inf
ROOT
ATOM      1  C   UNL     1       3.746 -11.192 -32.135  1.00  0.00     0.138 A 
ATOM      2  C   UNL     1       4.704 -10.241 -32.514  1.00  0.00     0.100 A 
ATOM      3  C   UNL     1       4.991 -10.050 -33.865  1.00  0.00     0.197 A 
ATOM      4  O   UNL     1       5.899  -9.235 -34.171  1.00  0.00    -0.289 OA
ATOM      5  C   UNL     1       4.290 -10.793 -34.845  1.00  0.00     0.107 A 
ATOM      6  C   UNL     1       4.469 -10.654 -36.254  1.00  0.00     0.134 A 
ATOM      7  C   UNL     1       3.804 -11.526 -37.124  1.00  0.00     0.093 A 
ATOM      8  C   UNL     1       2.922 -12.492 -36.641  1.00  0.00     0.123 A 
ATOM      9  C   UNL     1       2.698 -12.602 -35.267  1.00  0.00     0.094 A 
ATOM     10  C   UNL     1       3.372 -11.769 -34.372  1.00  0.00     0.146 A 
ATOM     11  O   UNL     1       3.142 -11.916 -33.072  1.00  0.00    -0.456 OA
ENDROOT
BRANCH   1  12
ATOM     12  C   UNL     1       3.402 -11.435 -30.711  1.00  0.00     0.021 A 
ATOM     13  C   UNL     1       2.668 -12.567 -30.310  1.00  0.00     0.016 A 
ATOM     14  C   UNL     1       2.368 -12.776 -28.961  1.00  0.00     0.051 A 
ATOM     15  C   UNL     1       2.800 -11.864 -27.991  1.00  0.00     0.157 A 
ATOM     16  C   UNL     1       3.843 -10.531 -29.728  1.00  0.00     0.062 A 
ATOM     17  C   UNL     1       3.543 -10.737 -28.377  1.00  0.00     0.158 A 
BRANCH  15  18
ATOM     18  O   UNL     1       2.496 -12.075 -26.646  1.00  0.00    -0.504 OA
ATOM     19  H   UNL     1       3.003 -11.601 -25.908  1.00  0.00     0.293 HD
ENDBRANCH  15  18
BRANCH  17  20
ATOM     20  O   UNL     1       3.991  -9.812 -27.435  1.00  0.00    -0.504 OA
ATOM     21  H   UNL     1       3.515  -8.931 -27.276  1.00  0.00     0.293 HD
ENDBRANCH  17  20
ENDBRANCH   1  12
BRANCH   6  22
ATOM     22  O   UNL     1       5.262  -9.667 -36.846  1.00  0.00    -0.507 OA
ATOM     23  H   UNL     1       5.801  -8.979 -36.341  1.00  0.00     0.293 HD
ENDBRANCH   6  22
BRANCH   8  24
ATOM     24  O   UNL     1       2.265 -13.333 -37.537  1.00  0.00    -0.508 OA
ATOM     25  H   UNL     1       1.858 -14.212 -37.239  1.00  0.00     0.293 HD
ENDBRANCH   8  24
TORSDOF 5
ENDMDL
MODEL 4
REMARK VINA RESULT:    -6.258      2.199      7.273
REMARK INTER + INTRA:          -7.620
REMARK INTER:                  -7.306
REMARK INTRA:                  -0.315
REMARK UNBOUND:                -0.265
REMARK SMILES O=c1cc(-c2ccc(O)c(O)c2)oc2cc(O)cc(O)c12
REMARK SMILES IDX 4 1 3 2 2 3 1 4 21 5 19 6 18 7 16 8 15 9 14 10 13 11 5 12
REMARK SMILES IDX 6 13 7 14 8 15 12 16 10 17 9 18 11 20 20 22 17 24
REMARK H PARENT 9 19 11 21 20 23 17 25
REMARK Flexibility Score: inf
ROOT
ATOM      1  C   UNL     1       3.259 -11.775 -32.109  1.00  0.00     0.138 A 
ATOM      2  C   UNL     1       2.454 -12.470 -33.021  1.00  0.00     0.100 A 
ATOM      3  C   UNL     1       2.692 -12.343 -34.390  1.00  0.00     0.197 A 
ATOM      4  O   UNL     1       1.914 -12.929 -35.186  1.00  0.00    -0.289 OA
ATOM      5  C   UNL     1       3.763 -11.538 -34.846  1.00  0.00     0.107 A 
ATOM      6  C   UNL     1       4.126 -11.365 -36.215  1.00  0.00     0.134 A 
ATOM      7  C   UNL     1       5.132 -10.451 -36.553  1.00  0.00     0.093 A 
ATOM      8  C   UNL     1       5.828  -9.750 -35.570  1.00  0.00     0.123 A 
ATOM      9  C   UNL     1       5.519  -9.951 -34.223  1.00  0.00     0.094 A 
ATOM     10  C   UNL     1       4.497 -10.830 -33.856  1.00  0.00     0.146 A 
ATOM     11  O   UNL     1       4.224 -10.982 -32.565  1.00  0.00    -0.456 OA
ENDROOT
BRANCH   1  12
ATOM     12  C   UNL     1       3.050 -11.876 -30.642  1.00  0.00     0.021 A 
ATOM     13  C   UNL     1       2.297 -12.920 -30.072  1.00  0.00     0.016 A 
ATOM     14  C   UNL     1       2.125 -12.996 -28.688  1.00  0.00     0.051 A 
ATOM     15  C   UNL     1       2.708 -12.038 -27.849  1.00  0.00     0.157 A 
ATOM     16  C   UNL     1       3.643 -10.926 -29.791  1.00  0.00     0.062 A 
ATOM     17  C   UNL     1       3.472 -10.999 -28.405  1.00  0.00     0.158 A 
BRANCH  15  18
ATOM     18  O   UNL     1       2.533 -12.116 -26.468  1.00  0.00    -0.504 OA
ATOM     19  H   UNL     1       2.666 -12.986 -25.965  1.00  0.00     0.293 HD
ENDBRANCH  15  18
BRANCH  17  20
ATOM     20  O   UNL     1       4.068 -10.031 -27.596  1.00  0.00    -0.504 OA
ATOM     21  H   UNL     1       4.839 -10.249 -26.976  1.00  0.00     0.293 HD
ENDBRANCH  17  20
ENDBRANCH   1  12
BRANCH   6  22
ATOM     22  O   UNL     1       3.551 -12.079 -37.270  1.00  0.00    -0.507 OA
ATOM     23  H   UNL     1       3.078 -12.965 -37.178  1.00  0.00     0.293 HD
ENDBRANCH   6  22
BRANCH   8  24
ATOM     24  O   UNL     1       6.834  -8.861 -35.942  1.00  0.00    -0.508 OA
ATOM     25  H   UNL     1       6.656  -7.867 -36.030  1.00  0.00     0.293 HD
ENDBRANCH   8  24
TORSDOF 5
ENDMDL
MODEL 5
REMARK VINA RESULT:    -6.210      2.159      7.205
REMARK INTER + INTRA:          -7.565
REMARK INTER:                  -7.264
REMARK INTRA:                  -0.301
REMARK UNBOUND:                -0.265
REMARK SMILES O=c1cc(-c2ccc(O)c(O)c2)oc2cc(O)cc(O)c12
REMARK SMILES IDX 4 1 3 2 2 3 1 4 21 5 19 6 18 7 16 8 15 9 14 10 13 11 5 12
REMARK SMILES IDX 6 13 7 14 8 15 12 16 10 17 9 18 11 20 20 22 17 24
REMARK H PARENT 9 19 11 21 20 23 17 25
REMARK Flexibility Score: inf
ROOT
ATOM      1  C   UNL     1       2.552 -12.119 -29.917  1.00  0.00     0.138 A 
ATOM      2  C   UNL     1       1.413 -12.625 -30.558  1.00  0.00     0.100 A 
ATOM      3  C   UNL     1       1.357 -12.648 -31.951  1.00  0.00     0.197 A 
ATOM      4  O   UNL     1       0.298 -13.049 -32.498  1.00  0.00    -0.289 OA
ATOM      5  C   UNL     1       2.464 -12.191 -32.707  1.00  0.00     0.107 A 
ATOM      6  C   UNL     1       2.537 -12.204 -34.132  1.00  0.00     0.134 A 
ATOM      7  C   UNL     1       3.635 -11.617 -34.773  1.00  0.00     0.093 A 
ATOM      8  C   UNL     1       4.689 -11.073 -34.040  1.00  0.00     0.123 A 
ATOM      9  C   UNL     1       4.654 -11.102 -32.645  1.00  0.00     0.094 A 
ATOM     10  C   UNL     1       3.556 -11.649 -31.977  1.00  0.00     0.146 A 
ATOM     11  O   UNL     1       3.554 -11.645 -30.649  1.00  0.00    -0.456 OA
ENDROOT
BRANCH   1  12
ATOM     12  C   UNL     1       2.663 -12.073 -28.436  1.00  0.00     0.021 A 
ATOM     13  C   UNL     1       2.158 -13.105 -27.623  1.00  0.00     0.016 A 
ATOM     14  C   UNL     1       2.286 -13.040 -26.234  1.00  0.00     0.051 A 
ATOM     15  C   UNL     1       2.926 -11.949 -25.632  1.00  0.00     0.157 A 
ATOM     16  C   UNL     1       3.317 -10.988 -27.825  1.00  0.00     0.062 A 
ATOM     17  C   UNL     1       3.446 -10.920 -26.434  1.00  0.00     0.158 A 
BRANCH  15  18
ATOM     18  O   UNL     1       3.050 -11.887 -24.245  1.00  0.00    -0.504 OA
ATOM     19  H   UNL     1       3.750 -11.304 -23.801  1.00  0.00     0.293 HD
ENDBRANCH  15  18
BRANCH  17  20
ATOM     20  O   UNL     1       4.092  -9.822 -25.866  1.00  0.00    -0.504 OA
ATOM     21  H   UNL     1       3.582  -9.072 -25.412  1.00  0.00     0.293 HD
ENDBRANCH  17  20
ENDBRANCH   1  12
BRANCH   6  22
ATOM     22  O   UNL     1       1.577 -12.798 -34.957  1.00  0.00    -0.507 OA
ATOM     23  H   UNL     1       1.757 -13.555 -35.599  1.00  0.00     0.293 HD
ENDBRANCH   6  22
BRANCH   8  24
ATOM     24  O   UNL     1       5.774 -10.511 -34.712  1.00  0.00    -0.508 OA
ATOM     25  H   UNL     1       5.728  -9.578 -35.106  1.00  0.00     0.293 HD
ENDBRANCH   8  24
TORSDOF 5
ENDMDL
MODEL 6
REMARK VINA RESULT:    -6.210      3.925      6.173
REMARK INTER + INTRA:          -7.564
REMARK INTER:                  -7.281
REMARK INTRA:                  -0.284
REMARK UNBOUND:                -0.265
REMARK SMILES O=c1cc(-c2ccc(O)c(O)c2)oc2cc(O)cc(O)c12
REMARK SMILES IDX 4 1 3 2 2 3 1 4 21 5 19 6 18 7 16 8 15 9 14 10 13 11 5 12
REMARK SMILES IDX 6 13 7 14 8 15 12 16 10 17 9 18 11 20 20 22 17 24
REMARK H PARENT 9 19 11 21 20 23 17 25
REMARK Flexibility Score: inf
ROOT
ATOM      1  C   UNL     1       2.691 -11.820 -26.978  1.00  0.00     0.138 A 
ATOM      2  C   UNL     1       1.601 -12.328 -26.258  1.00  0.00     0.100 A 
ATOM      3  C   UNL     1       1.581 -12.219 -24.867  1.00  0.00     0.197 A 
ATOM      4  O   UNL     1       0.620 -12.740 -24.244  1.00  0.00    -0.289 OA
ATOM      5  C   UNL     1       2.645 -11.569 -24.197  1.00  0.00     0.107 A 
ATOM      6  C   UNL     1       2.713 -11.363 -22.787  1.00  0.00     0.134 A 
ATOM      7  C   UNL     1       3.870 -10.811 -22.224  1.00  0.00     0.093 A 
ATOM      8  C   UNL     1       4.936 -10.402 -23.025  1.00  0.00     0.123 A 
ATOM      9  C   UNL     1       4.858 -10.549 -24.411  1.00  0.00     0.094 A 
ATOM     10  C   UNL     1       3.732 -11.128 -24.999  1.00  0.00     0.146 A 
ATOM     11  O   UNL     1       3.703 -11.263 -26.320  1.00  0.00    -0.456 OA
ENDROOT
BRANCH   1  12
ATOM     12  C   UNL     1       2.763 -11.908 -28.459  1.00  0.00     0.021 A 
ATOM     13  C   UNL     1       3.425 -10.932 -29.227  1.00  0.00     0.016 A 
ATOM     14  C   UNL     1       3.485 -11.046 -30.618  1.00  0.00     0.051 A 
ATOM     15  C   UNL     1       2.895 -12.138 -31.265  1.00  0.00     0.157 A 
ATOM     16  C   UNL     1       2.184 -13.009 -29.116  1.00  0.00     0.062 A 
ATOM     17  C   UNL     1       2.243 -13.125 -30.508  1.00  0.00     0.158 A 
BRANCH  15  18
ATOM     18  O   UNL     1       2.956 -12.247 -32.654  1.00  0.00    -0.504 OA
ATOM     19  H   UNL     1       3.465 -11.575 -33.216  1.00  0.00     0.293 HD
ENDBRANCH  15  18
BRANCH  17  20
ATOM     20  O   UNL     1       1.648 -14.227 -31.122  1.00  0.00    -0.504 OA
ATOM     21  H   UNL     1       0.784 -14.632 -30.780  1.00  0.00     0.293 HD
ENDBRANCH  17  20
ENDBRANCH   1  12
BRANCH   6  22
ATOM     22  O   UNL     1       1.670 -11.659 -21.904  1.00  0.00    -0.507 OA
ATOM     23  H   UNL     1       1.422 -11.105 -21.098  1.00  0.00     0.293 HD
ENDBRANCH   6  22
BRANCH   8  24
ATOM     24  O   UNL     1       6.066  -9.841 -22.432  1.00  0.00    -0.508 OA
ATOM     25  H   UNL     1       6.672  -9.208 -22.940  1.00  0.00     0.293 HD
ENDBRANCH   8  24
TORSDOF 5
ENDMDL
MODEL 7
REMARK VINA RESULT:    -6.159      1.523      7.123
REMARK INTER + INTRA:          -7.504
REMARK INTER:                  -7.238
REMARK INTRA:                  -0.266
REMARK UNBOUND:                -0.265
REMARK SMILES O=c1cc(-c2ccc(O)c(O)c2)oc2cc(O)cc(O)c12
REMARK SMILES IDX 4 1 3 2 2 3 1 4 21 5 19 6 18 7 16 8 15 9 14 10 13 11 5 12
REMARK SMILES IDX 6 13 7 14 8 15 12 16 10 17 9 18 11 20 20 22 17 24
REMARK H PARENT 9 19 11 21 20 23 17 25
REMARK Flexibility Score: inf
ROOT
ATOM      1  C   UNL     1       2.440 -11.833 -32.408  1.00  0.00     0.138 A 
ATOM      2  C   UNL     1       1.974 -12.551 -33.518  1.00  0.00     0.100 A 
ATOM      3  C   UNL     1       2.597 -12.389 -34.756  1.00  0.00     0.197 A 
ATOM      4  O   UNL     1       2.118 -12.998 -35.747  1.00  0.00    -0.289 OA
ATOM      5  C   UNL     1       3.714 -11.528 -34.874  1.00  0.00     0.107 A 
ATOM      6  C   UNL     1       4.454 -11.316 -36.075  1.00  0.00     0.134 A 
ATOM      7  C   UNL     1       5.469 -10.351 -36.100  1.00  0.00     0.093 A 
ATOM      8  C   UNL     1       5.810  -9.634 -34.953  1.00  0.00     0.123 A 
ATOM      9  C   UNL     1       5.128  -9.872 -33.758  1.00  0.00     0.094 A 
ATOM     10  C   UNL     1       4.088 -10.803 -33.711  1.00  0.00     0.146 A 
ATOM     11  O   UNL     1       3.455 -10.989 -32.558  1.00  0.00    -0.456 OA
ENDROOT
BRANCH   1  12
ATOM     12  C   UNL     1       1.813 -11.968 -31.068  1.00  0.00     0.021 A 
ATOM     13  C   UNL     1       0.604 -11.322 -30.748  1.00  0.00     0.016 A 
ATOM     14  C   UNL     1       0.032 -11.475 -29.482  1.00  0.00     0.051 A 
ATOM     15  C   UNL     1       0.652 -12.281 -28.519  1.00  0.00     0.157 A 
ATOM     16  C   UNL     1       2.422 -12.786 -30.098  1.00  0.00     0.062 A 
ATOM     17  C   UNL     1       1.852 -12.940 -28.830  1.00  0.00     0.158 A 
BRANCH  15  18
ATOM     18  O   UNL     1       0.079 -12.430 -27.256  1.00  0.00    -0.504 OA
ATOM     19  H   UNL     1      -0.514 -11.712 -26.855  1.00  0.00     0.293 HD
ENDBRANCH  15  18
BRANCH  17  20
ATOM     20  O   UNL     1       2.492 -13.752 -27.894  1.00  0.00    -0.504 OA
ATOM     21  H   UNL     1       2.019 -14.524 -27.438  1.00  0.00     0.293 HD
ENDBRANCH  17  20
ENDBRANCH   1  12
BRANCH   6  22
ATOM     22  O   UNL     1       4.252 -12.038 -37.254  1.00  0.00    -0.507 OA
ATOM     23  H   UNL     1       4.145 -11.629 -38.171  1.00  0.00     0.293 HD
ENDBRANCH   6  22
BRANCH   8  24
ATOM     24  O   UNL     1       6.836  -8.693 -35.011  1.00  0.00    -0.508 OA
ATOM     25  H   UNL     1       7.319  -8.488 -35.878  1.00  0.00     0.293 HD
ENDBRANCH   8  24
TORSDOF 5
ENDMDL
MODEL 8
REMARK VINA RESULT:    -6.046      2.519      3.268
REMARK INTER + INTRA:          -7.372
REMARK INTER:                  -7.077
REMARK INTRA:                  -0.295
REMARK UNBOUND:                -0.265
REMARK SMILES O=c1cc(-c2ccc(O)c(O)c2)oc2cc(O)cc(O)c12
REMARK SMILES IDX 4 1 3 2 2 3 1 4 21 5 19 6 18 7 16 8 15 9 14 10 13 11 5 12
REMARK SMILES IDX 6 13 7 14 8 15 12 16 10 17 9 18 11 20 20 22 17 24
REMARK H PARENT 9 19 11 21 20 23 17 25
REMARK Flexibility Score: inf
ROOT
ATOM      1  C   UNL     1       4.295 -10.856 -32.456  1.00  0.00     0.138 A 
ATOM      2  C   UNL     1       3.719 -12.134 -32.451  1.00  0.00     0.100 A 
ATOM      3  C   UNL     1       3.228 -12.666 -31.259  1.00  0.00     0.197 A 
ATOM      4  O   UNL     1       2.775 -13.839 -31.273  1.00  0.00    -0.289 OA
ATOM      5  C   UNL     1       3.285 -11.899 -30.070  1.00  0.00     0.107 A 
ATOM      6  C   UNL     1       2.779 -12.321 -28.805  1.00  0.00     0.134 A 
ATOM      7  C   UNL     1       2.997 -11.525 -27.673  1.00  0.00     0.093 A 
ATOM      8  C   UNL     1       3.648 -10.296 -27.772  1.00  0.00     0.123 A 
ATOM      9  C   UNL     1       4.100  -9.848 -29.014  1.00  0.00     0.094 A 
ATOM     10  C   UNL     1       3.929 -10.635 -30.155  1.00  0.00     0.146 A 
ATOM     11  O   UNL     1       4.386 -10.179 -31.316  1.00  0.00    -0.456 OA
ENDROOT
BRANCH   1  12
ATOM     12  C   UNL     1       4.832 -10.243 -33.697  1.00  0.00     0.021 A 
ATOM     13  C   UNL     1       5.455  -8.980 -33.689  1.00  0.00     0.016 A 
ATOM     14  C   UNL     1       5.961  -8.431 -34.870  1.00  0.00     0.051 A 
ATOM     15  C   UNL     1       5.860  -9.135 -36.077  1.00  0.00     0.157 A 
ATOM     16  C   UNL     1       4.748 -10.948 -34.911  1.00  0.00     0.062 A 
ATOM     17  C   UNL     1       5.252 -10.401 -36.095  1.00  0.00     0.158 A 
BRANCH  15  18
ATOM     18  O   UNL     1       6.365  -8.583 -37.254  1.00  0.00    -0.504 OA
ATOM     19  H   UNL     1       5.973  -7.739 -37.654  1.00  0.00     0.293 HD
ENDBRANCH  15  18
BRANCH  17  20
ATOM     20  O   UNL     1       5.140 -11.128 -37.280  1.00  0.00    -0.504 OA
ATOM     21  H   UNL     1       5.780 -11.879 -37.513  1.00  0.00     0.293 HD
ENDBRANCH  17  20
ENDBRANCH   1  12
BRANCH   6  22
ATOM     22  O   UNL     1       2.041 -13.492 -28.611  1.00  0.00    -0.507 OA
ATOM     23  H   UNL     1       1.234 -13.573 -28.010  1.00  0.00     0.293 HD
ENDBRANCH   6  22
BRANCH   8  24
ATOM     24  O   UNL     1       3.834  -9.523 -26.627  1.00  0.00    -0.508 OA
ATOM     25  H   UNL     1       4.527  -9.767 -25.930  1.00  0.00     0.293 HD
ENDBRANCH   8  24
TORSDOF 5
ENDMDL
MODEL 9
REMARK VINA RESULT:    -6.045      2.675      4.181
REMARK INTER + INTRA:          -7.371
REMARK INTER:                  -7.069
REMARK INTRA:                  -0.302
REMARK UNBOUND:                -0.265
REMARK SMILES O=c1cc(-c2ccc(O)c(O)c2)oc2cc(O)cc(O)c12
REMARK SMILES IDX 4 1 3 2 2 3 1 4 21 5 19 6 18 7 16 8 15 9 14 10 13 11 5 12
REMARK SMILES IDX 6 13 7 14 8 15 12 16 10 17 9 18 11 20 20 22 17 24
REMARK H PARENT 9 19 11 21 20 23 17 25
REMARK Flexibility Score: inf
ROOT
ATOM      1  C   UNL     1       2.393 -12.207 -29.430  1.00  0.00     0.138 A 
ATOM      2  C   UNL     1       1.481 -13.020 -28.742  1.00  0.00     0.100 A 
ATOM      3  C   UNL     1       1.426 -12.970 -27.349  1.00  0.00     0.197 A 
ATOM      4  O   UNL     1       0.642 -13.755 -26.756  1.00  0.00    -0.289 OA
ATOM      5  C   UNL     1       2.267 -12.076 -26.643  1.00  0.00     0.107 A 
ATOM      6  C   UNL     1       2.269 -11.909 -25.226  1.00  0.00     0.134 A 
ATOM      7  C   UNL     1       3.228 -11.080 -24.630  1.00  0.00     0.093 A 
ATOM      8  C   UNL     1       4.143 -10.367 -25.403  1.00  0.00     0.123 A 
ATOM      9  C   UNL     1       4.115 -10.481 -26.793  1.00  0.00     0.094 A 
ATOM     10  C   UNL     1       3.194 -11.326 -27.415  1.00  0.00     0.146 A 
ATOM     11  O   UNL     1       3.210 -11.418 -28.741  1.00  0.00    -0.456 OA
ENDROOT
BRANCH   1  12
ATOM     12  C   UNL     1       2.493 -12.221 -30.912  1.00  0.00     0.021 A 
ATOM     13  C   UNL     1       1.355 -12.369 -31.728  1.00  0.00     0.016 A 
ATOM     14  C   UNL     1       1.478 -12.368 -33.120  1.00  0.00     0.051 A 
ATOM     15  C   UNL     1       2.733 -12.211 -33.720  1.00  0.00     0.157 A 
ATOM     16  C   UNL     1       3.748 -12.050 -31.523  1.00  0.00     0.062 A 
ATOM     17  C   UNL     1       3.873 -12.049 -32.916  1.00  0.00     0.158 A 
BRANCH  15  18
ATOM     18  O   UNL     1       2.851 -12.212 -35.110  1.00  0.00    -0.504 OA
ATOM     19  H   UNL     1       2.399 -12.917 -35.680  1.00  0.00     0.293 HD
ENDBRANCH  15  18
BRANCH  17  20
ATOM     20  O   UNL     1       5.137 -11.887 -33.483  1.00  0.00    -0.504 OA
ATOM     21  H   UNL     1       5.957 -11.686 -32.922  1.00  0.00     0.293 HD
ENDBRANCH  17  20
ENDBRANCH   1  12
BRANCH   6  22
ATOM     22  O   UNL     1       1.344 -12.510 -24.368  1.00  0.00    -0.507 OA
ATOM     23  H   UNL     1       0.511 -12.065 -24.014  1.00  0.00     0.293 HD
ENDBRANCH   6  22
BRANCH   8  24
ATOM     24  O   UNL     1       5.073  -9.539 -24.776  1.00  0.00    -0.508 OA
ATOM     25  H   UNL     1       5.904  -9.914 -24.333  1.00  0.00     0.293 HD
ENDBRANCH   8  24
TORSDOF 5
ENDMDL
