MODEL 1
REMARK VINA RESULT:    -5.522      0.000      0.000
REMARK INTER + INTRA:          -6.752
REMARK INTER:                  -6.491
REMARK INTRA:                  -0.261
REMARK UNBOUND:                -0.261
REMARK SMILES O=c1c(O)c(-c2ccc(O)cc2)oc2cc(O)cc(O)c12
REMARK SMILES IDX 5 1 3 2 2 3 1 4 21 5 19 6 18 7 16 8 15 9 14 10 13 11 6 12
REMARK SMILES IDX 7 13 8 14 9 15 12 16 11 17 10 18 4 20 20 22 17 24
REMARK H PARENT 10 19 4 21 20 23 17 25
REMARK Flexibility Score: inf
ROOT
ATOM      1  C   UNL     1       9.822   0.649  45.941  1.00  0.00     0.180 A 
ATOM      2  C   UNL     1      10.056   1.780  46.744  1.00  0.00     0.208 A 
ATOM      3  C   UNL     1       9.170   2.866  46.664  1.00  0.00     0.238 A 
ATOM      4  O   UNL     1       9.353   3.853  47.423  1.00  0.00    -0.285 OA
ATOM      5  C   UNL     1       8.072   2.816  45.771  1.00  0.00     0.111 A 
ATOM      6  C   UNL     1       7.136   3.875  45.579  1.00  0.00     0.134 A 
ATOM      7  C   UNL     1       6.014   3.666  44.767  1.00  0.00     0.093 A 
ATOM      8  C   UNL     1       5.828   2.461  44.090  1.00  0.00     0.123 A 
ATOM      9  C   UNL     1       6.770   1.440  44.224  1.00  0.00     0.094 A 
ATOM     10  C   UNL     1       7.880   1.606  45.055  1.00  0.00     0.146 A 
ATOM     11  O   UNL     1       8.747   0.606  45.164  1.00  0.00    -0.452 OA
ENDROOT
BRANCH   1  12
ATOM     12  C   UNL     1      10.724  -0.525  45.952  1.00  0.00     0.021 A 
ATOM     13  C   UNL     1      10.319  -1.703  46.601  1.00  0.00     0.016 A 
ATOM     14  C   UNL     1      11.145  -2.830  46.604  1.00  0.00     0.047 A 
ATOM     15  C   UNL     1      12.381  -2.799  45.946  1.00  0.00     0.115 A 
ATOM     16  C   UNL     1      11.958  -0.508  45.276  1.00  0.00     0.016 A 
ATOM     17  C   UNL     1      12.782  -1.637  45.279  1.00  0.00     0.047 A 
BRANCH  15  18
ATOM     18  O   UNL     1      13.213  -3.917  45.942  1.00  0.00    -0.508 OA
ATOM     19  H   UNL     1      13.264  -4.537  45.144  1.00  0.00     0.293 HD
ENDBRANCH  15  18
ENDBRANCH   1  12
BRANCH   2  20
ATOM     20  O   UNL     1      11.133   1.800  47.633  1.00  0.00    -0.502 OA
ATOM     21  H   UNL     1      11.794   2.567  47.671  1.00  0.00     0.293 HD
ENDBRANCH   2  20
BRANCH   6  22
ATOM     22  O   UNL     1       7.274   5.150  46.135  1.00  0.00    -0.507 OA
ATOM     23  H   UNL     1       6.527   5.673  46.565  1.00  0.00     0.293 HD
ENDBRANCH   6  22
BRANCH   8  24
ATOM     24  O   UNL     1       4.709   2.294  43.278  1.00  0.00    -0.508 OA
ATOM     25  H   UNL     1       4.797   2.047  42.299  1.00  0.00     0.293 HD
ENDBRANCH   8  24
TORSDOF 5
ENDMDL
MODEL 2
REMARK VINA RESULT:    -5.464      9.148     10.155
REMARK INTER + INTRA:          -6.683
REMARK INTER:                  -6.417
REMARK INTRA:                  -0.266
REMARK UNBOUND:                -0.261
REMARK SMILES O=c1c(O)c(-c2ccc(O)cc2)oc2cc(O)cc(O)c12
REMARK SMILES IDX 5 1 3 2 2 3 1 4 21 5 19 6 18 7 16 8 15 9 14 10 13 11 6 12
REMARK SMILES IDX 7 13 8 14 9 15 12 16 11 17 10 18 4 20 20 22 17 24
REMARK H PARENT 10 19 4 21 20 23 17 25
REMARK Flexibility Score: inf
ROOT
ATOM      1  C   UNL     1      17.489   3.168  41.410  1.00  0.00     0.180 A 
ATOM      2  C   UNL     1      17.746   4.455  40.904  1.00  0.00     0.208 A 
ATOM      3  C   UNL     1      17.234   4.805  39.644  1.00  0.00     0.238 A 
ATOM      4  O   UNL     1      17.420   5.976  39.220  1.00  0.00    -0.285 OA
ATOM      5  C   UNL     1      16.486   3.861  38.900  1.00  0.00     0.111 A 
ATOM      6  C   UNL     1      15.956   4.095  37.596  1.00  0.00     0.134 A 
ATOM      7  C   UNL     1      15.122   3.136  37.008  1.00  0.00     0.093 A 
ATOM      8  C   UNL     1      14.852   1.926  37.646  1.00  0.00     0.123 A 
ATOM      9  C   UNL     1      15.416   1.662  38.896  1.00  0.00     0.094 A 
ATOM     10  C   UNL     1      16.222   2.614  39.523  1.00  0.00     0.146 A 
ATOM     11  O   UNL     1      16.730   2.328  40.716  1.00  0.00    -0.452 OA
ENDROOT
BRANCH   1  12
ATOM     12  C   UNL     1      18.015   2.717  42.718  1.00  0.00     0.021 A 
ATOM     13  C   UNL     1      19.348   2.284  42.816  1.00  0.00     0.016 A 
ATOM     14  C   UNL     1      19.872   1.876  44.046  1.00  0.00     0.047 A 
ATOM     15  C   UNL     1      19.075   1.910  45.197  1.00  0.00     0.115 A 
ATOM     16  C   UNL     1      17.227   2.768  43.883  1.00  0.00     0.016 A 
ATOM     17  C   UNL     1      17.754   2.360  45.112  1.00  0.00     0.047 A 
BRANCH  15  18
ATOM     18  O   UNL     1      19.587   1.505  46.428  1.00  0.00    -0.508 OA
ATOM     19  H   UNL     1      20.118   0.649  46.525  1.00  0.00     0.293 HD
ENDBRANCH  15  18
ENDBRANCH   1  12
BRANCH   2  20
ATOM     20  O   UNL     1      18.467   5.378  41.665  1.00  0.00    -0.502 OA
ATOM     21  H   UNL     1      19.096   5.099  42.408  1.00  0.00     0.293 HD
ENDBRANCH   2  20
BRANCH   6  22
ATOM     22  O   UNL     1      16.236   5.231  36.831  1.00  0.00    -0.507 OA
ATOM     23  H   UNL     1      16.102   6.180  37.142  1.00  0.00     0.293 HD
ENDBRANCH   6  22
BRANCH   8  24
ATOM     24  O   UNL     1      14.032   0.988  37.025  1.00  0.00    -0.508 OA
ATOM     25  H   UNL     1      14.041   0.012  37.297  1.00  0.00     0.293 HD
ENDBRANCH   8  24
TORSDOF 5
ENDMDL
MODEL 3
REMARK VINA RESULT:    -5.294      2.349      3.345
REMARK INTER + INTRA:          -6.484
REMARK INTER:                  -6.186
REMARK INTRA:                  -0.298
REMARK UNBOUND:                -0.261
REMARK SMILES O=c1c(O)c(-c2ccc(O)cc2)oc2cc(O)cc(O)c12
REMARK SMILES IDX 5 1 3 2 2 3 1 4 21 5 19 6 18 7 16 8 15 9 14 10 13 11 6 12
REMARK SMILES IDX 7 13 8 14 9 15 12 16 11 17 10 18 4 20 20 22 17 24
REMARK H PARENT 10 19 4 21 20 23 17 25
REMARK Flexibility Score: inf
ROOT
ATOM      1  C   UNL     1      10.017  -0.139  45.857  1.00  0.00     0.180 A 
ATOM      2  C   UNL     1       9.409  -1.093  46.692  1.00  0.00     0.208 A 
ATOM      3  C   UNL     1       8.008  -1.127  46.779  1.00  0.00     0.238 A 
ATOM      4  O   UNL     1       7.467  -2.017  47.485  1.00  0.00    -0.285 OA
ATOM      5  C   UNL     1       7.233  -0.196  46.044  1.00  0.00     0.111 A 
ATOM      6  C   UNL     1       5.810  -0.113  46.088  1.00  0.00     0.134 A 
ATOM      7  C   UNL     1       5.142   0.759  45.220  1.00  0.00     0.093 A 
ATOM      8  C   UNL     1       5.846   1.598  44.357  1.00  0.00     0.123 A 
ATOM      9  C   UNL     1       7.242   1.567  44.348  1.00  0.00     0.094 A 
ATOM     10  C   UNL     1       7.935   0.682  45.177  1.00  0.00     0.146 A 
ATOM     11  O   UNL     1       9.262   0.676  45.131  1.00  0.00    -0.452 OA
ENDROOT
BRANCH   1  12
ATOM     12  C   UNL     1      11.488  -0.026  45.732  1.00  0.00     0.021 A 
ATOM     13  C   UNL     1      12.144  -0.672  44.671  1.00  0.00     0.016 A 
ATOM     14  C   UNL     1      13.529  -0.561  44.522  1.00  0.00     0.047 A 
ATOM     15  C   UNL     1      14.275   0.212  45.421  1.00  0.00     0.115 A 
ATOM     16  C   UNL     1      12.241   0.764  46.621  1.00  0.00     0.016 A 
ATOM     17  C   UNL     1      13.626   0.876  46.467  1.00  0.00     0.047 A 
BRANCH  15  18
ATOM     18  O   UNL     1      15.656   0.330  45.282  1.00  0.00    -0.508 OA
ATOM     19  H   UNL     1      16.069   1.042  44.692  1.00  0.00     0.293 HD
ENDBRANCH  15  18
ENDBRANCH   1  12
BRANCH   2  20
ATOM     20  O   UNL     1      10.190  -2.016  47.392  1.00  0.00    -0.502 OA
ATOM     21  H   UNL     1      10.709  -1.768  48.226  1.00  0.00     0.293 HD
ENDBRANCH   2  20
BRANCH   6  22
ATOM     22  O   UNL     1       5.013  -0.839  46.978  1.00  0.00    -0.507 OA
ATOM     23  H   UNL     1       4.027  -1.012  46.856  1.00  0.00     0.293 HD
ENDBRANCH   6  22
BRANCH   8  24
ATOM     24  O   UNL     1       5.150   2.464  43.519  1.00  0.00    -0.508 OA
ATOM     25  H   UNL     1       4.465   3.117  43.883  1.00  0.00     0.293 HD
ENDBRANCH   8  24
TORSDOF 5
ENDMDL
MODEL 4
REMARK VINA RESULT:    -5.231      9.291     10.734
REMARK INTER + INTRA:          -6.409
REMARK INTER:                  -6.122
REMARK INTRA:                  -0.286
REMARK UNBOUND:                -0.261
REMARK SMILES O=c1c(O)c(-c2ccc(O)cc2)oc2cc(O)cc(O)c12
REMARK SMILES IDX 5 1 3 2 2 3 1 4 21 5 19 6 18 7 16 8 15 9 14 10 13 11 6 12
REMARK SMILES IDX 7 13 8 14 9 15 12 16 11 17 10 18 4 20 20 22 17 24
REMARK H PARENT 10 19 4 21 20 23 17 25
REMARK Flexibility Score: inf
ROOT
ATOM      1  C   UNL     1      17.968   1.657  40.703  1.00  0.00     0.180 A 
ATOM      2  C   UNL     1      18.888   1.898  39.667  1.00  0.00     0.208 A 
ATOM      3  C   UNL     1      18.436   1.878  38.337  1.00  0.00     0.238 A 
ATOM      4  O   UNL     1      19.252   2.149  37.418  1.00  0.00    -0.285 OA
ATOM      5  C   UNL     1      17.076   1.601  38.059  1.00  0.00     0.111 A 
ATOM      6  C   UNL     1      16.518   1.515  36.749  1.00  0.00     0.134 A 
ATOM      7  C   UNL     1      15.134   1.365  36.596  1.00  0.00     0.093 A 
ATOM      8  C   UNL     1      14.297   1.232  37.703  1.00  0.00     0.123 A 
ATOM      9  C   UNL     1      14.840   1.255  38.989  1.00  0.00     0.094 A 
ATOM     10  C   UNL     1      16.212   1.439  39.174  1.00  0.00     0.146 A 
ATOM     11  O   UNL     1      16.687   1.466  40.413  1.00  0.00    -0.452 OA
ENDROOT
BRANCH   1  12
ATOM     12  C   UNL     1      18.374   1.638  42.127  1.00  0.00     0.021 A 
ATOM     13  C   UNL     1      18.877   0.452  42.686  1.00  0.00     0.016 A 
ATOM     14  C   UNL     1      19.287   0.417  44.022  1.00  0.00     0.047 A 
ATOM     15  C   UNL     1      19.214   1.572  44.812  1.00  0.00     0.115 A 
ATOM     16  C   UNL     1      18.322   2.799  42.920  1.00  0.00     0.016 A 
ATOM     17  C   UNL     1      18.734   2.762  44.255  1.00  0.00     0.047 A 
BRANCH  15  18
ATOM     18  O   UNL     1      19.619   1.549  46.144  1.00  0.00    -0.508 OA
ATOM     19  H   UNL     1      18.951   1.613  46.902  1.00  0.00     0.293 HD
ENDBRANCH  15  18
ENDBRANCH   1  12
BRANCH   2  20
ATOM     20  O   UNL     1      20.221   2.191  39.964  1.00  0.00    -0.502 OA
ATOM     21  H   UNL     1      20.992   1.632  39.618  1.00  0.00     0.293 HD
ENDBRANCH   2  20
BRANCH   6  22
ATOM     22  O   UNL     1      17.276   1.544  35.575  1.00  0.00    -0.507 OA
ATOM     23  H   UNL     1      17.389   2.353  34.984  1.00  0.00     0.293 HD
ENDBRANCH   6  22
BRANCH   8  24
ATOM     24  O   UNL     1      12.927   1.068  37.513  1.00  0.00    -0.508 OA
ATOM     25  H   UNL     1      12.284   1.035  38.296  1.00  0.00     0.293 HD
ENDBRANCH   8  24
TORSDOF 5
ENDMDL
MODEL 5
REMARK VINA RESULT:    -5.224      8.044     10.710
REMARK INTER + INTRA:          -6.401
REMARK INTER:                  -6.115
REMARK INTRA:                  -0.287
REMARK UNBOUND:                -0.261
REMARK SMILES O=c1c(O)c(-c2ccc(O)cc2)oc2cc(O)cc(O)c12
REMARK SMILES IDX 5 1 3 2 2 3 1 4 21 5 19 6 18 7 16 8 15 9 14 10 13 11 6 12
REMARK SMILES IDX 7 13 8 14 9 15 12 16 11 17 10 18 4 20 20 22 17 24
REMARK H PARENT 10 19 4 21 20 23 17 25
REMARK Flexibility Score: inf
ROOT
ATOM      1  C   UNL     1      16.514   4.997  43.829  1.00  0.00     0.180 A 
ATOM      2  C   UNL     1      17.128   5.013  45.094  1.00  0.00     0.208 A 
ATOM      3  C   UNL     1      17.965   3.944  45.456  1.00  0.00     0.238 A 
ATOM      4  O   UNL     1      18.555   3.989  46.567  1.00  0.00    -0.285 OA
ATOM      5  C   UNL     1      18.163   2.868  44.557  1.00  0.00     0.111 A 
ATOM      6  C   UNL     1      18.957   1.715  44.837  1.00  0.00     0.134 A 
ATOM      7  C   UNL     1      19.188   0.775  43.826  1.00  0.00     0.093 A 
ATOM      8  C   UNL     1      18.603   0.910  42.567  1.00  0.00     0.123 A 
ATOM      9  C   UNL     1      17.776   2.004  42.302  1.00  0.00     0.094 A 
ATOM     10  C   UNL     1      17.556   2.977  43.279  1.00  0.00     0.146 A 
ATOM     11  O   UNL     1      16.772   4.007  42.984  1.00  0.00    -0.452 OA
ENDROOT
BRANCH   1  12
ATOM     12  C   UNL     1      15.600   6.075  43.385  1.00  0.00     0.021 A 
ATOM     13  C   UNL     1      14.224   5.963  43.641  1.00  0.00     0.016 A 
ATOM     14  C   UNL     1      13.346   6.979  43.251  1.00  0.00     0.047 A 
ATOM     15  C   UNL     1      13.836   8.127  42.615  1.00  0.00     0.115 A 
ATOM     16  C   UNL     1      16.087   7.240  42.763  1.00  0.00     0.016 A 
ATOM     17  C   UNL     1      15.208   8.255  42.376  1.00  0.00     0.047 A 
BRANCH  15  18
ATOM     18  O   UNL     1      12.971   9.146  42.221  1.00  0.00    -0.508 OA
ATOM     19  H   UNL     1      13.226  10.121  42.312  1.00  0.00     0.293 HD
ENDBRANCH  15  18
ENDBRANCH   1  12
BRANCH   2  20
ATOM     20  O   UNL     1      16.937   6.094  45.956  1.00  0.00    -0.502 OA
ATOM     21  H   UNL     1      17.656   6.418  46.592  1.00  0.00     0.293 HD
ENDBRANCH   2  20
BRANCH   6  22
ATOM     22  O   UNL     1      19.513   1.435  46.088  1.00  0.00    -0.507 OA
ATOM     23  H   UNL     1      19.929   0.554  46.348  1.00  0.00     0.293 HD
ENDBRANCH   6  22
BRANCH   8  24
ATOM     24  O   UNL     1      18.842  -0.053  41.590  1.00  0.00    -0.508 OA
ATOM     25  H   UNL     1      18.093  -0.625  41.216  1.00  0.00     0.293 HD
ENDBRANCH   8  24
TORSDOF 5
ENDMDL
MODEL 6
REMARK VINA RESULT:    -5.192      1.673      6.893
REMARK INTER + INTRA:          -6.363
REMARK INTER:                  -6.075
REMARK INTRA:                  -0.288
REMARK UNBOUND:                -0.261
REMARK SMILES O=c1c(O)c(-c2ccc(O)cc2)oc2cc(O)cc(O)c12
REMARK SMILES IDX 5 1 3 2 2 3 1 4 21 5 19 6 18 7 16 8 15 9 14 10 13 11 6 12
REMARK SMILES IDX 7 13 8 14 9 15 12 16 11 17 10 18 4 20 20 22 17 24
REMARK H PARENT 10 19 4 21 20 23 17 25
REMARK Flexibility Score: inf
ROOT
ATOM      1  C   UNL     1       8.811   0.538  45.840  1.00  0.00     0.180 A 
ATOM      2  C   UNL     1       8.368  -0.391  46.798  1.00  0.00     0.208 A 
ATOM      3  C   UNL     1       9.172  -1.506  47.087  1.00  0.00     0.238 A 
ATOM      4  O   UNL     1       8.798  -2.305  47.984  1.00  0.00    -0.285 OA
ATOM      5  C   UNL     1      10.399  -1.687  46.402  1.00  0.00     0.111 A 
ATOM      6  C   UNL     1      11.272  -2.801  46.586  1.00  0.00     0.134 A 
ATOM      7  C   UNL     1      12.520  -2.810  45.951  1.00  0.00     0.093 A 
ATOM      8  C   UNL     1      12.900  -1.781  45.091  1.00  0.00     0.123 A 
ATOM      9  C   UNL     1      12.028  -0.716  44.858  1.00  0.00     0.094 A 
ATOM     10  C   UNL     1      10.791  -0.661  45.504  1.00  0.00     0.146 A 
ATOM     11  O   UNL     1       9.995   0.374  45.263  1.00  0.00    -0.452 OA
ENDROOT
BRANCH   1  12
ATOM     12  C   UNL     1       8.008   1.724  45.464  1.00  0.00     0.021 A 
ATOM     13  C   UNL     1       8.323   2.975  46.019  1.00  0.00     0.016 A 
ATOM     14  C   UNL     1       7.593   4.113  45.661  1.00  0.00     0.047 A 
ATOM     15  C   UNL     1       6.549   4.016  44.732  1.00  0.00     0.115 A 
ATOM     16  C   UNL     1       6.971   1.638  44.517  1.00  0.00     0.016 A 
ATOM     17  C   UNL     1       6.244   2.777  44.160  1.00  0.00     0.047 A 
BRANCH  15  18
ATOM     18  O   UNL     1       5.814   5.142  44.369  1.00  0.00    -0.508 OA
ATOM     19  H   UNL     1       6.220   5.879  43.806  1.00  0.00     0.293 HD
ENDBRANCH  15  18
ENDBRANCH   1  12
BRANCH   2  20
ATOM     20  O   UNL     1       7.166  -0.182  47.478  1.00  0.00    -0.502 OA
ATOM     21  H   UNL     1       7.112   0.351  48.337  1.00  0.00     0.293 HD
ENDBRANCH   2  20
BRANCH   6  22
ATOM     22  O   UNL     1      10.952  -3.925  47.351  1.00  0.00    -0.507 OA
ATOM     23  H   UNL     1      11.368  -4.837  47.235  1.00  0.00     0.293 HD
ENDBRANCH   6  22
BRANCH   8  24
ATOM     24  O   UNL     1      14.143  -1.832  44.464  1.00  0.00    -0.508 OA
ATOM     25  H   UNL     1      14.438  -1.112  43.813  1.00  0.00     0.293 HD
ENDBRANCH   8  24
TORSDOF 5
ENDMDL
MODEL 7
REMARK VINA RESULT:    -5.189      9.344     10.841
REMARK INTER + INTRA:          -6.360
REMARK INTER:                  -6.087
REMARK INTRA:                  -0.273
REMARK UNBOUND:                -0.261
REMARK SMILES O=c1c(O)c(-c2ccc(O)cc2)oc2cc(O)cc(O)c12
REMARK SMILES IDX 5 1 3 2 2 3 1 4 21 5 19 6 18 7 16 8 15 9 14 10 13 11 6 12
REMARK SMILES IDX 7 13 8 14 9 15 12 16 11 17 10 18 4 20 20 22 17 24
REMARK H PARENT 10 19 4 21 20 23 17 25
REMARK Flexibility Score: inf
ROOT
ATOM      1  C   UNL     1      16.823   2.021  40.140  1.00  0.00     0.180 A 
ATOM      2  C   UNL     1      16.870   3.367  40.543  1.00  0.00     0.208 A 
ATOM      3  C   UNL     1      17.438   3.686  41.787  1.00  0.00     0.238 A 
ATOM      4  O   UNL     1      17.527   4.896  42.119  1.00  0.00    -0.285 OA
ATOM      5  C   UNL     1      17.937   2.654  42.619  1.00  0.00     0.111 A 
ATOM      6  C   UNL     1      18.495   2.858  43.916  1.00  0.00     0.134 A 
ATOM      7  C   UNL     1      19.075   1.780  44.596  1.00  0.00     0.093 A 
ATOM      8  C   UNL     1      19.060   0.495  44.055  1.00  0.00     0.123 A 
ATOM      9  C   UNL     1      18.462   0.273  42.813  1.00  0.00     0.094 A 
ATOM     10  C   UNL     1      17.907   1.335  42.096  1.00  0.00     0.146 A 
ATOM     11  O   UNL     1      17.358   1.084  40.914  1.00  0.00    -0.452 OA
ENDROOT
BRANCH   1  12
ATOM     12  C   UNL     1      16.218   1.605  38.854  1.00  0.00     0.021 A 
ATOM     13  C   UNL     1      14.874   1.198  38.822  1.00  0.00     0.016 A 
ATOM     14  C   UNL     1      14.276   0.823  37.615  1.00  0.00     0.047 A 
ATOM     15  C   UNL     1      15.010   0.865  36.423  1.00  0.00     0.115 A 
ATOM     16  C   UNL     1      16.943   1.664  37.649  1.00  0.00     0.016 A 
ATOM     17  C   UNL     1      16.342   1.290  36.444  1.00  0.00     0.047 A 
BRANCH  15  18
ATOM     18  O   UNL     1      14.425   0.493  35.214  1.00  0.00    -0.508 OA
ATOM     19  H   UNL     1      14.567   1.033  34.369  1.00  0.00     0.293 HD
ENDBRANCH  15  18
ENDBRANCH   1  12
BRANCH   2  20
ATOM     20  O   UNL     1      16.393   4.371  39.697  1.00  0.00    -0.502 OA
ATOM     21  H   UNL     1      16.071   4.183  38.756  1.00  0.00     0.293 HD
ENDBRANCH   2  20
BRANCH   6  22
ATOM     22  O   UNL     1      18.481   4.084  44.588  1.00  0.00    -0.507 OA
ATOM     23  H   UNL     1      18.353   4.981  44.144  1.00  0.00     0.293 HD
ENDBRANCH   6  22
BRANCH   8  24
ATOM     24  O   UNL     1      19.632  -0.557  44.766  1.00  0.00    -0.508 OA
ATOM     25  H   UNL     1      20.545  -0.926  44.524  1.00  0.00     0.293 HD
ENDBRANCH   8  24
TORSDOF 5
ENDMDL
MODEL 8
REMARK VINA RESULT:    -5.119      7.908     11.036
REMARK INTER + INTRA:          -6.278
REMARK INTER:                  -5.998
REMARK INTRA:                  -0.280
REMARK UNBOUND:                -0.261
REMARK SMILES O=c1c(O)c(-c2ccc(O)cc2)oc2cc(O)cc(O)c12
REMARK SMILES IDX 5 1 3 2 2 3 1 4 21 5 19 6 18 7 16 8 15 9 14 10 13 11 6 12
REMARK SMILES IDX 7 13 8 14 9 15 12 16 11 17 10 18 4 20 20 22 17 24
REMARK H PARENT 10 19 4 21 20 23 17 25
REMARK Flexibility Score: inf
ROOT
ATOM      1  C   UNL     1      16.284   5.290  43.137  1.00  0.00     0.180 A 
ATOM      2  C   UNL     1      16.988   4.758  42.042  1.00  0.00     0.208 A 
ATOM      3  C   UNL     1      17.946   3.757  42.270  1.00  0.00     0.238 A 
ATOM      4  O   UNL     1      18.534   3.246  41.282  1.00  0.00    -0.285 OA
ATOM      5  C   UNL     1      18.199   3.311  43.591  1.00  0.00     0.111 A 
ATOM      6  C   UNL     1      19.176   2.332  43.942  1.00  0.00     0.134 A 
ATOM      7  C   UNL     1      19.250   1.874  45.263  1.00  0.00     0.093 A 
ATOM      8  C   UNL     1      18.430   2.405  46.258  1.00  0.00     0.123 A 
ATOM      9  C   UNL     1      17.512   3.407  45.936  1.00  0.00     0.094 A 
ATOM     10  C   UNL     1      17.390   3.859  44.620  1.00  0.00     0.146 A 
ATOM     11  O   UNL     1      16.498   4.805  44.354  1.00  0.00    -0.452 OA
ENDROOT
BRANCH   1  12
ATOM     12  C   UNL     1      15.278   6.364  42.979  1.00  0.00     0.021 A 
ATOM     13  C   UNL     1      13.911   6.042  43.013  1.00  0.00     0.016 A 
ATOM     14  C   UNL     1      12.944   7.044  42.888  1.00  0.00     0.047 A 
ATOM     15  C   UNL     1      13.331   8.382  42.744  1.00  0.00     0.115 A 
ATOM     16  C   UNL     1      15.659   7.714  42.854  1.00  0.00     0.016 A 
ATOM     17  C   UNL     1      14.689   8.713  42.731  1.00  0.00     0.047 A 
BRANCH  15  18
ATOM     18  O   UNL     1      12.376   9.389  42.619  1.00  0.00    -0.508 OA
ATOM     19  H   UNL     1      12.583  10.259  42.144  1.00  0.00     0.293 HD
ENDBRANCH  15  18
ENDBRANCH   1  12
BRANCH   2  20
ATOM     20  O   UNL     1      16.707   5.196  40.746  1.00  0.00    -0.502 OA
ATOM     21  H   UNL     1      17.180   4.824  39.931  1.00  0.00     0.293 HD
ENDBRANCH   2  20
BRANCH   6  22
ATOM     22  O   UNL     1      20.107   1.801  43.044  1.00  0.00    -0.507 OA
ATOM     23  H   UNL     1      20.784   1.090  43.273  1.00  0.00     0.293 HD
ENDBRANCH   6  22
BRANCH   8  24
ATOM     24  O   UNL     1      18.542   1.937  47.564  1.00  0.00    -0.508 OA
ATOM     25  H   UNL     1      17.774   1.461  48.024  1.00  0.00     0.293 HD
ENDBRANCH   8  24
TORSDOF 5
ENDMDL
MODEL 9
REMARK VINA RESULT:    -5.064      8.692     10.449
REMARK INTER + INTRA:          -6.213
REMARK INTER:                  -6.009
REMARK INTRA:                  -0.205
REMARK UNBOUND:                -0.261
REMARK SMILES O=c1c(O)c(-c2ccc(O)cc2)oc2cc(O)cc(O)c12
REMARK SMILES IDX 5 1 3 2 2 3 1 4 21 5 19 6 18 7 16 8 15 9 14 10 13 11 6 12
REMARK SMILES IDX 7 13 8 14 9 15 12 16 11 17 10 18 4 20 20 22 17 24
REMARK H PARENT 10 19 4 21 20 23 17 25
REMARK Flexibility Score: inf
ROOT
ATOM      1  C   UNL     1      17.216   2.565  41.856  1.00  0.00     0.180 A 
ATOM      2  C   UNL     1      18.125   1.542  42.181  1.00  0.00     0.208 A 
ATOM      3  C   UNL     1      18.595   1.444  43.501  1.00  0.00     0.238 A 
ATOM      4  O   UNL     1      19.365   0.494  43.800  1.00  0.00    -0.285 OA
ATOM      5  C   UNL     1      18.164   2.379  44.473  1.00  0.00     0.111 A 
ATOM      6  C   UNL     1      18.608   2.399  45.830  1.00  0.00     0.134 A 
ATOM      7  C   UNL     1      18.017   3.288  46.736  1.00  0.00     0.093 A 
ATOM      8  C   UNL     1      17.047   4.201  46.323  1.00  0.00     0.123 A 
ATOM      9  C   UNL     1      16.650   4.230  44.985  1.00  0.00     0.094 A 
ATOM     10  C   UNL     1      17.195   3.332  44.065  1.00  0.00     0.146 A 
ATOM     11  O   UNL     1      16.782   3.385  42.805  1.00  0.00    -0.452 OA
ENDROOT
BRANCH   1  12
ATOM     12  C   UNL     1      16.696   2.747  40.481  1.00  0.00     0.021 A 
ATOM     13  C   UNL     1      15.736   1.852  39.982  1.00  0.00     0.016 A 
ATOM     14  C   UNL     1      15.214   2.018  38.695  1.00  0.00     0.047 A 
ATOM     15  C   UNL     1      15.633   3.091  37.899  1.00  0.00     0.115 A 
ATOM     16  C   UNL     1      17.097   3.834  39.683  1.00  0.00     0.016 A 
ATOM     17  C   UNL     1      16.572   3.999  38.398  1.00  0.00     0.047 A 
BRANCH  15  18
ATOM     18  O   UNL     1      15.120   3.267  36.615  1.00  0.00    -0.508 OA
ATOM     19  H   UNL     1      14.141   3.475  36.461  1.00  0.00     0.293 HD
ENDBRANCH  15  18
ENDBRANCH   1  12
BRANCH   2  20
ATOM     20  O   UNL     1      18.519   0.617  41.212  1.00  0.00    -0.502 OA
ATOM     21  H   UNL     1      18.972  -0.258  41.447  1.00  0.00     0.293 HD
ENDBRANCH   2  20
BRANCH   6  22
ATOM     22  O   UNL     1      19.635   1.592  46.327  1.00  0.00    -0.507 OA
ATOM     23  H   UNL     1      20.007   0.781  45.857  1.00  0.00     0.293 HD
ENDBRANCH   6  22
BRANCH   8  24
ATOM     24  O   UNL     1      16.493   5.081  47.248  1.00  0.00    -0.508 OA
ATOM     25  H   UNL     1      15.568   5.476  47.116  1.00  0.00     0.293 HD
ENDBRANCH   8  24
TORSDOF 5
ENDMDL
