MODEL 1
REMARK VINA RESULT:    -1.163      0.000      0.000
REMARK INTER + INTRA:          -5.337
REMARK INTER:                  -3.067
REMARK INTRA:                  -2.270
REMARK UNBOUND:                -2.270
REMARK SMILES CCCCCCCCCCCCCCCCCCCCCCCCCCCCCC(=O)[O-]
REMARK SMILES IDX 16 1 17 2 18 3 19 4 20 5 21 6 22 7 23 8 24 9 25 10 26 11
REMARK SMILES IDX 27 12 28 13 29 14 30 15 31 16 32 17 15 18 14 19 13 20 12 21
REMARK SMILES IDX 11 22 10 23 9 24 8 25 7 26 6 27 5 28 4 29 3 30 2 31 1 32
REMARK H PARENT
REMARK Flexibility Score: inf
ROOT
ATOM      1  C   UNL     1      46.328  57.653  48.548  1.00  0.00     0.000 C 
ENDROOT
BRANCH   1   2
ATOM      2  C   UNL     1      45.606  56.404  48.013  1.00  0.00     0.000 C 
BRANCH   2   3
ATOM      3  C   UNL     1      44.219  56.719  47.424  1.00  0.00     0.000 C 
BRANCH   3   4
ATOM      4  C   UNL     1      44.056  58.205  47.057  1.00  0.00     0.000 C 
BRANCH   4   5
ATOM      5  C   UNL     1      44.069  58.456  45.538  1.00  0.00     0.000 C 
BRANCH   5   6
ATOM      6  C   UNL     1      44.270  57.204  44.666  1.00  0.00     0.000 C 
BRANCH   6   7
ATOM      7  C   UNL     1      45.522  57.286  43.773  1.00  0.00     0.000 C 
BRANCH   7   8
ATOM      8  C   UNL     1      46.335  55.975  43.764  1.00  0.00     0.000 C 
BRANCH   8   9
ATOM      9  C   UNL     1      47.478  55.949  42.730  1.00  0.00     0.000 C 
BRANCH   9  10
ATOM     10  C   UNL     1      47.622  54.637  41.941  1.00  0.00     0.000 C 
BRANCH  10  11
ATOM     11  C   UNL     1      47.626  53.395  42.848  1.00  0.00     0.000 C 
BRANCH  11  12
ATOM     12  C   UNL     1      49.043  52.879  43.141  1.00  0.00     0.000 C 
BRANCH  12  13
ATOM     13  C   UNL     1      49.496  53.164  44.581  1.00  0.00     0.006 C 
BRANCH  13  14
ATOM     14  C   UNL     1      49.162  54.606  44.984  1.00  0.00     0.053 C 
BRANCH  14  15
ATOM     15  C   UNL     1      50.170  55.582  44.454  1.00  0.00     0.041 C 
ATOM     16  O   UNL     1      50.538  55.509  43.252  1.00  0.00    -0.550 OA
ATOM     17  O   UNL     1      50.643  56.620  45.251  1.00  0.00    -0.550 OA
ENDBRANCH  14  15
ENDBRANCH  13  14
ENDBRANCH  12  13
ENDBRANCH  11  12
ENDBRANCH  10  11
ENDBRANCH   9  10
ENDBRANCH   8   9
ENDBRANCH   7   8
ENDBRANCH   6   7
ENDBRANCH   5   6
ENDBRANCH   4   5
ENDBRANCH   3   4
ENDBRANCH   2   3
ENDBRANCH   1   2
BRANCH   1  18
ATOM     18  C   UNL     1      46.083  57.871  50.050  1.00  0.00     0.000 C 
BRANCH  18  19
ATOM     19  C   UNL     1      45.035  58.958  50.333  1.00  0.00     0.000 C 
BRANCH  19  20
ATOM     20  C   UNL     1      45.538  60.326  49.848  1.00  0.00     0.000 C 
BRANCH  20  21
ATOM     21  C   UNL     1      44.475  61.122  49.069  1.00  0.00     0.000 C 
BRANCH  21  22
ATOM     22  C   UNL     1      43.121  61.288  49.791  1.00  0.00     0.000 C 
BRANCH  22  23
ATOM     23  C   UNL     1      41.878  61.247  48.880  1.00  0.00     0.000 C 
BRANCH  23  24
ATOM     24  C   UNL     1      41.477  59.846  48.385  1.00  0.00    -0.000 C 
BRANCH  24  25
ATOM     25  C   UNL     1      41.682  58.754  49.444  1.00  0.00    -0.000 C 
BRANCH  25  26
ATOM     26  C   UNL     1      40.367  58.010  49.720  1.00  0.00    -0.000 C 
BRANCH  26  27
ATOM     27  C   UNL     1      39.602  57.657  48.427  1.00  0.00    -0.000 C 
BRANCH  27  28
ATOM     28  C   UNL     1      40.313  56.600  47.561  1.00  0.00    -0.000 C 
BRANCH  28  29
ATOM     29  C   UNL     1      40.130  56.771  46.040  1.00  0.00    -0.000 C 
BRANCH  29  30
ATOM     30  C   UNL     1      40.878  57.971  45.430  1.00  0.00    -0.000 C 
BRANCH  30  31
ATOM     31  C   UNL     1      40.791  58.011  43.896  1.00  0.00    -0.003 C 
ATOM     32  C   UNL     1      39.669  58.935  43.432  1.00  0.00     0.004 C 
ENDBRANCH  30  31
ENDBRANCH  29  30
ENDBRANCH  28  29
ENDBRANCH  27  28
ENDBRANCH  26  27
ENDBRANCH  25  26
ENDBRANCH  24  25
ENDBRANCH  23  24
ENDBRANCH  22  23
ENDBRANCH  21  22
ENDBRANCH  20  21
ENDBRANCH  19  20
ENDBRANCH  18  19
ENDBRANCH   1  18
TORSDOF 28
ENDMDL
MODEL 2
REMARK VINA RESULT:    -1.086      2.449      8.425
REMARK INTER + INTRA:          -5.134
REMARK INTER:                  -1.697
REMARK INTRA:                  -3.437
REMARK UNBOUND:                -2.270
REMARK SMILES CCCCCCCCCCCCCCCCCCCCCCCCCCCCCC(=O)[O-]
REMARK SMILES IDX 16 1 17 2 18 3 19 4 20 5 21 6 22 7 23 8 24 9 25 10 26 11
REMARK SMILES IDX 27 12 28 13 29 14 30 15 31 16 32 17 15 18 14 19 13 20 12 21
REMARK SMILES IDX 11 22 10 23 9 24 8 25 7 26 6 27 5 28 4 29 3 30 2 31 1 32
REMARK H PARENT
REMARK Flexibility Score: inf
ROOT
ATOM      1  C   UNL     1      44.068  58.102  44.985  1.00  0.00     0.000 C 
ENDROOT
BRANCH   1   2
ATOM      2  C   UNL     1      43.254  56.845  44.633  1.00  0.00     0.000 C 
BRANCH   2   3
ATOM      3  C   UNL     1      41.966  57.163  43.854  1.00  0.00     0.000 C 
BRANCH   3   4
ATOM      4  C   UNL     1      41.162  58.315  44.485  1.00  0.00     0.000 C 
BRANCH   4   5
ATOM      5  C   UNL     1      40.157  57.838  45.549  1.00  0.00     0.000 C 
BRANCH   5   6
ATOM      6  C   UNL     1      40.395  56.417  46.088  1.00  0.00     0.000 C 
BRANCH   6   7
ATOM      7  C   UNL     1      40.162  56.301  47.607  1.00  0.00     0.000 C 
BRANCH   7   8
ATOM      8  C   UNL     1      39.693  57.629  48.240  1.00  0.00     0.000 C 
BRANCH   8   9
ATOM      9  C   UNL     1      40.388  57.970  49.573  1.00  0.00     0.000 C 
BRANCH   9  10
ATOM     10  C   UNL     1      41.678  58.798  49.450  1.00  0.00     0.000 C 
BRANCH  10  11
ATOM     11  C   UNL     1      41.653  59.763  48.251  1.00  0.00     0.000 C 
BRANCH  11  12
ATOM     12  C   UNL     1      41.785  61.235  48.672  1.00  0.00     0.000 C 
BRANCH  12  13
ATOM     13  C   UNL     1      42.621  61.419  49.947  1.00  0.00     0.006 C 
BRANCH  13  14
ATOM     14  C   UNL     1      43.813  62.350  49.691  1.00  0.00     0.053 C 
BRANCH  14  15
ATOM     15  C   UNL     1      45.009  61.600  49.185  1.00  0.00     0.041 C 
ATOM     16  O   UNL     1      45.962  62.229  48.653  1.00  0.00    -0.550 OA
ATOM     17  O   UNL     1      45.118  60.225  49.371  1.00  0.00    -0.550 OA
ENDBRANCH  14  15
ENDBRANCH  13  14
ENDBRANCH  12  13
ENDBRANCH  11  12
ENDBRANCH  10  11
ENDBRANCH   9  10
ENDBRANCH   8   9
ENDBRANCH   7   8
ENDBRANCH   6   7
ENDBRANCH   5   6
ENDBRANCH   4   5
ENDBRANCH   3   4
ENDBRANCH   2   3
ENDBRANCH   1   2
BRANCH   1  18
ATOM     18  C   UNL     1      44.113  58.366  46.499  1.00  0.00     0.000 C 
BRANCH  18  19
ATOM     19  C   UNL     1      43.810  57.111  47.332  1.00  0.00     0.000 C 
BRANCH  19  20
ATOM     20  C   UNL     1      44.934  56.856  48.346  1.00  0.00     0.000 C 
BRANCH  20  21
ATOM     21  C   UNL     1      46.313  56.662  47.690  1.00  0.00     0.000 C 
BRANCH  21  22
ATOM     22  C   UNL     1      46.476  55.358  46.881  1.00  0.00     0.000 C 
BRANCH  22  23
ATOM     23  C   UNL     1      47.613  55.364  45.841  1.00  0.00     0.000 C 
BRANCH  23  24
ATOM     24  C   UNL     1      48.127  53.973  45.426  1.00  0.00    -0.000 C 
BRANCH  24  25
ATOM     25  C   UNL     1      49.501  54.022  44.744  1.00  0.00    -0.000 C 
BRANCH  25  26
ATOM     26  C   UNL     1      50.108  55.430  44.842  1.00  0.00    -0.000 C 
BRANCH  26  27
ATOM     27  C   UNL     1      50.438  56.031  43.459  1.00  0.00    -0.000 C 
BRANCH  27  28
ATOM     28  C   UNL     1      50.038  55.123  42.281  1.00  0.00    -0.000 C 
BRANCH  28  29
ATOM     29  C   UNL     1      48.732  55.517  41.566  1.00  0.00    -0.000 C 
BRANCH  29  30
ATOM     30  C   UNL     1      47.448  54.962  42.211  1.00  0.00    -0.000 C 
BRANCH  30  31
ATOM     31  C   UNL     1      47.430  53.428  42.280  1.00  0.00    -0.003 C 
ATOM     32  C   UNL     1      46.001  52.891  42.244  1.00  0.00     0.004 C 
ENDBRANCH  30  31
ENDBRANCH  29  30
ENDBRANCH  28  29
ENDBRANCH  27  28
ENDBRANCH  26  27
ENDBRANCH  25  26
ENDBRANCH  24  25
ENDBRANCH  23  24
ENDBRANCH  22  23
ENDBRANCH  21  22
ENDBRANCH  20  21
ENDBRANCH  19  20
ENDBRANCH  18  19
ENDBRANCH   1  18
TORSDOF 28
ENDMDL
MODEL 3
REMARK VINA RESULT:    -0.859      1.235      2.449
REMARK INTER + INTRA:          -4.535
REMARK INTER:                  -1.980
REMARK INTRA:                  -2.555
REMARK UNBOUND:                -2.270
REMARK SMILES CCCCCCCCCCCCCCCCCCCCCCCCCCCCCC(=O)[O-]
REMARK SMILES IDX 16 1 17 2 18 3 19 4 20 5 21 6 22 7 23 8 24 9 25 10 26 11
REMARK SMILES IDX 27 12 28 13 29 14 30 15 31 16 32 17 15 18 14 19 13 20 12 21
REMARK SMILES IDX 11 22 10 23 9 24 8 25 7 26 6 27 5 28 4 29 3 30 2 31 1 32
REMARK H PARENT
REMARK Flexibility Score: inf
ROOT
ATOM      1  C   UNL     1      44.992  59.652  50.118  1.00  0.00     0.000 C 
ENDROOT
BRANCH   1   2
ATOM      2  C   UNL     1      46.035  58.601  50.538  1.00  0.00     0.000 C 
BRANCH   2   3
ATOM      3  C   UNL     1      46.290  57.543  49.450  1.00  0.00     0.000 C 
BRANCH   3   4
ATOM      4  C   UNL     1      45.497  57.817  48.159  1.00  0.00     0.000 C 
BRANCH   4   5
ATOM      5  C   UNL     1      44.455  56.727  47.848  1.00  0.00     0.000 C 
BRANCH   5   6
ATOM      6  C   UNL     1      43.616  56.963  46.579  1.00  0.00     0.000 C 
BRANCH   6   7
ATOM      7  C   UNL     1      44.135  58.134  45.722  1.00  0.00     0.000 C 
BRANCH   7   8
ATOM      8  C   UNL     1      44.491  57.707  44.283  1.00  0.00     0.000 C 
BRANCH   8   9
ATOM      9  C   UNL     1      45.325  56.414  44.197  1.00  0.00     0.000 C 
BRANCH   9  10
ATOM     10  C   UNL     1      46.711  56.567  43.549  1.00  0.00     0.000 C 
BRANCH  10  11
ATOM     11  C   UNL     1      47.271  55.234  43.021  1.00  0.00     0.000 C 
BRANCH  11  12
ATOM     12  C   UNL     1      48.406  55.428  42.004  1.00  0.00     0.000 C 
BRANCH  12  13
ATOM     13  C   UNL     1      49.800  55.355  42.645  1.00  0.00     0.006 C 
BRANCH  13  14
ATOM     14  C   UNL     1      49.705  54.927  44.115  1.00  0.00     0.053 C 
BRANCH  14  15
ATOM     15  C   UNL     1      49.272  53.498  44.253  1.00  0.00     0.041 C 
ATOM     16  O   UNL     1      48.654  53.130  45.287  1.00  0.00    -0.550 OA
ATOM     17  O   UNL     1      49.470  52.591  43.218  1.00  0.00    -0.550 OA
ENDBRANCH  14  15
ENDBRANCH  13  14
ENDBRANCH  12  13
ENDBRANCH  11  12
ENDBRANCH  10  11
ENDBRANCH   9  10
ENDBRANCH   8   9
ENDBRANCH   7   8
ENDBRANCH   6   7
ENDBRANCH   5   6
ENDBRANCH   4   5
ENDBRANCH   3   4
ENDBRANCH   2   3
ENDBRANCH   1   2
BRANCH   1  18
ATOM     18  C   UNL     1      45.641  60.953  49.617  1.00  0.00     0.000 C 
BRANCH  18  19
ATOM     19  C   UNL     1      44.619  61.945  49.040  1.00  0.00     0.000 C 
BRANCH  19  20
ATOM     20  C   UNL     1      43.378  62.022  49.940  1.00  0.00     0.000 C 
BRANCH  20  21
ATOM     21  C   UNL     1      42.103  61.487  49.263  1.00  0.00     0.000 C 
BRANCH  21  22
ATOM     22  C   UNL     1      42.340  60.634  47.999  1.00  0.00     0.000 C 
BRANCH  22  23
ATOM     23  C   UNL     1      41.572  59.298  47.949  1.00  0.00     0.000 C 
BRANCH  23  24
ATOM     24  C   UNL     1      41.600  58.479  49.252  1.00  0.00    -0.000 C 
BRANCH  24  25
ATOM     25  C   UNL     1      40.215  57.963  49.665  1.00  0.00    -0.000 C 
BRANCH  25  26
ATOM     26  C   UNL     1      39.313  57.784  48.434  1.00  0.00    -0.000 C 
BRANCH  26  27
ATOM     27  C   UNL     1      38.844  56.325  48.249  1.00  0.00    -0.000 C 
BRANCH  27  28
ATOM     28  C   UNL     1      39.782  55.484  47.363  1.00  0.00    -0.000 C 
BRANCH  28  29
ATOM     29  C   UNL     1      40.611  56.287  46.342  1.00  0.00    -0.000 C 
BRANCH  29  30
ATOM     30  C   UNL     1      39.782  57.156  45.377  1.00  0.00    -0.000 C 
BRANCH  30  31
ATOM     31  C   UNL     1      40.652  58.075  44.505  1.00  0.00    -0.003 C 
ATOM     32  C   UNL     1      39.792  58.936  43.584  1.00  0.00     0.004 C 
ENDBRANCH  30  31
ENDBRANCH  29  30
ENDBRANCH  28  29
ENDBRANCH  27  28
ENDBRANCH  26  27
ENDBRANCH  25  26
ENDBRANCH  24  25
ENDBRANCH  23  24
ENDBRANCH  22  23
ENDBRANCH  21  22
ENDBRANCH  20  21
ENDBRANCH  19  20
ENDBRANCH  18  19
ENDBRANCH   1  18
TORSDOF 28
ENDMDL
MODEL 4
REMARK VINA RESULT:    -0.856      1.124      2.149
REMARK INTER + INTRA:          -4.527
REMARK INTER:                  -2.610
REMARK INTRA:                  -1.917
REMARK UNBOUND:                -2.270
REMARK SMILES CCCCCCCCCCCCCCCCCCCCCCCCCCCCCC(=O)[O-]
REMARK SMILES IDX 16 1 17 2 18 3 19 4 20 5 21 6 22 7 23 8 24 9 25 10 26 11
REMARK SMILES IDX 27 12 28 13 29 14 30 15 31 16 32 17 15 18 14 19 13 20 12 21
REMARK SMILES IDX 11 22 10 23 9 24 8 25 7 26 6 27 5 28 4 29 3 30 2 31 1 32
REMARK H PARENT
REMARK Flexibility Score: inf
ROOT
ATOM      1  C   UNL     1      45.740  56.471  48.181  1.00  0.00     0.000 C 
ENDROOT
BRANCH   1   2
ATOM      2  C   UNL     1      44.409  56.880  47.526  1.00  0.00     0.000 C 
BRANCH   2   3
ATOM      3  C   UNL     1      44.385  58.355  47.086  1.00  0.00     0.000 C 
BRANCH   3   4
ATOM      4  C   UNL     1      43.373  58.620  45.957  1.00  0.00     0.000 C 
BRANCH   4   5
ATOM      5  C   UNL     1      42.805  57.328  45.341  1.00  0.00     0.000 C 
BRANCH   5   6
ATOM      6  C   UNL     1      43.456  56.890  44.017  1.00  0.00     0.000 C 
BRANCH   6   7
ATOM      7  C   UNL     1      44.961  57.209  43.950  1.00  0.00     0.000 C 
BRANCH   7   8
ATOM      8  C   UNL     1      45.826  55.955  43.702  1.00  0.00     0.000 C 
BRANCH   8   9
ATOM      9  C   UNL     1      47.216  56.256  43.108  1.00  0.00     0.000 C 
BRANCH   9  10
ATOM     10  C   UNL     1      47.776  55.180  42.164  1.00  0.00     0.000 C 
BRANCH  10  11
ATOM     11  C   UNL     1      47.148  53.795  42.402  1.00  0.00     0.000 C 
BRANCH  11  12
ATOM     12  C   UNL     1      48.092  52.834  43.141  1.00  0.00     0.000 C 
BRANCH  12  13
ATOM     13  C   UNL     1      49.483  53.437  43.389  1.00  0.00     0.006 C 
BRANCH  13  14
ATOM     14  C   UNL     1      49.475  54.340  44.629  1.00  0.00     0.053 C 
BRANCH  14  15
ATOM     15  C   UNL     1      50.208  55.626  44.389  1.00  0.00     0.041 C 
ATOM     16  O   UNL     1      50.549  56.344  45.366  1.00  0.00    -0.550 OA
ATOM     17  O   UNL     1      50.591  55.998  43.104  1.00  0.00    -0.550 OA
ENDBRANCH  14  15
ENDBRANCH  13  14
ENDBRANCH  12  13
ENDBRANCH  11  12
ENDBRANCH  10  11
ENDBRANCH   9  10
ENDBRANCH   8   9
ENDBRANCH   7   8
ENDBRANCH   6   7
ENDBRANCH   5   6
ENDBRANCH   4   5
ENDBRANCH   3   4
ENDBRANCH   2   3
ENDBRANCH   1   2
BRANCH   1  18
ATOM     18  C   UNL     1      46.408  57.638  48.927  1.00  0.00     0.000 C 
BRANCH  18  19
ATOM     19  C   UNL     1      45.736  57.949  50.273  1.00  0.00     0.000 C 
BRANCH  19  20
ATOM     20  C   UNL     1      45.651  59.466  50.492  1.00  0.00     0.000 C 
BRANCH  20  21
ATOM     21  C   UNL     1      45.326  60.249  49.207  1.00  0.00     0.000 C 
BRANCH  21  22
ATOM     22  C   UNL     1      45.424  61.784  49.333  1.00  0.00     0.000 C 
BRANCH  22  23
ATOM     23  C   UNL     1      44.081  62.519  49.508  1.00  0.00     0.000 C 
BRANCH  23  24
ATOM     24  C   UNL     1      42.936  61.662  50.079  1.00  0.00    -0.000 C 
BRANCH  24  25
ATOM     25  C   UNL     1      41.723  61.583  49.142  1.00  0.00    -0.000 C 
BRANCH  25  26
ATOM     26  C   UNL     1      41.622  60.191  48.498  1.00  0.00    -0.000 C 
BRANCH  26  27
ATOM     27  C   UNL     1      42.218  59.081  49.390  1.00  0.00    -0.000 C 
BRANCH  27  28
ATOM     28  C   UNL     1      41.329  57.827  49.488  1.00  0.00    -0.000 C 
BRANCH  28  29
ATOM     29  C   UNL     1      39.847  58.046  49.128  1.00  0.00    -0.000 C 
BRANCH  29  30
ATOM     30  C   UNL     1      39.379  57.329  47.848  1.00  0.00    -0.000 C 
BRANCH  30  31
ATOM     31  C   UNL     1      40.375  56.265  47.362  1.00  0.00    -0.003 C 
ATOM     32  C   UNL     1      39.650  55.020  46.857  1.00  0.00     0.004 C 
ENDBRANCH  30  31
ENDBRANCH  29  30
ENDBRANCH  28  29
ENDBRANCH  27  28
ENDBRANCH  26  27
ENDBRANCH  25  26
ENDBRANCH  24  25
ENDBRANCH  23  24
ENDBRANCH  22  23
ENDBRANCH  21  22
ENDBRANCH  20  21
ENDBRANCH  19  20
ENDBRANCH  18  19
ENDBRANCH   1  18
TORSDOF 28
ENDMDL
MODEL 5
REMARK VINA RESULT:    -0.790      2.992      8.739
REMARK INTER + INTRA:          -4.352
REMARK INTER:                  -1.871
REMARK INTRA:                  -2.481
REMARK UNBOUND:                -2.270
REMARK SMILES CCCCCCCCCCCCCCCCCCCCCCCCCCCCCC(=O)[O-]
REMARK SMILES IDX 16 1 17 2 18 3 19 4 20 5 21 6 22 7 23 8 24 9 25 10 26 11
REMARK SMILES IDX 27 12 28 13 29 14 30 15 31 16 32 17 15 18 14 19 13 20 12 21
REMARK SMILES IDX 11 22 10 23 9 24 8 25 7 26 6 27 5 28 4 29 3 30 2 31 1 32
REMARK H PARENT
REMARK Flexibility Score: inf
ROOT
ATOM      1  C   UNL     1      44.446  56.961  47.500  1.00  0.00     0.000 C 
ENDROOT
BRANCH   1   2
ATOM      2  C   UNL     1      45.727  56.519  48.230  1.00  0.00     0.000 C 
BRANCH   2   3
ATOM      3  C   UNL     1      46.444  57.682  48.939  1.00  0.00     0.000 C 
BRANCH   3   4
ATOM      4  C   UNL     1      45.800  58.038  50.291  1.00  0.00     0.000 C 
BRANCH   4   5
ATOM      5  C   UNL     1      44.941  59.314  50.233  1.00  0.00     0.000 C 
BRANCH   5   6
ATOM      6  C   UNL     1      45.610  60.527  49.562  1.00  0.00     0.000 C 
BRANCH   6   7
ATOM      7  C   UNL     1      44.599  61.488  48.909  1.00  0.00     0.000 C 
BRANCH   7   8
ATOM      8  C   UNL     1      43.488  61.936  49.882  1.00  0.00     0.000 C 
BRANCH   8   9
ATOM      9  C   UNL     1      42.066  61.544  49.437  1.00  0.00     0.000 C 
BRANCH   9  10
ATOM     10  C   UNL     1      41.990  60.423  48.386  1.00  0.00     0.000 C 
BRANCH  10  11
ATOM     11  C   UNL     1      40.943  59.351  48.735  1.00  0.00     0.000 C 
BRANCH  11  12
ATOM     12  C   UNL     1      41.560  58.116  49.410  1.00  0.00     0.000 C 
BRANCH  12  13
ATOM     13  C   UNL     1      41.325  56.823  48.616  1.00  0.00     0.006 C 
BRANCH  13  14
ATOM     14  C   UNL     1      39.881  56.748  48.105  1.00  0.00     0.053 C 
BRANCH  14  15
ATOM     15  C   UNL     1      39.728  55.741  47.005  1.00  0.00     0.041 C 
ATOM     16  O   UNL     1      39.727  56.122  45.804  1.00  0.00    -0.550 OA
ATOM     17  O   UNL     1      39.670  54.380  47.288  1.00  0.00    -0.550 OA
ENDBRANCH  14  15
ENDBRANCH  13  14
ENDBRANCH  12  13
ENDBRANCH  11  12
ENDBRANCH  10  11
ENDBRANCH   9  10
ENDBRANCH   8   9
ENDBRANCH   7   8
ENDBRANCH   6   7
ENDBRANCH   5   6
ENDBRANCH   4   5
ENDBRANCH   3   4
ENDBRANCH   2   3
ENDBRANCH   1   2
BRANCH   1  18
ATOM     18  C   UNL     1      44.517  58.422  47.027  1.00  0.00     0.000 C 
BRANCH  18  19
ATOM     19  C   UNL     1      43.424  58.771  46.005  1.00  0.00     0.000 C 
BRANCH  19  20
ATOM     20  C   UNL     1      42.649  57.511  45.597  1.00  0.00     0.000 C 
BRANCH  20  21
ATOM     21  C   UNL     1      43.105  56.928  44.246  1.00  0.00     0.000 C 
BRANCH  21  22
ATOM     22  C   UNL     1      44.555  57.267  43.843  1.00  0.00     0.000 C 
BRANCH  22  23
ATOM     23  C   UNL     1      45.553  56.094  43.919  1.00  0.00     0.000 C 
BRANCH  23  24
ATOM     24  C   UNL     1      46.928  56.364  43.281  1.00  0.00    -0.000 C 
BRANCH  24  25
ATOM     25  C   UNL     1      47.423  55.200  42.411  1.00  0.00    -0.000 C 
BRANCH  25  26
ATOM     26  C   UNL     1      48.624  55.633  41.556  1.00  0.00    -0.000 C 
BRANCH  26  27
ATOM     27  C   UNL     1      49.975  55.228  42.182  1.00  0.00    -0.000 C 
BRANCH  27  28
ATOM     28  C   UNL     1      50.307  55.989  43.479  1.00  0.00    -0.000 C 
BRANCH  28  29
ATOM     29  C   UNL     1      50.223  55.150  44.769  1.00  0.00    -0.000 C 
BRANCH  29  30
ATOM     30  C   UNL     1      48.890  54.407  44.972  1.00  0.00    -0.000 C 
BRANCH  30  31
ATOM     31  C   UNL     1      49.046  52.879  44.936  1.00  0.00    -0.003 C 
ATOM     32  C   UNL     1      49.240  52.378  43.507  1.00  0.00     0.004 C 
ENDBRANCH  30  31
ENDBRANCH  29  30
ENDBRANCH  28  29
ENDBRANCH  27  28
ENDBRANCH  26  27
ENDBRANCH  25  26
ENDBRANCH  24  25
ENDBRANCH  23  24
ENDBRANCH  22  23
ENDBRANCH  21  22
ENDBRANCH  20  21
ENDBRANCH  19  20
ENDBRANCH  18  19
ENDBRANCH   1  18
TORSDOF 28
ENDMDL
MODEL 6
REMARK VINA RESULT:    -0.729      2.694      7.926
REMARK INTER + INTRA:          -4.192
REMARK INTER:                  -1.188
REMARK INTRA:                  -3.005
REMARK UNBOUND:                -2.270
REMARK SMILES CCCCCCCCCCCCCCCCCCCCCCCCCCCCCC(=O)[O-]
REMARK SMILES IDX 16 1 17 2 18 3 19 4 20 5 21 6 22 7 23 8 24 9 25 10 26 11
REMARK SMILES IDX 27 12 28 13 29 14 30 15 31 16 32 17 15 18 14 19 13 20 12 21
REMARK SMILES IDX 11 22 10 23 9 24 8 25 7 26 6 27 5 28 4 29 3 30 2 31 1 32
REMARK H PARENT
REMARK Flexibility Score: inf
ROOT
ATOM      1  C   UNL     1      45.456  59.479  50.576  1.00  0.00     0.000 C 
ENDROOT
BRANCH   1   2
ATOM      2  C   UNL     1      45.958  60.452  49.494  1.00  0.00     0.000 C 
BRANCH   2   3
ATOM      3  C   UNL     1      44.815  61.197  48.782  1.00  0.00     0.000 C 
BRANCH   3   4
ATOM      4  C   UNL     1      44.049  62.145  49.722  1.00  0.00     0.000 C 
BRANCH   4   5
ATOM      5  C   UNL     1      42.625  61.655  50.043  1.00  0.00     0.000 C 
BRANCH   5   6
ATOM      6  C   UNL     1      41.721  61.415  48.821  1.00  0.00     0.000 C 
BRANCH   6   7
ATOM      7  C   UNL     1      41.700  59.943  48.367  1.00  0.00     0.000 C 
BRANCH   7   8
ATOM      8  C   UNL     1      42.009  58.960  49.515  1.00  0.00     0.000 C 
BRANCH   8   9
ATOM      9  C   UNL     1      41.053  57.754  49.586  1.00  0.00     0.000 C 
BRANCH   9  10
ATOM     10  C   UNL     1      39.607  58.033  49.141  1.00  0.00     0.000 C 
BRANCH  10  11
ATOM     11  C   UNL     1      39.220  57.270  47.862  1.00  0.00     0.000 C 
BRANCH  11  12
ATOM     12  C   UNL     1      40.311  56.290  47.403  1.00  0.00     0.000 C 
BRANCH  12  13
ATOM     13  C   UNL     1      40.852  56.614  46.002  1.00  0.00     0.006 C 
BRANCH  13  14
ATOM     14  C   UNL     1      40.450  58.031  45.574  1.00  0.00     0.053 C 
BRANCH  14  15
ATOM     15  C   UNL     1      40.414  58.174  44.081  1.00  0.00     0.041 C 
ATOM     16  O   UNL     1      39.592  58.967  43.549  1.00  0.00    -0.550 OA
ATOM     17  O   UNL     1      41.333  57.505  43.279  1.00  0.00    -0.550 OA
ENDBRANCH  14  15
ENDBRANCH  13  14
ENDBRANCH  12  13
ENDBRANCH  11  12
ENDBRANCH  10  11
ENDBRANCH   9  10
ENDBRANCH   8   9
ENDBRANCH   7   8
ENDBRANCH   6   7
ENDBRANCH   5   6
ENDBRANCH   4   5
ENDBRANCH   3   4
ENDBRANCH   2   3
ENDBRANCH   1   2
BRANCH   1  18
ATOM     18  C   UNL     1      45.551  58.011  50.132  1.00  0.00     0.000 C 
BRANCH  18  19
ATOM     19  C   UNL     1      46.198  57.846  48.748  1.00  0.00     0.000 C 
BRANCH  19  20
ATOM     20  C   UNL     1      45.676  56.578  48.059  1.00  0.00     0.000 C 
BRANCH  20  21
ATOM     21  C   UNL     1      44.189  56.666  47.668  1.00  0.00     0.000 C 
BRANCH  21  22
ATOM     22  C   UNL     1      43.749  58.019  47.069  1.00  0.00     0.000 C 
BRANCH  22  23
ATOM     23  C   UNL     1      44.490  58.445  45.786  1.00  0.00     0.000 C 
BRANCH  23  24
ATOM     24  C   UNL     1      44.147  57.623  44.530  1.00  0.00    -0.000 C 
BRANCH  24  25
ATOM     25  C   UNL     1      45.032  56.379  44.369  1.00  0.00    -0.000 C 
BRANCH  25  26
ATOM     26  C   UNL     1      46.291  56.709  43.553  1.00  0.00    -0.000 C 
BRANCH  26  27
ATOM     27  C   UNL     1      47.089  55.448  43.158  1.00  0.00    -0.000 C 
BRANCH  27  28
ATOM     28  C   UNL     1      48.408  55.759  42.426  1.00  0.00    -0.000 C 
BRANCH  28  29
ATOM     29  C   UNL     1      49.689  55.436  43.220  1.00  0.00    -0.000 C 
BRANCH  29  30
ATOM     30  C   UNL     1      49.448  54.845  44.623  1.00  0.00    -0.000 C 
BRANCH  30  31
ATOM     31  C   UNL     1      49.503  53.310  44.641  1.00  0.00    -0.003 C 
ATOM     32  C   UNL     1      49.041  52.726  43.308  1.00  0.00     0.004 C 
ENDBRANCH  30  31
ENDBRANCH  29  30
ENDBRANCH  28  29
ENDBRANCH  27  28
ENDBRANCH  26  27
ENDBRANCH  25  26
ENDBRANCH  24  25
ENDBRANCH  23  24
ENDBRANCH  22  23
ENDBRANCH  21  22
ENDBRANCH  20  21
ENDBRANCH  19  20
ENDBRANCH  18  19
ENDBRANCH   1  18
TORSDOF 28
ENDMDL
MODEL 7
REMARK VINA RESULT:    -0.688      3.698      6.835
REMARK INTER + INTRA:          -4.085
REMARK INTER:                  -1.004
REMARK INTRA:                  -3.081
REMARK UNBOUND:                -2.270
REMARK SMILES CCCCCCCCCCCCCCCCCCCCCCCCCCCCCC(=O)[O-]
REMARK SMILES IDX 16 1 17 2 18 3 19 4 20 5 21 6 22 7 23 8 24 9 25 10 26 11
REMARK SMILES IDX 27 12 28 13 29 14 30 15 31 16 32 17 15 18 14 19 13 20 12 21
REMARK SMILES IDX 11 22 10 23 9 24 8 25 7 26 6 27 5 28 4 29 3 30 2 31 1 32
REMARK H PARENT
REMARK Flexibility Score: inf
ROOT
ATOM      1  C   UNL     1      40.495  56.428  47.660  1.00  0.00     0.000 C 
ENDROOT
BRANCH   1   2
ATOM      2  C   UNL     1      40.395  56.397  46.125  1.00  0.00     0.000 C 
BRANCH   2   3
ATOM      3  C   UNL     1      40.215  57.795  45.507  1.00  0.00     0.000 C 
BRANCH   3   4
ATOM      4  C   UNL     1      41.355  58.167  44.542  1.00  0.00     0.000 C 
BRANCH   4   5
ATOM      5  C   UNL     1      42.235  56.965  44.155  1.00  0.00     0.000 C 
BRANCH   5   6
ATOM      6  C   UNL     1      43.674  57.001  44.699  1.00  0.00     0.000 C 
BRANCH   6   7
ATOM      7  C   UNL     1      44.056  58.366  45.302  1.00  0.00     0.000 C 
BRANCH   7   8
ATOM      8  C   UNL     1      44.101  58.344  46.845  1.00  0.00     0.000 C 
BRANCH   8   9
ATOM      9  C   UNL     1      44.239  56.934  47.451  1.00  0.00     0.000 C 
BRANCH   9  10
ATOM     10  C   UNL     1      45.564  56.659  48.182  1.00  0.00     0.000 C 
BRANCH  10  11
ATOM     11  C   UNL     1      46.199  57.935  48.762  1.00  0.00     0.000 C 
BRANCH  11  12
ATOM     12  C   UNL     1      45.577  58.350  50.104  1.00  0.00     0.000 C 
BRANCH  12  13
ATOM     13  C   UNL     1      45.070  59.800  50.102  1.00  0.00     0.006 C 
BRANCH  13  14
ATOM     14  C   UNL     1      46.100  60.741  49.464  1.00  0.00     0.053 C 
BRANCH  14  15
ATOM     15  C   UNL     1      45.493  62.057  49.080  1.00  0.00     0.041 C 
ATOM     16  O   UNL     1      46.095  62.810  48.269  1.00  0.00    -0.550 OA
ATOM     17  O   UNL     1      44.233  62.422  49.543  1.00  0.00    -0.550 OA
ENDBRANCH  14  15
ENDBRANCH  13  14
ENDBRANCH  12  13
ENDBRANCH  11  12
ENDBRANCH  10  11
ENDBRANCH   9  10
ENDBRANCH   8   9
ENDBRANCH   7   8
ENDBRANCH   6   7
ENDBRANCH   5   6
ENDBRANCH   4   5
ENDBRANCH   3   4
ENDBRANCH   2   3
ENDBRANCH   1   2
BRANCH   1  18
ATOM     18  C   UNL     1      39.405  57.304  48.300  1.00  0.00     0.000 C 
BRANCH  18  19
ATOM     19  C   UNL     1      39.938  58.177  49.445  1.00  0.00     0.000 C 
BRANCH  19  20
ATOM     20  C   UNL     1      41.455  57.995  49.598  1.00  0.00     0.000 C 
BRANCH  20  21
ATOM     21  C   UNL     1      42.246  59.303  49.411  1.00  0.00     0.000 C 
BRANCH  21  22
ATOM     22  C   UNL     1      41.688  60.258  48.335  1.00  0.00     0.000 C 
BRANCH  22  23
ATOM     23  C   UNL     1      41.151  61.604  48.860  1.00  0.00     0.000 C 
BRANCH  23  24
ATOM     24  C   UNL     1      40.702  61.599  50.332  1.00  0.00    -0.000 C 
BRANCH  24  25
ATOM     25  C   UNL     1      39.365  62.320  50.553  1.00  0.00    -0.000 C 
BRANCH  25  26
ATOM     26  C   UNL     1      39.036  62.409  52.051  1.00  0.00    -0.000 C 
BRANCH  26  27
ATOM     27  C   UNL     1      38.116  63.603  52.386  1.00  0.00    -0.000 C 
BRANCH  27  28
ATOM     28  C   UNL     1      36.915  63.742  51.433  1.00  0.00    -0.000 C 
BRANCH  28  29
ATOM     29  C   UNL     1      35.681  62.900  51.809  1.00  0.00    -0.000 C 
BRANCH  29  30
ATOM     30  C   UNL     1      35.826  61.388  51.550  1.00  0.00    -0.000 C 
BRANCH  30  31
ATOM     31  C   UNL     1      36.574  60.659  52.677  1.00  0.00    -0.003 C 
ATOM     32  C   UNL     1      36.177  61.206  54.046  1.00  0.00     0.004 C 
ENDBRANCH  30  31
ENDBRANCH  29  30
ENDBRANCH  28  29
ENDBRANCH  27  28
ENDBRANCH  26  27
ENDBRANCH  25  26
ENDBRANCH  24  25
ENDBRANCH  23  24
ENDBRANCH  22  23
ENDBRANCH  21  22
ENDBRANCH  20  21
ENDBRANCH  19  20
ENDBRANCH  18  19
ENDBRANCH   1  18
TORSDOF 28
ENDMDL
MODEL 8
REMARK VINA RESULT:    -0.635      2.471      7.753
REMARK INTER + INTRA:          -3.944
REMARK INTER:                  -1.894
REMARK INTRA:                  -2.050
REMARK UNBOUND:                -2.270
REMARK SMILES CCCCCCCCCCCCCCCCCCCCCCCCCCCCCC(=O)[O-]
REMARK SMILES IDX 16 1 17 2 18 3 19 4 20 5 21 6 22 7 23 8 24 9 25 10 26 11
REMARK SMILES IDX 27 12 28 13 29 14 30 15 31 16 32 17 15 18 14 19 13 20 12 21
REMARK SMILES IDX 11 22 10 23 9 24 8 25 7 26 6 27 5 28 4 29 3 30 2 31 1 32
REMARK H PARENT
REMARK Flexibility Score: inf
ROOT
ATOM      1  C   UNL     1      39.167  57.250  48.276  1.00  0.00     0.000 C 
ENDROOT
BRANCH   1   2
ATOM      2  C   UNL     1      39.836  58.102  49.371  1.00  0.00     0.000 C 
BRANCH   2   3
ATOM      3  C   UNL     1      41.372  58.013  49.344  1.00  0.00     0.000 C 
BRANCH   3   4
ATOM      4  C   UNL     1      42.045  59.397  49.385  1.00  0.00     0.000 C 
BRANCH   4   5
ATOM      5  C   UNL     1      41.972  60.144  48.042  1.00  0.00     0.000 C 
BRANCH   5   6
ATOM      6  C   UNL     1      42.606  59.411  46.846  1.00  0.00     0.000 C 
BRANCH   6   7
ATOM      7  C   UNL     1      43.948  58.740  47.194  1.00  0.00     0.000 C 
BRANCH   7   8
ATOM      8  C   UNL     1      43.814  57.218  47.414  1.00  0.00     0.000 C 
BRANCH   8   9
ATOM      9  C   UNL     1      45.040  56.568  48.085  1.00  0.00     0.000 C 
BRANCH   9  10
ATOM     10  C   UNL     1      46.215  57.519  48.371  1.00  0.00     0.000 C 
BRANCH  10  11
ATOM     11  C   UNL     1      46.513  57.659  49.874  1.00  0.00     0.000 C 
BRANCH  11  12
ATOM     12  C   UNL     1      45.435  58.459  50.621  1.00  0.00     0.000 C 
BRANCH  12  13
ATOM     13  C   UNL     1      45.652  59.977  50.536  1.00  0.00     0.006 C 
BRANCH  13  14
ATOM     14  C   UNL     1      45.315  60.501  49.135  1.00  0.00     0.053 C 
BRANCH  14  15
ATOM     15  C   UNL     1      45.206  61.997  49.109  1.00  0.00     0.041 C 
ATOM     16  O   UNL     1      46.046  62.674  48.460  1.00  0.00    -0.550 OA
ATOM     17  O   UNL     1      44.140  62.643  49.726  1.00  0.00    -0.550 OA
ENDBRANCH  14  15
ENDBRANCH  13  14
ENDBRANCH  12  13
ENDBRANCH  11  12
ENDBRANCH  10  11
ENDBRANCH   9  10
ENDBRANCH   8   9
ENDBRANCH   7   8
ENDBRANCH   6   7
ENDBRANCH   5   6
ENDBRANCH   4   5
ENDBRANCH   3   4
ENDBRANCH   2   3
ENDBRANCH   1   2
BRANCH   1  18
ATOM     18  C   UNL     1      40.080  56.119  47.776  1.00  0.00     0.000 C 
BRANCH  18  19
ATOM     19  C   UNL     1      40.380  56.216  46.272  1.00  0.00     0.000 C 
BRANCH  19  20
ATOM     20  C   UNL     1      40.414  57.685  45.825  1.00  0.00     0.000 C 
BRANCH  20  21
ATOM     21  C   UNL     1      40.250  57.861  44.304  1.00  0.00     0.000 C 
BRANCH  21  22
ATOM     22  C   UNL     1      41.543  57.685  43.481  1.00  0.00     0.000 C 
BRANCH  22  23
ATOM     23  C   UNL     1      42.670  56.900  44.182  1.00  0.00     0.000 C 
BRANCH  23  24
ATOM     24  C   UNL     1      44.078  57.501  44.028  1.00  0.00    -0.000 C 
BRANCH  24  25
ATOM     25  C   UNL     1      45.196  56.502  44.361  1.00  0.00    -0.000 C 
BRANCH  25  26
ATOM     26  C   UNL     1      46.448  56.787  43.518  1.00  0.00    -0.000 C 
BRANCH  26  27
ATOM     27  C   UNL     1      47.177  55.498  43.085  1.00  0.00    -0.000 C 
BRANCH  27  28
ATOM     28  C   UNL     1      48.438  55.757  42.239  1.00  0.00    -0.000 C 
BRANCH  28  29
ATOM     29  C   UNL     1      49.729  55.106  42.773  1.00  0.00    -0.000 C 
BRANCH  29  30
ATOM     30  C   UNL     1      49.769  54.908  44.300  1.00  0.00    -0.000 C 
BRANCH  30  31
ATOM     31  C   UNL     1      49.387  53.483  44.727  1.00  0.00    -0.003 C 
ATOM     32  C   UNL     1      49.046  52.617  43.517  1.00  0.00     0.004 C 
ENDBRANCH  30  31
ENDBRANCH  29  30
ENDBRANCH  28  29
ENDBRANCH  27  28
ENDBRANCH  26  27
ENDBRANCH  25  26
ENDBRANCH  24  25
ENDBRANCH  23  24
ENDBRANCH  22  23
ENDBRANCH  21  22
ENDBRANCH  20  21
ENDBRANCH  19  20
ENDBRANCH  18  19
ENDBRANCH   1  18
TORSDOF 28
ENDMDL
MODEL 9
REMARK VINA RESULT:    -0.616      1.385      3.641
REMARK INTER + INTRA:          -3.895
REMARK INTER:                  -0.984
REMARK INTRA:                  -2.911
REMARK UNBOUND:                -2.270
REMARK SMILES CCCCCCCCCCCCCCCCCCCCCCCCCCCCCC(=O)[O-]
REMARK SMILES IDX 16 1 17 2 18 3 19 4 20 5 21 6 22 7 23 8 24 9 25 10 26 11
REMARK SMILES IDX 27 12 28 13 29 14 30 15 31 16 32 17 15 18 14 19 13 20 12 21
REMARK SMILES IDX 11 22 10 23 9 24 8 25 7 26 6 27 5 28 4 29 3 30 2 31 1 32
REMARK H PARENT
REMARK Flexibility Score: inf
ROOT
ATOM      1  C   UNL     1      42.096  61.665  49.412  1.00  0.00     0.000 C 
ENDROOT
BRANCH   1   2
ATOM      2  C   UNL     1      41.506  60.947  48.185  1.00  0.00     0.000 C 
BRANCH   2   3
ATOM      3  C   UNL     1      42.559  60.153  47.391  1.00  0.00     0.000 C 
BRANCH   3   4
ATOM      4  C   UNL     1      42.068  59.759  45.986  1.00  0.00     0.000 C 
BRANCH   4   5
ATOM      5  C   UNL     1      41.639  58.284  45.889  1.00  0.00     0.000 C 
BRANCH   5   6
ATOM      6  C   UNL     1      41.272  57.798  44.476  1.00  0.00     0.000 C 
BRANCH   6   7
ATOM      7  C   UNL     1      42.456  57.147  43.735  1.00  0.00     0.000 C 
BRANCH   7   8
ATOM      8  C   UNL     1      43.652  56.855  44.665  1.00  0.00     0.000 C 
BRANCH   8   9
ATOM      9  C   UNL     1      45.024  57.198  44.053  1.00  0.00     0.000 C 
BRANCH   9  10
ATOM     10  C   UNL     1      45.993  56.013  43.901  1.00  0.00     0.000 C 
BRANCH  10  11
ATOM     11  C   UNL     1      47.298  56.400  43.184  1.00  0.00     0.000 C 
BRANCH  11  12
ATOM     12  C   UNL     1      47.864  55.259  42.324  1.00  0.00     0.000 C 
BRANCH  12  13
ATOM     13  C   UNL     1      49.399  55.237  42.299  1.00  0.00     0.006 C 
BRANCH  13  14
ATOM     14  C   UNL     1      49.960  54.645  43.598  1.00  0.00     0.053 C 
BRANCH  14  15
ATOM     15  C   UNL     1      49.226  53.403  44.008  1.00  0.00     0.041 C 
ATOM     16  O   UNL     1      49.217  52.401  43.245  1.00  0.00    -0.550 OA
ATOM     17  O   UNL     1      48.623  53.313  45.259  1.00  0.00    -0.550 OA
ENDBRANCH  14  15
ENDBRANCH  13  14
ENDBRANCH  12  13
ENDBRANCH  11  12
ENDBRANCH  10  11
ENDBRANCH   9  10
ENDBRANCH   8   9
ENDBRANCH   7   8
ENDBRANCH   6   7
ENDBRANCH   5   6
ENDBRANCH   4   5
ENDBRANCH   3   4
ENDBRANCH   2   3
ENDBRANCH   1   2
BRANCH   1  18
ATOM     18  C   UNL     1      43.358  60.968  49.947  1.00  0.00     0.000 C 
BRANCH  18  19
ATOM     19  C   UNL     1      44.652  61.527  49.337  1.00  0.00     0.000 C 
BRANCH  19  20
ATOM     20  C   UNL     1      45.775  60.482  49.410  1.00  0.00     0.000 C 
BRANCH  20  21
ATOM     21  C   UNL     1      45.399  59.244  50.245  1.00  0.00     0.000 C 
BRANCH  21  22
ATOM     22  C   UNL     1      46.170  57.956  49.890  1.00  0.00     0.000 C 
BRANCH  22  23
ATOM     23  C   UNL     1      46.204  57.599  48.391  1.00  0.00     0.000 C 
BRANCH  23  24
ATOM     24  C   UNL     1      45.243  56.475  47.965  1.00  0.00    -0.000 C 
BRANCH  24  25
ATOM     25  C   UNL     1      43.829  56.982  47.653  1.00  0.00    -0.000 C 
BRANCH  25  26
ATOM     26  C   UNL     1      42.841  56.546  48.745  1.00  0.00    -0.000 C 
BRANCH  26  27
ATOM     27  C   UNL     1      42.209  57.743  49.487  1.00  0.00    -0.000 C 
BRANCH  27  28
ATOM     28  C   UNL     1      40.683  57.628  49.655  1.00  0.00    -0.000 C 
BRANCH  28  29
ATOM     29  C   UNL     1      39.872  57.732  48.348  1.00  0.00    -0.000 C 
BRANCH  29  30
ATOM     30  C   UNL     1      38.996  56.506  48.031  1.00  0.00    -0.000 C 
BRANCH  30  31
ATOM     31  C   UNL     1      39.609  55.596  46.955  1.00  0.00    -0.003 C 
ATOM     32  C   UNL     1      39.954  54.223  47.526  1.00  0.00     0.004 C 
ENDBRANCH  30  31
ENDBRANCH  29  30
ENDBRANCH  28  29
ENDBRANCH  27  28
ENDBRANCH  26  27
ENDBRANCH  25  26
ENDBRANCH  24  25
ENDBRANCH  23  24
ENDBRANCH  22  23
ENDBRANCH  21  22
ENDBRANCH  20  21
ENDBRANCH  19  20
ENDBRANCH  18  19
ENDBRANCH   1  18
TORSDOF 28
ENDMDL
