MODEL 1
REMARK VINA RESULT:    -4.143      0.000      0.000
REMARK INTER + INTRA:         -15.329
REMARK INTER:                 -10.441
REMARK INTRA:                  -4.888
REMARK UNBOUND:                -4.888
REMARK SMILES CCCCCCCCCCCCCCCCCCCCCCCCCCCC(=O)[O-]
REMARK SMILES IDX 15 1 16 2 17 3 18 4 19 5 20 6 21 7 22 8 23 9 24 10 25 11
REMARK SMILES IDX 26 12 27 13 28 14 29 15 30 16 14 17 13 18 12 19 11 20 10 21
REMARK SMILES IDX 9 22 8 23 7 24 6 25 5 26 4 27 3 28 2 29 1 30
REMARK H PARENT
REMARK Flexibility Score: inf
ROOT
ATOM      1  C   UNL     1     196.458 197.251 200.937  1.00  0.00     0.000 C 
ENDROOT
BRANCH   1   2
ATOM      2  C   UNL     1     196.922 195.787 200.863  1.00  0.00     0.000 C 
BRANCH   2   3
ATOM      3  C   UNL     1     196.379 194.932 202.021  1.00  0.00     0.000 C 
BRANCH   3   4
ATOM      4  C   UNL     1     196.375 193.425 201.700  1.00  0.00     0.000 C 
BRANCH   4   5
ATOM      5  C   UNL     1     197.400 192.975 200.638  1.00  0.00     0.000 C 
BRANCH   5   6
ATOM      6  C   UNL     1     196.875 191.951 199.611  1.00  0.00     0.000 C 
BRANCH   6   7
ATOM      7  C   UNL     1     195.556 191.259 200.011  1.00  0.00     0.000 C 
BRANCH   7   8
ATOM      8  C   UNL     1     195.719 189.822 200.544  1.00  0.00     0.000 C 
BRANCH   8   9
ATOM      9  C   UNL     1     196.300 188.809 199.535  1.00  0.00     0.000 C 
BRANCH   9  10
ATOM     10  C   UNL     1     195.489 188.638 198.236  1.00  0.00     0.000 C 
BRANCH  10  11
ATOM     11  C   UNL     1     196.364 188.698 196.972  1.00  0.00     0.000 C 
BRANCH  11  12
ATOM     12  C   UNL     1     196.364 190.086 196.314  1.00  0.00     0.006 C 
BRANCH  12  13
ATOM     13  C   UNL     1     195.013 190.804 196.428  1.00  0.00     0.053 C 
BRANCH  13  14
ATOM     14  C   UNL     1     194.784 191.685 195.240  1.00  0.00     0.041 C 
ATOM     15  O   UNL     1     193.613 192.017 194.912  1.00  0.00    -0.550 OA
ATOM     16  O   UNL     1     195.865 192.164 194.509  1.00  0.00    -0.550 OA
ENDBRANCH  13  14
ENDBRANCH  12  13
ENDBRANCH  11  12
ENDBRANCH  10  11
ENDBRANCH   9  10
ENDBRANCH   8   9
ENDBRANCH   7   8
ENDBRANCH   6   7
ENDBRANCH   5   6
ENDBRANCH   4   5
ENDBRANCH   3   4
ENDBRANCH   2   3
ENDBRANCH   1   2
BRANCH   1  17
ATOM     17  C   UNL     1     195.521 197.529 202.125  1.00  0.00     0.000 C 
BRANCH  17  18
ATOM     18  C   UNL     1     194.153 198.075 201.662  1.00  0.00     0.000 C 
BRANCH  18  19
ATOM     19  C   UNL     1     192.960 197.222 202.125  1.00  0.00     0.000 C 
BRANCH  19  20
ATOM     20  C   UNL     1     191.983 196.891 200.984  1.00  0.00     0.000 C 
BRANCH  20  21
ATOM     21  C   UNL     1     192.438 197.484 199.639  1.00  0.00     0.000 C 
BRANCH  21  22
ATOM     22  C   UNL     1     192.689 196.401 198.574  1.00  0.00    -0.000 C 
BRANCH  22  23
ATOM     23  C   UNL     1     193.867 195.473 198.946  1.00  0.00    -0.000 C 
BRANCH  23  24
ATOM     24  C   UNL     1     193.441 194.028 199.268  1.00  0.00    -0.000 C 
BRANCH  24  25
ATOM     25  C   UNL     1     192.571 193.356 198.194  1.00  0.00    -0.000 C 
BRANCH  25  26
ATOM     26  C   UNL     1     192.147 191.930 198.579  1.00  0.00    -0.000 C 
BRANCH  26  27
ATOM     27  C   UNL     1     191.836 191.837 200.080  1.00  0.00    -0.000 C 
BRANCH  27  28
ATOM     28  C   UNL     1     191.996 190.412 200.639  1.00  0.00    -0.000 C 
BRANCH  28  29
ATOM     29  C   UNL     1     192.192 189.317 199.574  1.00  0.00    -0.003 C 
ATOM     30  C   UNL     1     191.844 187.919 200.082  1.00  0.00     0.004 C 
ENDBRANCH  28  29
ENDBRANCH  27  28
ENDBRANCH  26  27
ENDBRANCH  25  26
ENDBRANCH  24  25
ENDBRANCH  23  24
ENDBRANCH  22  23
ENDBRANCH  21  22
ENDBRANCH  20  21
ENDBRANCH  19  20
ENDBRANCH  18  19
ENDBRANCH  17  18
ENDBRANCH   1  17
TORSDOF 26
ENDMDL
MODEL 2
REMARK VINA RESULT:    -4.047      9.154     13.771
REMARK INTER + INTRA:         -15.088
REMARK INTER:                  -9.923
REMARK INTRA:                  -5.164
REMARK UNBOUND:                -4.888
REMARK SMILES CCCCCCCCCCCCCCCCCCCCCCCCCCCC(=O)[O-]
REMARK SMILES IDX 15 1 16 2 17 3 18 4 19 5 20 6 21 7 22 8 23 9 24 10 25 11
REMARK SMILES IDX 26 12 27 13 28 14 29 15 30 16 14 17 13 18 12 19 11 20 10 21
REMARK SMILES IDX 9 22 8 23 7 24 6 25 5 26 4 27 3 28 2 29 1 30
REMARK H PARENT
REMARK Flexibility Score: inf
ROOT
ATOM      1  C   UNL     1     183.338 183.178 202.124  1.00  0.00     0.000 C 
ENDROOT
BRANCH   1   2
ATOM      2  C   UNL     1     183.342 181.850 201.349  1.00  0.00     0.000 C 
BRANCH   2   3
ATOM      3  C   UNL     1     184.171 180.758 202.046  1.00  0.00     0.000 C 
BRANCH   3   4
ATOM      4  C   UNL     1     185.435 180.370 201.255  1.00  0.00     0.000 C 
BRANCH   4   5
ATOM      5  C   UNL     1     186.686 181.223 201.556  1.00  0.00     0.000 C 
BRANCH   5   6
ATOM      6  C   UNL     1     186.988 182.332 200.528  1.00  0.00     0.000 C 
BRANCH   6   7
ATOM      7  C   UNL     1     186.268 182.167 199.175  1.00  0.00     0.000 C 
BRANCH   7   8
ATOM      8  C   UNL     1     185.991 183.486 198.428  1.00  0.00     0.000 C 
BRANCH   8   9
ATOM      9  C   UNL     1     184.579 184.073 198.634  1.00  0.00     0.000 C 
BRANCH   9  10
ATOM     10  C   UNL     1     184.529 185.407 199.404  1.00  0.00     0.000 C 
BRANCH  10  11
ATOM     11  C   UNL     1     185.907 186.081 199.522  1.00  0.00     0.000 C 
BRANCH  11  12
ATOM     12  C   UNL     1     185.875 187.355 200.380  1.00  0.00     0.006 C 
BRANCH  12  13
ATOM     13  C   UNL     1     187.271 187.940 200.638  1.00  0.00     0.053 C 
BRANCH  13  14
ATOM     14  C   UNL     1     187.219 189.435 200.652  1.00  0.00     0.041 C 
ATOM     15  O   UNL     1     187.514 190.070 201.701  1.00  0.00    -0.550 OA
ATOM     16  O   UNL     1     186.874 190.132 199.500  1.00  0.00    -0.550 OA
ENDBRANCH  13  14
ENDBRANCH  12  13
ENDBRANCH  11  12
ENDBRANCH  10  11
ENDBRANCH   9  10
ENDBRANCH   8   9
ENDBRANCH   7   8
ENDBRANCH   6   7
ENDBRANCH   5   6
ENDBRANCH   4   5
ENDBRANCH   3   4
ENDBRANCH   2   3
ENDBRANCH   1   2
BRANCH   1  17
ATOM     17  C   UNL     1     182.152 184.087 201.761  1.00  0.00     0.000 C 
BRANCH  17  18
ATOM     18  C   UNL     1     181.395 183.575 200.517  1.00  0.00     0.000 C 
BRANCH  18  19
ATOM     19  C   UNL     1     180.811 184.699 199.644  1.00  0.00     0.000 C 
BRANCH  19  20
ATOM     20  C   UNL     1     180.753 186.052 200.373  1.00  0.00     0.000 C 
BRANCH  20  21
ATOM     21  C   UNL     1     181.104 187.228 199.445  1.00  0.00     0.000 C 
BRANCH  21  22
ATOM     22  C   UNL     1     182.317 188.032 199.949  1.00  0.00    -0.000 C 
BRANCH  22  23
ATOM     23  C   UNL     1     182.223 189.529 199.579  1.00  0.00    -0.000 C 
BRANCH  23  24
ATOM     24  C   UNL     1     183.393 190.027 198.708  1.00  0.00    -0.000 C 
BRANCH  24  25
ATOM     25  C   UNL     1     183.463 189.406 197.303  1.00  0.00    -0.000 C 
BRANCH  25  26
ATOM     26  C   UNL     1     184.757 188.613 197.067  1.00  0.00    -0.000 C 
BRANCH  26  27
ATOM     27  C   UNL     1     184.507 187.423 196.129  1.00  0.00    -0.000 C 
BRANCH  27  28
ATOM     28  C   UNL     1     183.027 187.272 195.733  1.00  0.00    -0.000 C 
BRANCH  28  29
ATOM     29  C   UNL     1     182.292 186.102 196.412  1.00  0.00    -0.003 C 
ATOM     30  C   UNL     1     180.811 186.031 196.044  1.00  0.00     0.004 C 
ENDBRANCH  28  29
ENDBRANCH  27  28
ENDBRANCH  26  27
ENDBRANCH  25  26
ENDBRANCH  24  25
ENDBRANCH  23  24
ENDBRANCH  22  23
ENDBRANCH  21  22
ENDBRANCH  20  21
ENDBRANCH  19  20
ENDBRANCH  18  19
ENDBRANCH  17  18
ENDBRANCH   1  17
TORSDOF 26
ENDMDL
MODEL 3
REMARK VINA RESULT:    -4.020      3.109      7.210
REMARK INTER + INTRA:         -15.020
REMARK INTER:                 -10.286
REMARK INTRA:                  -4.733
REMARK UNBOUND:                -4.888
REMARK SMILES CCCCCCCCCCCCCCCCCCCCCCCCCCCC(=O)[O-]
REMARK SMILES IDX 15 1 16 2 17 3 18 4 19 5 20 6 21 7 22 8 23 9 24 10 25 11
REMARK SMILES IDX 26 12 27 13 28 14 29 15 30 16 14 17 13 18 12 19 11 20 10 21
REMARK SMILES IDX 9 22 8 23 7 24 6 25 5 26 4 27 3 28 2 29 1 30
REMARK H PARENT
REMARK Flexibility Score: inf
ROOT
ATOM      1  C   UNL     1     195.547 190.548 199.393  1.00  0.00     0.000 C 
ENDROOT
BRANCH   1   2
ATOM      2  C   UNL     1     195.462 191.179 200.792  1.00  0.00     0.000 C 
BRANCH   2   3
ATOM      3  C   UNL     1     196.277 192.479 200.907  1.00  0.00     0.000 C 
BRANCH   3   4
ATOM      4  C   UNL     1     196.624 193.091 199.536  1.00  0.00     0.000 C 
BRANCH   4   5
ATOM      5  C   UNL     1     196.294 194.591 199.382  1.00  0.00     0.000 C 
BRANCH   5   6
ATOM      6  C   UNL     1     194.792 194.925 199.283  1.00  0.00     0.000 C 
BRANCH   6   7
ATOM      7  C   UNL     1     193.972 193.951 198.413  1.00  0.00     0.000 C 
BRANCH   7   8
ATOM      8  C   UNL     1     192.733 193.354 199.108  1.00  0.00     0.000 C 
BRANCH   8   9
ATOM      9  C   UNL     1     192.042 192.204 198.344  1.00  0.00     0.000 C 
BRANCH   9  10
ATOM     10  C   UNL     1     191.991 190.857 199.091  1.00  0.00     0.000 C 
BRANCH  10  11
ATOM     11  C   UNL     1     192.148 189.648 198.154  1.00  0.00     0.000 C 
BRANCH  11  12
ATOM     12  C   UNL     1     192.271 188.318 198.914  1.00  0.00     0.006 C 
BRANCH  12  13
ATOM     13  C   UNL     1     192.323 188.500 200.437  1.00  0.00     0.053 C 
BRANCH  13  14
ATOM     14  C   UNL     1     191.254 187.689 201.100  1.00  0.00     0.041 C 
ATOM     15  O   UNL     1     190.155 188.222 201.413  1.00  0.00    -0.550 OA
ATOM     16  O   UNL     1     191.458 186.336 201.347  1.00  0.00    -0.550 OA
ENDBRANCH  13  14
ENDBRANCH  12  13
ENDBRANCH  11  12
ENDBRANCH  10  11
ENDBRANCH   9  10
ENDBRANCH   8   9
ENDBRANCH   7   8
ENDBRANCH   6   7
ENDBRANCH   5   6
ENDBRANCH   4   5
ENDBRANCH   3   4
ENDBRANCH   2   3
ENDBRANCH   1   2
BRANCH   1  17
ATOM     17  C   UNL     1     195.765 189.025 199.429  1.00  0.00     0.000 C 
BRANCH  17  18
ATOM     18  C   UNL     1     197.224 188.663 199.779  1.00  0.00     0.000 C 
BRANCH  18  19
ATOM     19  C   UNL     1     197.682 187.317 199.192  1.00  0.00     0.000 C 
BRANCH  19  20
ATOM     20  C   UNL     1     198.584 187.479 197.956  1.00  0.00     0.000 C 
BRANCH  20  21
ATOM     21  C   UNL     1     197.785 187.433 196.643  1.00  0.00     0.000 C 
BRANCH  21  22
ATOM     22  C   UNL     1     197.946 188.718 195.811  1.00  0.00    -0.000 C 
BRANCH  22  23
ATOM     23  C   UNL     1     196.776 189.705 196.023  1.00  0.00    -0.000 C 
BRANCH  23  24
ATOM     24  C   UNL     1     197.213 191.181 196.085  1.00  0.00    -0.000 C 
BRANCH  24  25
ATOM     25  C   UNL     1     196.068 192.200 195.963  1.00  0.00    -0.000 C 
BRANCH  25  26
ATOM     26  C   UNL     1     194.735 191.550 195.561  1.00  0.00    -0.000 C 
BRANCH  26  27
ATOM     27  C   UNL     1     193.770 192.594 194.981  1.00  0.00    -0.000 C 
BRANCH  27  28
ATOM     28  C   UNL     1     194.059 192.925 193.506  1.00  0.00    -0.000 C 
BRANCH  28  29
ATOM     29  C   UNL     1     192.812 193.209 192.649  1.00  0.00    -0.003 C 
ATOM     30  C   UNL     1     192.727 194.659 192.178  1.00  0.00     0.004 C 
ENDBRANCH  28  29
ENDBRANCH  27  28
ENDBRANCH  26  27
ENDBRANCH  25  26
ENDBRANCH  24  25
ENDBRANCH  23  24
ENDBRANCH  22  23
ENDBRANCH  21  22
ENDBRANCH  20  21
ENDBRANCH  19  20
ENDBRANCH  18  19
ENDBRANCH  17  18
ENDBRANCH   1  17
TORSDOF 26
ENDMDL
MODEL 4
REMARK VINA RESULT:    -3.945      8.728     14.039
REMARK INTER + INTRA:         -14.830
REMARK INTER:                 -10.274
REMARK INTRA:                  -4.556
REMARK UNBOUND:                -4.888
REMARK SMILES CCCCCCCCCCCCCCCCCCCCCCCCCCCC(=O)[O-]
REMARK SMILES IDX 15 1 16 2 17 3 18 4 19 5 20 6 21 7 22 8 23 9 24 10 25 11
REMARK SMILES IDX 26 12 27 13 28 14 29 15 30 16 14 17 13 18 12 19 11 20 10 21
REMARK SMILES IDX 9 22 8 23 7 24 6 25 5 26 4 27 3 28 2 29 1 30
REMARK H PARENT
REMARK Flexibility Score: inf
ROOT
ATOM      1  C   UNL     1     185.943 183.924 198.668  1.00  0.00     0.000 C 
ENDROOT
BRANCH   1   2
ATOM      2  C   UNL     1     186.003 185.088 197.666  1.00  0.00     0.000 C 
BRANCH   2   3
ATOM      3  C   UNL     1     184.609 185.609 197.277  1.00  0.00     0.000 C 
BRANCH   3   4
ATOM      4  C   UNL     1     183.539 185.313 198.346  1.00  0.00     0.000 C 
BRANCH   4   5
ATOM      5  C   UNL     1     182.828 186.554 198.926  1.00  0.00     0.000 C 
BRANCH   5   6
ATOM      6  C   UNL     1     182.911 186.701 200.459  1.00  0.00     0.000 C 
BRANCH   6   7
ATOM      7  C   UNL     1     183.873 187.801 200.949  1.00  0.00     0.000 C 
BRANCH   7   8
ATOM      8  C   UNL     1     185.361 187.537 200.647  1.00  0.00     0.000 C 
BRANCH   8   9
ATOM      9  C   UNL     1     185.991 188.464 199.585  1.00  0.00     0.000 C 
BRANCH   9  10
ATOM     10  C   UNL     1     187.417 188.083 199.145  1.00  0.00     0.000 C 
BRANCH  10  11
ATOM     11  C   UNL     1     188.064 187.031 200.061  1.00  0.00     0.000 C 
BRANCH  11  12
ATOM     12  C   UNL     1     189.068 187.640 201.052  1.00  0.00     0.006 C 
BRANCH  12  13
ATOM     13  C   UNL     1     190.138 188.503 200.368  1.00  0.00     0.053 C 
BRANCH  13  14
ATOM     14  C   UNL     1     191.440 187.770 200.302  1.00  0.00     0.041 C 
ATOM     15  O   UNL     1     191.605 186.707 200.960  1.00  0.00    -0.550 OA
ATOM     16  O   UNL     1     192.466 188.243 199.491  1.00  0.00    -0.550 OA
ENDBRANCH  13  14
ENDBRANCH  12  13
ENDBRANCH  11  12
ENDBRANCH  10  11
ENDBRANCH   9  10
ENDBRANCH   8   9
ENDBRANCH   7   8
ENDBRANCH   6   7
ENDBRANCH   5   6
ENDBRANCH   4   5
ENDBRANCH   3   4
ENDBRANCH   2   3
ENDBRANCH   1   2
BRANCH   1  17
ATOM     17  C   UNL     1     186.372 182.579 198.057  1.00  0.00     0.000 C 
BRANCH  17  18
ATOM     18  C   UNL     1     186.497 181.475 199.130  1.00  0.00     0.000 C 
BRANCH  18  19
ATOM     19  C   UNL     1     187.377 181.875 200.326  1.00  0.00     0.000 C 
BRANCH  19  20
ATOM     20  C   UNL     1     186.845 181.339 201.666  1.00  0.00     0.000 C 
BRANCH  20  21
ATOM     21  C   UNL     1     185.780 180.246 201.473  1.00  0.00     0.000 C 
BRANCH  21  22
ATOM     22  C   UNL     1     184.435 180.615 202.124  1.00  0.00    -0.000 C 
BRANCH  22  23
ATOM     23  C   UNL     1     183.370 181.024 201.082  1.00  0.00    -0.000 C 
BRANCH  23  24
ATOM     24  C   UNL     1     183.290 182.543 200.839  1.00  0.00    -0.000 C 
BRANCH  24  25
ATOM     25  C   UNL     1     182.413 183.312 201.841  1.00  0.00    -0.000 C 
BRANCH  25  26
ATOM     26  C   UNL     1     180.935 183.359 201.424  1.00  0.00    -0.000 C 
BRANCH  26  27
ATOM     27  C   UNL     1     180.799 183.474 199.899  1.00  0.00    -0.000 C 
BRANCH  27  28
ATOM     28  C   UNL     1     179.562 184.283 199.466  1.00  0.00    -0.000 C 
BRANCH  28  29
ATOM     29  C   UNL     1     179.252 185.510 200.343  1.00  0.00    -0.003 C 
ATOM     30  C   UNL     1     179.252 186.821 199.559  1.00  0.00     0.004 C 
ENDBRANCH  28  29
ENDBRANCH  27  28
ENDBRANCH  26  27
ENDBRANCH  25  26
ENDBRANCH  24  25
ENDBRANCH  23  24
ENDBRANCH  22  23
ENDBRANCH  21  22
ENDBRANCH  20  21
ENDBRANCH  19  20
ENDBRANCH  18  19
ENDBRANCH  17  18
ENDBRANCH   1  17
TORSDOF 26
ENDMDL
MODEL 5
REMARK VINA RESULT:    -3.943      9.898     13.665
REMARK INTER + INTRA:         -14.823
REMARK INTER:                  -9.740
REMARK INTRA:                  -5.084
REMARK UNBOUND:                -4.888
REMARK SMILES CCCCCCCCCCCCCCCCCCCCCCCCCCCC(=O)[O-]
REMARK SMILES IDX 15 1 16 2 17 3 18 4 19 5 20 6 21 7 22 8 23 9 24 10 25 11
REMARK SMILES IDX 26 12 27 13 28 14 29 15 30 16 14 17 13 18 12 19 11 20 10 21
REMARK SMILES IDX 9 22 8 23 7 24 6 25 5 26 4 27 3 28 2 29 1 30
REMARK H PARENT
REMARK Flexibility Score: inf
ROOT
ATOM      1  C   UNL     1     182.674 185.414 199.930  1.00  0.00     0.000 C 
ENDROOT
BRANCH   1   2
ATOM      2  C   UNL     1     182.463 183.922 200.233  1.00  0.00     0.000 C 
BRANCH   2   3
ATOM      3  C   UNL     1     182.975 183.521 201.628  1.00  0.00     0.000 C 
BRANCH   3   4
ATOM      4  C   UNL     1     182.649 182.058 201.986  1.00  0.00     0.000 C 
BRANCH   4   5
ATOM      5  C   UNL     1     183.856 181.095 201.979  1.00  0.00     0.000 C 
BRANCH   5   6
ATOM      6  C   UNL     1     183.868 180.068 200.829  1.00  0.00     0.000 C 
BRANCH   6   7
ATOM      7  C   UNL     1     185.269 179.734 200.279  1.00  0.00     0.000 C 
BRANCH   7   8
ATOM      8  C   UNL     1     185.893 180.832 199.396  1.00  0.00     0.000 C 
BRANCH   8   9
ATOM      9  C   UNL     1     186.947 181.717 200.095  1.00  0.00     0.000 C 
BRANCH   9  10
ATOM     10  C   UNL     1     186.557 183.198 200.257  1.00  0.00     0.000 C 
BRANCH  10  11
ATOM     11  C   UNL     1     185.912 183.788 198.992  1.00  0.00     0.000 C 
BRANCH  11  12
ATOM     12  C   UNL     1     186.313 185.251 198.746  1.00  0.00     0.006 C 
BRANCH  12  13
ATOM     13  C   UNL     1     187.038 185.884 199.942  1.00  0.00     0.053 C 
BRANCH  13  14
ATOM     14  C   UNL     1     187.456 187.284 199.622  1.00  0.00     0.041 C 
ATOM     15  O   UNL     1     187.779 188.078 200.547  1.00  0.00    -0.550 OA
ATOM     16  O   UNL     1     187.519 187.708 198.299  1.00  0.00    -0.550 OA
ENDBRANCH  13  14
ENDBRANCH  12  13
ENDBRANCH  11  12
ENDBRANCH  10  11
ENDBRANCH   9  10
ENDBRANCH   8   9
ENDBRANCH   7   8
ENDBRANCH   6   7
ENDBRANCH   5   6
ENDBRANCH   4   5
ENDBRANCH   3   4
ENDBRANCH   2   3
ENDBRANCH   1   2
BRANCH   1  17
ATOM     17  C   UNL     1     183.480 186.144 201.017  1.00  0.00     0.000 C 
BRANCH  17  18
ATOM     18  C   UNL     1     183.859 187.578 200.586  1.00  0.00     0.000 C 
BRANCH  18  19
ATOM     19  C   UNL     1     182.644 188.466 200.266  1.00  0.00     0.000 C 
BRANCH  19  20
ATOM     20  C   UNL     1     182.916 189.461 199.124  1.00  0.00     0.000 C 
BRANCH  20  21
ATOM     21  C   UNL     1     184.385 189.438 198.671  1.00  0.00     0.000 C 
BRANCH  21  22
ATOM     22  C   UNL     1     184.538 189.038 197.192  1.00  0.00    -0.000 C 
BRANCH  22  23
ATOM     23  C   UNL     1     184.200 187.551 196.947  1.00  0.00    -0.000 C 
BRANCH  23  24
ATOM     24  C   UNL     1     183.271 187.315 195.741  1.00  0.00    -0.000 C 
BRANCH  24  25
ATOM     25  C   UNL     1     182.003 186.501 196.051  1.00  0.00    -0.000 C 
BRANCH  25  26
ATOM     26  C   UNL     1     181.048 187.230 197.009  1.00  0.00    -0.000 C 
BRANCH  26  27
ATOM     27  C   UNL     1     179.739 187.603 196.299  1.00  0.00    -0.000 C 
BRANCH  27  28
ATOM     28  C   UNL     1     179.796 188.984 195.621  1.00  0.00    -0.000 C 
BRANCH  28  29
ATOM     29  C   UNL     1     180.418 190.100 196.480  1.00  0.00    -0.003 C 
ATOM     30  C   UNL     1     181.616 190.773 195.811  1.00  0.00     0.004 C 
ENDBRANCH  28  29
ENDBRANCH  27  28
ENDBRANCH  26  27
ENDBRANCH  25  26
ENDBRANCH  24  25
ENDBRANCH  23  24
ENDBRANCH  22  23
ENDBRANCH  21  22
ENDBRANCH  20  21
ENDBRANCH  19  20
ENDBRANCH  18  19
ENDBRANCH  17  18
ENDBRANCH   1  17
TORSDOF 26
ENDMDL
MODEL 6
REMARK VINA RESULT:    -3.941      1.837      4.130
REMARK INTER + INTRA:         -14.819
REMARK INTER:                  -9.715
REMARK INTRA:                  -5.104
REMARK UNBOUND:                -4.888
REMARK SMILES CCCCCCCCCCCCCCCCCCCCCCCCCCCC(=O)[O-]
REMARK SMILES IDX 15 1 16 2 17 3 18 4 19 5 20 6 21 7 22 8 23 9 24 10 25 11
REMARK SMILES IDX 26 12 27 13 28 14 29 15 30 16 14 17 13 18 12 19 11 20 10 21
REMARK SMILES IDX 9 22 8 23 7 24 6 25 5 26 4 27 3 28 2 29 1 30
REMARK H PARENT
REMARK Flexibility Score: inf
ROOT
ATOM      1  C   UNL     1     198.917 192.149 198.695  1.00  0.00     0.000 C 
ENDROOT
BRANCH   1   2
ATOM      2  C   UNL     1     198.099 190.879 198.411  1.00  0.00     0.000 C 
BRANCH   2   3
ATOM      3  C   UNL     1     197.191 190.482 199.588  1.00  0.00     0.000 C 
BRANCH   3   4
ATOM      4  C   UNL     1     196.315 191.648 200.087  1.00  0.00     0.000 C 
BRANCH   4   5
ATOM      5  C   UNL     1     195.117 191.240 200.971  1.00  0.00     0.000 C 
BRANCH   5   6
ATOM      6  C   UNL     1     194.895 189.721 201.114  1.00  0.00     0.000 C 
BRANCH   6   7
ATOM      7  C   UNL     1     193.697 189.168 200.317  1.00  0.00     0.000 C 
BRANCH   7   8
ATOM      8  C   UNL     1     194.018 188.773 198.863  1.00  0.00     0.000 C 
BRANCH   8   9
ATOM      9  C   UNL     1     193.742 189.867 197.809  1.00  0.00     0.000 C 
BRANCH   9  10
ATOM     10  C   UNL     1     194.844 190.050 196.748  1.00  0.00     0.000 C 
BRANCH  10  11
ATOM     11  C   UNL     1     195.073 191.524 196.372  1.00  0.00     0.000 C 
BRANCH  11  12
ATOM     12  C   UNL     1     194.202 191.978 195.190  1.00  0.00     0.006 C 
BRANCH  12  13
ATOM     13  C   UNL     1     194.971 192.827 194.169  1.00  0.00     0.053 C 
BRANCH  13  14
ATOM     14  C   UNL     1     194.090 193.895 193.603  1.00  0.00     0.041 C 
ATOM     15  O   UNL     1     194.409 194.481 192.533  1.00  0.00    -0.550 OA
ATOM     16  O   UNL     1     192.900 194.228 194.241  1.00  0.00    -0.550 OA
ENDBRANCH  13  14
ENDBRANCH  12  13
ENDBRANCH  11  12
ENDBRANCH  10  11
ENDBRANCH   9  10
ENDBRANCH   8   9
ENDBRANCH   7   8
ENDBRANCH   6   7
ENDBRANCH   5   6
ENDBRANCH   4   5
ENDBRANCH   3   4
ENDBRANCH   2   3
ENDBRANCH   1   2
BRANCH   1  17
ATOM     17  C   UNL     1     198.445 193.367 197.884  1.00  0.00     0.000 C 
BRANCH  17  18
ATOM     18  C   UNL     1     198.305 194.626 198.767  1.00  0.00     0.000 C 
BRANCH  18  19
ATOM     19  C   UNL     1     199.053 194.525 200.107  1.00  0.00     0.000 C 
BRANCH  19  20
ATOM     20  C   UNL     1     198.156 194.836 201.317  1.00  0.00     0.000 C 
BRANCH  20  21
ATOM     21  C   UNL     1     197.716 196.309 201.351  1.00  0.00     0.000 C 
BRANCH  21  22
ATOM     22  C   UNL     1     196.249 196.475 201.789  1.00  0.00    -0.000 C 
BRANCH  22  23
ATOM     23  C   UNL     1     195.447 195.161 201.661  1.00  0.00    -0.000 C 
BRANCH  23  24
ATOM     24  C   UNL     1     194.323 195.219 200.608  1.00  0.00    -0.000 C 
BRANCH  24  25
ATOM     25  C   UNL     1     194.751 194.825 199.185  1.00  0.00    -0.000 C 
BRANCH  25  26
ATOM     26  C   UNL     1     193.679 194.007 198.447  1.00  0.00    -0.000 C 
BRANCH  26  27
ATOM     27  C   UNL     1     192.436 193.813 199.328  1.00  0.00    -0.000 C 
BRANCH  27  28
ATOM     28  C   UNL     1     191.757 192.448 199.114  1.00  0.00    -0.000 C 
BRANCH  28  29
ATOM     29  C   UNL     1     191.129 191.833 200.378  1.00  0.00    -0.003 C 
ATOM     30  C   UNL     1     189.677 192.256 200.592  1.00  0.00     0.004 C 
ENDBRANCH  28  29
ENDBRANCH  27  28
ENDBRANCH  26  27
ENDBRANCH  25  26
ENDBRANCH  24  25
ENDBRANCH  23  24
ENDBRANCH  22  23
ENDBRANCH  21  22
ENDBRANCH  20  21
ENDBRANCH  19  20
ENDBRANCH  18  19
ENDBRANCH  17  18
ENDBRANCH   1  17
TORSDOF 26
ENDMDL
MODEL 7
REMARK VINA RESULT:    -3.932      7.685     12.552
REMARK INTER + INTRA:         -14.797
REMARK INTER:                 -10.044
REMARK INTRA:                  -4.753
REMARK UNBOUND:                -4.888
REMARK SMILES CCCCCCCCCCCCCCCCCCCCCCCCCCCC(=O)[O-]
REMARK SMILES IDX 15 1 16 2 17 3 18 4 19 5 20 6 21 7 22 8 23 9 24 10 25 11
REMARK SMILES IDX 26 12 27 13 28 14 29 15 30 16 14 17 13 18 12 19 11 20 10 21
REMARK SMILES IDX 9 22 8 23 7 24 6 25 5 26 4 27 3 28 2 29 1 30
REMARK H PARENT
REMARK Flexibility Score: inf
ROOT
ATOM      1  C   UNL     1     186.375 185.913 198.055  1.00  0.00     0.000 C 
ENDROOT
BRANCH   1   2
ATOM      2  C   UNL     1     185.307 187.013 197.949  1.00  0.00     0.000 C 
BRANCH   2   3
ATOM      3  C   UNL     1     184.748 187.432 199.319  1.00  0.00     0.000 C 
BRANCH   3   4
ATOM      4  C   UNL     1     184.748 188.959 199.523  1.00  0.00     0.000 C 
BRANCH   4   5
ATOM      5  C   UNL     1     185.817 189.730 198.720  1.00  0.00     0.000 C 
BRANCH   5   6
ATOM      6  C   UNL     1     187.163 189.932 199.445  1.00  0.00     0.000 C 
BRANCH   6   7
ATOM      7  C   UNL     1     187.131 189.629 200.957  1.00  0.00     0.000 C 
BRANCH   7   8
ATOM      8  C   UNL     1     187.851 188.330 201.368  1.00  0.00     0.000 C 
BRANCH   8   9
ATOM      9  C   UNL     1     188.708 187.676 200.263  1.00  0.00     0.000 C 
BRANCH   9  10
ATOM     10  C   UNL     1     189.338 186.320 200.637  1.00  0.00     0.000 C 
BRANCH  10  11
ATOM     11  C   UNL     1     190.872 186.376 200.722  1.00  0.00     0.000 C 
BRANCH  11  12
ATOM     12  C   UNL     1     191.419 187.812 200.673  1.00  0.00     0.006 C 
BRANCH  12  13
ATOM     13  C   UNL     1     192.181 188.119 199.377  1.00  0.00     0.053 C 
BRANCH  13  14
ATOM     14  C   UNL     1     191.680 189.388 198.762  1.00  0.00     0.041 C 
ATOM     15  O   UNL     1     190.749 189.357 197.911  1.00  0.00    -0.550 OA
ATOM     16  O   UNL     1     192.219 190.610 199.147  1.00  0.00    -0.550 OA
ENDBRANCH  13  14
ENDBRANCH  12  13
ENDBRANCH  11  12
ENDBRANCH  10  11
ENDBRANCH   9  10
ENDBRANCH   8   9
ENDBRANCH   7   8
ENDBRANCH   6   7
ENDBRANCH   5   6
ENDBRANCH   4   5
ENDBRANCH   3   4
ENDBRANCH   2   3
ENDBRANCH   1   2
BRANCH   1  17
ATOM     17  C   UNL     1     186.078 184.885 199.161  1.00  0.00     0.000 C 
BRANCH  17  18
ATOM     18  C   UNL     1     185.838 183.473 198.583  1.00  0.00     0.000 C 
BRANCH  18  19
ATOM     19  C   UNL     1     185.198 182.498 199.586  1.00  0.00     0.000 C 
BRANCH  19  20
ATOM     20  C   UNL     1     185.324 182.971 201.044  1.00  0.00     0.000 C 
BRANCH  20  21
ATOM     21  C   UNL     1     184.411 182.178 201.993  1.00  0.00     0.000 C 
BRANCH  21  22
ATOM     22  C   UNL     1     183.332 181.379 201.240  1.00  0.00    -0.000 C 
BRANCH  22  23
ATOM     23  C   UNL     1     181.903 181.737 201.706  1.00  0.00    -0.000 C 
BRANCH  23  24
ATOM     24  C   UNL     1     181.222 182.819 200.846  1.00  0.00    -0.000 C 
BRANCH  24  25
ATOM     25  C   UNL     1     181.354 184.252 201.386  1.00  0.00    -0.000 C 
BRANCH  25  26
ATOM     26  C   UNL     1     182.168 185.165 200.456  1.00  0.00    -0.000 C 
BRANCH  26  27
ATOM     27  C   UNL     1     182.295 184.547 199.056  1.00  0.00    -0.000 C 
BRANCH  27  28
ATOM     28  C   UNL     1     181.647 185.410 197.958  1.00  0.00    -0.000 C 
BRANCH  28  29
ATOM     29  C   UNL     1     181.316 186.853 198.381  1.00  0.00    -0.003 C 
ATOM     30  C   UNL     1     181.610 187.879 197.288  1.00  0.00     0.004 C 
ENDBRANCH  28  29
ENDBRANCH  27  28
ENDBRANCH  26  27
ENDBRANCH  25  26
ENDBRANCH  24  25
ENDBRANCH  23  24
ENDBRANCH  22  23
ENDBRANCH  21  22
ENDBRANCH  20  21
ENDBRANCH  19  20
ENDBRANCH  18  19
ENDBRANCH  17  18
ENDBRANCH   1  17
TORSDOF 26
ENDMDL
MODEL 8
REMARK VINA RESULT:    -3.887      7.686     12.972
REMARK INTER + INTRA:         -14.684
REMARK INTER:                 -10.263
REMARK INTRA:                  -4.421
REMARK UNBOUND:                -4.888
REMARK SMILES CCCCCCCCCCCCCCCCCCCCCCCCCCCC(=O)[O-]
REMARK SMILES IDX 15 1 16 2 17 3 18 4 19 5 20 6 21 7 22 8 23 9 24 10 25 11
REMARK SMILES IDX 26 12 27 13 28 14 29 15 30 16 14 17 13 18 12 19 11 20 10 21
REMARK SMILES IDX 9 22 8 23 7 24 6 25 5 26 4 27 3 28 2 29 1 30
REMARK H PARENT
REMARK Flexibility Score: inf
ROOT
ATOM      1  C   UNL     1     185.849 183.252 198.816  1.00  0.00     0.000 C 
ENDROOT
BRANCH   1   2
ATOM      2  C   UNL     1     186.204 184.135 200.022  1.00  0.00     0.000 C 
BRANCH   2   3
ATOM      3  C   UNL     1     186.030 185.636 199.731  1.00  0.00     0.000 C 
BRANCH   3   4
ATOM      4  C   UNL     1     186.720 186.076 198.425  1.00  0.00     0.000 C 
BRANCH   4   5
ATOM      5  C   UNL     1     186.356 187.493 197.934  1.00  0.00     0.000 C 
BRANCH   5   6
ATOM      6  C   UNL     1     185.658 188.390 198.977  1.00  0.00     0.000 C 
BRANCH   6   7
ATOM      7  C   UNL     1     186.300 189.779 199.163  1.00  0.00     0.000 C 
BRANCH   7   8
ATOM      8  C   UNL     1     187.786 189.753 199.571  1.00  0.00     0.000 C 
BRANCH   8   9
ATOM      9  C   UNL     1     188.056 189.376 201.044  1.00  0.00     0.000 C 
BRANCH   9  10
ATOM     10  C   UNL     1     188.509 187.921 201.276  1.00  0.00     0.000 C 
BRANCH  10  11
ATOM     11  C   UNL     1     189.660 187.499 200.348  1.00  0.00     0.000 C 
BRANCH  11  12
ATOM     12  C   UNL     1     191.010 187.410 201.076  1.00  0.00     0.006 C 
BRANCH  12  13
ATOM     13  C   UNL     1     192.108 188.251 200.408  1.00  0.00     0.053 C 
BRANCH  13  14
ATOM     14  C   UNL     1     191.700 189.690 200.343  1.00  0.00     0.041 C 
ATOM     15  O   UNL     1     191.584 190.365 201.401  1.00  0.00    -0.550 OA
ATOM     16  O   UNL     1     191.477 190.296 199.112  1.00  0.00    -0.550 OA
ENDBRANCH  13  14
ENDBRANCH  12  13
ENDBRANCH  11  12
ENDBRANCH  10  11
ENDBRANCH   9  10
ENDBRANCH   8   9
ENDBRANCH   7   8
ENDBRANCH   6   7
ENDBRANCH   5   6
ENDBRANCH   4   5
ENDBRANCH   3   4
ENDBRANCH   2   3
ENDBRANCH   1   2
BRANCH   1  17
ATOM     17  C   UNL     1     186.715 181.984 198.718  1.00  0.00     0.000 C 
BRANCH  17  18
ATOM     18  C   UNL     1     186.063 180.786 199.441  1.00  0.00     0.000 C 
BRANCH  18  19
ATOM     19  C   UNL     1     186.336 180.755 200.954  1.00  0.00     0.000 C 
BRANCH  19  20
ATOM     20  C   UNL     1     185.177 180.141 201.758  1.00  0.00     0.000 C 
BRANCH  20  21
ATOM     21  C   UNL     1     183.807 180.660 201.290  1.00  0.00     0.000 C 
BRANCH  21  22
ATOM     22  C   UNL     1     183.525 182.095 201.771  1.00  0.00    -0.000 C 
BRANCH  22  23
ATOM     23  C   UNL     1     182.744 182.922 200.726  1.00  0.00    -0.000 C 
BRANCH  23  24
ATOM     24  C   UNL     1     182.232 184.273 201.260  1.00  0.00    -0.000 C 
BRANCH  24  25
ATOM     25  C   UNL     1     182.160 185.397 200.213  1.00  0.00    -0.000 C 
BRANCH  25  26
ATOM     26  C   UNL     1     182.427 184.896 198.785  1.00  0.00    -0.000 C 
BRANCH  26  27
ATOM     27  C   UNL     1     183.009 186.018 197.912  1.00  0.00    -0.000 C 
BRANCH  27  28
ATOM     28  C   UNL     1     182.346 186.104 196.525  1.00  0.00    -0.000 C 
BRANCH  28  29
ATOM     29  C   UNL     1     183.059 187.031 195.524  1.00  0.00    -0.003 C 
ATOM     30  C   UNL     1     184.312 186.404 194.916  1.00  0.00     0.004 C 
ENDBRANCH  28  29
ENDBRANCH  27  28
ENDBRANCH  26  27
ENDBRANCH  25  26
ENDBRANCH  24  25
ENDBRANCH  23  24
ENDBRANCH  22  23
ENDBRANCH  21  22
ENDBRANCH  20  21
ENDBRANCH  19  20
ENDBRANCH  18  19
ENDBRANCH  17  18
ENDBRANCH   1  17
TORSDOF 26
ENDMDL
MODEL 9
REMARK VINA RESULT:    -3.513      9.224     14.130
REMARK INTER + INTRA:         -13.742
REMARK INTER:                  -8.932
REMARK INTRA:                  -4.810
REMARK UNBOUND:                -4.888
REMARK SMILES CCCCCCCCCCCCCCCCCCCCCCCCCCCC(=O)[O-]
REMARK SMILES IDX 15 1 16 2 17 3 18 4 19 5 20 6 21 7 22 8 23 9 24 10 25 11
REMARK SMILES IDX 26 12 27 13 28 14 29 15 30 16 14 17 13 18 12 19 11 20 10 21
REMARK SMILES IDX 9 22 8 23 7 24 6 25 5 26 4 27 3 28 2 29 1 30
REMARK H PARENT
REMARK Flexibility Score: inf
ROOT
ATOM      1  C   UNL     1     183.227 181.235 201.528  1.00  0.00     0.000 C 
ENDROOT
BRANCH   1   2
ATOM      2  C   UNL     1     184.346 180.194 201.689  1.00  0.00     0.000 C 
BRANCH   2   3
ATOM      3  C   UNL     1     184.686 179.478 200.371  1.00  0.00     0.000 C 
BRANCH   3   4
ATOM      4  C   UNL     1     185.942 180.052 199.685  1.00  0.00     0.000 C 
BRANCH   4   5
ATOM      5  C   UNL     1     186.691 181.137 200.487  1.00  0.00     0.000 C 
BRANCH   5   6
ATOM      6  C   UNL     1     186.740 182.528 199.822  1.00  0.00     0.000 C 
BRANCH   6   7
ATOM      7  C   UNL     1     185.802 182.694 198.609  1.00  0.00     0.000 C 
BRANCH   7   8
ATOM      8  C   UNL     1     184.575 183.591 198.862  1.00  0.00     0.000 C 
BRANCH   8   9
ATOM      9  C   UNL     1     184.798 185.097 198.607  1.00  0.00     0.000 C 
BRANCH   9  10
ATOM     10  C   UNL     1     184.951 185.961 199.874  1.00  0.00     0.000 C 
BRANCH  10  11
ATOM     11  C   UNL     1     186.170 186.897 199.816  1.00  0.00     0.000 C 
BRANCH  11  12
ATOM     12  C   UNL     1     185.906 188.260 200.476  1.00  0.00     0.006 C 
BRANCH  12  13
ATOM     13  C   UNL     1     186.394 189.441 199.626  1.00  0.00     0.053 C 
BRANCH  13  14
ATOM     14  C   UNL     1     187.703 189.953 200.140  1.00  0.00     0.041 C 
ATOM     15  O   UNL     1     188.685 190.082 199.359  1.00  0.00    -0.550 OA
ATOM     16  O   UNL     1     187.835 190.315 201.475  1.00  0.00    -0.550 OA
ENDBRANCH  13  14
ENDBRANCH  12  13
ENDBRANCH  11  12
ENDBRANCH  10  11
ENDBRANCH   9  10
ENDBRANCH   8   9
ENDBRANCH   7   8
ENDBRANCH   6   7
ENDBRANCH   5   6
ENDBRANCH   4   5
ENDBRANCH   3   4
ENDBRANCH   2   3
ENDBRANCH   1   2
BRANCH   1  17
ATOM     17  C   UNL     1     183.586 182.607 202.125  1.00  0.00     0.000 C 
BRANCH  17  18
ATOM     18  C   UNL     1     182.464 183.643 201.899  1.00  0.00     0.000 C 
BRANCH  18  19
ATOM     19  C   UNL     1     181.370 183.165 200.930  1.00  0.00     0.000 C 
BRANCH  19  20
ATOM     20  C   UNL     1     180.419 184.294 200.499  1.00  0.00     0.000 C 
BRANCH  20  21
ATOM     21  C   UNL     1     180.451 184.532 198.979  1.00  0.00     0.000 C 
BRANCH  21  22
ATOM     22  C   UNL     1     181.289 185.765 198.595  1.00  0.00    -0.000 C 
BRANCH  22  23
ATOM     23  C   UNL     1     181.413 186.777 199.756  1.00  0.00    -0.000 C 
BRANCH  23  24
ATOM     24  C   UNL     1     181.380 188.249 199.302  1.00  0.00    -0.000 C 
BRANCH  24  25
ATOM     25  C   UNL     1     182.748 188.837 198.919  1.00  0.00    -0.000 C 
BRANCH  25  26
ATOM     26  C   UNL     1     182.714 189.602 197.586  1.00  0.00    -0.000 C 
BRANCH  26  27
ATOM     27  C   UNL     1     183.103 188.683 196.419  1.00  0.00    -0.000 C 
BRANCH  27  28
ATOM     28  C   UNL     1     184.541 188.143 196.533  1.00  0.00    -0.000 C 
BRANCH  28  29
ATOM     29  C   UNL     1     184.924 187.095 195.472  1.00  0.00    -0.003 C 
ATOM     30  C   UNL     1     183.715 186.512 194.743  1.00  0.00     0.004 C 
ENDBRANCH  28  29
ENDBRANCH  27  28
ENDBRANCH  26  27
ENDBRANCH  25  26
ENDBRANCH  24  25
ENDBRANCH  23  24
ENDBRANCH  22  23
ENDBRANCH  21  22
ENDBRANCH  20  21
ENDBRANCH  19  20
ENDBRANCH  18  19
ENDBRANCH  17  18
ENDBRANCH   1  17
TORSDOF 26
ENDMDL
