MODEL 1
REMARK VINA RESULT:    -3.355      0.000      0.000
REMARK INTER + INTRA:          -7.303
REMARK INTER:                  -5.708
REMARK INTRA:                  -1.595
REMARK UNBOUND:                -1.595
REMARK SMILES CCCCCCCCCCCCCC(=O)[O-]
REMARK SMILES IDX 8 1 9 2 10 3 11 4 12 5 13 6 14 7 15 8 16 9 7 10 6 11 5 12
REMARK SMILES IDX 4 13 3 14 2 15 1 16
REMARK H PARENT
REMARK Flexibility Score: inf
ROOT
ATOM      1  C   UNL     1      -4.967  -6.405  -7.207  1.00  0.00     0.000 C 
ENDROOT
BRANCH   1   2
ATOM      2  C   UNL     1      -6.207  -6.440  -6.300  1.00  0.00     0.000 C 
BRANCH   2   3
ATOM      3  C   UNL     1      -7.470  -6.757  -7.110  1.00  0.00     0.000 C 
BRANCH   3   4
ATOM      4  C   UNL     1      -8.735  -6.530  -6.267  1.00  0.00     0.000 C 
BRANCH   4   5
ATOM      5  C   UNL     1      -9.912  -5.995  -7.098  1.00  0.00     0.006 C 
BRANCH   5   6
ATOM      6  C   UNL     1      -9.782  -4.500  -7.414  1.00  0.00     0.053 C 
BRANCH   6   7
ATOM      7  C   UNL     1      -9.925  -4.262  -8.884  1.00  0.00     0.041 C 
ATOM      8  O   UNL     1      -9.911  -5.233  -9.687  1.00  0.00    -0.550 OA
ATOM      9  O   UNL     1     -10.122  -2.974  -9.365  1.00  0.00    -0.550 OA
ENDBRANCH   6   7
ENDBRANCH   5   6
ENDBRANCH   4   5
ENDBRANCH   3   4
ENDBRANCH   2   3
ENDBRANCH   1   2
BRANCH   1  10
ATOM     10  C   UNL     1      -5.170  -7.182  -8.517  1.00  0.00     0.000 C 
BRANCH  10  11
ATOM     11  C   UNL     1      -4.102  -8.264  -8.736  1.00  0.00    -0.000 C 
BRANCH  11  12
ATOM     12  C   UNL     1      -4.511  -9.584  -8.071  1.00  0.00    -0.000 C 
BRANCH  12  13
ATOM     13  C   UNL     1      -3.726  -9.816  -6.771  1.00  0.00    -0.000 C 
BRANCH  13  14
ATOM     14  C   UNL     1      -4.637  -9.789  -5.526  1.00  0.00    -0.000 C 
BRANCH  14  15
ATOM     15  C   UNL     1      -6.106 -10.125  -5.831  1.00  0.00    -0.003 C 
ATOM     16  C   UNL     1      -7.065  -9.656  -4.740  1.00  0.00     0.004 C 
ENDBRANCH  14  15
ENDBRANCH  13  14
ENDBRANCH  12  13
ENDBRANCH  11  12
ENDBRANCH  10  11
ENDBRANCH   1  10
TORSDOF 12
ENDMDL
MODEL 2
REMARK VINA RESULT:    -2.877      3.380      6.547
REMARK INTER + INTRA:          -6.491
REMARK INTER:                  -5.217
REMARK INTRA:                  -1.274
REMARK UNBOUND:                -1.595
REMARK SMILES CCCCCCCCCCCCCC(=O)[O-]
REMARK SMILES IDX 8 1 9 2 10 3 11 4 12 5 13 6 14 7 15 8 16 9 7 10 6 11 5 12
REMARK SMILES IDX 4 13 3 14 2 15 1 16
REMARK H PARENT
REMARK Flexibility Score: inf
ROOT
ATOM      1  C   UNL     1      -5.767  -6.722  -6.749  1.00  0.00     0.000 C 
ENDROOT
BRANCH   1   2
ATOM      2  C   UNL     1      -4.597  -6.857  -7.735  1.00  0.00     0.000 C 
BRANCH   2   3
ATOM      3  C   UNL     1      -4.993  -7.716  -8.943  1.00  0.00     0.000 C 
BRANCH   3   4
ATOM      4  C   UNL     1      -4.124  -8.980  -9.026  1.00  0.00     0.000 C 
BRANCH   4   5
ATOM      5  C   UNL     1      -4.464 -10.005  -7.932  1.00  0.00     0.006 C 
BRANCH   5   6
ATOM      6  C   UNL     1      -3.392 -10.081  -6.839  1.00  0.00     0.053 C 
BRANCH   6   7
ATOM      7  C   UNL     1      -4.024 -10.028  -5.483  1.00  0.00     0.041 C 
ATOM      8  O   UNL     1      -5.275  -9.940  -5.371  1.00  0.00    -0.550 OA
ATOM      9  O   UNL     1      -3.235 -10.125  -4.343  1.00  0.00    -0.550 OA
ENDBRANCH   6   7
ENDBRANCH   5   6
ENDBRANCH   4   5
ENDBRANCH   3   4
ENDBRANCH   2   3
ENDBRANCH   1   2
BRANCH   1  10
ATOM     10  C   UNL     1      -7.001  -7.530  -7.180  1.00  0.00     0.000 C 
BRANCH  10  11
ATOM     11  C   UNL     1      -8.074  -7.604  -6.084  1.00  0.00    -0.000 C 
BRANCH  11  12
ATOM     12  C   UNL     1      -9.011  -6.391  -6.150  1.00  0.00    -0.000 C 
BRANCH  12  13
ATOM     13  C   UNL     1     -10.062  -6.564  -7.257  1.00  0.00    -0.000 C 
BRANCH  13  14
ATOM     14  C   UNL     1      -9.868  -5.556  -8.409  1.00  0.00    -0.000 C 
BRANCH  14  15
ATOM     15  C   UNL     1      -9.420  -6.208  -9.728  1.00  0.00    -0.003 C 
ATOM     16  C   UNL     1     -10.122  -7.534 -10.007  1.00  0.00     0.004 C 
ENDBRANCH  14  15
ENDBRANCH  13  14
ENDBRANCH  12  13
ENDBRANCH  11  12
ENDBRANCH  10  11
ENDBRANCH   1  10
TORSDOF 12
ENDMDL
MODEL 3
REMARK VINA RESULT:    -2.813      1.086      2.642
REMARK INTER + INTRA:          -6.381
REMARK INTER:                  -5.098
REMARK INTRA:                  -1.283
REMARK UNBOUND:                -1.595
REMARK SMILES CCCCCCCCCCCCCC(=O)[O-]
REMARK SMILES IDX 8 1 9 2 10 3 11 4 12 5 13 6 14 7 15 8 16 9 7 10 6 11 5 12
REMARK SMILES IDX 4 13 3 14 2 15 1 16
REMARK H PARENT
REMARK Flexibility Score: inf
ROOT
ATOM      1  C   UNL     1      -5.673  -7.741  -6.006  1.00  0.00     0.000 C 
ENDROOT
BRANCH   1   2
ATOM      2  C   UNL     1      -6.962  -6.912  -5.909  1.00  0.00     0.000 C 
BRANCH   2   3
ATOM      3  C   UNL     1      -8.201  -7.813  -5.991  1.00  0.00     0.000 C 
BRANCH   3   4
ATOM      4  C   UNL     1      -9.024  -7.503  -7.251  1.00  0.00     0.000 C 
BRANCH   4   5
ATOM      5  C   UNL     1     -10.125  -6.460  -6.996  1.00  0.00     0.006 C 
BRANCH   5   6
ATOM      6  C   UNL     1      -9.635  -5.021  -7.200  1.00  0.00     0.053 C 
BRANCH   6   7
ATOM      7  C   UNL     1      -9.957  -4.551  -8.583  1.00  0.00     0.041 C 
ATOM      8  O   UNL     1     -10.034  -3.319  -8.832  1.00  0.00    -0.550 OA
ATOM      9  O   UNL     1     -10.125  -5.472  -9.610  1.00  0.00    -0.550 OA
ENDBRANCH   6   7
ENDBRANCH   5   6
ENDBRANCH   4   5
ENDBRANCH   3   4
ENDBRANCH   2   3
ENDBRANCH   1   2
BRANCH   1  10
ATOM     10  C   UNL     1      -5.920  -9.245  -5.816  1.00  0.00     0.000 C 
BRANCH  10  11
ATOM     11  C   UNL     1      -4.699 -10.098  -6.192  1.00  0.00    -0.000 C 
BRANCH  11  12
ATOM     12  C   UNL     1      -3.708  -9.295  -7.043  1.00  0.00    -0.000 C 
BRANCH  12  13
ATOM     13  C   UNL     1      -3.979  -9.493  -8.542  1.00  0.00    -0.000 C 
BRANCH  13  14
ATOM     14  C   UNL     1      -4.043  -8.153  -9.305  1.00  0.00    -0.000 C 
BRANCH  14  15
ATOM     15  C   UNL     1      -5.441  -7.824  -9.855  1.00  0.00    -0.003 C 
ATOM     16  C   UNL     1      -6.474  -8.904  -9.546  1.00  0.00     0.004 C 
ENDBRANCH  14  15
ENDBRANCH  13  14
ENDBRANCH  12  13
ENDBRANCH  11  12
ENDBRANCH  10  11
ENDBRANCH   1  10
TORSDOF 12
ENDMDL
MODEL 4
REMARK VINA RESULT:    -2.795      1.763      2.319
REMARK INTER + INTRA:          -6.350
REMARK INTER:                  -4.846
REMARK INTRA:                  -1.504
REMARK UNBOUND:                -1.595
REMARK SMILES CCCCCCCCCCCCCC(=O)[O-]
REMARK SMILES IDX 8 1 9 2 10 3 11 4 12 5 13 6 14 7 15 8 16 9 7 10 6 11 5 12
REMARK SMILES IDX 4 13 3 14 2 15 1 16
REMARK H PARENT
REMARK Flexibility Score: inf
ROOT
ATOM      1  C   UNL     1      -5.109  -6.234  -7.190  1.00  0.00     0.000 C 
ENDROOT
BRANCH   1   2
ATOM      2  C   UNL     1      -5.475  -6.860  -5.836  1.00  0.00     0.000 C 
BRANCH   2   3
ATOM      3  C   UNL     1      -6.841  -7.555  -5.905  1.00  0.00     0.000 C 
BRANCH   3   4
ATOM      4  C   UNL     1      -7.746  -6.889  -6.953  1.00  0.00     0.000 C 
BRANCH   4   5
ATOM      5  C   UNL     1      -9.058  -6.360  -6.351  1.00  0.00     0.006 C 
BRANCH   5   6
ATOM      6  C   UNL     1     -10.125  -6.077  -7.415  1.00  0.00     0.053 C 
BRANCH   6   7
ATOM      7  C   UNL     1      -9.744  -4.882  -8.231  1.00  0.00     0.041 C 
ATOM      8  O   UNL     1      -9.359  -3.825  -7.664  1.00  0.00    -0.550 OA
ATOM      9  O   UNL     1      -9.767  -4.950  -9.618  1.00  0.00    -0.550 OA
ENDBRANCH   6   7
ENDBRANCH   5   6
ENDBRANCH   4   5
ENDBRANCH   3   4
ENDBRANCH   2   3
ENDBRANCH   1   2
BRANCH   1  10
ATOM     10  C   UNL     1      -4.098  -7.080  -7.979  1.00  0.00     0.000 C 
BRANCH  10  11
ATOM     11  C   UNL     1      -4.683  -7.638  -9.285  1.00  0.00    -0.000 C 
BRANCH  11  12
ATOM     12  C   UNL     1      -4.202  -9.073  -9.534  1.00  0.00    -0.000 C 
BRANCH  12  13
ATOM     13  C   UNL     1      -5.382 -10.007  -9.840  1.00  0.00    -0.000 C 
BRANCH  13  14
ATOM     14  C   UNL     1      -6.515  -9.875  -8.801  1.00  0.00    -0.000 C 
BRANCH  14  15
ATOM     15  C   UNL     1      -7.915  -9.757  -9.429  1.00  0.00    -0.003 C 
ATOM     16  C   UNL     1      -9.037 -10.110  -8.456  1.00  0.00     0.004 C 
ENDBRANCH  14  15
ENDBRANCH  13  14
ENDBRANCH  12  13
ENDBRANCH  11  12
ENDBRANCH  10  11
ENDBRANCH   1  10
TORSDOF 12
ENDMDL
MODEL 5
REMARK VINA RESULT:    -2.727      1.711      2.607
REMARK INTER + INTRA:          -6.236
REMARK INTER:                  -4.613
REMARK INTRA:                  -1.623
REMARK UNBOUND:                -1.595
REMARK SMILES CCCCCCCCCCCCCC(=O)[O-]
REMARK SMILES IDX 8 1 9 2 10 3 11 4 12 5 13 6 14 7 15 8 16 9 7 10 6 11 5 12
REMARK SMILES IDX 4 13 3 14 2 15 1 16
REMARK H PARENT
REMARK Flexibility Score: inf
ROOT
ATOM      1  C   UNL     1      -6.295  -6.759  -6.896  1.00  0.00     0.000 C 
ENDROOT
BRANCH   1   2
ATOM      2  C   UNL     1      -6.312  -7.632  -5.632  1.00  0.00     0.000 C 
BRANCH   2   3
ATOM      3  C   UNL     1      -7.658  -8.352  -5.481  1.00  0.00     0.000 C 
BRANCH   3   4
ATOM      4  C   UNL     1      -7.944  -9.244  -6.698  1.00  0.00     0.000 C 
BRANCH   4   5
ATOM      5  C   UNL     1      -9.405  -9.152  -7.169  1.00  0.00     0.006 C 
BRANCH   5   6
ATOM      6  C   UNL     1     -10.040  -7.790  -6.863  1.00  0.00     0.053 C 
BRANCH   6   7
ATOM      7  C   UNL     1      -9.864  -6.860  -8.022  1.00  0.00     0.041 C 
ATOM      8  O   UNL     1     -10.115  -7.251  -9.192  1.00  0.00    -0.550 OA
ATOM      9  O   UNL     1      -9.470  -5.545  -7.806  1.00  0.00    -0.550 OA
ENDBRANCH   6   7
ENDBRANCH   5   6
ENDBRANCH   4   5
ENDBRANCH   3   4
ENDBRANCH   2   3
ENDBRANCH   1   2
BRANCH   1  10
ATOM     10  C   UNL     1      -4.887  -6.249  -7.244  1.00  0.00     0.000 C 
BRANCH  10  11
ATOM     11  C   UNL     1      -4.194  -7.106  -8.313  1.00  0.00    -0.000 C 
BRANCH  11  12
ATOM     12  C   UNL     1      -5.221  -7.890  -9.140  1.00  0.00    -0.000 C 
BRANCH  12  13
ATOM     13  C   UNL     1      -4.791  -9.355  -9.309  1.00  0.00    -0.000 C 
BRANCH  13  14
ATOM     14  C   UNL     1      -4.695 -10.096  -7.959  1.00  0.00    -0.000 C 
BRANCH  14  15
ATOM     15  C   UNL     1      -3.275 -10.124  -7.371  1.00  0.00    -0.003 C 
ATOM     16  C   UNL     1      -3.246  -9.880  -5.865  1.00  0.00     0.004 C 
ENDBRANCH  14  15
ENDBRANCH  13  14
ENDBRANCH  12  13
ENDBRANCH  11  12
ENDBRANCH  10  11
ENDBRANCH   1  10
TORSDOF 12
ENDMDL
MODEL 6
REMARK VINA RESULT:    -2.580      2.224      2.853
REMARK INTER + INTRA:          -5.985
REMARK INTER:                  -4.661
REMARK INTRA:                  -1.324
REMARK UNBOUND:                -1.595
REMARK SMILES CCCCCCCCCCCCCC(=O)[O-]
REMARK SMILES IDX 8 1 9 2 10 3 11 4 12 5 13 6 14 7 15 8 16 9 7 10 6 11 5 12
REMARK SMILES IDX 4 13 3 14 2 15 1 16
REMARK H PARENT
REMARK Flexibility Score: inf
ROOT
ATOM      1  C   UNL     1      -6.321  -6.585  -7.436  1.00  0.00     0.000 C 
ENDROOT
BRANCH   1   2
ATOM      2  C   UNL     1      -7.030  -7.431  -6.369  1.00  0.00     0.000 C 
BRANCH   2   3
ATOM      3  C   UNL     1      -8.394  -6.828  -6.008  1.00  0.00     0.000 C 
BRANCH   3   4
ATOM      4  C   UNL     1      -8.986  -6.056  -7.197  1.00  0.00     0.000 C 
BRANCH   4   5
ATOM      5  C   UNL     1     -10.062  -6.857  -7.947  1.00  0.00     0.006 C 
BRANCH   5   6
ATOM      6  C   UNL     1      -9.718  -7.071  -9.426  1.00  0.00     0.053 C 
BRANCH   6   7
ATOM      7  C   UNL     1      -9.233  -8.468  -9.652  1.00  0.00     0.041 C 
ATOM      8  O   UNL     1      -8.069  -8.672 -10.085  1.00  0.00    -0.550 OA
ATOM      9  O   UNL     1     -10.050  -9.548  -9.338  1.00  0.00    -0.550 OA
ENDBRANCH   6   7
ENDBRANCH   5   6
ENDBRANCH   4   5
ENDBRANCH   3   4
ENDBRANCH   2   3
ENDBRANCH   1   2
BRANCH   1  10
ATOM     10  C   UNL     1      -4.818  -6.422  -7.160  1.00  0.00     0.000 C 
BRANCH  10  11
ATOM     11  C   UNL     1      -3.945  -7.195  -8.160  1.00  0.00    -0.000 C 
BRANCH  11  12
ATOM     12  C   UNL     1      -4.809  -7.922  -9.198  1.00  0.00    -0.000 C 
BRANCH  12  13
ATOM     13  C   UNL     1      -4.511  -9.428  -9.209  1.00  0.00    -0.000 C 
BRANCH  13  14
ATOM     14  C   UNL     1      -4.962 -10.122  -7.907  1.00  0.00    -0.000 C 
BRANCH  14  15
ATOM     15  C   UNL     1      -3.890 -10.123  -6.805  1.00  0.00    -0.003 C 
ATOM     16  C   UNL     1      -4.477 -10.038  -5.399  1.00  0.00     0.004 C 
ENDBRANCH  14  15
ENDBRANCH  13  14
ENDBRANCH  12  13
ENDBRANCH  11  12
ENDBRANCH  10  11
ENDBRANCH   1  10
TORSDOF 12
ENDMDL
MODEL 7
REMARK VINA RESULT:    -2.458      3.088      4.168
REMARK INTER + INTRA:          -5.777
REMARK INTER:                  -4.278
REMARK INTRA:                  -1.499
REMARK UNBOUND:                -1.595
REMARK SMILES CCCCCCCCCCCCCC(=O)[O-]
REMARK SMILES IDX 8 1 9 2 10 3 11 4 12 5 13 6 14 7 15 8 16 9 7 10 6 11 5 12
REMARK SMILES IDX 4 13 3 14 2 15 1 16
REMARK H PARENT
REMARK Flexibility Score: inf
ROOT
ATOM      1  C   UNL     1      -7.664  -8.472  -9.151  1.00  0.00     0.000 C 
ENDROOT
BRANCH   1   2
ATOM      2  C   UNL     1      -8.851  -7.687  -9.728  1.00  0.00     0.000 C 
BRANCH   2   3
ATOM      3  C   UNL     1      -9.745  -7.140  -8.608  1.00  0.00     0.000 C 
BRANCH   3   4
ATOM      4  C   UNL     1      -8.910  -6.758  -7.376  1.00  0.00     0.000 C 
BRANCH   4   5
ATOM      5  C   UNL     1      -9.524  -7.273  -6.063  1.00  0.00     0.006 C 
BRANCH   5   6
ATOM      6  C   UNL     1     -10.124  -8.677  -6.202  1.00  0.00     0.053 C 
BRANCH   6   7
ATOM      7  C   UNL     1      -9.294  -9.675  -5.458  1.00  0.00     0.041 C 
ATOM      8  O   UNL     1      -8.219 -10.102  -5.956  1.00  0.00    -0.550 OA
ATOM      9  O   UNL     1      -9.681 -10.098  -4.193  1.00  0.00    -0.550 OA
ENDBRANCH   6   7
ENDBRANCH   5   6
ENDBRANCH   4   5
ENDBRANCH   3   4
ENDBRANCH   2   3
ENDBRANCH   1   2
BRANCH   1  10
ATOM     10  C   UNL     1      -6.479  -8.555 -10.125  1.00  0.00     0.000 C 
BRANCH  10  11
ATOM     11  C   UNL     1      -5.393  -7.511  -9.828  1.00  0.00    -0.000 C 
BRANCH  11  12
ATOM     12  C   UNL     1      -4.107  -8.181  -9.329  1.00  0.00    -0.000 C 
BRANCH  12  13
ATOM     13  C   UNL     1      -3.766  -7.730  -7.901  1.00  0.00    -0.000 C 
BRANCH  13  14
ATOM     14  C   UNL     1      -4.555  -6.472  -7.482  1.00  0.00    -0.000 C 
BRANCH  14  15
ATOM     15  C   UNL     1      -5.385  -6.663  -6.201  1.00  0.00    -0.003 C 
ATOM     16  C   UNL     1      -5.848  -8.103  -5.998  1.00  0.00     0.004 C 
ENDBRANCH  14  15
ENDBRANCH  13  14
ENDBRANCH  12  13
ENDBRANCH  11  12
ENDBRANCH  10  11
ENDBRANCH   1  10
TORSDOF 12
ENDMDL
MODEL 8
REMARK VINA RESULT:    -2.323      2.927      6.002
REMARK INTER + INTRA:          -5.548
REMARK INTER:                  -4.491
REMARK INTRA:                  -1.058
REMARK UNBOUND:                -1.595
REMARK SMILES CCCCCCCCCCCCCC(=O)[O-]
REMARK SMILES IDX 8 1 9 2 10 3 11 4 12 5 13 6 14 7 15 8 16 9 7 10 6 11 5 12
REMARK SMILES IDX 4 13 3 14 2 15 1 16
REMARK H PARENT
REMARK Flexibility Score: inf
ROOT
ATOM      1  C   UNL     1      -8.228  -7.570  -9.078  1.00  0.00     0.000 C 
ENDROOT
BRANCH   1   2
ATOM      2  C   UNL     1      -7.173  -8.067 -10.076  1.00  0.00     0.000 C 
BRANCH   2   3
ATOM      3  C   UNL     1      -6.842  -9.546  -9.835  1.00  0.00     0.000 C 
BRANCH   3   4
ATOM      4  C   UNL     1      -5.613  -9.692  -8.924  1.00  0.00     0.000 C 
BRANCH   4   5
ATOM      5  C   UNL     1      -5.989 -10.031  -7.472  1.00  0.00     0.006 C 
BRANCH   5   6
ATOM      6  C   UNL     1      -5.635  -8.905  -6.492  1.00  0.00     0.053 C 
BRANCH   6   7
ATOM      7  C   UNL     1      -4.578  -8.020  -7.074  1.00  0.00     0.041 C 
ATOM      8  O   UNL     1      -3.376  -8.397  -7.094  1.00  0.00    -0.550 OA
ATOM      9  O   UNL     1      -4.925  -6.800  -7.639  1.00  0.00    -0.550 OA
ENDBRANCH   6   7
ENDBRANCH   5   6
ENDBRANCH   4   5
ENDBRANCH   3   4
ENDBRANCH   2   3
ENDBRANCH   1   2
BRANCH   1  10
ATOM     10  C   UNL     1      -9.001  -8.719  -8.411  1.00  0.00     0.000 C 
BRANCH  10  11
ATOM     11  C   UNL     1      -9.927  -8.236  -7.285  1.00  0.00    -0.000 C 
BRANCH  11  12
ATOM     12  C   UNL     1      -9.118  -7.795  -6.059  1.00  0.00    -0.000 C 
BRANCH  12  13
ATOM     13  C   UNL     1      -8.985  -6.265  -6.006  1.00  0.00    -0.000 C 
BRANCH  13  14
ATOM     14  C   UNL     1     -10.125  -5.553  -6.763  1.00  0.00    -0.000 C 
BRANCH  14  15
ATOM     15  C   UNL     1      -9.766  -4.129  -7.220  1.00  0.00    -0.003 C 
ATOM     16  C   UNL     1     -10.071  -3.880  -8.695  1.00  0.00     0.004 C 
ENDBRANCH  14  15
ENDBRANCH  13  14
ENDBRANCH  12  13
ENDBRANCH  11  12
ENDBRANCH  10  11
ENDBRANCH   1  10
TORSDOF 12
ENDMDL
MODEL 9
REMARK VINA RESULT:    -2.313      3.028      5.529
REMARK INTER + INTRA:          -5.531
REMARK INTER:                  -3.981
REMARK INTRA:                  -1.550
REMARK UNBOUND:                -1.595
REMARK SMILES CCCCCCCCCCCCCC(=O)[O-]
REMARK SMILES IDX 8 1 9 2 10 3 11 4 12 5 13 6 14 7 15 8 16 9 7 10 6 11 5 12
REMARK SMILES IDX 4 13 3 14 2 15 1 16
REMARK H PARENT
REMARK Flexibility Score: inf
ROOT
ATOM      1  C   UNL     1      -8.218  -6.789  -6.003  1.00  0.00     0.000 C 
ENDROOT
BRANCH   1   2
ATOM      2  C   UNL     1      -6.765  -7.117  -5.629  1.00  0.00     0.000 C 
BRANCH   2   3
ATOM      3  C   UNL     1      -6.527  -8.632  -5.629  1.00  0.00     0.000 C 
BRANCH   3   4
ATOM      4  C   UNL     1      -5.323  -8.999  -6.511  1.00  0.00     0.000 C 
BRANCH   4   5
ATOM      5  C   UNL     1      -5.710  -9.900  -7.695  1.00  0.00     0.006 C 
BRANCH   5   6
ATOM      6  C   UNL     1      -4.752  -9.759  -8.884  1.00  0.00     0.053 C 
BRANCH   6   7
ATOM      7  C   UNL     1      -4.512  -8.314  -9.192  1.00  0.00     0.041 C 
ATOM      8  O   UNL     1      -3.358  -7.824  -9.072  1.00  0.00    -0.550 OA
ATOM      9  O   UNL     1      -5.552  -7.520  -9.658  1.00  0.00    -0.550 OA
ENDBRANCH   6   7
ENDBRANCH   5   6
ENDBRANCH   4   5
ENDBRANCH   3   4
ENDBRANCH   2   3
ENDBRANCH   1   2
BRANCH   1  10
ATOM     10  C   UNL     1      -8.369  -6.356  -7.469  1.00  0.00     0.000 C 
BRANCH  10  11
ATOM     11  C   UNL     1      -9.837  -6.198  -7.893  1.00  0.00    -0.000 C 
BRANCH  11  12
ATOM     12  C   UNL     1      -9.969  -6.175  -9.421  1.00  0.00    -0.000 C 
BRANCH  12  13
ATOM     13  C   UNL     1      -9.084  -7.249 -10.069  1.00  0.00    -0.000 C 
BRANCH  13  14
ATOM     14  C   UNL     1      -9.781  -8.625 -10.125  1.00  0.00    -0.000 C 
BRANCH  14  15
ATOM     15  C   UNL     1      -9.019  -9.732  -9.376  1.00  0.00    -0.003 C 
ATOM     16  C   UNL     1      -9.479  -9.899  -7.930  1.00  0.00     0.004 C 
ENDBRANCH  14  15
ENDBRANCH  13  14
ENDBRANCH  12  13
ENDBRANCH  11  12
ENDBRANCH  10  11
ENDBRANCH   1  10
TORSDOF 12
ENDMDL
