MODEL 1
REMARK VINA RESULT:    -4.923      0.000      0.000
REMARK INTER + INTRA:          -5.919
REMARK INTER:                  -5.786
REMARK INTRA:                  -0.133
REMARK UNBOUND:                -0.133
REMARK SMILES O=C([O-])C=Cc1ccc(O)c(O)c1
REMARK SMILES IDX 6 1 13 2 7 3 11 4 8 5 9 6 5 7 4 8 2 9 1 10 3 11 12 12 10 14
REMARK H PARENT 12 13 10 15
REMARK Flexibility Score: inf
ROOT
ATOM      1  C   UNL     1       4.069 -15.910  14.918  1.00  0.00    -0.022 A 
ATOM      2  C   UNL     1       2.708 -15.666  14.673  1.00  0.00     0.058 A 
ATOM      3  C   UNL     1       4.869 -14.863  15.417  1.00  0.00     0.012 A 
ATOM      4  C   UNL     1       2.155 -14.397  14.895  1.00  0.00     0.157 A 
ATOM      5  C   UNL     1       4.318 -13.597  15.639  1.00  0.00     0.051 A 
ATOM      6  C   UNL     1       2.966 -13.357  15.378  1.00  0.00     0.157 A 
ENDROOT
BRANCH   1   7
ATOM      7  C   UNL     1       4.602 -17.275  14.676  1.00  0.00     0.010 C 
ATOM      8  C   UNL     1       5.583 -17.547  13.805  1.00  0.00     0.025 C 
BRANCH   8   9
ATOM      9  C   UNL     1       6.072 -18.919  13.589  1.00  0.00     0.064 C 
ATOM     10  O   UNL     1       5.529 -19.875  14.200  1.00  0.00    -0.545 OA
ATOM     11  O   UNL     1       7.125 -19.176  12.719  1.00  0.00    -0.545 OA
ENDBRANCH   8   9
ENDBRANCH   1   7
BRANCH   4  12
ATOM     12  O   UNL     1       0.805 -14.166  14.638  1.00  0.00    -0.504 OA
ATOM     13  H   UNL     1       0.173 -13.846  15.363  1.00  0.00     0.293 HD
ENDBRANCH   4  12
BRANCH   6  14
ATOM     14  O   UNL     1       2.447 -12.084  15.609  1.00  0.00    -0.504 OA
ATOM     15  H   UNL     1       2.247 -11.745  16.542  1.00  0.00     0.293 HD
ENDBRANCH   6  14
TORSDOF 4
ENDMDL
MODEL 2
REMARK VINA RESULT:    -4.286      0.863      1.906
REMARK INTER + INTRA:          -5.171
REMARK INTER:                  -5.036
REMARK INTRA:                  -0.135
REMARK UNBOUND:                -0.133
REMARK SMILES O=C([O-])C=Cc1ccc(O)c(O)c1
REMARK SMILES IDX 6 1 13 2 7 3 11 4 8 5 9 6 5 7 4 8 2 9 1 10 3 11 12 12 10 14
REMARK H PARENT 12 13 10 15
REMARK Flexibility Score: inf
ROOT
ATOM      1  C   UNL     1       3.845 -15.833  14.762  1.00  0.00    -0.022 A 
ATOM      2  C   UNL     1       4.765 -14.805  15.026  1.00  0.00     0.058 A 
ATOM      3  C   UNL     1       2.467 -15.540  14.805  1.00  0.00     0.012 A 
ATOM      4  C   UNL     1       4.326 -13.515  15.353  1.00  0.00     0.157 A 
ATOM      5  C   UNL     1       2.029 -14.253  15.131  1.00  0.00     0.051 A 
ATOM      6  C   UNL     1       2.950 -13.239  15.408  1.00  0.00     0.157 A 
ENDROOT
BRANCH   1   7
ATOM      7  C   UNL     1       4.364 -17.179  14.410  1.00  0.00     0.010 C 
ATOM      8  C   UNL     1       5.612 -17.405  13.978  1.00  0.00     0.025 C 
BRANCH   8   9
ATOM      9  C   UNL     1       6.080 -18.756  13.629  1.00  0.00     0.064 C 
ATOM     10  O   UNL     1       5.515 -19.760  14.136  1.00  0.00    -0.545 OA
ATOM     11  O   UNL     1       7.137 -18.944  12.746  1.00  0.00    -0.545 OA
ENDBRANCH   8   9
ENDBRANCH   1   7
BRANCH   4  12
ATOM     12  O   UNL     1       5.250 -12.507  15.623  1.00  0.00    -0.504 OA
ATOM     13  H   UNL     1       5.556 -11.860  14.905  1.00  0.00     0.293 HD
ENDBRANCH   4  12
BRANCH   6  14
ATOM     14  O   UNL     1       2.480 -11.967  15.731  1.00  0.00    -0.504 OA
ATOM     15  H   UNL     1       2.768 -11.485  16.575  1.00  0.00     0.293 HD
ENDBRANCH   6  14
TORSDOF 4
ENDMDL
MODEL 3
REMARK VINA RESULT:    -4.233      2.940      5.636
REMARK INTER + INTRA:          -5.109
REMARK INTER:                  -4.977
REMARK INTRA:                  -0.132
REMARK UNBOUND:                -0.133
REMARK SMILES O=C([O-])C=Cc1ccc(O)c(O)c1
REMARK SMILES IDX 6 1 13 2 7 3 11 4 8 5 9 6 5 7 4 8 2 9 1 10 3 11 12 12 10 14
REMARK H PARENT 12 13 10 15
REMARK Flexibility Score: inf
ROOT
ATOM      1  C   UNL     1       4.591 -13.337  14.594  1.00  0.00    -0.022 A 
ATOM      2  C   UNL     1       3.242 -13.726  14.608  1.00  0.00     0.058 A 
ATOM      3  C   UNL     1       5.586 -14.325  14.741  1.00  0.00     0.012 A 
ATOM      4  C   UNL     1       2.884 -15.069  14.790  1.00  0.00     0.157 A 
ATOM      5  C   UNL     1       5.229 -15.665  14.922  1.00  0.00     0.051 A 
ATOM      6  C   UNL     1       3.884 -16.043  14.951  1.00  0.00     0.157 A 
ENDROOT
BRANCH   1   7
ATOM      7  C   UNL     1       4.916 -11.903  14.387  1.00  0.00     0.010 C 
ATOM      8  C   UNL     1       5.568 -11.435  13.314  1.00  0.00     0.025 C 
BRANCH   8   9
ATOM      9  C   UNL     1       5.879 -10.005  13.156  1.00  0.00     0.064 C 
ATOM     10  O   UNL     1       5.106  -9.143  13.649  1.00  0.00    -0.545 OA
ATOM     11  O   UNL     1       7.014  -9.589  12.470  1.00  0.00    -0.545 OA
ENDBRANCH   8   9
ENDBRANCH   1   7
BRANCH   4  12
ATOM     12  O   UNL     1       1.540 -15.440  14.812  1.00  0.00    -0.504 OA
ATOM     13  H   UNL     1       1.141 -15.941  15.597  1.00  0.00     0.293 HD
ENDBRANCH   4  12
BRANCH   6  14
ATOM     14  O   UNL     1       3.561 -17.386  15.135  1.00  0.00    -0.504 OA
ATOM     15  H   UNL     1       4.113 -18.132  14.729  1.00  0.00     0.293 HD
ENDBRANCH   6  14
TORSDOF 4
ENDMDL
MODEL 4
REMARK VINA RESULT:    -4.160      2.747      6.066
REMARK INTER + INTRA:          -5.023
REMARK INTER:                  -4.895
REMARK INTRA:                  -0.128
REMARK UNBOUND:                -0.133
REMARK SMILES O=C([O-])C=Cc1ccc(O)c(O)c1
REMARK SMILES IDX 6 1 13 2 7 3 11 4 8 5 9 6 5 7 4 8 2 9 1 10 3 11 12 12 10 14
REMARK H PARENT 12 13 10 15
REMARK Flexibility Score: inf
ROOT
ATOM      1  C   UNL     1       4.332 -13.643  14.606  1.00  0.00    -0.022 A 
ATOM      2  C   UNL     1       5.483 -14.430  14.774  1.00  0.00     0.058 A 
ATOM      3  C   UNL     1       3.073 -14.274  14.588  1.00  0.00     0.012 A 
ATOM      4  C   UNL     1       5.388 -15.824  14.897  1.00  0.00     0.157 A 
ATOM      5  C   UNL     1       2.977 -15.663  14.710  1.00  0.00     0.051 A 
ATOM      6  C   UNL     1       4.127 -16.443  14.862  1.00  0.00     0.157 A 
ENDROOT
BRANCH   1   7
ATOM      7  C   UNL     1       4.489 -12.171  14.492  1.00  0.00     0.010 C 
ATOM      8  C   UNL     1       5.333 -11.576  13.638  1.00  0.00     0.025 C 
BRANCH   8   9
ATOM      9  C   UNL     1       5.464 -10.112  13.567  1.00  0.00     0.064 C 
ATOM     10  O   UNL     1       6.527  -9.604  13.124  1.00  0.00    -0.545 OA
ATOM     11  O   UNL     1       4.432  -9.279  13.982  1.00  0.00    -0.545 OA
ENDBRANCH   8   9
ENDBRANCH   1   7
BRANCH   4  12
ATOM     12  O   UNL     1       6.539 -16.594  15.053  1.00  0.00    -0.504 OA
ATOM     13  H   UNL     1       6.986 -16.703  15.955  1.00  0.00     0.293 HD
ENDBRANCH   4  12
BRANCH   6  14
ATOM     14  O   UNL     1       3.998 -17.826  14.980  1.00  0.00    -0.504 OA
ATOM     15  H   UNL     1       3.364 -18.252  15.644  1.00  0.00     0.293 HD
ENDBRANCH   6  14
TORSDOF 4
ENDMDL
MODEL 5
REMARK VINA RESULT:    -4.104     13.076     14.401
REMARK INTER + INTRA:          -4.957
REMARK INTER:                  -4.821
REMARK INTRA:                  -0.136
REMARK UNBOUND:                -0.133
REMARK SMILES O=C([O-])C=Cc1ccc(O)c(O)c1
REMARK SMILES IDX 6 1 13 2 7 3 11 4 8 5 9 6 5 7 4 8 2 9 1 10 3 11 12 12 10 14
REMARK H PARENT 12 13 10 15
REMARK Flexibility Score: inf
ROOT
ATOM      1  C   UNL     1       2.641 -23.993   3.102  1.00  0.00    -0.022 A 
ATOM      2  C   UNL     1       3.411 -22.991   3.713  1.00  0.00     0.058 A 
ATOM      3  C   UNL     1       2.956 -24.384   1.785  1.00  0.00     0.012 A 
ATOM      4  C   UNL     1       4.459 -22.367   3.021  1.00  0.00     0.157 A 
ATOM      5  C   UNL     1       4.001 -23.764   1.094  1.00  0.00     0.051 A 
ATOM      6  C   UNL     1       4.753 -22.755   1.703  1.00  0.00     0.157 A 
ENDROOT
BRANCH   1   7
ATOM      7  C   UNL     1       1.550 -24.628   3.883  1.00  0.00     0.010 C 
ATOM      8  C   UNL     1       1.447 -24.549   5.217  1.00  0.00     0.025 C 
BRANCH   8   9
ATOM      9  C   UNL     1       0.353 -25.204   5.952  1.00  0.00     0.064 C 
ATOM     10  O   UNL     1      -0.537 -25.826   5.316  1.00  0.00    -0.545 OA
ATOM     11  O   UNL     1       0.287 -25.148   7.340  1.00  0.00    -0.545 OA
ENDBRANCH   8   9
ENDBRANCH   1   7
BRANCH   4  12
ATOM     12  O   UNL     1       5.208 -21.366   3.636  1.00  0.00    -0.504 OA
ATOM     13  H   UNL     1       5.983 -21.585   4.251  1.00  0.00     0.293 HD
ENDBRANCH   4  12
BRANCH   6  14
ATOM     14  O   UNL     1       5.788 -22.155   0.987  1.00  0.00    -0.504 OA
ATOM     15  H   UNL     1       6.713 -22.562   0.936  1.00  0.00     0.293 HD
ENDBRANCH   6  14
TORSDOF 4
ENDMDL
MODEL 6
REMARK VINA RESULT:    -4.083      1.312      5.989
REMARK INTER + INTRA:          -4.932
REMARK INTER:                  -4.800
REMARK INTRA:                  -0.132
REMARK UNBOUND:                -0.133
REMARK SMILES O=C([O-])C=Cc1ccc(O)c(O)c1
REMARK SMILES IDX 6 1 13 2 7 3 11 4 8 5 9 6 5 7 4 8 2 9 1 10 3 11 12 12 10 14
REMARK H PARENT 12 13 10 15
REMARK Flexibility Score: inf
ROOT
ATOM      1  C   UNL     1       4.502 -17.589  15.253  1.00  0.00    -0.022 A 
ATOM      2  C   UNL     1       5.097 -17.812  14.001  1.00  0.00     0.058 A 
ATOM      3  C   UNL     1       4.893 -18.390  16.345  1.00  0.00     0.012 A 
ATOM      4  C   UNL     1       6.046 -18.830  13.829  1.00  0.00     0.157 A 
ATOM      5  C   UNL     1       5.839 -19.405  16.173  1.00  0.00     0.051 A 
ATOM      6  C   UNL     1       6.416 -19.632  14.921  1.00  0.00     0.157 A 
ENDROOT
BRANCH   1   7
ATOM      7  C   UNL     1       3.511 -16.491  15.383  1.00  0.00     0.010 C 
ATOM      8  C   UNL     1       3.442 -15.448  14.546  1.00  0.00     0.025 C 
BRANCH   8   9
ATOM      9  C   UNL     1       2.449 -14.375  14.720  1.00  0.00     0.064 C 
ATOM     10  O   UNL     1       1.282 -14.530  14.275  1.00  0.00    -0.545 OA
ATOM     11  O   UNL     1       2.779 -13.192  15.370  1.00  0.00    -0.545 OA
ENDBRANCH   8   9
ENDBRANCH   1   7
BRANCH   4  12
ATOM     12  O   UNL     1       6.621 -19.048  12.578  1.00  0.00    -0.504 OA
ATOM     13  H   UNL     1       6.669 -18.314  11.881  1.00  0.00     0.293 HD
ENDBRANCH   4  12
BRANCH   6  14
ATOM     14  O   UNL     1       7.356 -20.653  14.783  1.00  0.00    -0.504 OA
ATOM     15  H   UNL     1       7.473 -21.374  15.483  1.00  0.00     0.293 HD
ENDBRANCH   6  14
TORSDOF 4
ENDMDL
MODEL 7
REMARK VINA RESULT:    -4.058      3.563      5.197
REMARK INTER + INTRA:          -4.903
REMARK INTER:                  -4.771
REMARK INTRA:                  -0.132
REMARK UNBOUND:                -0.133
REMARK SMILES O=C([O-])C=Cc1ccc(O)c(O)c1
REMARK SMILES IDX 6 1 13 2 7 3 11 4 8 5 9 6 5 7 4 8 2 9 1 10 3 11 12 12 10 14
REMARK H PARENT 12 13 10 15
REMARK Flexibility Score: inf
ROOT
ATOM      1  C   UNL     1       4.281 -11.737  14.651  1.00  0.00    -0.022 A 
ATOM      2  C   UNL     1       5.180 -11.770  13.573  1.00  0.00     0.058 A 
ATOM      3  C   UNL     1       4.035 -10.508  15.295  1.00  0.00     0.012 A 
ATOM      4  C   UNL     1       5.844 -10.607  13.156  1.00  0.00     0.157 A 
ATOM      5  C   UNL     1       4.697  -9.348  14.880  1.00  0.00     0.051 A 
ATOM      6  C   UNL     1       5.603  -9.391  13.816  1.00  0.00     0.157 A 
ENDROOT
BRANCH   1   7
ATOM      7  C   UNL     1       3.596 -12.994  15.043  1.00  0.00     0.010 C 
ATOM      8  C   UNL     1       3.570 -14.097  14.282  1.00  0.00     0.025 C 
BRANCH   8   9
ATOM      9  C   UNL     1       2.868 -15.319  14.707  1.00  0.00     0.064 C 
ATOM     10  O   UNL     1       3.518 -16.384  14.868  1.00  0.00    -0.545 OA
ATOM     11  O   UNL     1       1.497 -15.315  14.936  1.00  0.00    -0.545 OA
ENDBRANCH   8   9
ENDBRANCH   1   7
BRANCH   4  12
ATOM     12  O   UNL     1       6.742 -10.656  12.091  1.00  0.00    -0.504 OA
ATOM     13  H   UNL     1       6.928  -9.843  11.515  1.00  0.00     0.293 HD
ENDBRANCH   4  12
BRANCH   6  14
ATOM     14  O   UNL     1       6.248  -8.218  13.428  1.00  0.00    -0.504 OA
ATOM     15  H   UNL     1       6.465  -8.019  12.459  1.00  0.00     0.293 HD
ENDBRANCH   6  14
TORSDOF 4
ENDMDL
MODEL 8
REMARK VINA RESULT:    -4.048     13.107     14.196
REMARK INTER + INTRA:          -4.891
REMARK INTER:                  -4.760
REMARK INTRA:                  -0.131
REMARK UNBOUND:                -0.133
REMARK SMILES O=C([O-])C=Cc1ccc(O)c(O)c1
REMARK SMILES IDX 6 1 13 2 7 3 11 4 8 5 9 6 5 7 4 8 2 9 1 10 3 11 12 12 10 14
REMARK H PARENT 12 13 10 15
REMARK Flexibility Score: inf
ROOT
ATOM      1  C   UNL     1       2.453 -24.163   3.926  1.00  0.00    -0.022 A 
ATOM      2  C   UNL     1       1.466 -23.626   3.084  1.00  0.00     0.058 A 
ATOM      3  C   UNL     1       2.099 -25.197   4.816  1.00  0.00     0.012 A 
ATOM      4  C   UNL     1       0.143 -24.089   3.141  1.00  0.00     0.157 A 
ATOM      5  C   UNL     1       0.781 -25.660   4.873  1.00  0.00     0.051 A 
ATOM      6  C   UNL     1      -0.200 -25.110   4.044  1.00  0.00     0.157 A 
ENDROOT
BRANCH   1   7
ATOM      7  C   UNL     1       3.840 -23.644   3.817  1.00  0.00     0.010 C 
ATOM      8  C   UNL     1       4.150 -22.460   3.272  1.00  0.00     0.025 C 
BRANCH   8   9
ATOM      9  C   UNL     1       5.541 -21.990   3.174  1.00  0.00     0.064 C 
ATOM     10  O   UNL     1       5.922 -21.022   3.883  1.00  0.00    -0.545 OA
ATOM     11  O   UNL     1       6.445 -22.599   2.311  1.00  0.00    -0.545 OA
ENDBRANCH   8   9
ENDBRANCH   1   7
BRANCH   4  12
ATOM     12  O   UNL     1      -0.829 -23.540   2.307  1.00  0.00    -0.504 OA
ATOM     13  H   UNL     1      -0.972 -23.879   1.363  1.00  0.00     0.293 HD
ENDBRANCH   4  12
BRANCH   6  14
ATOM     14  O   UNL     1      -1.506 -25.592   4.126  1.00  0.00    -0.504 OA
ATOM     15  H   UNL     1      -2.102 -25.397   4.921  1.00  0.00     0.293 HD
ENDBRANCH   6  14
TORSDOF 4
ENDMDL
MODEL 9
REMARK VINA RESULT:    -3.896     12.706     13.542
REMARK INTER + INTRA:          -4.712
REMARK INTER:                  -4.585
REMARK INTRA:                  -0.127
REMARK UNBOUND:                -0.133
REMARK SMILES O=C([O-])C=Cc1ccc(O)c(O)c1
REMARK SMILES IDX 6 1 13 2 7 3 11 4 8 5 9 6 5 7 4 8 2 9 1 10 3 11 12 12 10 14
REMARK H PARENT 12 13 10 15
REMARK Flexibility Score: inf
ROOT
ATOM      1  C   UNL     1       3.192 -23.703   4.288  1.00  0.00    -0.022 A 
ATOM      2  C   UNL     1       4.374 -24.171   4.883  1.00  0.00     0.058 A 
ATOM      3  C   UNL     1       3.266 -22.621   3.388  1.00  0.00     0.012 A 
ATOM      4  C   UNL     1       5.607 -23.561   4.610  1.00  0.00     0.157 A 
ATOM      5  C   UNL     1       4.495 -22.013   3.114  1.00  0.00     0.051 A 
ATOM      6  C   UNL     1       5.665 -22.474   3.723  1.00  0.00     0.157 A 
ENDROOT
BRANCH   1   7
ATOM      7  C   UNL     1       1.916 -24.392   4.604  1.00  0.00     0.010 C 
ATOM      8  C   UNL     1       1.388 -24.454   5.835  1.00  0.00     0.025 C 
BRANCH   8   9
ATOM      9  C   UNL     1       0.125 -25.159   6.104  1.00  0.00     0.064 C 
ATOM     10  O   UNL     1      -0.446 -25.009   7.216  1.00  0.00    -0.545 OA
ATOM     11  O   UNL     1      -0.451 -25.989   5.149  1.00  0.00    -0.545 OA
ENDBRANCH   8   9
ENDBRANCH   1   7
BRANCH   4  12
ATOM     12  O   UNL     1       6.771 -24.030   5.216  1.00  0.00    -0.504 OA
ATOM     13  H   UNL     1       6.855 -24.098   6.223  1.00  0.00     0.293 HD
ENDBRANCH   4  12
BRANCH   6  14
ATOM     14  O   UNL     1       6.874 -21.844   3.430  1.00  0.00    -0.504 OA
ATOM     15  H   UNL     1       7.439 -22.108   2.632  1.00  0.00     0.293 HD
ENDBRANCH   6  14
TORSDOF 4
ENDMDL
