MODEL 1
REMARK VINA RESULT:    -3.516      0.000      0.000
REMARK INTER + INTRA:         -14.476
REMARK INTER:                  -9.272
REMARK INTRA:                  -5.204
REMARK UNBOUND:                -5.204
REMARK SMILES CCCCCCCCCCCCCCCCCCCCCCCCCCCCCC(=O)[O-]
REMARK SMILES IDX 16 1 17 2 18 3 19 4 20 5 21 6 22 7 23 8 24 9 25 10 26 11
REMARK SMILES IDX 27 12 28 13 29 14 30 15 31 16 32 17 15 18 14 19 13 20 12 21
REMARK SMILES IDX 11 22 10 23 9 24 8 25 7 26 6 27 5 28 4 29 3 30 2 31 1 32
REMARK H PARENT
REMARK Flexibility Score: inf
ROOT
ATOM      1  C   UNL     1     -99.943 149.658 237.053  1.00  0.00     0.000 C 
ENDROOT
BRANCH   1   2
ATOM      2  C   UNL     1     -98.959 148.673 236.400  1.00  0.00     0.000 C 
BRANCH   2   3
ATOM      3  C   UNL     1     -97.684 149.361 235.879  1.00  0.00     0.000 C 
BRANCH   3   4
ATOM      4  C   UNL     1     -96.915 148.586 234.789  1.00  0.00     0.000 C 
BRANCH   4   5
ATOM      5  C   UNL     1     -95.462 149.037 234.558  1.00  0.00     0.000 C 
BRANCH   5   6
ATOM      6  C   UNL     1     -94.430 148.005 235.044  1.00  0.00     0.000 C 
BRANCH   6   7
ATOM      7  C   UNL     1     -93.903 148.301 236.460  1.00  0.00     0.000 C 
BRANCH   7   8
ATOM      8  C   UNL     1     -94.216 147.228 237.520  1.00  0.00     0.000 C 
BRANCH   8   9
ATOM      9  C   UNL     1     -95.092 147.754 238.669  1.00  0.00     0.000 C 
BRANCH   9  10
ATOM     10  C   UNL     1     -95.358 149.268 238.575  1.00  0.00     0.000 C 
BRANCH  10  11
ATOM     11  C   UNL     1     -96.659 149.754 239.245  1.00  0.00     0.000 C 
BRANCH  11  12
ATOM     12  C   UNL     1     -97.550 148.641 239.824  1.00  0.00     0.000 C 
BRANCH  12  13
ATOM     13  C   UNL     1     -98.195 149.030 241.166  1.00  0.00     0.006 C 
BRANCH  13  14
ATOM     14  C   UNL     1     -98.671 150.488 241.176  1.00  0.00     0.053 C 
BRANCH  14  15
ATOM     15  C   UNL     1     -99.313 150.852 242.480  1.00  0.00     0.041 C 
ATOM     16  O   UNL     1    -100.547 150.669 242.653  1.00  0.00    -0.550 OA
ATOM     17  O   UNL     1     -98.555 151.429 243.492  1.00  0.00    -0.550 OA
ENDBRANCH  14  15
ENDBRANCH  13  14
ENDBRANCH  12  13
ENDBRANCH  11  12
ENDBRANCH  10  11
ENDBRANCH   9  10
ENDBRANCH   8   9
ENDBRANCH   7   8
ENDBRANCH   6   7
ENDBRANCH   5   6
ENDBRANCH   4   5
ENDBRANCH   3   4
ENDBRANCH   2   3
ENDBRANCH   1   2
BRANCH   1  18
ATOM     18  C   UNL     1     -99.413 151.103 237.082  1.00  0.00     0.000 C 
BRANCH  18  19
ATOM     19  C   UNL     1    -100.196 152.111 236.215  1.00  0.00     0.000 C 
BRANCH  19  20
ATOM     20  C   UNL     1     -99.483 152.553 234.924  1.00  0.00     0.000 C 
BRANCH  20  21
ATOM     21  C   UNL     1     -99.916 151.740 233.694  1.00  0.00     0.000 C 
BRANCH  21  22
ATOM     22  C   UNL     1     -98.697 151.228 232.918  1.00  0.00     0.000 C 
BRANCH  22  23
ATOM     23  C   UNL     1     -97.433 152.003 233.305  1.00  0.00     0.000 C 
BRANCH  23  24
ATOM     24  C   UNL     1     -96.636 152.412 232.058  1.00  0.00    -0.000 C 
BRANCH  24  25
ATOM     25  C   UNL     1     -97.269 151.902 230.751  1.00  0.00    -0.000 C 
BRANCH  25  26
ATOM     26  C   UNL     1     -97.894 152.993 229.856  1.00  0.00    -0.000 C 
BRANCH  26  27
ATOM     27  C   UNL     1     -98.179 154.333 230.559  1.00  0.00    -0.000 C 
BRANCH  27  28
ATOM     28  C   UNL     1     -99.583 154.442 231.185  1.00  0.00    -0.000 C 
BRANCH  28  29
ATOM     29  C   UNL     1     -99.635 155.352 232.434  1.00  0.00    -0.000 C 
BRANCH  29  30
ATOM     30  C   UNL     1     -98.266 155.571 233.109  1.00  0.00    -0.000 C 
BRANCH  30  31
ATOM     31  C   UNL     1     -97.617 156.935 232.806  1.00  0.00    -0.003 C 
ATOM     32  C   UNL     1     -98.521 157.856 231.987  1.00  0.00     0.004 C 
ENDBRANCH  30  31
ENDBRANCH  29  30
ENDBRANCH  28  29
ENDBRANCH  27  28
ENDBRANCH  26  27
ENDBRANCH  25  26
ENDBRANCH  24  25
ENDBRANCH  23  24
ENDBRANCH  22  23
ENDBRANCH  21  22
ENDBRANCH  20  21
ENDBRANCH  19  20
ENDBRANCH  18  19
ENDBRANCH   1  18
TORSDOF 28
ENDMDL
MODEL 2
REMARK VINA RESULT:    -3.371      3.451      7.399
REMARK INTER + INTRA:         -14.092
REMARK INTER:                  -8.177
REMARK INTRA:                  -5.915
REMARK UNBOUND:                -5.204
REMARK SMILES CCCCCCCCCCCCCCCCCCCCCCCCCCCCCC(=O)[O-]
REMARK SMILES IDX 16 1 17 2 18 3 19 4 20 5 21 6 22 7 23 8 24 9 25 10 26 11
REMARK SMILES IDX 27 12 28 13 29 14 30 15 31 16 32 17 15 18 14 19 13 20 12 21
REMARK SMILES IDX 11 22 10 23 9 24 8 25 7 26 6 27 5 28 4 29 3 30 2 31 1 32
REMARK H PARENT
REMARK Flexibility Score: inf
ROOT
ATOM      1  C   UNL     1     -96.799 149.500 234.920  1.00  0.00     0.000 C 
ENDROOT
BRANCH   1   2
ATOM      2  C   UNL     1     -97.410 148.115 235.197  1.00  0.00     0.000 C 
BRANCH   2   3
ATOM      3  C   UNL     1     -98.171 147.545 233.988  1.00  0.00     0.000 C 
BRANCH   3   4
ATOM      4  C   UNL     1     -98.220 148.461 232.747  1.00  0.00     0.000 C 
BRANCH   4   5
ATOM      5  C   UNL     1     -97.535 147.902 231.486  1.00  0.00     0.000 C 
BRANCH   5   6
ATOM      6  C   UNL     1     -96.227 147.155 231.796  1.00  0.00     0.000 C 
BRANCH   6   7
ATOM      7  C   UNL     1     -94.977 148.040 231.639  1.00  0.00     0.000 C 
BRANCH   7   8
ATOM      8  C   UNL     1     -95.200 149.378 230.910  1.00  0.00     0.000 C 
BRANCH   8   9
ATOM      9  C   UNL     1     -94.961 150.601 231.810  1.00  0.00     0.000 C 
BRANCH   9  10
ATOM     10  C   UNL     1     -95.936 151.757 231.521  1.00  0.00     0.000 C 
BRANCH  10  11
ATOM     11  C   UNL     1     -96.395 152.559 232.757  1.00  0.00     0.000 C 
BRANCH  11  12
ATOM     12  C   UNL     1     -97.899 152.471 233.070  1.00  0.00     0.000 C 
BRANCH  12  13
ATOM     13  C   UNL     1     -98.519 153.838 233.407  1.00  0.00     0.006 C 
BRANCH  13  14
ATOM     14  C   UNL     1     -97.483 154.969 233.362  1.00  0.00     0.053 C 
BRANCH  14  15
ATOM     15  C   UNL     1     -98.102 156.272 232.957  1.00  0.00     0.041 C 
ATOM     16  O   UNL     1     -97.377 157.280 232.746  1.00  0.00    -0.550 OA
ATOM     17  O   UNL     1     -99.483 156.383 232.847  1.00  0.00    -0.550 OA
ENDBRANCH  14  15
ENDBRANCH  13  14
ENDBRANCH  12  13
ENDBRANCH  11  12
ENDBRANCH  10  11
ENDBRANCH   9  10
ENDBRANCH   8   9
ENDBRANCH   7   8
ENDBRANCH   6   7
ENDBRANCH   5   6
ENDBRANCH   4   5
ENDBRANCH   3   4
ENDBRANCH   2   3
ENDBRANCH   1   2
BRANCH   1  18
ATOM     18  C   UNL     1     -95.269 149.522 235.083  1.00  0.00     0.000 C 
BRANCH  18  19
ATOM     19  C   UNL     1     -94.663 148.295 235.795  1.00  0.00     0.000 C 
BRANCH  19  20
ATOM     20  C   UNL     1     -93.971 148.594 237.137  1.00  0.00     0.000 C 
BRANCH  20  21
ATOM     21  C   UNL     1     -94.896 148.384 238.346  1.00  0.00     0.000 C 
BRANCH  21  22
ATOM     22  C   UNL     1     -95.676 149.663 238.669  1.00  0.00     0.000 C 
BRANCH  22  23
ATOM     23  C   UNL     1     -97.184 149.394 238.707  1.00  0.00     0.000 C 
BRANCH  23  24
ATOM     24  C   UNL     1     -97.961 150.666 239.073  1.00  0.00    -0.000 C 
BRANCH  24  25
ATOM     25  C   UNL     1     -99.286 150.801 238.301  1.00  0.00    -0.000 C 
BRANCH  25  26
ATOM     26  C   UNL     1     -99.142 151.188 236.814  1.00  0.00    -0.000 C 
BRANCH  26  27
ATOM     27  C   UNL     1    -100.236 152.126 236.272  1.00  0.00    -0.000 C 
BRANCH  27  28
ATOM     28  C   UNL     1    -101.342 151.421 235.462  1.00  0.00    -0.000 C 
BRANCH  28  29
ATOM     29  C   UNL     1    -100.811 150.308 234.528  1.00  0.00    -0.000 C 
BRANCH  29  30
ATOM     30  C   UNL     1    -101.584 148.978 234.632  1.00  0.00    -0.000 C 
BRANCH  30  31
ATOM     31  C   UNL     1    -101.888 148.530 236.074  1.00  0.00    -0.003 C 
ATOM     32  C   UNL     1    -100.729 147.770 236.720  1.00  0.00     0.004 C 
ENDBRANCH  30  31
ENDBRANCH  29  30
ENDBRANCH  28  29
ENDBRANCH  27  28
ENDBRANCH  26  27
ENDBRANCH  25  26
ENDBRANCH  24  25
ENDBRANCH  23  24
ENDBRANCH  22  23
ENDBRANCH  21  22
ENDBRANCH  20  21
ENDBRANCH  19  20
ENDBRANCH  18  19
ENDBRANCH   1  18
TORSDOF 28
ENDMDL
MODEL 3
REMARK VINA RESULT:    -3.346      3.303      6.817
REMARK INTER + INTRA:         -14.027
REMARK INTER:                  -8.953
REMARK INTRA:                  -5.073
REMARK UNBOUND:                -5.204
REMARK SMILES CCCCCCCCCCCCCCCCCCCCCCCCCCCCCC(=O)[O-]
REMARK SMILES IDX 16 1 17 2 18 3 19 4 20 5 21 6 22 7 23 8 24 9 25 10 26 11
REMARK SMILES IDX 27 12 28 13 29 14 30 15 31 16 32 17 15 18 14 19 13 20 12 21
REMARK SMILES IDX 11 22 10 23 9 24 8 25 7 26 6 27 5 28 4 29 3 30 2 31 1 32
REMARK H PARENT
REMARK Flexibility Score: inf
ROOT
ATOM      1  C   UNL     1     -96.498 148.347 239.021  1.00  0.00     0.000 C 
ENDROOT
BRANCH   1   2
ATOM      2  C   UNL     1     -95.084 147.745 238.970  1.00  0.00     0.000 C 
BRANCH   2   3
ATOM      3  C   UNL     1     -94.654 147.349 237.546  1.00  0.00     0.000 C 
BRANCH   3   4
ATOM      4  C   UNL     1     -93.997 148.474 236.719  1.00  0.00     0.000 C 
BRANCH   4   5
ATOM      5  C   UNL     1     -94.932 149.205 235.738  1.00  0.00     0.000 C 
BRANCH   5   6
ATOM      6  C   UNL     1     -96.046 148.300 235.186  1.00  0.00     0.000 C 
BRANCH   6   7
ATOM      7  C   UNL     1     -96.265 148.471 233.671  1.00  0.00     0.000 C 
BRANCH   7   8
ATOM      8  C   UNL     1     -94.993 148.736 232.844  1.00  0.00     0.000 C 
BRANCH   8   9
ATOM      9  C   UNL     1     -95.112 149.972 231.938  1.00  0.00     0.000 C 
BRANCH   9  10
ATOM     10  C   UNL     1     -96.345 150.836 232.261  1.00  0.00     0.000 C 
BRANCH  10  11
ATOM     11  C   UNL     1     -96.039 152.245 232.811  1.00  0.00     0.000 C 
BRANCH  11  12
ATOM     12  C   UNL     1     -97.055 153.332 232.421  1.00  0.00     0.000 C 
BRANCH  12  13
ATOM     13  C   UNL     1     -97.296 154.355 233.546  1.00  0.00     0.006 C 
BRANCH  13  14
ATOM     14  C   UNL     1     -97.735 155.720 233.001  1.00  0.00     0.053 C 
BRANCH  14  15
ATOM     15  C   UNL     1     -99.164 155.704 232.551  1.00  0.00     0.041 C 
ATOM     16  O   UNL     1    -100.096 155.728 233.397  1.00  0.00    -0.550 OA
ATOM     17  O   UNL     1     -99.466 155.626 231.197  1.00  0.00    -0.550 OA
ENDBRANCH  14  15
ENDBRANCH  13  14
ENDBRANCH  12  13
ENDBRANCH  11  12
ENDBRANCH  10  11
ENDBRANCH   9  10
ENDBRANCH   8   9
ENDBRANCH   7   8
ENDBRANCH   6   7
ENDBRANCH   5   6
ENDBRANCH   4   5
ENDBRANCH   3   4
ENDBRANCH   2   3
ENDBRANCH   1   2
BRANCH   1  18
ATOM     18  C   UNL     1     -96.496 149.885 238.964  1.00  0.00     0.000 C 
BRANCH  18  19
ATOM     19  C   UNL     1     -97.633 150.576 239.746  1.00  0.00     0.000 C 
BRANCH  19  20
ATOM     20  C   UNL     1     -98.556 149.627 240.532  1.00  0.00     0.000 C 
BRANCH  20  21
ATOM     21  C   UNL     1    -100.039 149.803 240.172  1.00  0.00     0.000 C 
BRANCH  21  22
ATOM     22  C   UNL     1    -100.205 150.172 238.694  1.00  0.00     0.000 C 
BRANCH  22  23
ATOM     23  C   UNL     1    -100.535 148.936 237.851  1.00  0.00     0.000 C 
BRANCH  23  24
ATOM     24  C   UNL     1     -99.766 148.955 236.522  1.00  0.00    -0.000 C 
BRANCH  24  25
ATOM     25  C   UNL     1     -99.008 150.275 236.290  1.00  0.00    -0.000 C 
BRANCH  25  26
ATOM     26  C   UNL     1     -98.915 150.727 234.817  1.00  0.00    -0.000 C 
BRANCH  26  27
ATOM     27  C   UNL     1     -99.898 151.841 234.411  1.00  0.00    -0.000 C 
BRANCH  27  28
ATOM     28  C   UNL     1    -100.152 152.901 235.500  1.00  0.00    -0.000 C 
BRANCH  28  29
ATOM     29  C   UNL     1    -101.652 153.194 235.741  1.00  0.00    -0.000 C 
BRANCH  29  30
ATOM     30  C   UNL     1    -102.433 152.011 236.349  1.00  0.00    -0.000 C 
BRANCH  30  31
ATOM     31  C   UNL     1    -102.937 152.252 237.784  1.00  0.00    -0.003 C 
ATOM     32  C   UNL     1    -104.003 153.345 237.866  1.00  0.00     0.004 C 
ENDBRANCH  30  31
ENDBRANCH  29  30
ENDBRANCH  28  29
ENDBRANCH  27  28
ENDBRANCH  26  27
ENDBRANCH  25  26
ENDBRANCH  24  25
ENDBRANCH  23  24
ENDBRANCH  22  23
ENDBRANCH  21  22
ENDBRANCH  20  21
ENDBRANCH  19  20
ENDBRANCH  18  19
ENDBRANCH   1  18
TORSDOF 28
ENDMDL
MODEL 4
REMARK VINA RESULT:    -3.317      1.805      4.922
REMARK INTER + INTRA:         -13.951
REMARK INTER:                  -8.779
REMARK INTRA:                  -5.172
REMARK UNBOUND:                -5.204
REMARK SMILES CCCCCCCCCCCCCCCCCCCCCCCCCCCCCC(=O)[O-]
REMARK SMILES IDX 16 1 17 2 18 3 19 4 20 5 21 6 22 7 23 8 24 9 25 10 26 11
REMARK SMILES IDX 27 12 28 13 29 14 30 15 31 16 32 17 15 18 14 19 13 20 12 21
REMARK SMILES IDX 11 22 10 23 9 24 8 25 7 26 6 27 5 28 4 29 3 30 2 31 1 32
REMARK H PARENT
REMARK Flexibility Score: inf
ROOT
ATOM      1  C   UNL     1     -94.506 148.144 235.603  1.00  0.00     0.000 C 
ENDROOT
BRANCH   1   2
ATOM      2  C   UNL     1     -94.144 147.728 237.038  1.00  0.00     0.000 C 
BRANCH   2   3
ATOM      3  C   UNL     1     -94.836 148.596 238.104  1.00  0.00     0.000 C 
BRANCH   3   4
ATOM      4  C   UNL     1     -95.900 147.873 238.955  1.00  0.00     0.000 C 
BRANCH   4   5
ATOM      5  C   UNL     1     -97.135 148.714 239.324  1.00  0.00     0.000 C 
BRANCH   5   6
ATOM      6  C   UNL     1     -96.865 150.227 239.277  1.00  0.00     0.000 C 
BRANCH   6   7
ATOM      7  C   UNL     1     -98.022 151.026 238.649  1.00  0.00     0.000 C 
BRANCH   7   8
ATOM      8  C   UNL     1     -98.894 150.250 237.645  1.00  0.00     0.000 C 
BRANCH   8   9
ATOM      9  C   UNL     1    -100.394 150.554 237.791  1.00  0.00     0.000 C 
BRANCH   9  10
ATOM     10  C   UNL     1    -101.230 149.305 238.123  1.00  0.00     0.000 C 
BRANCH  10  11
ATOM     11  C   UNL     1    -101.923 149.320 239.501  1.00  0.00     0.000 C 
BRANCH  11  12
ATOM     12  C   UNL     1    -100.990 149.093 240.703  1.00  0.00     0.000 C 
BRANCH  12  13
ATOM     13  C   UNL     1    -100.697 150.386 241.484  1.00  0.00     0.006 C 
BRANCH  13  14
ATOM     14  C   UNL     1     -99.271 150.408 242.051  1.00  0.00     0.053 C 
BRANCH  14  15
ATOM     15  C   UNL     1     -99.249 150.859 243.479  1.00  0.00     0.041 C 
ATOM     16  O   UNL     1     -99.876 150.211 244.359  1.00  0.00    -0.550 OA
ATOM     17  O   UNL     1     -98.567 152.017 243.833  1.00  0.00    -0.550 OA
ENDBRANCH  14  15
ENDBRANCH  13  14
ENDBRANCH  12  13
ENDBRANCH  11  12
ENDBRANCH  10  11
ENDBRANCH   9  10
ENDBRANCH   8   9
ENDBRANCH   7   8
ENDBRANCH   6   7
ENDBRANCH   5   6
ENDBRANCH   4   5
ENDBRANCH   3   4
ENDBRANCH   2   3
ENDBRANCH   1   2
BRANCH   1  18
ATOM     18  C   UNL     1     -95.238 149.496 235.538  1.00  0.00     0.000 C 
BRANCH  18  19
ATOM     19  C   UNL     1     -96.515 149.515 234.672  1.00  0.00     0.000 C 
BRANCH  19  20
ATOM     20  C   UNL     1     -97.551 148.428 235.011  1.00  0.00     0.000 C 
BRANCH  20  21
ATOM     21  C   UNL     1     -98.902 148.653 234.315  1.00  0.00     0.000 C 
BRANCH  21  22
ATOM     22  C   UNL     1     -98.881 149.936 233.478  1.00  0.00     0.000 C 
BRANCH  22  23
ATOM     23  C   UNL     1     -99.777 151.013 234.098  1.00  0.00     0.000 C 
BRANCH  23  24
ATOM     24  C   UNL     1     -99.016 152.337 234.257  1.00  0.00    -0.000 C 
BRANCH  24  25
ATOM     25  C   UNL     1     -98.546 152.921 232.912  1.00  0.00    -0.000 C 
BRANCH  25  26
ATOM     26  C   UNL     1     -97.082 153.409 232.885  1.00  0.00    -0.000 C 
BRANCH  26  27
ATOM     27  C   UNL     1     -96.043 152.344 232.488  1.00  0.00    -0.000 C 
BRANCH  27  28
ATOM     28  C   UNL     1     -96.217 151.778 231.066  1.00  0.00    -0.000 C 
BRANCH  28  29
ATOM     29  C   UNL     1     -96.262 150.233 231.015  1.00  0.00    -0.000 C 
BRANCH  29  30
ATOM     30  C   UNL     1     -94.890 149.572 230.768  1.00  0.00    -0.000 C 
BRANCH  30  31
ATOM     31  C   UNL     1     -94.384 148.702 231.934  1.00  0.00    -0.003 C 
ATOM     32  C   UNL     1     -93.064 147.996 231.623  1.00  0.00     0.004 C 
ENDBRANCH  30  31
ENDBRANCH  29  30
ENDBRANCH  28  29
ENDBRANCH  27  28
ENDBRANCH  26  27
ENDBRANCH  25  26
ENDBRANCH  24  25
ENDBRANCH  23  24
ENDBRANCH  22  23
ENDBRANCH  21  22
ENDBRANCH  20  21
ENDBRANCH  19  20
ENDBRANCH  18  19
ENDBRANCH   1  18
TORSDOF 28
ENDMDL
MODEL 5
REMARK VINA RESULT:    -3.316      3.049      7.199
REMARK INTER + INTRA:         -13.946
REMARK INTER:                  -8.276
REMARK INTRA:                  -5.671
REMARK UNBOUND:                -5.204
REMARK SMILES CCCCCCCCCCCCCCCCCCCCCCCCCCCCCC(=O)[O-]
REMARK SMILES IDX 16 1 17 2 18 3 19 4 20 5 21 6 22 7 23 8 24 9 25 10 26 11
REMARK SMILES IDX 27 12 28 13 29 14 30 15 31 16 32 17 15 18 14 19 13 20 12 21
REMARK SMILES IDX 11 22 10 23 9 24 8 25 7 26 6 27 5 28 4 29 3 30 2 31 1 32
REMARK H PARENT
REMARK Flexibility Score: inf
ROOT
ATOM      1  C   UNL     1     -94.845 148.863 235.970  1.00  0.00     0.000 C 
ENDROOT
BRANCH   1   2
ATOM      2  C   UNL     1     -95.080 147.494 235.310  1.00  0.00     0.000 C 
BRANCH   2   3
ATOM      3  C   UNL     1     -94.168 147.252 234.095  1.00  0.00     0.000 C 
BRANCH   3   4
ATOM      4  C   UNL     1     -94.900 146.987 232.763  1.00  0.00     0.000 C 
BRANCH   4   5
ATOM      5  C   UNL     1     -96.431 147.141 232.808  1.00  0.00     0.000 C 
BRANCH   5   6
ATOM      6  C   UNL     1     -96.909 148.518 232.315  1.00  0.00     0.000 C 
BRANCH   6   7
ATOM      7  C   UNL     1     -95.967 149.144 231.270  1.00  0.00     0.000 C 
BRANCH   7   8
ATOM      8  C   UNL     1     -95.179 150.379 231.745  1.00  0.00     0.000 C 
BRANCH   8   9
ATOM      9  C   UNL     1     -95.704 150.954 233.070  1.00  0.00     0.000 C 
BRANCH   9  10
ATOM     10  C   UNL     1     -96.158 152.421 232.949  1.00  0.00     0.000 C 
BRANCH  10  11
ATOM     11  C   UNL     1     -96.906 152.776 231.647  1.00  0.00     0.000 C 
BRANCH  11  12
ATOM     12  C   UNL     1     -97.935 153.912 231.775  1.00  0.00     0.000 C 
BRANCH  12  13
ATOM     13  C   UNL     1     -97.971 154.529 233.184  1.00  0.00     0.006 C 
BRANCH  13  14
ATOM     14  C   UNL     1     -98.636 155.911 233.193  1.00  0.00     0.053 C 
BRANCH  14  15
ATOM     15  C   UNL     1    -100.121 155.811 233.367  1.00  0.00     0.041 C 
ATOM     16  O   UNL     1    -100.620 155.711 234.518  1.00  0.00    -0.550 OA
ATOM     17  O   UNL     1    -100.952 155.791 232.253  1.00  0.00    -0.550 OA
ENDBRANCH  14  15
ENDBRANCH  13  14
ENDBRANCH  12  13
ENDBRANCH  11  12
ENDBRANCH  10  11
ENDBRANCH   9  10
ENDBRANCH   8   9
ENDBRANCH   7   8
ENDBRANCH   6   7
ENDBRANCH   5   6
ENDBRANCH   4   5
ENDBRANCH   3   4
ENDBRANCH   2   3
ENDBRANCH   1   2
BRANCH   1  18
ATOM     18  C   UNL     1     -94.044 148.766 237.280  1.00  0.00     0.000 C 
BRANCH  18  19
ATOM     19  C   UNL     1     -94.862 148.359 238.525  1.00  0.00     0.000 C 
BRANCH  19  20
ATOM     20  C   UNL     1     -96.329 148.824 238.523  1.00  0.00     0.000 C 
BRANCH  20  21
ATOM     21  C   UNL     1     -96.497 150.272 239.008  1.00  0.00     0.000 C 
BRANCH  21  22
ATOM     22  C   UNL     1     -97.980 150.640 239.134  1.00  0.00     0.000 C 
BRANCH  22  23
ATOM     23  C   UNL     1     -98.818 149.419 239.527  1.00  0.00     0.000 C 
BRANCH  23  24
ATOM     24  C   UNL     1    -100.186 149.443 238.830  1.00  0.00    -0.000 C 
BRANCH  24  25
ATOM     25  C   UNL     1    -100.399 148.244 237.889  1.00  0.00    -0.000 C 
BRANCH  25  26
ATOM     26  C   UNL     1    -100.283 148.562 236.384  1.00  0.00    -0.000 C 
BRANCH  26  27
ATOM     27  C   UNL     1     -98.846 148.581 235.827  1.00  0.00    -0.000 C 
BRANCH  27  28
ATOM     28  C   UNL     1     -98.335 149.976 235.421  1.00  0.00    -0.000 C 
BRANCH  28  29
ATOM     29  C   UNL     1     -99.353 151.110 235.685  1.00  0.00    -0.000 C 
BRANCH  29  30
ATOM     30  C   UNL     1     -99.816 151.847 234.412  1.00  0.00    -0.000 C 
BRANCH  30  31
ATOM     31  C   UNL     1    -100.616 150.975 233.427  1.00  0.00    -0.003 C 
ATOM     32  C   UNL     1     -99.855 150.685 232.132  1.00  0.00     0.004 C 
ENDBRANCH  30  31
ENDBRANCH  29  30
ENDBRANCH  28  29
ENDBRANCH  27  28
ENDBRANCH  26  27
ENDBRANCH  25  26
ENDBRANCH  24  25
ENDBRANCH  23  24
ENDBRANCH  22  23
ENDBRANCH  21  22
ENDBRANCH  20  21
ENDBRANCH  19  20
ENDBRANCH  18  19
ENDBRANCH   1  18
TORSDOF 28
ENDMDL
MODEL 6
REMARK VINA RESULT:    -3.308      2.129      7.206
REMARK INTER + INTRA:         -13.927
REMARK INTER:                  -8.282
REMARK INTRA:                  -5.645
REMARK UNBOUND:                -5.204
REMARK SMILES CCCCCCCCCCCCCCCCCCCCCCCCCCCCCC(=O)[O-]
REMARK SMILES IDX 16 1 17 2 18 3 19 4 20 5 21 6 22 7 23 8 24 9 25 10 26 11
REMARK SMILES IDX 27 12 28 13 29 14 30 15 31 16 32 17 15 18 14 19 13 20 12 21
REMARK SMILES IDX 11 22 10 23 9 24 8 25 7 26 6 27 5 28 4 29 3 30 2 31 1 32
REMARK H PARENT
REMARK Flexibility Score: inf
ROOT
ATOM      1  C   UNL     1     -99.000 147.720 233.414  1.00  0.00     0.000 C 
ENDROOT
BRANCH   1   2
ATOM      2  C   UNL     1     -99.692 148.818 232.590  1.00  0.00     0.000 C 
BRANCH   2   3
ATOM      3  C   UNL     1     -98.695 149.714 231.833  1.00  0.00     0.000 C 
BRANCH   3   4
ATOM      4  C   UNL     1     -97.444 148.995 231.287  1.00  0.00     0.000 C 
BRANCH   4   5
ATOM      5  C   UNL     1     -96.137 149.804 231.349  1.00  0.00     0.000 C 
BRANCH   5   6
ATOM      6  C   UNL     1     -96.066 150.910 230.282  1.00  0.00     0.000 C 
BRANCH   6   7
ATOM      7  C   UNL     1     -96.265 152.322 230.865  1.00  0.00     0.000 C 
BRANCH   7   8
ATOM      8  C   UNL     1     -96.057 152.446 232.386  1.00  0.00     0.000 C 
BRANCH   8   9
ATOM      9  C   UNL     1     -97.025 153.442 233.045  1.00  0.00     0.000 C 
BRANCH   9  10
ATOM     10  C   UNL     1     -98.389 153.515 232.334  1.00  0.00     0.000 C 
BRANCH  10  11
ATOM     11  C   UNL     1     -99.586 152.973 233.142  1.00  0.00     0.000 C 
BRANCH  11  12
ATOM     12  C   UNL     1     -99.295 152.684 234.624  1.00  0.00     0.000 C 
BRANCH  12  13
ATOM     13  C   UNL     1    -100.115 151.503 235.174  1.00  0.00     0.006 C 
BRANCH  13  14
ATOM     14  C   UNL     1     -99.992 151.374 236.698  1.00  0.00     0.053 C 
BRANCH  14  15
ATOM     15  C   UNL     1    -101.335 151.324 237.360  1.00  0.00     0.041 C 
ATOM     16  O   UNL     1    -101.774 150.238 237.824  1.00  0.00    -0.550 OA
ATOM     17  O   UNL     1    -102.118 152.470 237.432  1.00  0.00    -0.550 OA
ENDBRANCH  14  15
ENDBRANCH  13  14
ENDBRANCH  12  13
ENDBRANCH  11  12
ENDBRANCH  10  11
ENDBRANCH   9  10
ENDBRANCH   8   9
ENDBRANCH   7   8
ENDBRANCH   6   7
ENDBRANCH   5   6
ENDBRANCH   4   5
ENDBRANCH   3   4
ENDBRANCH   2   3
ENDBRANCH   1   2
BRANCH   1  18
ATOM     18  C   UNL     1     -99.060 147.982 234.930  1.00  0.00     0.000 C 
BRANCH  18  19
ATOM     19  C   UNL     1     -97.708 148.311 235.597  1.00  0.00     0.000 C 
BRANCH  19  20
ATOM     20  C   UNL     1     -97.012 149.580 235.072  1.00  0.00     0.000 C 
BRANCH  20  21
ATOM     21  C   UNL     1     -95.502 149.390 234.864  1.00  0.00     0.000 C 
BRANCH  21  22
ATOM     22  C   UNL     1     -95.179 147.945 234.469  1.00  0.00     0.000 C 
BRANCH  22  23
ATOM     23  C   UNL     1     -94.058 147.373 235.344  1.00  0.00     0.000 C 
BRANCH  23  24
ATOM     24  C   UNL     1     -93.858 148.222 236.607  1.00  0.00    -0.000 C 
BRANCH  24  25
ATOM     25  C   UNL     1     -94.257 147.480 237.896  1.00  0.00    -0.000 C 
BRANCH  25  26
ATOM     26  C   UNL     1     -95.529 148.009 238.591  1.00  0.00    -0.000 C 
BRANCH  26  27
ATOM     27  C   UNL     1     -95.708 149.539 238.553  1.00  0.00    -0.000 C 
BRANCH  27  28
ATOM     28  C   UNL     1     -96.904 150.064 239.371  1.00  0.00    -0.000 C 
BRANCH  28  29
ATOM     29  C   UNL     1     -97.680 148.954 240.117  1.00  0.00    -0.000 C 
BRANCH  29  30
ATOM     30  C   UNL     1     -99.208 149.161 240.139  1.00  0.00    -0.000 C 
BRANCH  30  31
ATOM     31  C   UNL     1     -99.678 150.331 241.024  1.00  0.00    -0.003 C 
ATOM     32  C   UNL     1     -98.959 150.387 242.372  1.00  0.00     0.004 C 
ENDBRANCH  30  31
ENDBRANCH  29  30
ENDBRANCH  28  29
ENDBRANCH  27  28
ENDBRANCH  26  27
ENDBRANCH  25  26
ENDBRANCH  24  25
ENDBRANCH  23  24
ENDBRANCH  22  23
ENDBRANCH  21  22
ENDBRANCH  20  21
ENDBRANCH  19  20
ENDBRANCH  18  19
ENDBRANCH   1  18
TORSDOF 28
ENDMDL
MODEL 7
REMARK VINA RESULT:    -3.297      2.391      4.077
REMARK INTER + INTRA:         -13.898
REMARK INTER:                  -8.031
REMARK INTRA:                  -5.867
REMARK UNBOUND:                -5.204
REMARK SMILES CCCCCCCCCCCCCCCCCCCCCCCCCCCCCC(=O)[O-]
REMARK SMILES IDX 16 1 17 2 18 3 19 4 20 5 21 6 22 7 23 8 24 9 25 10 26 11
REMARK SMILES IDX 27 12 28 13 29 14 30 15 31 16 32 17 15 18 14 19 13 20 12 21
REMARK SMILES IDX 11 22 10 23 9 24 8 25 7 26 6 27 5 28 4 29 3 30 2 31 1 32
REMARK H PARENT
REMARK Flexibility Score: inf
ROOT
ATOM      1  C   UNL     1     -96.837 149.113 235.432  1.00  0.00     0.000 C 
ENDROOT
BRANCH   1   2
ATOM      2  C   UNL     1     -95.332 149.154 235.119  1.00  0.00     0.000 C 
BRANCH   2   3
ATOM      3  C   UNL     1     -94.765 147.778 234.730  1.00  0.00     0.000 C 
BRANCH   3   4
ATOM      4  C   UNL     1     -93.642 147.244 235.644  1.00  0.00     0.000 C 
BRANCH   4   5
ATOM      5  C   UNL     1     -93.674 147.754 237.096  1.00  0.00     0.000 C 
BRANCH   5   6
ATOM      6  C   UNL     1     -94.671 146.986 237.979  1.00  0.00     0.000 C 
BRANCH   6   7
ATOM      7  C   UNL     1     -95.459 147.901 238.934  1.00  0.00     0.000 C 
BRANCH   7   8
ATOM      8  C   UNL     1     -95.228 149.412 238.744  1.00  0.00     0.000 C 
BRANCH   8   9
ATOM      9  C   UNL     1     -96.486 150.252 239.017  1.00  0.00     0.000 C 
BRANCH   9  10
ATOM     10  C   UNL     1     -97.774 149.409 239.052  1.00  0.00     0.000 C 
BRANCH  10  11
ATOM     11  C   UNL     1     -99.023 150.085 238.450  1.00  0.00     0.000 C 
BRANCH  11  12
ATOM     12  C   UNL     1     -99.930 149.160 237.620  1.00  0.00     0.000 C 
BRANCH  12  13
ATOM     13  C   UNL     1    -100.552 149.869 236.404  1.00  0.00     0.006 C 
BRANCH  13  14
ATOM     14  C   UNL     1    -100.345 151.389 236.453  1.00  0.00     0.053 C 
BRANCH  14  15
ATOM     15  C   UNL     1    -101.573 152.130 236.023  1.00  0.00     0.041 C 
ATOM     16  O   UNL     1    -101.964 152.072 234.828  1.00  0.00    -0.550 OA
ATOM     17  O   UNL     1    -102.266 152.917 236.936  1.00  0.00    -0.550 OA
ENDBRANCH  14  15
ENDBRANCH  13  14
ENDBRANCH  12  13
ENDBRANCH  11  12
ENDBRANCH  10  11
ENDBRANCH   9  10
ENDBRANCH   8   9
ENDBRANCH   7   8
ENDBRANCH   6   7
ENDBRANCH   5   6
ENDBRANCH   4   5
ENDBRANCH   3   4
ENDBRANCH   2   3
ENDBRANCH   1   2
BRANCH   1  18
ATOM     18  C   UNL     1     -97.703 149.653 234.281  1.00  0.00     0.000 C 
BRANCH  18  19
ATOM     19  C   UNL     1     -98.639 148.620 233.619  1.00  0.00     0.000 C 
BRANCH  19  20
ATOM     20  C   UNL     1     -98.387 148.375 232.120  1.00  0.00     0.000 C 
BRANCH  20  21
ATOM     21  C   UNL     1     -96.896 148.223 231.783  1.00  0.00     0.000 C 
BRANCH  21  22
ATOM     22  C   UNL     1     -96.599 148.732 230.368  1.00  0.00     0.000 C 
BRANCH  22  23
ATOM     23  C   UNL     1     -95.380 149.661 230.362  1.00  0.00     0.000 C 
BRANCH  23  24
ATOM     24  C   UNL     1     -95.099 150.209 231.769  1.00  0.00    -0.000 C 
BRANCH  24  25
ATOM     25  C   UNL     1     -95.577 151.661 231.951  1.00  0.00    -0.000 C 
BRANCH  25  26
ATOM     26  C   UNL     1     -96.073 152.354 230.665  1.00  0.00    -0.000 C 
BRANCH  26  27
ATOM     27  C   UNL     1     -97.518 152.886 230.722  1.00  0.00    -0.000 C 
BRANCH  27  28
ATOM     28  C   UNL     1     -98.583 151.815 231.028  1.00  0.00    -0.000 C 
BRANCH  28  29
ATOM     29  C   UNL     1     -99.461 152.149 232.257  1.00  0.00    -0.000 C 
BRANCH  29  30
ATOM     30  C   UNL     1     -98.730 152.955 233.351  1.00  0.00    -0.000 C 
BRANCH  30  31
ATOM     31  C   UNL     1     -99.320 154.354 233.611  1.00  0.00    -0.003 C 
ATOM     32  C   UNL     1     -98.380 155.485 233.195  1.00  0.00     0.004 C 
ENDBRANCH  30  31
ENDBRANCH  29  30
ENDBRANCH  28  29
ENDBRANCH  27  28
ENDBRANCH  26  27
ENDBRANCH  25  26
ENDBRANCH  24  25
ENDBRANCH  23  24
ENDBRANCH  22  23
ENDBRANCH  21  22
ENDBRANCH  20  21
ENDBRANCH  19  20
ENDBRANCH  18  19
ENDBRANCH   1  18
TORSDOF 28
ENDMDL
MODEL 8
REMARK VINA RESULT:    -3.297      1.704      4.386
REMARK INTER + INTRA:         -13.897
REMARK INTER:                  -8.947
REMARK INTRA:                  -4.950
REMARK UNBOUND:                -5.204
REMARK SMILES CCCCCCCCCCCCCCCCCCCCCCCCCCCCCC(=O)[O-]
REMARK SMILES IDX 16 1 17 2 18 3 19 4 20 5 21 6 22 7 23 8 24 9 25 10 26 11
REMARK SMILES IDX 27 12 28 13 29 14 30 15 31 16 32 17 15 18 14 19 13 20 12 21
REMARK SMILES IDX 11 22 10 23 9 24 8 25 7 26 6 27 5 28 4 29 3 30 2 31 1 32
REMARK H PARENT
REMARK Flexibility Score: inf
ROOT
ATOM      1  C   UNL     1     -94.239 147.678 235.401  1.00  0.00     0.000 C 
ENDROOT
BRANCH   1   2
ATOM      2  C   UNL     1     -94.165 148.383 236.766  1.00  0.00     0.000 C 
BRANCH   2   3
ATOM      3  C   UNL     1     -94.336 147.413 237.948  1.00  0.00     0.000 C 
BRANCH   3   4
ATOM      4  C   UNL     1     -95.385 147.833 238.999  1.00  0.00     0.000 C 
BRANCH   4   5
ATOM      5  C   UNL     1     -96.539 148.704 238.471  1.00  0.00     0.000 C 
BRANCH   5   6
ATOM      6  C   UNL     1     -96.500 150.142 239.015  1.00  0.00     0.000 C 
BRANCH   6   7
ATOM      7  C   UNL     1     -97.840 150.884 238.850  1.00  0.00     0.000 C 
BRANCH   7   8
ATOM      8  C   UNL     1     -99.029 150.012 238.406  1.00  0.00     0.000 C 
BRANCH   8   9
ATOM      9  C   UNL     1    -100.045 149.762 239.532  1.00  0.00     0.000 C 
BRANCH   9  10
ATOM     10  C   UNL     1     -99.826 148.416 240.249  1.00  0.00     0.000 C 
BRANCH  10  11
ATOM     11  C   UNL     1     -98.815 148.444 241.414  1.00  0.00     0.000 C 
BRANCH  11  12
ATOM     12  C   UNL     1     -98.743 149.775 242.183  1.00  0.00     0.000 C 
BRANCH  12  13
ATOM     13  C   UNL     1     -99.903 149.953 243.177  1.00  0.00     0.006 C 
BRANCH  13  14
ATOM     14  C   UNL     1    -100.482 151.374 243.142  1.00  0.00     0.053 C 
BRANCH  14  15
ATOM     15  C   UNL     1     -99.999 152.198 244.295  1.00  0.00     0.041 C 
ATOM     16  O   UNL     1    -100.818 152.654 245.137  1.00  0.00    -0.550 OA
ATOM     17  O   UNL     1     -98.648 152.495 244.421  1.00  0.00    -0.550 OA
ENDBRANCH  14  15
ENDBRANCH  13  14
ENDBRANCH  12  13
ENDBRANCH  11  12
ENDBRANCH  10  11
ENDBRANCH   9  10
ENDBRANCH   8   9
ENDBRANCH   7   8
ENDBRANCH   6   7
ENDBRANCH   5   6
ENDBRANCH   4   5
ENDBRANCH   3   4
ENDBRANCH   2   3
ENDBRANCH   1   2
BRANCH   1  18
ATOM     18  C   UNL     1     -95.057 148.467 234.364  1.00  0.00     0.000 C 
BRANCH  18  19
ATOM     19  C   UNL     1     -96.039 149.505 234.948  1.00  0.00     0.000 C 
BRANCH  19  20
ATOM     20  C   UNL     1     -97.501 149.034 235.052  1.00  0.00     0.000 C 
BRANCH  20  21
ATOM     21  C   UNL     1     -98.479 149.950 234.300  1.00  0.00     0.000 C 
BRANCH  21  22
ATOM     22  C   UNL     1     -99.909 149.771 234.821  1.00  0.00     0.000 C 
BRANCH  22  23
ATOM     23  C   UNL     1    -100.542 151.122 235.168  1.00  0.00     0.000 C 
BRANCH  23  24
ATOM     24  C   UNL     1     -99.482 152.233 235.202  1.00  0.00    -0.000 C 
BRANCH  24  25
ATOM     25  C   UNL     1     -99.791 153.384 234.226  1.00  0.00    -0.000 C 
BRANCH  25  26
ATOM     26  C   UNL     1     -99.497 153.081 232.742  1.00  0.00    -0.000 C 
BRANCH  26  27
ATOM     27  C   UNL     1     -98.293 153.835 232.146  1.00  0.00    -0.000 C 
BRANCH  27  28
ATOM     28  C   UNL     1     -97.046 153.869 233.052  1.00  0.00    -0.000 C 
BRANCH  28  29
ATOM     29  C   UNL     1     -96.189 152.584 232.975  1.00  0.00    -0.000 C 
BRANCH  29  30
ATOM     30  C   UNL     1     -95.939 152.081 231.538  1.00  0.00    -0.000 C 
BRANCH  30  31
ATOM     31  C   UNL     1     -96.286 150.598 231.314  1.00  0.00    -0.003 C 
ATOM     32  C   UNL     1     -97.673 150.395 230.702  1.00  0.00     0.004 C 
ENDBRANCH  30  31
ENDBRANCH  29  30
ENDBRANCH  28  29
ENDBRANCH  27  28
ENDBRANCH  26  27
ENDBRANCH  25  26
ENDBRANCH  24  25
ENDBRANCH  23  24
ENDBRANCH  22  23
ENDBRANCH  21  22
ENDBRANCH  20  21
ENDBRANCH  19  20
ENDBRANCH  18  19
ENDBRANCH   1  18
TORSDOF 28
ENDMDL
MODEL 9
REMARK VINA RESULT:    -3.289      3.077      8.381
REMARK INTER + INTRA:         -13.877
REMARK INTER:                  -8.717
REMARK INTRA:                  -5.160
REMARK UNBOUND:                -5.204
REMARK SMILES CCCCCCCCCCCCCCCCCCCCCCCCCCCCCC(=O)[O-]
REMARK SMILES IDX 16 1 17 2 18 3 19 4 20 5 21 6 22 7 23 8 24 9 25 10 26 11
REMARK SMILES IDX 27 12 28 13 29 14 30 15 31 16 32 17 15 18 14 19 13 20 12 21
REMARK SMILES IDX 11 22 10 23 9 24 8 25 7 26 6 27 5 28 4 29 3 30 2 31 1 32
REMARK H PARENT
REMARK Flexibility Score: inf
ROOT
ATOM      1  C   UNL     1     -98.739 147.897 237.385  1.00  0.00     0.000 C 
ENDROOT
BRANCH   1   2
ATOM      2  C   UNL     1     -97.487 147.004 237.347  1.00  0.00     0.000 C 
BRANCH   2   3
ATOM      3  C   UNL     1     -96.800 146.881 238.719  1.00  0.00     0.000 C 
BRANCH   3   4
ATOM      4  C   UNL     1     -95.297 147.231 238.738  1.00  0.00     0.000 C 
BRANCH   4   5
ATOM      5  C   UNL     1     -94.945 148.656 238.275  1.00  0.00     0.000 C 
BRANCH   5   6
ATOM      6  C   UNL     1     -94.174 148.679 236.945  1.00  0.00     0.000 C 
BRANCH   6   7
ATOM      7  C   UNL     1     -94.940 149.395 235.817  1.00  0.00     0.000 C 
BRANCH   7   8
ATOM      8  C   UNL     1     -95.318 148.515 234.611  1.00  0.00     0.000 C 
BRANCH   8   9
ATOM      9  C   UNL     1     -96.662 148.910 233.977  1.00  0.00     0.000 C 
BRANCH   9  10
ATOM     10  C   UNL     1     -96.520 149.388 232.520  1.00  0.00     0.000 C 
BRANCH  10  11
ATOM     11  C   UNL     1     -95.377 150.392 232.262  1.00  0.00     0.000 C 
BRANCH  11  12
ATOM     12  C   UNL     1     -95.560 151.771 232.918  1.00  0.00     0.000 C 
BRANCH  12  13
ATOM     13  C   UNL     1     -96.504 152.690 232.123  1.00  0.00     0.006 C 
BRANCH  13  14
ATOM     14  C   UNL     1     -97.297 153.634 233.036  1.00  0.00     0.053 C 
BRANCH  14  15
ATOM     15  C   UNL     1     -98.676 153.117 233.306  1.00  0.00     0.041 C 
ATOM     16  O   UNL     1     -99.002 151.957 232.938  1.00  0.00    -0.550 OA
ATOM     17  O   UNL     1     -99.615 153.929 233.930  1.00  0.00    -0.550 OA
ENDBRANCH  14  15
ENDBRANCH  13  14
ENDBRANCH  12  13
ENDBRANCH  11  12
ENDBRANCH  10  11
ENDBRANCH   9  10
ENDBRANCH   8   9
ENDBRANCH   7   8
ENDBRANCH   6   7
ENDBRANCH   5   6
ENDBRANCH   4   5
ENDBRANCH   3   4
ENDBRANCH   2   3
ENDBRANCH   1   2
BRANCH   1  18
ATOM     18  C   UNL     1     -98.427 149.377 237.101  1.00  0.00     0.000 C 
BRANCH  18  19
ATOM     19  C   UNL     1     -98.858 150.366 238.204  1.00  0.00     0.000 C 
BRANCH  19  20
ATOM     20  C   UNL     1     -97.840 150.559 239.342  1.00  0.00     0.000 C 
BRANCH  20  21
ATOM     21  C   UNL     1     -98.428 150.257 240.728  1.00  0.00     0.000 C 
BRANCH  21  22
ATOM     22  C   UNL     1     -97.983 148.878 241.225  1.00  0.00     0.000 C 
BRANCH  22  23
ATOM     23  C   UNL     1     -99.154 148.115 241.854  1.00  0.00     0.000 C 
BRANCH  23  24
ATOM     24  C   UNL     1     -99.933 147.328 240.790  1.00  0.00    -0.000 C 
BRANCH  24  25
ATOM     25  C   UNL     1    -101.428 147.694 240.752  1.00  0.00    -0.000 C 
BRANCH  25  26
ATOM     26  C   UNL     1    -101.778 148.934 239.902  1.00  0.00    -0.000 C 
BRANCH  26  27
ATOM     27  C   UNL     1    -102.423 150.098 240.677  1.00  0.00    -0.000 C 
BRANCH  27  28
ATOM     28  C   UNL     1    -102.122 150.107 242.188  1.00  0.00    -0.000 C 
BRANCH  28  29
ATOM     29  C   UNL     1    -101.353 151.364 242.658  1.00  0.00    -0.000 C 
BRANCH  29  30
ATOM     30  C   UNL     1    -100.387 151.107 243.833  1.00  0.00    -0.000 C 
BRANCH  30  31
ATOM     31  C   UNL     1     -99.142 152.014 243.843  1.00  0.00    -0.003 C 
ATOM     32  C   UNL     1     -99.091 152.944 245.055  1.00  0.00     0.004 C 
ENDBRANCH  30  31
ENDBRANCH  29  30
ENDBRANCH  28  29
ENDBRANCH  27  28
ENDBRANCH  26  27
ENDBRANCH  25  26
ENDBRANCH  24  25
ENDBRANCH  23  24
ENDBRANCH  22  23
ENDBRANCH  21  22
ENDBRANCH  20  21
ENDBRANCH  19  20
ENDBRANCH  18  19
ENDBRANCH   1  18
TORSDOF 28
ENDMDL
