MODEL 1
REMARK VINA RESULT:    -5.139      0.000      0.000
REMARK INTER + INTRA:          -8.900
REMARK INTER:                  -8.144
REMARK INTRA:                  -0.756
REMARK UNBOUND:                -0.756
REMARK SMILES CCCCCCCCCCCC(=O)[O-]
REMARK SMILES IDX 7 1 8 2 9 3 10 4 11 5 12 6 13 7 14 8 6 9 5 10 4 11 3 12 2 13
REMARK SMILES IDX 1 14
REMARK H PARENT
REMARK Flexibility Score: inf
ROOT
ATOM      1  C   UNL     1      -3.877   8.103   5.667  1.00  0.00     0.000 C 
ENDROOT
BRANCH   1   2
ATOM      2  C   UNL     1      -4.045   6.854   4.789  1.00  0.00     0.000 C 
BRANCH   2   3
ATOM      3  C   UNL     1      -2.753   6.469   4.049  1.00  0.00     0.000 C 
BRANCH   3   4
ATOM      4  C   UNL     1      -2.040   5.266   4.689  1.00  0.00     0.006 C 
BRANCH   4   5
ATOM      5  C   UNL     1      -2.970   4.467   5.613  1.00  0.00     0.053 C 
BRANCH   5   6
ATOM      6  C   UNL     1      -2.358   3.164   6.029  1.00  0.00     0.041 C 
ATOM      7  O   UNL     1      -2.374   2.179   5.247  1.00  0.00    -0.550 OA
ATOM      8  O   UNL     1      -1.799   3.031   7.294  1.00  0.00    -0.550 OA
ENDBRANCH   5   6
ENDBRANCH   4   5
ENDBRANCH   3   4
ENDBRANCH   2   3
ENDBRANCH   1   2
BRANCH   1   9
ATOM      9  C   UNL     1      -4.629   7.943   6.997  1.00  0.00     0.000 C 
BRANCH   9  10
ATOM     10  C   UNL     1      -5.395   6.614   7.092  1.00  0.00    -0.000 C 
BRANCH  10  11
ATOM     11  C   UNL     1      -6.091   6.428   8.452  1.00  0.00    -0.000 C 
BRANCH  11  12
ATOM     12  C   UNL     1      -6.203   7.741   9.242  1.00  0.00    -0.000 C 
BRANCH  12  13
ATOM     13  C   UNL     1      -7.622   7.994   9.775  1.00  0.00    -0.003 C 
ATOM     14  C   UNL     1      -8.675   7.454   8.810  1.00  0.00     0.004 C 
ENDBRANCH  12  13
ENDBRANCH  11  12
ENDBRANCH  10  11
ENDBRANCH   9  10
ENDBRANCH   1   9
TORSDOF 10
ENDMDL
MODEL 2
REMARK VINA RESULT:    -4.825      3.283      6.002
REMARK INTER + INTRA:          -8.401
REMARK INTER:                  -7.744
REMARK INTRA:                  -0.657
REMARK UNBOUND:                -0.756
REMARK SMILES CCCCCCCCCCCC(=O)[O-]
REMARK SMILES IDX 7 1 8 2 9 3 10 4 11 5 12 6 13 7 14 8 6 9 5 10 4 11 3 12 2 13
REMARK SMILES IDX 1 14
REMARK H PARENT
REMARK Flexibility Score: inf
ROOT
ATOM      1  C   UNL     1      -3.870   8.211   5.322  1.00  0.00     0.000 C 
ENDROOT
BRANCH   1   2
ATOM      2  C   UNL     1      -4.321   8.115   6.787  1.00  0.00     0.000 C 
BRANCH   2   3
ATOM      3  C   UNL     1      -5.164   6.860   7.068  1.00  0.00     0.000 C 
BRANCH   3   4
ATOM      4  C   UNL     1      -6.133   7.049   8.248  1.00  0.00     0.006 C 
BRANCH   4   5
ATOM      5  C   UNL     1      -7.035   5.825   8.457  1.00  0.00     0.053 C 
BRANCH   5   6
ATOM      6  C   UNL     1      -8.453   6.219   8.738  1.00  0.00     0.041 C 
ATOM      7  O   UNL     1      -9.125   6.832   7.868  1.00  0.00    -0.550 OA
ATOM      8  O   UNL     1      -9.022   5.935   9.974  1.00  0.00    -0.550 OA
ENDBRANCH   5   6
ENDBRANCH   4   5
ENDBRANCH   3   4
ENDBRANCH   2   3
ENDBRANCH   1   2
BRANCH   1   9
ATOM      9  C   UNL     1      -3.965   6.843   4.628  1.00  0.00     0.000 C 
BRANCH   9  10
ATOM     10  C   UNL     1      -2.683   6.472   3.865  1.00  0.00    -0.000 C 
BRANCH  10  11
ATOM     11  C   UNL     1      -2.016   5.199   4.415  1.00  0.00    -0.000 C 
BRANCH  11  12
ATOM     12  C   UNL     1      -2.775   4.604   5.611  1.00  0.00    -0.000 C 
BRANCH  12  13
ATOM     13  C   UNL     1      -2.318   3.178   5.954  1.00  0.00    -0.003 C 
ATOM     14  C   UNL     1      -1.777   3.102   7.379  1.00  0.00     0.004 C 
ENDBRANCH  12  13
ENDBRANCH  11  12
ENDBRANCH  10  11
ENDBRANCH   9  10
ENDBRANCH   1   9
TORSDOF 10
ENDMDL
MODEL 3
REMARK VINA RESULT:    -4.806      2.365      5.532
REMARK INTER + INTRA:          -8.372
REMARK INTER:                  -7.636
REMARK INTRA:                  -0.736
REMARK UNBOUND:                -0.756
REMARK SMILES CCCCCCCCCCCC(=O)[O-]
REMARK SMILES IDX 7 1 8 2 9 3 10 4 11 5 12 6 13 7 14 8 6 9 5 10 4 11 3 12 2 13
REMARK SMILES IDX 1 14
REMARK H PARENT
REMARK Flexibility Score: inf
ROOT
ATOM      1  C   UNL     1      -4.465   7.923   6.992  1.00  0.00     0.000 C 
ENDROOT
BRANCH   1   2
ATOM      2  C   UNL     1      -5.398   6.709   7.102  1.00  0.00     0.000 C 
BRANCH   2   3
ATOM      3  C   UNL     1      -6.420   6.846   8.243  1.00  0.00     0.000 C 
BRANCH   3   4
ATOM      4  C   UNL     1      -7.562   5.822   8.142  1.00  0.00     0.006 C 
BRANCH   4   5
ATOM      5  C   UNL     1      -7.798   5.086   9.469  1.00  0.00     0.053 C 
BRANCH   5   6
ATOM      6  C   UNL     1      -7.032   3.800   9.538  1.00  0.00     0.041 C 
ATOM      7  O   UNL     1      -7.604   2.708   9.284  1.00  0.00    -0.550 OA
ATOM      8  O   UNL     1      -5.695   3.807   9.914  1.00  0.00    -0.550 OA
ENDBRANCH   5   6
ENDBRANCH   4   5
ENDBRANCH   3   4
ENDBRANCH   2   3
ENDBRANCH   1   2
BRANCH   1   9
ATOM      9  C   UNL     1      -4.038   8.156   5.534  1.00  0.00     0.000 C 
BRANCH   9  10
ATOM     10  C   UNL     1      -4.092   6.875   4.686  1.00  0.00    -0.000 C 
BRANCH  10  11
ATOM     11  C   UNL     1      -2.762   6.584   3.969  1.00  0.00    -0.000 C 
BRANCH  11  12
ATOM     12  C   UNL     1      -2.056   5.334   4.517  1.00  0.00    -0.000 C 
BRANCH  12  13
ATOM     13  C   UNL     1      -2.901   4.585   5.558  1.00  0.00    -0.003 C 
ATOM     14  C   UNL     1      -2.305   3.214   5.866  1.00  0.00     0.004 C 
ENDBRANCH  12  13
ENDBRANCH  11  12
ENDBRANCH  10  11
ENDBRANCH   9  10
ENDBRANCH   1   9
TORSDOF 10
ENDMDL
MODEL 4
REMARK VINA RESULT:    -4.733      1.823      3.254
REMARK INTER + INTRA:          -8.255
REMARK INTER:                  -7.796
REMARK INTRA:                  -0.459
REMARK UNBOUND:                -0.756
REMARK SMILES CCCCCCCCCCCC(=O)[O-]
REMARK SMILES IDX 7 1 8 2 9 3 10 4 11 5 12 6 13 7 14 8 6 9 5 10 4 11 3 12 2 13
REMARK SMILES IDX 1 14
REMARK H PARENT
REMARK Flexibility Score: inf
ROOT
ATOM      1  C   UNL     1      -2.660   5.599   4.661  1.00  0.00     0.000 C 
ENDROOT
BRANCH   1   2
ATOM      2  C   UNL     1      -3.108   4.275   5.297  1.00  0.00     0.000 C 
BRANCH   2   3
ATOM      3  C   UNL     1      -1.938   3.482   5.904  1.00  0.00     0.000 C 
BRANCH   3   4
ATOM      4  C   UNL     1      -2.149   3.162   7.393  1.00  0.00     0.006 C 
BRANCH   4   5
ATOM      5  C   UNL     1      -0.878   2.605   8.050  1.00  0.00     0.053 C 
BRANCH   5   6
ATOM      6  C   UNL     1      -1.194   1.585   9.101  1.00  0.00     0.041 C 
ATOM      7  O   UNL     1      -2.137   1.781   9.911  1.00  0.00    -0.550 OA
ATOM      8  O   UNL     1      -0.426   0.433   9.205  1.00  0.00    -0.550 OA
ENDBRANCH   5   6
ENDBRANCH   4   5
ENDBRANCH   3   4
ENDBRANCH   2   3
ENDBRANCH   1   2
BRANCH   1   9
ATOM      9  C   UNL     1      -3.852   6.554   4.486  1.00  0.00     0.000 C 
BRANCH   9  10
ATOM     10  C   UNL     1      -3.613   7.929   5.131  1.00  0.00    -0.000 C 
BRANCH  10  11
ATOM     11  C   UNL     1      -4.373   8.099   6.458  1.00  0.00    -0.000 C 
BRANCH  11  12
ATOM     12  C   UNL     1      -5.124   6.826   6.876  1.00  0.00    -0.000 C 
BRANCH  12  13
ATOM     13  C   UNL     1      -5.930   7.010   8.171  1.00  0.00    -0.003 C 
ATOM     14  C   UNL     1      -7.197   6.159   8.156  1.00  0.00     0.004 C 
ENDBRANCH  12  13
ENDBRANCH  11  12
ENDBRANCH  10  11
ENDBRANCH   9  10
ENDBRANCH   1   9
TORSDOF 10
ENDMDL
MODEL 5
REMARK VINA RESULT:    -4.547      2.941      5.720
REMARK INTER + INTRA:          -7.962
REMARK INTER:                  -7.740
REMARK INTRA:                  -0.221
REMARK UNBOUND:                -0.756
REMARK SMILES CCCCCCCCCCCC(=O)[O-]
REMARK SMILES IDX 7 1 8 2 9 3 10 4 11 5 12 6 13 7 14 8 6 9 5 10 4 11 3 12 2 13
REMARK SMILES IDX 1 14
REMARK H PARENT
REMARK Flexibility Score: inf
ROOT
ATOM      1  C   UNL     1      -3.443   5.992   4.141  1.00  0.00     0.000 C 
ENDROOT
BRANCH   1   2
ATOM      2  C   UNL     1      -3.103   7.438   4.529  1.00  0.00     0.000 C 
BRANCH   2   3
ATOM      3  C   UNL     1      -4.282   8.169   5.191  1.00  0.00     0.000 C 
BRANCH   3   4
ATOM      4  C   UNL     1      -4.322   7.971   6.716  1.00  0.00     0.006 C 
BRANCH   4   5
ATOM      5  C   UNL     1      -5.334   6.894   7.133  1.00  0.00     0.053 C 
BRANCH   5   6
ATOM      6  C   UNL     1      -6.094   7.289   8.362  1.00  0.00     0.041 C 
ATOM      7  O   UNL     1      -7.290   6.929   8.510  1.00  0.00    -0.550 OA
ATOM      8  O   UNL     1      -5.488   8.080   9.330  1.00  0.00    -0.550 OA
ENDBRANCH   5   6
ENDBRANCH   4   5
ENDBRANCH   3   4
ENDBRANCH   2   3
ENDBRANCH   1   2
BRANCH   1   9
ATOM      9  C   UNL     1      -3.213   5.038   5.323  1.00  0.00     0.000 C 
BRANCH   9  10
ATOM     10  C   UNL     1      -1.960   4.164   5.149  1.00  0.00    -0.000 C 
BRANCH  10  11
ATOM     11  C   UNL     1      -2.004   2.889   6.009  1.00  0.00    -0.000 C 
BRANCH  11  12
ATOM     12  C   UNL     1      -1.967   3.192   7.515  1.00  0.00    -0.000 C 
BRANCH  12  13
ATOM     13  C   UNL     1      -0.842   2.441   8.244  1.00  0.00    -0.003 C 
ATOM     14  C   UNL     1      -1.285   2.009   9.639  1.00  0.00     0.004 C 
ENDBRANCH  12  13
ENDBRANCH  11  12
ENDBRANCH  10  11
ENDBRANCH   9  10
ENDBRANCH   1   9
TORSDOF 10
ENDMDL
MODEL 6
REMARK VINA RESULT:    -4.142     13.872     15.785
REMARK INTER + INTRA:          -7.319
REMARK INTER:                  -6.731
REMARK INTRA:                  -0.588
REMARK UNBOUND:                -0.756
REMARK SMILES CCCCCCCCCCCC(=O)[O-]
REMARK SMILES IDX 7 1 8 2 9 3 10 4 11 5 12 6 13 7 14 8 6 9 5 10 4 11 3 12 2 13
REMARK SMILES IDX 1 14
REMARK H PARENT
REMARK Flexibility Score: inf
ROOT
ATOM      1  C   UNL     1       7.897   6.062  -1.695  1.00  0.00     0.000 C 
ENDROOT
BRANCH   1   2
ATOM      2  C   UNL     1       7.368   5.007  -2.678  1.00  0.00     0.000 C 
BRANCH   2   3
ATOM      3  C   UNL     1       7.070   5.589  -4.070  1.00  0.00     0.000 C 
BRANCH   3   4
ATOM      4  C   UNL     1       8.311   5.617  -4.979  1.00  0.00     0.006 C 
BRANCH   4   5
ATOM      5  C   UNL     1       8.117   6.533  -6.195  1.00  0.00     0.053 C 
BRANCH   5   6
ATOM      6  C   UNL     1       7.602   5.781  -7.384  1.00  0.00     0.041 C 
ATOM      7  O   UNL     1       6.824   6.341  -8.199  1.00  0.00    -0.550 OA
ATOM      8  O   UNL     1       7.958   4.451  -7.573  1.00  0.00    -0.550 OA
ENDBRANCH   5   6
ENDBRANCH   4   5
ENDBRANCH   3   4
ENDBRANCH   2   3
ENDBRANCH   1   2
BRANCH   1   9
ATOM      9  C   UNL     1       7.120   7.380  -1.835  1.00  0.00     0.000 C 
BRANCH   9  10
ATOM     10  C   UNL     1       7.877   8.582  -1.247  1.00  0.00    -0.000 C 
BRANCH  10  11
ATOM     11  C   UNL     1       7.016   9.857  -1.199  1.00  0.00    -0.000 C 
BRANCH  11  12
ATOM     12  C   UNL     1       5.809   9.790  -2.147  1.00  0.00    -0.000 C 
BRANCH  12  13
ATOM     13  C   UNL     1       4.486  10.141  -1.448  1.00  0.00    -0.003 C 
ATOM     14  C   UNL     1       3.533  10.852  -2.404  1.00  0.00     0.004 C 
ENDBRANCH  12  13
ENDBRANCH  11  12
ENDBRANCH  10  11
ENDBRANCH   9  10
ENDBRANCH   1   9
TORSDOF 10
ENDMDL
MODEL 7
REMARK VINA RESULT:    -4.140     14.630     17.668
REMARK INTER + INTRA:          -7.316
REMARK INTER:                  -6.217
REMARK INTRA:                  -1.099
REMARK UNBOUND:                -0.756
REMARK SMILES CCCCCCCCCCCC(=O)[O-]
REMARK SMILES IDX 7 1 8 2 9 3 10 4 11 5 12 6 13 7 14 8 6 9 5 10 4 11 3 12 2 13
REMARK SMILES IDX 1 14
REMARK H PARENT
REMARK Flexibility Score: inf
ROOT
ATOM      1  C   UNL     1       9.233   7.321  -4.469  1.00  0.00     0.000 C 
ENDROOT
BRANCH   1   2
ATOM      2  C   UNL     1       8.917   5.842  -4.202  1.00  0.00     0.000 C 
BRANCH   2   3
ATOM      3  C   UNL     1       7.445   5.607  -3.826  1.00  0.00     0.000 C 
BRANCH   3   4
ATOM      4  C   UNL     1       7.013   6.412  -2.589  1.00  0.00     0.006 C 
BRANCH   4   5
ATOM      5  C   UNL     1       7.802   6.012  -1.335  1.00  0.00     0.053 C 
BRANCH   5   6
ATOM      6  C   UNL     1       7.687   4.545  -1.048  1.00  0.00     0.041 C 
ATOM      7  O   UNL     1       6.592   4.059  -0.664  1.00  0.00    -0.550 OA
ATOM      8  O   UNL     1       8.799   3.723  -1.176  1.00  0.00    -0.550 OA
ENDBRANCH   5   6
ENDBRANCH   4   5
ENDBRANCH   3   4
ENDBRANCH   2   3
ENDBRANCH   1   2
BRANCH   1   9
ATOM      9  C   UNL     1       8.542   7.806  -5.753  1.00  0.00     0.000 C 
BRANCH   9  10
ATOM     10  C   UNL     1       8.959   7.001  -6.994  1.00  0.00    -0.000 C 
BRANCH  10  11
ATOM     11  C   UNL     1       7.758   6.383  -7.730  1.00  0.00    -0.000 C 
BRANCH  11  12
ATOM     12  C   UNL     1       7.726   4.850  -7.623  1.00  0.00    -0.000 C 
BRANCH  12  13
ATOM     13  C   UNL     1       9.127   4.236  -7.479  1.00  0.00    -0.003 C 
ATOM     14  C   UNL     1       9.376   3.179  -8.550  1.00  0.00     0.004 C 
ENDBRANCH  12  13
ENDBRANCH  11  12
ENDBRANCH  10  11
ENDBRANCH   9  10
ENDBRANCH   1   9
TORSDOF 10
ENDMDL
MODEL 8
REMARK VINA RESULT:    -4.086     13.949     14.468
REMARK INTER + INTRA:          -7.231
REMARK INTER:                  -6.422
REMARK INTRA:                  -0.808
REMARK UNBOUND:                -0.756
REMARK SMILES CCCCCCCCCCCC(=O)[O-]
REMARK SMILES IDX 7 1 8 2 9 3 10 4 11 5 12 6 13 7 14 8 6 9 5 10 4 11 3 12 2 13
REMARK SMILES IDX 1 14
REMARK H PARENT
REMARK Flexibility Score: inf
ROOT
ATOM      1  C   UNL     1       6.538  10.350  -1.079  1.00  0.00     0.000 C 
ENDROOT
BRANCH   1   2
ATOM      2  C   UNL     1       7.265   9.177  -1.752  1.00  0.00     0.000 C 
BRANCH   2   3
ATOM      3  C   UNL     1       6.342   7.974  -2.009  1.00  0.00     0.000 C 
BRANCH   3   4
ATOM      4  C   UNL     1       7.121   6.683  -2.313  1.00  0.00     0.006 C 
BRANCH   4   5
ATOM      5  C   UNL     1       7.890   6.171  -1.087  1.00  0.00     0.053 C 
BRANCH   5   6
ATOM      6  C   UNL     1       7.817   4.679  -0.965  1.00  0.00     0.041 C 
ATOM      7  O   UNL     1       6.720   4.118  -0.710  1.00  0.00    -0.550 OA
ATOM      8  O   UNL     1       8.967   3.913  -1.104  1.00  0.00    -0.550 OA
ENDBRANCH   5   6
ENDBRANCH   4   5
ENDBRANCH   3   4
ENDBRANCH   2   3
ENDBRANCH   1   2
BRANCH   1   9
ATOM      9  C   UNL     1       7.421  10.995   0.001  1.00  0.00     0.000 C 
BRANCH   9  10
ATOM     10  C   UNL     1       8.719  10.211   0.256  1.00  0.00    -0.000 C 
BRANCH  10  11
ATOM     11  C   UNL     1       8.780   9.614   1.672  1.00  0.00    -0.000 C 
BRANCH  11  12
ATOM     12  C   UNL     1       9.242   8.148   1.675  1.00  0.00    -0.000 C 
BRANCH  12  13
ATOM     13  C   UNL     1       9.264   7.536   3.084  1.00  0.00    -0.003 C 
ATOM     14  C   UNL     1       9.221   8.622   4.155  1.00  0.00     0.004 C 
ENDBRANCH  12  13
ENDBRANCH  11  12
ENDBRANCH  10  11
ENDBRANCH   9  10
ENDBRANCH   1   9
TORSDOF 10
ENDMDL
MODEL 9
REMARK VINA RESULT:    -4.043     17.072     19.145
REMARK INTER + INTRA:          -7.162
REMARK INTER:                  -5.593
REMARK INTRA:                  -1.569
REMARK UNBOUND:                -0.756
REMARK SMILES CCCCCCCCCCCC(=O)[O-]
REMARK SMILES IDX 7 1 8 2 9 3 10 4 11 5 12 6 13 7 14 8 6 9 5 10 4 11 3 12 2 13
REMARK SMILES IDX 1 14
REMARK H PARENT
REMARK Flexibility Score: inf
ROOT
ATOM      1  C   UNL     1      -3.181  -5.892  -8.622  1.00  0.00     0.000 C 
ENDROOT
BRANCH   1   2
ATOM      2  C   UNL     1      -2.619  -4.464  -8.634  1.00  0.00     0.000 C 
BRANCH   2   3
ATOM      3  C   UNL     1      -2.492  -3.862  -7.224  1.00  0.00     0.000 C 
BRANCH   3   4
ATOM      4  C   UNL     1      -1.257  -2.958  -7.075  1.00  0.00     0.006 C 
BRANCH   4   5
ATOM      5  C   UNL     1      -0.542  -2.730  -8.414  1.00  0.00     0.053 C 
BRANCH   5   6
ATOM      6  C   UNL     1      -0.554  -1.286  -8.813  1.00  0.00     0.041 C 
ATOM      7  O   UNL     1      -1.194  -0.445  -8.131  1.00  0.00    -0.550 OA
ATOM      8  O   UNL     1       0.119  -0.875  -9.957  1.00  0.00    -0.550 OA
ENDBRANCH   5   6
ENDBRANCH   4   5
ENDBRANCH   3   4
ENDBRANCH   2   3
ENDBRANCH   1   2
BRANCH   1   9
ATOM      9  C   UNL     1      -2.052  -6.927  -8.740  1.00  0.00     0.000 C 
BRANCH   9  10
ATOM     10  C   UNL     1      -0.797  -6.363  -9.426  1.00  0.00    -0.000 C 
BRANCH  10  11
ATOM     11  C   UNL     1       0.471  -6.533  -8.570  1.00  0.00    -0.000 C 
BRANCH  11  12
ATOM     12  C   UNL     1       0.155  -6.738  -7.081  1.00  0.00    -0.000 C 
BRANCH  12  13
ATOM     13  C   UNL     1       0.736  -5.627  -6.192  1.00  0.00    -0.003 C 
ATOM     14  C   UNL     1       1.971  -5.000  -6.835  1.00  0.00     0.004 C 
ENDBRANCH  12  13
ENDBRANCH  11  12
ENDBRANCH  10  11
ENDBRANCH   9  10
ENDBRANCH   1   9
TORSDOF 10
ENDMDL
