MODEL 1
REMARK VINA RESULT:    -4.908      0.000      0.000
REMARK INTER + INTRA:          -9.338
REMARK INTER:                  -8.351
REMARK INTRA:                  -0.988
REMARK UNBOUND:                -0.988
REMARK SMILES CCCCCCCCCCCCCC(=O)[O-]
REMARK SMILES IDX 8 1 9 2 10 3 11 4 12 5 13 6 14 7 15 8 16 9 7 10 6 11 5 12
REMARK SMILES IDX 4 13 3 14 2 15 1 16
REMARK H PARENT
REMARK Flexibility Score: inf
ROOT
ATOM      1  C   UNL     1     -19.878  40.556  88.021  1.00  0.00     0.000 C 
ENDROOT
BRANCH   1   2
ATOM      2  C   UNL     1     -20.461  39.981  86.709  1.00  0.00     0.000 C 
BRANCH   2   3
ATOM      3  C   UNL     1     -20.237  38.467  86.538  1.00  0.00     0.000 C 
BRANCH   3   4
ATOM      4  C   UNL     1     -20.287  37.959  85.084  1.00  0.00     0.000 C 
BRANCH   4   5
ATOM      5  C   UNL     1     -18.954  38.049  84.318  1.00  0.00     0.006 C 
BRANCH   5   6
ATOM      6  C   UNL     1     -18.775  36.918  83.298  1.00  0.00     0.053 C 
BRANCH   6   7
ATOM      7  C   UNL     1     -17.359  36.434  83.300  1.00  0.00     0.041 C 
ATOM      8  O   UNL     1     -16.409  37.256  83.386  1.00  0.00    -0.550 OA
ATOM      9  O   UNL     1     -17.087  35.080  83.156  1.00  0.00    -0.550 OA
ENDBRANCH   6   7
ENDBRANCH   5   6
ENDBRANCH   4   5
ENDBRANCH   3   4
ENDBRANCH   2   3
ENDBRANCH   1   2
BRANCH   1  10
ATOM     10  C   UNL     1     -20.923  41.140  88.992  1.00  0.00     0.000 C 
BRANCH  10  11
ATOM     11  C   UNL     1     -20.676  40.857  90.489  1.00  0.00    -0.000 C 
BRANCH  11  12
ATOM     12  C   UNL     1     -20.608  39.369  90.877  1.00  0.00    -0.000 C 
BRANCH  12  13
ATOM     13  C   UNL     1     -19.244  38.968  91.467  1.00  0.00    -0.000 C 
BRANCH  13  14
ATOM     14  C   UNL     1     -18.349  38.239  90.442  1.00  0.00    -0.000 C 
BRANCH  14  15
ATOM     15  C   UNL     1     -19.091  37.180  89.611  1.00  0.00    -0.003 C 
ATOM     16  C   UNL     1     -18.225  35.970  89.267  1.00  0.00     0.004 C 
ENDBRANCH  14  15
ENDBRANCH  13  14
ENDBRANCH  12  13
ENDBRANCH  11  12
ENDBRANCH  10  11
ENDBRANCH   1  10
TORSDOF 12
ENDMDL
MODEL 2
REMARK VINA RESULT:    -4.879      7.966     10.561
REMARK INTER + INTRA:          -9.290
REMARK INTER:                  -8.567
REMARK INTRA:                  -0.723
REMARK UNBOUND:                -0.988
REMARK SMILES CCCCCCCCCCCCCC(=O)[O-]
REMARK SMILES IDX 8 1 9 2 10 3 11 4 12 5 13 6 14 7 15 8 16 9 7 10 6 11 5 12
REMARK SMILES IDX 4 13 3 14 2 15 1 16
REMARK H PARENT
REMARK Flexibility Score: inf
ROOT
ATOM      1  C   UNL     1     -24.324  45.036  87.739  1.00  0.00     0.000 C 
ENDROOT
BRANCH   1   2
ATOM      2  C   UNL     1     -25.409  46.014  87.233  1.00  0.00     0.000 C 
BRANCH   2   3
ATOM      3  C   UNL     1     -26.273  46.621  88.354  1.00  0.00     0.000 C 
BRANCH   3   4
ATOM      4  C   UNL     1     -26.008  46.055  89.763  1.00  0.00     0.000 C 
BRANCH   4   5
ATOM      5  C   UNL     1     -27.222  45.386  90.434  1.00  0.00     0.006 C 
BRANCH   5   6
ATOM      6  C   UNL     1     -26.950  43.934  90.846  1.00  0.00     0.053 C 
BRANCH   6   7
ATOM      7  C   UNL     1     -28.053  43.042  90.370  1.00  0.00     0.041 C 
ATOM      8  O   UNL     1     -28.124  42.715  89.156  1.00  0.00    -0.550 OA
ATOM      9  O   UNL     1     -29.033  42.614  91.256  1.00  0.00    -0.550 OA
ENDBRANCH   6   7
ENDBRANCH   5   6
ENDBRANCH   4   5
ENDBRANCH   3   4
ENDBRANCH   2   3
ENDBRANCH   1   2
BRANCH   1  10
ATOM     10  C   UNL     1     -22.873  45.485  87.473  1.00  0.00     0.000 C 
BRANCH  10  11
ATOM     11  C   UNL     1     -22.597  46.057  86.067  1.00  0.00    -0.000 C 
BRANCH  11  12
ATOM     12  C   UNL     1     -21.328  45.528  85.376  1.00  0.00    -0.000 C 
BRANCH  12  13
ATOM     13  C   UNL     1     -20.707  44.324  86.108  1.00  0.00    -0.000 C 
BRANCH  13  14
ATOM     14  C   UNL     1     -19.481  43.751  85.366  1.00  0.00    -0.000 C 
BRANCH  14  15
ATOM     15  C   UNL     1     -18.813  44.748  84.405  1.00  0.00    -0.003 C 
ATOM     16  C   UNL     1     -17.453  45.237  84.897  1.00  0.00     0.004 C 
ENDBRANCH  14  15
ENDBRANCH  13  14
ENDBRANCH  12  13
ENDBRANCH  11  12
ENDBRANCH  10  11
ENDBRANCH   1  10
TORSDOF 12
ENDMDL
MODEL 3
REMARK VINA RESULT:    -4.848      1.858      3.953
REMARK INTER + INTRA:          -9.237
REMARK INTER:                  -8.317
REMARK INTRA:                  -0.919
REMARK UNBOUND:                -0.988
REMARK SMILES CCCCCCCCCCCCCC(=O)[O-]
REMARK SMILES IDX 8 1 9 2 10 3 11 4 12 5 13 6 14 7 15 8 16 9 7 10 6 11 5 12
REMARK SMILES IDX 4 13 3 14 2 15 1 16
REMARK H PARENT
REMARK Flexibility Score: inf
ROOT
ATOM      1  C   UNL     1     -20.348  38.035  87.766  1.00  0.00     0.000 C 
ENDROOT
BRANCH   1   2
ATOM      2  C   UNL     1     -20.643  38.477  86.314  1.00  0.00     0.000 C 
BRANCH   2   3
ATOM      3  C   UNL     1     -19.496  38.187  85.329  1.00  0.00     0.000 C 
BRANCH   3   4
ATOM      4  C   UNL     1     -19.907  37.432  84.050  1.00  0.00     0.000 C 
BRANCH   4   5
ATOM      5  C   UNL     1     -18.745  37.072  83.105  1.00  0.00     0.006 C 
BRANCH   5   6
ATOM      6  C   UNL     1     -17.380  37.095  83.803  1.00  0.00     0.053 C 
BRANCH   6   7
ATOM      7  C   UNL     1     -16.902  35.700  84.058  1.00  0.00     0.041 C 
ATOM      8  O   UNL     1     -16.852  34.865  83.117  1.00  0.00    -0.550 OA
ATOM      9  O   UNL     1     -16.559  35.307  85.346  1.00  0.00    -0.550 OA
ENDBRANCH   6   7
ENDBRANCH   5   6
ENDBRANCH   4   5
ENDBRANCH   3   4
ENDBRANCH   2   3
ENDBRANCH   1   2
BRANCH   1  10
ATOM     10  C   UNL     1     -20.631  39.107  88.839  1.00  0.00     0.000 C 
BRANCH  10  11
ATOM     11  C   UNL     1     -19.775  40.388  88.745  1.00  0.00    -0.000 C 
BRANCH  11  12
ATOM     12  C   UNL     1     -20.534  41.707  88.976  1.00  0.00    -0.000 C 
BRANCH  12  13
ATOM     13  C   UNL     1     -21.088  42.313  87.674  1.00  0.00    -0.000 C 
BRANCH  13  14
ATOM     14  C   UNL     1     -20.208  41.983  86.449  1.00  0.00    -0.000 C 
BRANCH  14  15
ATOM     15  C   UNL     1     -19.638  43.222  85.741  1.00  0.00    -0.003 C 
ATOM     16  C   UNL     1     -20.511  44.464  85.906  1.00  0.00     0.004 C 
ENDBRANCH  14  15
ENDBRANCH  13  14
ENDBRANCH  12  13
ENDBRANCH  11  12
ENDBRANCH  10  11
ENDBRANCH   1  10
TORSDOF 12
ENDMDL
MODEL 4
REMARK VINA RESULT:    -4.808      5.531      8.006
REMARK INTER + INTRA:          -9.168
REMARK INTER:                  -7.943
REMARK INTRA:                  -1.224
REMARK UNBOUND:                -0.988
REMARK SMILES CCCCCCCCCCCCCC(=O)[O-]
REMARK SMILES IDX 8 1 9 2 10 3 11 4 12 5 13 6 14 7 15 8 16 9 7 10 6 11 5 12
REMARK SMILES IDX 4 13 3 14 2 15 1 16
REMARK H PARENT
REMARK Flexibility Score: inf
ROOT
ATOM      1  C   UNL     1     -18.391  44.530  85.384  1.00  0.00     0.000 C 
ENDROOT
BRANCH   1   2
ATOM      2  C   UNL     1     -19.707  43.724  85.284  1.00  0.00     0.000 C 
BRANCH   2   3
ATOM      3  C   UNL     1     -20.299  43.324  86.648  1.00  0.00     0.000 C 
BRANCH   3   4
ATOM      4  C   UNL     1     -20.855  41.889  86.724  1.00  0.00     0.000 C 
BRANCH   4   5
ATOM      5  C   UNL     1     -19.912  40.859  87.375  1.00  0.00     0.006 C 
BRANCH   5   6
ATOM      6  C   UNL     1     -20.560  40.117  88.549  1.00  0.00     0.053 C 
BRANCH   6   7
ATOM      7  C   UNL     1     -20.513  38.639  88.320  1.00  0.00     0.041 C 
ATOM      8  O   UNL     1     -21.045  38.139  87.294  1.00  0.00    -0.550 OA
ATOM      9  O   UNL     1     -19.926  37.807  89.265  1.00  0.00    -0.550 OA
ENDBRANCH   6   7
ENDBRANCH   5   6
ENDBRANCH   4   5
ENDBRANCH   3   4
ENDBRANCH   2   3
ENDBRANCH   1   2
BRANCH   1  10
ATOM     10  C   UNL     1     -17.940  45.199  84.070  1.00  0.00     0.000 C 
BRANCH  10  11
ATOM     11  C   UNL     1     -18.695  46.488  83.683  1.00  0.00    -0.000 C 
BRANCH  11  12
ATOM     12  C   UNL     1     -19.700  46.343  82.527  1.00  0.00    -0.000 C 
BRANCH  12  13
ATOM     13  C   UNL     1     -21.164  46.415  82.996  1.00  0.00    -0.000 C 
BRANCH  13  14
ATOM     14  C   UNL     1     -21.307  47.077  84.383  1.00  0.00    -0.000 C 
BRANCH  14  15
ATOM     15  C   UNL     1     -22.361  46.412  85.284  1.00  0.00    -0.003 C 
ATOM     16  C   UNL     1     -22.046  46.540  86.772  1.00  0.00     0.004 C 
ENDBRANCH  14  15
ENDBRANCH  13  14
ENDBRANCH  12  13
ENDBRANCH  11  12
ENDBRANCH  10  11
ENDBRANCH   1  10
TORSDOF 12
ENDMDL
MODEL 5
REMARK VINA RESULT:    -4.790      5.591      8.108
REMARK INTER + INTRA:          -9.139
REMARK INTER:                  -7.511
REMARK INTRA:                  -1.627
REMARK UNBOUND:                -0.988
REMARK SMILES CCCCCCCCCCCCCC(=O)[O-]
REMARK SMILES IDX 8 1 9 2 10 3 11 4 12 5 13 6 14 7 15 8 16 9 7 10 6 11 5 12
REMARK SMILES IDX 4 13 3 14 2 15 1 16
REMARK H PARENT
REMARK Flexibility Score: inf
ROOT
ATOM      1  C   UNL     1     -21.947  45.834  85.549  1.00  0.00     0.000 C 
ENDROOT
BRANCH   1   2
ATOM      2  C   UNL     1     -21.431  46.154  86.971  1.00  0.00     0.000 C 
BRANCH   2   3
ATOM      3  C   UNL     1     -21.523  44.969  87.950  1.00  0.00     0.000 C 
BRANCH   3   4
ATOM      4  C   UNL     1     -22.637  43.951  87.640  1.00  0.00     0.000 C 
BRANCH   4   5
ATOM      5  C   UNL     1     -22.197  42.475  87.671  1.00  0.00     0.006 C 
BRANCH   5   6
ATOM      6  C   UNL     1     -21.053  42.215  88.657  1.00  0.00     0.053 C 
BRANCH   6   7
ATOM      7  C   UNL     1     -20.425  40.884  88.387  1.00  0.00     0.041 C 
ATOM      8  O   UNL     1     -19.447  40.793  87.598  1.00  0.00    -0.550 OA
ATOM      9  O   UNL     1     -20.950  39.737  88.966  1.00  0.00    -0.550 OA
ENDBRANCH   6   7
ENDBRANCH   5   6
ENDBRANCH   4   5
ENDBRANCH   3   4
ENDBRANCH   2   3
ENDBRANCH   1   2
BRANCH   1  10
ATOM     10  C   UNL     1     -21.539  46.854  84.467  1.00  0.00     0.000 C 
BRANCH  10  11
ATOM     11  C   UNL     1     -21.257  46.267  83.068  1.00  0.00    -0.000 C 
BRANCH  11  12
ATOM     12  C   UNL     1     -19.814  46.432  82.561  1.00  0.00    -0.000 C 
BRANCH  12  13
ATOM     13  C   UNL     1     -18.788  46.545  83.704  1.00  0.00    -0.000 C 
BRANCH  13  14
ATOM     14  C   UNL     1     -18.072  45.208  83.988  1.00  0.00    -0.000 C 
BRANCH  14  15
ATOM     15  C   UNL     1     -18.353  44.637  85.387  1.00  0.00    -0.003 C 
ATOM     16  C   UNL     1     -19.306  43.444  85.370  1.00  0.00     0.004 C 
ENDBRANCH  14  15
ENDBRANCH  13  14
ENDBRANCH  12  13
ENDBRANCH  11  12
ENDBRANCH  10  11
ENDBRANCH   1  10
TORSDOF 12
ENDMDL
MODEL 6
REMARK VINA RESULT:    -4.753      5.356      7.785
REMARK INTER + INTRA:          -9.074
REMARK INTER:                  -7.958
REMARK INTRA:                  -1.116
REMARK UNBOUND:                -0.988
REMARK SMILES CCCCCCCCCCCCCC(=O)[O-]
REMARK SMILES IDX 8 1 9 2 10 3 11 4 12 5 13 6 14 7 15 8 16 9 7 10 6 11 5 12
REMARK SMILES IDX 4 13 3 14 2 15 1 16
REMARK H PARENT
REMARK Flexibility Score: inf
ROOT
ATOM      1  C   UNL     1     -20.626  43.647  85.976  1.00  0.00     0.000 C 
ENDROOT
BRANCH   1   2
ATOM      2  C   UNL     1     -20.690  43.357  87.494  1.00  0.00     0.000 C 
BRANCH   2   3
ATOM      3  C   UNL     1     -21.551  42.134  87.859  1.00  0.00     0.000 C 
BRANCH   3   4
ATOM      4  C   UNL     1     -21.508  40.977  86.842  1.00  0.00     0.000 C 
BRANCH   4   5
ATOM      5  C   UNL     1     -20.358  39.973  87.048  1.00  0.00     0.006 C 
BRANCH   5   6
ATOM      6  C   UNL     1     -20.739  38.812  87.974  1.00  0.00     0.053 C 
BRANCH   6   7
ATOM      7  C   UNL     1     -20.114  38.994  89.321  1.00  0.00     0.041 C 
ATOM      8  O   UNL     1     -19.267  39.907  89.509  1.00  0.00    -0.550 OA
ATOM      9  O   UNL     1     -20.428  38.123  90.357  1.00  0.00    -0.550 OA
ENDBRANCH   6   7
ENDBRANCH   5   6
ENDBRANCH   4   5
ENDBRANCH   3   4
ENDBRANCH   2   3
ENDBRANCH   1   2
BRANCH   1  10
ATOM     10  C   UNL     1     -19.223  43.512  85.350  1.00  0.00     0.000 C 
BRANCH  10  11
ATOM     11  C   UNL     1     -18.346  44.780  85.395  1.00  0.00    -0.000 C 
BRANCH  11  12
ATOM     12  C   UNL     1     -17.963  45.367  84.025  1.00  0.00    -0.000 C 
BRANCH  12  13
ATOM     13  C   UNL     1     -18.767  46.631  83.670  1.00  0.00    -0.000 C 
BRANCH  13  14
ATOM     14  C   UNL     1     -19.704  46.415  82.463  1.00  0.00    -0.000 C 
BRANCH  14  15
ATOM     15  C   UNL     1     -21.189  46.296  82.842  1.00  0.00    -0.003 C 
ATOM     16  C   UNL     1     -21.478  46.722  84.280  1.00  0.00     0.004 C 
ENDBRANCH  14  15
ENDBRANCH  13  14
ENDBRANCH  12  13
ENDBRANCH  11  12
ENDBRANCH  10  11
ENDBRANCH   1  10
TORSDOF 12
ENDMDL
MODEL 7
REMARK VINA RESULT:    -4.716      5.760      8.051
REMARK INTER + INTRA:          -9.012
REMARK INTER:                  -7.439
REMARK INTRA:                  -1.573
REMARK UNBOUND:                -0.988
REMARK SMILES CCCCCCCCCCCCCC(=O)[O-]
REMARK SMILES IDX 8 1 9 2 10 3 11 4 12 5 13 6 14 7 15 8 16 9 7 10 6 11 5 12
REMARK SMILES IDX 4 13 3 14 2 15 1 16
REMARK H PARENT
REMARK Flexibility Score: inf
ROOT
ATOM      1  C   UNL     1     -20.969  45.646  86.453  1.00  0.00     0.000 C 
ENDROOT
BRANCH   1   2
ATOM      2  C   UNL     1     -20.969  44.226  87.065  1.00  0.00     0.000 C 
BRANCH   2   3
ATOM      3  C   UNL     1     -20.718  43.105  86.040  1.00  0.00     0.000 C 
BRANCH   3   4
ATOM      4  C   UNL     1     -19.579  42.132  86.401  1.00  0.00     0.000 C 
BRANCH   4   5
ATOM      5  C   UNL     1     -20.014  40.669  86.608  1.00  0.00     0.006 C 
BRANCH   5   6
ATOM      6  C   UNL     1     -21.012  40.502  87.760  1.00  0.00     0.053 C 
BRANCH   6   7
ATOM      7  C   UNL     1     -20.383  40.907  89.056  1.00  0.00     0.041 C 
ATOM      8  O   UNL     1     -19.336  40.336  89.459  1.00  0.00    -0.550 OA
ATOM      9  O   UNL     1     -20.982  41.882  89.845  1.00  0.00    -0.550 OA
ENDBRANCH   6   7
ENDBRANCH   5   6
ENDBRANCH   4   5
ENDBRANCH   3   4
ENDBRANCH   2   3
ENDBRANCH   1   2
BRANCH   1  10
ATOM     10  C   UNL     1     -22.118  45.923  85.462  1.00  0.00     0.000 C 
BRANCH  10  11
ATOM     11  C   UNL     1     -21.745  46.765  84.224  1.00  0.00    -0.000 C 
BRANCH  11  12
ATOM     12  C   UNL     1     -21.153  45.975  83.043  1.00  0.00    -0.000 C 
BRANCH  12  13
ATOM     13  C   UNL     1     -19.885  46.628  82.464  1.00  0.00    -0.000 C 
BRANCH  13  14
ATOM     14  C   UNL     1     -18.686  46.547  83.433  1.00  0.00    -0.000 C 
BRANCH  14  15
ATOM     15  C   UNL     1     -18.330  45.115  83.865  1.00  0.00    -0.003 C 
ATOM     16  C   UNL     1     -17.420  45.065  85.089  1.00  0.00     0.004 C 
ENDBRANCH  14  15
ENDBRANCH  13  14
ENDBRANCH  12  13
ENDBRANCH  11  12
ENDBRANCH  10  11
ENDBRANCH   1  10
TORSDOF 12
ENDMDL
MODEL 8
REMARK VINA RESULT:    -4.691      4.803      7.161
REMARK INTER + INTRA:          -8.970
REMARK INTER:                  -7.929
REMARK INTRA:                  -1.041
REMARK UNBOUND:                -0.988
REMARK SMILES CCCCCCCCCCCCCC(=O)[O-]
REMARK SMILES IDX 8 1 9 2 10 3 11 4 12 5 13 6 14 7 15 8 16 9 7 10 6 11 5 12
REMARK SMILES IDX 4 13 3 14 2 15 1 16
REMARK H PARENT
REMARK Flexibility Score: inf
ROOT
ATOM      1  C   UNL     1     -20.007  41.666  86.886  1.00  0.00     0.000 C 
ENDROOT
BRANCH   1   2
ATOM      2  C   UNL     1     -21.208  40.692  86.878  1.00  0.00     0.000 C 
BRANCH   2   3
ATOM      3  C   UNL     1     -20.834  39.245  86.510  1.00  0.00     0.000 C 
BRANCH   3   4
ATOM      4  C   UNL     1     -21.000  38.218  87.647  1.00  0.00     0.000 C 
BRANCH   4   5
ATOM      5  C   UNL     1     -19.893  38.249  88.718  1.00  0.00     0.006 C 
BRANCH   5   6
ATOM      6  C   UNL     1     -20.405  38.703  90.090  1.00  0.00     0.053 C 
BRANCH   6   7
ATOM      7  C   UNL     1     -20.065  40.142  90.322  1.00  0.00     0.041 C 
ATOM      8  O   UNL     1     -20.975  40.977  90.567  1.00  0.00    -0.550 OA
ATOM      9  O   UNL     1     -18.747  40.570  90.217  1.00  0.00    -0.550 OA
ENDBRANCH   6   7
ENDBRANCH   5   6
ENDBRANCH   4   5
ENDBRANCH   3   4
ENDBRANCH   2   3
ENDBRANCH   1   2
BRANCH   1  10
ATOM     10  C   UNL     1     -20.216  42.957  86.070  1.00  0.00     0.000 C 
BRANCH  10  11
ATOM     11  C   UNL     1     -21.007  44.076  86.778  1.00  0.00    -0.000 C 
BRANCH  11  12
ATOM     12  C   UNL     1     -21.417  45.262  85.886  1.00  0.00    -0.000 C 
BRANCH  12  13
ATOM     13  C   UNL     1     -20.750  45.224  84.499  1.00  0.00    -0.000 C 
BRANCH  13  14
ATOM     14  C   UNL     1     -19.559  46.200  84.391  1.00  0.00    -0.000 C 
BRANCH  14  15
ATOM     15  C   UNL     1     -18.266  45.549  83.875  1.00  0.00    -0.003 C 
ATOM     16  C   UNL     1     -17.264  45.240  84.985  1.00  0.00     0.004 C 
ENDBRANCH  14  15
ENDBRANCH  13  14
ENDBRANCH  12  13
ENDBRANCH  11  12
ENDBRANCH  10  11
ENDBRANCH   1  10
TORSDOF 12
ENDMDL
MODEL 9
REMARK VINA RESULT:    -4.689      4.310      6.940
REMARK INTER + INTRA:          -8.966
REMARK INTER:                  -7.861
REMARK INTRA:                  -1.105
REMARK UNBOUND:                -0.988
REMARK SMILES CCCCCCCCCCCCCC(=O)[O-]
REMARK SMILES IDX 8 1 9 2 10 3 11 4 12 5 13 6 14 7 15 8 16 9 7 10 6 11 5 12
REMARK SMILES IDX 4 13 3 14 2 15 1 16
REMARK H PARENT
REMARK Flexibility Score: inf
ROOT
ATOM      1  C   UNL     1     -20.007  41.569  86.782  1.00  0.00     0.000 C 
ENDROOT
BRANCH   1   2
ATOM      2  C   UNL     1     -21.164  41.249  87.756  1.00  0.00     0.000 C 
BRANCH   2   3
ATOM      3  C   UNL     1     -20.753  41.264  89.240  1.00  0.00     0.000 C 
BRANCH   3   4
ATOM      4  C   UNL     1     -19.333  40.742  89.529  1.00  0.00     0.000 C 
BRANCH   4   5
ATOM      5  C   UNL     1     -19.262  39.564  90.520  1.00  0.00     0.006 C 
BRANCH   5   6
ATOM      6  C   UNL     1     -20.314  38.485  90.239  1.00  0.00     0.053 C 
BRANCH   6   7
ATOM      7  C   UNL     1     -19.856  37.586  89.135  1.00  0.00     0.041 C 
ATOM      8  O   UNL     1     -18.933  36.753  89.338  1.00  0.00    -0.550 OA
ATOM      9  O   UNL     1     -20.413  37.701  87.868  1.00  0.00    -0.550 OA
ENDBRANCH   6   7
ENDBRANCH   5   6
ENDBRANCH   4   5
ENDBRANCH   3   4
ENDBRANCH   2   3
ENDBRANCH   1   2
BRANCH   1  10
ATOM     10  C   UNL     1     -20.106  42.944  86.090  1.00  0.00     0.000 C 
BRANCH  10  11
ATOM     11  C   UNL     1     -21.093  43.944  86.728  1.00  0.00    -0.000 C 
BRANCH  11  12
ATOM     12  C   UNL     1     -21.247  45.284  85.986  1.00  0.00    -0.000 C 
BRANCH  12  13
ATOM     13  C   UNL     1     -20.921  45.176  84.485  1.00  0.00    -0.000 C 
BRANCH  13  14
ATOM     14  C   UNL     1     -19.784  46.128  84.059  1.00  0.00    -0.000 C 
BRANCH  14  15
ATOM     15  C   UNL     1     -18.507  45.405  83.600  1.00  0.00    -0.003 C 
ATOM     16  C   UNL     1     -17.448  45.300  84.695  1.00  0.00     0.004 C 
ENDBRANCH  14  15
ENDBRANCH  13  14
ENDBRANCH  12  13
ENDBRANCH  11  12
ENDBRANCH  10  11
ENDBRANCH   1  10
TORSDOF 12
ENDMDL
