MODEL 1
REMARK VINA RESULT:    -4.522      0.000      0.000
REMARK INTER + INTRA:          -8.472
REMARK INTER:                  -7.695
REMARK INTRA:                  -0.777
REMARK UNBOUND:                -0.777
REMARK SMILES CCCCCCCCCCCCCC(=O)[O-]
REMARK SMILES IDX 8 1 9 2 10 3 11 4 12 5 13 6 14 7 15 8 16 9 7 10 6 11 5 12
REMARK SMILES IDX 4 13 3 14 2 15 1 16
REMARK H PARENT
REMARK Flexibility Score: inf
ROOT
ATOM      1  C   UNL     1       5.416  -2.024  -4.558  1.00  0.00     0.000 C 
ENDROOT
BRANCH   1   2
ATOM      2  C   UNL     1       5.731  -0.760  -3.742  1.00  0.00     0.000 C 
BRANCH   2   3
ATOM      3  C   UNL     1       5.484  -0.943  -2.233  1.00  0.00     0.000 C 
BRANCH   3   4
ATOM      4  C   UNL     1       6.682  -1.492  -1.437  1.00  0.00     0.000 C 
BRANCH   4   5
ATOM      5  C   UNL     1       6.639  -1.113   0.051  1.00  0.00     0.006 C 
BRANCH   5   6
ATOM      6  C   UNL     1       5.760   0.120   0.278  1.00  0.00     0.053 C 
BRANCH   6   7
ATOM      7  C   UNL     1       5.680   0.445   1.736  1.00  0.00     0.041 C 
ATOM      8  O   UNL     1       5.359  -0.445   2.567  1.00  0.00    -0.550 OA
ATOM      9  O   UNL     1       5.912   1.742   2.174  1.00  0.00    -0.550 OA
ENDBRANCH   6   7
ENDBRANCH   5   6
ENDBRANCH   4   5
ENDBRANCH   3   4
ENDBRANCH   2   3
ENDBRANCH   1   2
BRANCH   1  10
ATOM     10  C   UNL     1       4.225  -1.830  -5.511  1.00  0.00     0.000 C 
BRANCH  10  11
ATOM     11  C   UNL     1       2.960  -1.334  -4.786  1.00  0.00    -0.000 C 
BRANCH  11  12
ATOM     12  C   UNL     1       2.235  -2.458  -4.027  1.00  0.00    -0.000 C 
BRANCH  12  13
ATOM     13  C   UNL     1       2.080  -3.735  -4.869  1.00  0.00    -0.000 C 
BRANCH  13  14
ATOM     14  C   UNL     1       1.438  -4.887  -4.082  1.00  0.00    -0.000 C 
BRANCH  14  15
ATOM     15  C   UNL     1       0.695  -4.406  -2.826  1.00  0.00    -0.003 C 
ATOM     16  C   UNL     1       0.752  -5.455  -1.718  1.00  0.00     0.004 C 
ENDBRANCH  14  15
ENDBRANCH  13  14
ENDBRANCH  12  13
ENDBRANCH  11  12
ENDBRANCH  10  11
ENDBRANCH   1  10
TORSDOF 12
ENDMDL
MODEL 2
REMARK VINA RESULT:    -4.379      1.100      2.055
REMARK INTER + INTRA:          -8.228
REMARK INTER:                  -7.480
REMARK INTRA:                  -0.748
REMARK UNBOUND:                -0.777
REMARK SMILES CCCCCCCCCCCCCC(=O)[O-]
REMARK SMILES IDX 8 1 9 2 10 3 11 4 12 5 13 6 14 7 15 8 16 9 7 10 6 11 5 12
REMARK SMILES IDX 4 13 3 14 2 15 1 16
REMARK H PARENT
REMARK Flexibility Score: inf
ROOT
ATOM      1  C   UNL     1       7.326  -2.265  -3.288  1.00  0.00     0.000 C 
ENDROOT
BRANCH   1   2
ATOM      2  C   UNL     1       7.757  -3.336  -2.272  1.00  0.00     0.000 C 
BRANCH   2   3
ATOM      3  C   UNL     1       7.591  -2.878  -0.812  1.00  0.00     0.000 C 
BRANCH   3   4
ATOM      4  C   UNL     1       6.755  -1.599  -0.618  1.00  0.00     0.000 C 
BRANCH   4   5
ATOM      5  C   UNL     1       7.324  -0.667   0.461  1.00  0.00     0.006 C 
BRANCH   5   6
ATOM      6  C   UNL     1       6.419   0.551   0.666  1.00  0.00     0.053 C 
BRANCH   6   7
ATOM      7  C   UNL     1       5.962   0.632   2.088  1.00  0.00     0.041 C 
ATOM      8  O   UNL     1       5.362  -0.341   2.617  1.00  0.00    -0.550 OA
ATOM      9  O   UNL     1       6.154   1.799   2.815  1.00  0.00    -0.550 OA
ENDBRANCH   6   7
ENDBRANCH   5   6
ENDBRANCH   4   5
ENDBRANCH   3   4
ENDBRANCH   2   3
ENDBRANCH   1   2
BRANCH   1  10
ATOM     10  C   UNL     1       6.009  -2.621  -3.998  1.00  0.00     0.000 C 
BRANCH  10  11
ATOM     11  C   UNL     1       4.923  -1.545  -3.806  1.00  0.00    -0.000 C 
BRANCH  11  12
ATOM     12  C   UNL     1       4.139  -1.260  -5.098  1.00  0.00    -0.000 C 
BRANCH  12  13
ATOM     13  C   UNL     1       2.628  -1.494  -4.934  1.00  0.00    -0.000 C 
BRANCH  13  14
ATOM     14  C   UNL     1       2.297  -2.395  -3.734  1.00  0.00    -0.000 C 
BRANCH  14  15
ATOM     15  C   UNL     1       1.850  -3.803  -4.155  1.00  0.00    -0.003 C 
ATOM     16  C   UNL     1       0.911  -4.414  -3.119  1.00  0.00     0.004 C 
ENDBRANCH  14  15
ENDBRANCH  13  14
ENDBRANCH  12  13
ENDBRANCH  11  12
ENDBRANCH  10  11
ENDBRANCH   1  10
TORSDOF 12
ENDMDL
MODEL 3
REMARK VINA RESULT:    -4.214      2.113      3.529
REMARK INTER + INTRA:          -7.948
REMARK INTER:                  -6.510
REMARK INTRA:                  -1.438
REMARK UNBOUND:                -0.777
REMARK SMILES CCCCCCCCCCCCCC(=O)[O-]
REMARK SMILES IDX 8 1 9 2 10 3 11 4 12 5 13 6 14 7 15 8 16 9 7 10 6 11 5 12
REMARK SMILES IDX 4 13 3 14 2 15 1 16
REMARK H PARENT
REMARK Flexibility Score: inf
ROOT
ATOM      1  C   UNL     1       7.642  -3.281  -1.136  1.00  0.00     0.000 C 
ENDROOT
BRANCH   1   2
ATOM      2  C   UNL     1       7.799  -1.932  -0.416  1.00  0.00     0.000 C 
BRANCH   2   3
ATOM      3  C   UNL     1       8.016  -0.756  -1.387  1.00  0.00     0.000 C 
BRANCH   3   4
ATOM      4  C   UNL     1       6.823   0.208  -1.524  1.00  0.00     0.000 C 
BRANCH   4   5
ATOM      5  C   UNL     1       5.632  -0.179  -0.635  1.00  0.00     0.006 C 
BRANCH   5   6
ATOM      6  C   UNL     1       5.421   0.850   0.479  1.00  0.00     0.053 C 
BRANCH   6   7
ATOM      7  C   UNL     1       5.986   0.349   1.770  1.00  0.00     0.041 C 
ATOM      8  O   UNL     1       5.250  -0.268   2.586  1.00  0.00    -0.550 OA
ATOM      9  O   UNL     1       7.311   0.604   2.097  1.00  0.00    -0.550 OA
ENDBRANCH   6   7
ENDBRANCH   5   6
ENDBRANCH   4   5
ENDBRANCH   3   4
ENDBRANCH   2   3
ENDBRANCH   1   2
BRANCH   1  10
ATOM     10  C   UNL     1       8.290  -3.285  -2.531  1.00  0.00     0.000 C 
BRANCH  10  11
ATOM     11  C   UNL     1       7.302  -3.686  -3.642  1.00  0.00    -0.000 C 
BRANCH  11  12
ATOM     12  C   UNL     1       6.682  -2.471  -4.351  1.00  0.00    -0.000 C 
BRANCH  12  13
ATOM     13  C   UNL     1       5.161  -2.607  -4.535  1.00  0.00    -0.000 C 
BRANCH  13  14
ATOM     14  C   UNL     1       4.373  -1.564  -3.727  1.00  0.00    -0.000 C 
BRANCH  14  15
ATOM     15  C   UNL     1       2.853  -1.753  -3.840  1.00  0.00    -0.003 C 
ATOM     16  C   UNL     1       2.362  -1.427  -5.248  1.00  0.00     0.004 C 
ENDBRANCH  14  15
ENDBRANCH  13  14
ENDBRANCH  12  13
ENDBRANCH  11  12
ENDBRANCH  10  11
ENDBRANCH   1  10
TORSDOF 12
ENDMDL
MODEL 4
REMARK VINA RESULT:    -4.195      3.374      6.633
REMARK INTER + INTRA:          -7.914
REMARK INTER:                  -6.615
REMARK INTRA:                  -1.299
REMARK UNBOUND:                -0.777
REMARK SMILES CCCCCCCCCCCCCC(=O)[O-]
REMARK SMILES IDX 8 1 9 2 10 3 11 4 12 5 13 6 14 7 15 8 16 9 7 10 6 11 5 12
REMARK SMILES IDX 4 13 3 14 2 15 1 16
REMARK H PARENT
REMARK Flexibility Score: inf
ROOT
ATOM      1  C   UNL     1       7.193  -3.270  -3.326  1.00  0.00     0.000 C 
ENDROOT
BRANCH   1   2
ATOM      2  C   UNL     1       6.703  -1.922  -3.881  1.00  0.00     0.000 C 
BRANCH   2   3
ATOM      3  C   UNL     1       5.177  -1.749  -3.778  1.00  0.00     0.000 C 
BRANCH   3   4
ATOM      4  C   UNL     1       4.493  -1.205  -5.045  1.00  0.00     0.000 C 
BRANCH   4   5
ATOM      5  C   UNL     1       2.960  -1.247  -4.967  1.00  0.00     0.006 C 
BRANCH   5   6
ATOM      6  C   UNL     1       2.495  -1.995  -3.715  1.00  0.00     0.053 C 
BRANCH   6   7
ATOM      7  C   UNL     1       1.789  -3.260  -4.091  1.00  0.00     0.041 C 
ATOM      8  O   UNL     1       1.105  -3.882  -3.236  1.00  0.00    -0.550 OA
ATOM      9  O   UNL     1       1.926  -3.778  -5.372  1.00  0.00    -0.550 OA
ENDBRANCH   6   7
ENDBRANCH   5   6
ENDBRANCH   4   5
ENDBRANCH   3   4
ENDBRANCH   2   3
ENDBRANCH   1   2
BRANCH   1  10
ATOM     10  C   UNL     1       8.187  -3.104  -2.165  1.00  0.00     0.000 C 
BRANCH  10  11
ATOM     11  C   UNL     1       7.487  -2.888  -0.811  1.00  0.00    -0.000 C 
BRANCH  11  12
ATOM     12  C   UNL     1       7.592  -1.435  -0.316  1.00  0.00    -0.000 C 
BRANCH  12  13
ATOM     13  C   UNL     1       6.294  -0.942   0.345  1.00  0.00    -0.000 C 
BRANCH  13  14
ATOM     14  C   UNL     1       5.527   0.058  -0.534  1.00  0.00    -0.000 C 
BRANCH  14  15
ATOM     15  C   UNL     1       6.452   0.868  -1.455  1.00  0.00    -0.003 C 
ATOM     16  C   UNL     1       6.586   2.309  -0.971  1.00  0.00     0.004 C 
ENDBRANCH  14  15
ENDBRANCH  13  14
ENDBRANCH  12  13
ENDBRANCH  11  12
ENDBRANCH  10  11
ENDBRANCH   1  10
TORSDOF 12
ENDMDL
MODEL 5
REMARK VINA RESULT:    -4.116      3.448      6.718
REMARK INTER + INTRA:          -7.781
REMARK INTER:                  -6.363
REMARK INTRA:                  -1.418
REMARK UNBOUND:                -0.777
REMARK SMILES CCCCCCCCCCCCCC(=O)[O-]
REMARK SMILES IDX 8 1 9 2 10 3 11 4 12 5 13 6 14 7 15 8 16 9 7 10 6 11 5 12
REMARK SMILES IDX 4 13 3 14 2 15 1 16
REMARK H PARENT
REMARK Flexibility Score: inf
ROOT
ATOM      1  C   UNL     1       6.533  -1.866  -4.317  1.00  0.00     0.000 C 
ENDROOT
BRANCH   1   2
ATOM      2  C   UNL     1       5.372  -0.892  -4.054  1.00  0.00     0.000 C 
BRANCH   2   3
ATOM      3  C   UNL     1       4.042  -1.610  -3.761  1.00  0.00     0.000 C 
BRANCH   3   4
ATOM      4  C   UNL     1       2.890  -1.272  -4.725  1.00  0.00     0.000 C 
BRANCH   4   5
ATOM      5  C   UNL     1       2.277  -2.512  -5.389  1.00  0.00     0.006 C 
BRANCH   5   6
ATOM      6  C   UNL     1       2.534  -3.768  -4.551  1.00  0.00     0.053 C 
BRANCH   6   7
ATOM      7  C   UNL     1       1.242  -4.369  -4.098  1.00  0.00     0.041 C 
ATOM      8  O   UNL     1       0.799  -4.124  -2.944  1.00  0.00    -0.550 OA
ATOM      9  O   UNL     1       0.550  -5.240  -4.929  1.00  0.00    -0.550 OA
ENDBRANCH   6   7
ENDBRANCH   5   6
ENDBRANCH   4   5
ENDBRANCH   3   4
ENDBRANCH   2   3
ENDBRANCH   1   2
BRANCH   1  10
ATOM     10  C   UNL     1       7.557  -1.888  -3.170  1.00  0.00     0.000 C 
BRANCH  10  11
ATOM     11  C   UNL     1       7.509  -3.195  -2.357  1.00  0.00    -0.000 C 
BRANCH  11  12
ATOM     12  C   UNL     1       7.508  -2.947  -0.839  1.00  0.00    -0.000 C 
BRANCH  12  13
ATOM     13  C   UNL     1       7.584  -1.452  -0.485  1.00  0.00    -0.000 C 
BRANCH  13  14
ATOM     14  C   UNL     1       6.366  -0.975   0.322  1.00  0.00    -0.000 C 
BRANCH  14  15
ATOM     15  C   UNL     1       5.498   0.027  -0.453  1.00  0.00    -0.003 C 
ATOM     16  C   UNL     1       6.359   1.085  -1.138  1.00  0.00     0.004 C 
ENDBRANCH  14  15
ENDBRANCH  13  14
ENDBRANCH  12  13
ENDBRANCH  11  12
ENDBRANCH  10  11
ENDBRANCH   1  10
TORSDOF 12
ENDMDL
MODEL 6
REMARK VINA RESULT:    -4.109      1.561      2.359
REMARK INTER + INTRA:          -7.770
REMARK INTER:                  -6.521
REMARK INTRA:                  -1.249
REMARK UNBOUND:                -0.777
REMARK SMILES CCCCCCCCCCCCCC(=O)[O-]
REMARK SMILES IDX 8 1 9 2 10 3 11 4 12 5 13 6 14 7 15 8 16 9 7 10 6 11 5 12
REMARK SMILES IDX 4 13 3 14 2 15 1 16
REMARK H PARENT
REMARK Flexibility Score: inf
ROOT
ATOM      1  C   UNL     1       5.871  -0.406  -4.392  1.00  0.00     0.000 C 
ENDROOT
BRANCH   1   2
ATOM      2  C   UNL     1       6.866  -0.046  -3.277  1.00  0.00     0.000 C 
BRANCH   2   3
ATOM      3  C   UNL     1       6.174   0.394  -1.974  1.00  0.00     0.000 C 
BRANCH   3   4
ATOM      4  C   UNL     1       5.606  -0.752  -1.116  1.00  0.00     0.000 C 
BRANCH   4   5
ATOM      5  C   UNL     1       6.544  -1.170   0.026  1.00  0.00     0.006 C 
BRANCH   5   6
ATOM      6  C   UNL     1       6.956   0.040   0.868  1.00  0.00     0.053 C 
BRANCH   6   7
ATOM      7  C   UNL     1       5.860   0.420   1.813  1.00  0.00     0.041 C 
ATOM      8  O   UNL     1       5.324  -0.454   2.545  1.00  0.00    -0.550 OA
ATOM      9  O   UNL     1       5.395   1.727   1.850  1.00  0.00    -0.550 OA
ENDBRANCH   6   7
ENDBRANCH   5   6
ENDBRANCH   4   5
ENDBRANCH   3   4
ENDBRANCH   2   3
ENDBRANCH   1   2
BRANCH   1  10
ATOM     10  C   UNL     1       6.283  -1.670  -5.165  1.00  0.00     0.000 C 
BRANCH  10  11
ATOM     11  C   UNL     1       5.763  -2.962  -4.508  1.00  0.00    -0.000 C 
BRANCH  11  12
ATOM     12  C   UNL     1       4.985  -3.854  -5.490  1.00  0.00    -0.000 C 
BRANCH  12  13
ATOM     13  C   UNL     1       3.548  -3.358  -5.725  1.00  0.00    -0.000 C 
BRANCH  13  14
ATOM     14  C   UNL     1       2.708  -3.354  -4.438  1.00  0.00    -0.000 C 
BRANCH  14  15
ATOM     15  C   UNL     1       2.453  -1.937  -3.902  1.00  0.00    -0.003 C 
ATOM     16  C   UNL     1       2.275  -0.941  -5.045  1.00  0.00     0.004 C 
ENDBRANCH  14  15
ENDBRANCH  13  14
ENDBRANCH  12  13
ENDBRANCH  11  12
ENDBRANCH  10  11
ENDBRANCH   1  10
TORSDOF 12
ENDMDL
MODEL 7
REMARK VINA RESULT:    -4.062      1.303      2.586
REMARK INTER + INTRA:          -7.690
REMARK INTER:                  -6.407
REMARK INTRA:                  -1.282
REMARK UNBOUND:                -0.777
REMARK SMILES CCCCCCCCCCCCCC(=O)[O-]
REMARK SMILES IDX 8 1 9 2 10 3 11 4 12 5 13 6 14 7 15 8 16 9 7 10 6 11 5 12
REMARK SMILES IDX 4 13 3 14 2 15 1 16
REMARK H PARENT
REMARK Flexibility Score: inf
ROOT
ATOM      1  C   UNL     1       3.846  -0.886  -4.878  1.00  0.00     0.000 C 
ENDROOT
BRANCH   1   2
ATOM      2  C   UNL     1       4.818  -1.480  -3.845  1.00  0.00     0.000 C 
BRANCH   2   3
ATOM      3  C   UNL     1       5.990  -0.538  -3.515  1.00  0.00     0.000 C 
BRANCH   3   4
ATOM      4  C   UNL     1       6.596  -0.715  -2.110  1.00  0.00     0.000 C 
BRANCH   4   5
ATOM      5  C   UNL     1       5.607  -0.384  -0.983  1.00  0.00     0.006 C 
BRANCH   5   6
ATOM      6  C   UNL     1       6.194  -0.745   0.384  1.00  0.00     0.053 C 
BRANCH   6   7
ATOM      7  C   UNL     1       5.679   0.185   1.437  1.00  0.00     0.041 C 
ATOM      8  O   UNL     1       5.332  -0.262   2.562  1.00  0.00    -0.550 OA
ATOM      9  O   UNL     1       5.537   1.538   1.161  1.00  0.00    -0.550 OA
ENDBRANCH   6   7
ENDBRANCH   5   6
ENDBRANCH   4   5
ENDBRANCH   3   4
ENDBRANCH   2   3
ENDBRANCH   1   2
BRANCH   1  10
ATOM     10  C   UNL     1       2.408  -1.404  -4.701  1.00  0.00     0.000 C 
BRANCH  10  11
ATOM     11  C   UNL     1       2.324  -2.601  -3.736  1.00  0.00    -0.000 C 
BRANCH  11  12
ATOM     12  C   UNL     1       1.553  -3.790  -4.334  1.00  0.00    -0.000 C 
BRANCH  12  13
ATOM     13  C   UNL     1       2.281  -4.422  -5.532  1.00  0.00    -0.000 C 
BRANCH  13  14
ATOM     14  C   UNL     1       3.770  -4.676  -5.251  1.00  0.00    -0.000 C 
BRANCH  14  15
ATOM     15  C   UNL     1       4.659  -4.400  -6.472  1.00  0.00    -0.003 C 
ATOM     16  C   UNL     1       3.968  -3.458  -7.453  1.00  0.00     0.004 C 
ENDBRANCH  14  15
ENDBRANCH  13  14
ENDBRANCH  12  13
ENDBRANCH  11  12
ENDBRANCH  10  11
ENDBRANCH   1  10
TORSDOF 12
ENDMDL
MODEL 8
REMARK VINA RESULT:    -4.059      1.692      3.222
REMARK INTER + INTRA:          -7.684
REMARK INTER:                  -6.867
REMARK INTRA:                  -0.817
REMARK UNBOUND:                -0.777
REMARK SMILES CCCCCCCCCCCCCC(=O)[O-]
REMARK SMILES IDX 8 1 9 2 10 3 11 4 12 5 13 6 14 7 15 8 16 9 7 10 6 11 5 12
REMARK SMILES IDX 4 13 3 14 2 15 1 16
REMARK H PARENT
REMARK Flexibility Score: inf
ROOT
ATOM      1  C   UNL     1       2.400  -2.398  -5.809  1.00  0.00     0.000 C 
ENDROOT
BRANCH   1   2
ATOM      2  C   UNL     1       2.773  -1.370  -4.728  1.00  0.00     0.000 C 
BRANCH   2   3
ATOM      3  C   UNL     1       4.287  -1.103  -4.651  1.00  0.00     0.000 C 
BRANCH   3   4
ATOM      4  C   UNL     1       5.145  -2.314  -4.241  1.00  0.00     0.000 C 
BRANCH   4   5
ATOM      5  C   UNL     1       6.245  -1.957  -3.231  1.00  0.00     0.006 C 
BRANCH   5   6
ATOM      6  C   UNL     1       5.963  -0.607  -2.566  1.00  0.00     0.053 C 
BRANCH   6   7
ATOM      7  C   UNL     1       5.911  -0.755  -1.078  1.00  0.00     0.041 C 
ATOM      8  O   UNL     1       5.179   0.006  -0.391  1.00  0.00    -0.550 OA
ATOM      9  O   UNL     1       6.708  -1.699  -0.445  1.00  0.00    -0.550 OA
ENDBRANCH   6   7
ENDBRANCH   5   6
ENDBRANCH   4   5
ENDBRANCH   3   4
ENDBRANCH   2   3
ENDBRANCH   1   2
BRANCH   1  10
ATOM     10  C   UNL     1       1.972  -3.750  -5.214  1.00  0.00     0.000 C 
BRANCH  10  11
ATOM     11  C   UNL     1       1.513  -3.635  -3.748  1.00  0.00    -0.000 C 
BRANCH  11  12
ATOM     12  C   UNL     1       0.726  -4.869  -3.276  1.00  0.00    -0.000 C 
BRANCH  12  13
ATOM     13  C   UNL     1       0.369  -4.804  -1.782  1.00  0.00    -0.000 C 
BRANCH  13  14
ATOM     14  C   UNL     1       1.091  -5.880  -0.956  1.00  0.00    -0.000 C 
BRANCH  14  15
ATOM     15  C   UNL     1       1.592  -7.050  -1.815  1.00  0.00    -0.003 C 
ATOM     16  C   UNL     1       1.753  -8.317  -0.979  1.00  0.00     0.004 C 
ENDBRANCH  14  15
ENDBRANCH  13  14
ENDBRANCH  12  13
ENDBRANCH  11  12
ENDBRANCH  10  11
ENDBRANCH   1  10
TORSDOF 12
ENDMDL
MODEL 9
REMARK VINA RESULT:    -4.030      1.683      2.722
REMARK INTER + INTRA:          -7.634
REMARK INTER:                  -6.313
REMARK INTRA:                  -1.321
REMARK UNBOUND:                -0.777
REMARK SMILES CCCCCCCCCCCCCC(=O)[O-]
REMARK SMILES IDX 8 1 9 2 10 3 11 4 12 5 13 6 14 7 15 8 16 9 7 10 6 11 5 12
REMARK SMILES IDX 4 13 3 14 2 15 1 16
REMARK H PARENT
REMARK Flexibility Score: inf
ROOT
ATOM      1  C   UNL     1       6.010  -1.924  -5.005  1.00  0.00     0.000 C 
ENDROOT
BRANCH   1   2
ATOM      2  C   UNL     1       6.431  -2.651  -3.716  1.00  0.00     0.000 C 
BRANCH   2   3
ATOM      3  C   UNL     1       7.122  -1.721  -2.702  1.00  0.00     0.000 C 
BRANCH   3   4
ATOM      4  C   UNL     1       7.257  -2.291  -1.278  1.00  0.00     0.000 C 
BRANCH   4   5
ATOM      5  C   UNL     1       6.649  -1.378  -0.205  1.00  0.00     0.006 C 
BRANCH   5   6
ATOM      6  C   UNL     1       5.612  -0.430  -0.813  1.00  0.00     0.053 C 
BRANCH   6   7
ATOM      7  C   UNL     1       5.823   0.966  -0.318  1.00  0.00     0.041 C 
ATOM      8  O   UNL     1       6.276   1.851  -1.091  1.00  0.00    -0.550 OA
ATOM      9  O   UNL     1       5.566   1.279   1.010  1.00  0.00    -0.550 OA
ENDBRANCH   6   7
ENDBRANCH   5   6
ENDBRANCH   4   5
ENDBRANCH   3   4
ENDBRANCH   2   3
ENDBRANCH   1   2
BRANCH   1  10
ATOM     10  C   UNL     1       4.841  -0.951  -4.778  1.00  0.00     0.000 C 
BRANCH  10  11
ATOM     11  C   UNL     1       3.806  -1.491  -3.773  1.00  0.00    -0.000 C 
BRANCH  11  12
ATOM     12  C   UNL     1       2.423  -1.711  -4.409  1.00  0.00    -0.000 C 
BRANCH  12  13
ATOM     13  C   UNL     1       2.015  -3.193  -4.434  1.00  0.00    -0.000 C 
BRANCH  13  14
ATOM     14  C   UNL     1       2.259  -3.849  -5.802  1.00  0.00    -0.000 C 
BRANCH  14  15
ATOM     15  C   UNL     1       2.313  -2.828  -6.948  1.00  0.00    -0.003 C 
ATOM     16  C   UNL     1       3.629  -2.932  -7.715  1.00  0.00     0.004 C 
ENDBRANCH  14  15
ENDBRANCH  13  14
ENDBRANCH  12  13
ENDBRANCH  11  12
ENDBRANCH  10  11
ENDBRANCH   1  10
TORSDOF 12
ENDMDL
