MODEL 1
REMARK VINA RESULT:    -5.459      0.000      0.000
REMARK INTER + INTRA:          -9.427
REMARK INTER:                  -8.651
REMARK INTRA:                  -0.777
REMARK UNBOUND:                -0.777
REMARK SMILES CCCCCCCCCCCC(=O)[O-]
REMARK SMILES IDX 7 1 8 2 9 3 10 4 11 5 12 6 13 7 14 8 6 9 5 10 4 11 3 12 2 13
REMARK SMILES IDX 1 14
REMARK H PARENT
REMARK Flexibility Score: inf
ROOT
ATOM      1  C   UNL     1     101.307 305.946 194.703  1.00  0.00     0.000 C 
ENDROOT
BRANCH   1   2
ATOM      2  C   UNL     1     102.237 306.346 195.859  1.00  0.00     0.000 C 
BRANCH   2   3
ATOM      3  C   UNL     1     101.924 305.583 197.158  1.00  0.00     0.000 C 
BRANCH   3   4
ATOM      4  C   UNL     1     101.891 306.499 198.395  1.00  0.00     0.006 C 
BRANCH   4   5
ATOM      5  C   UNL     1     101.322 305.836 199.660  1.00  0.00     0.053 C 
BRANCH   5   6
ATOM      6  C   UNL     1     102.154 306.129 200.871  1.00  0.00     0.041 C 
ATOM      7  O   UNL     1     103.111 306.945 200.798  1.00  0.00    -0.550 OA
ATOM      8  O   UNL     1     101.892 305.479 202.069  1.00  0.00    -0.550 OA
ENDBRANCH   5   6
ENDBRANCH   4   5
ENDBRANCH   3   4
ENDBRANCH   2   3
ENDBRANCH   1   2
BRANCH   1   9
ATOM      9  C   UNL     1     102.067 305.733 193.381  1.00  0.00     0.000 C 
BRANCH   9  10
ATOM     10  C   UNL     1     103.530 306.196 193.461  1.00  0.00    -0.000 C 
BRANCH  10  11
ATOM     11  C   UNL     1     103.861 307.298 192.438  1.00  0.00    -0.000 C 
BRANCH  11  12
ATOM     12  C   UNL     1     102.614 307.819 191.707  1.00  0.00    -0.000 C 
BRANCH  12  13
ATOM     13  C   UNL     1     102.315 309.290 192.026  1.00  0.00    -0.003 C 
ATOM     14  C   UNL     1     101.899 309.462 193.484  1.00  0.00     0.004 C 
ENDBRANCH  12  13
ENDBRANCH  11  12
ENDBRANCH  10  11
ENDBRANCH   9  10
ENDBRANCH   1   9
TORSDOF 10
ENDMDL
MODEL 2
REMARK VINA RESULT:    -5.451      1.074      1.886
REMARK INTER + INTRA:          -9.414
REMARK INTER:                  -8.782
REMARK INTRA:                  -0.633
REMARK UNBOUND:                -0.777
REMARK SMILES CCCCCCCCCCCC(=O)[O-]
REMARK SMILES IDX 7 1 8 2 9 3 10 4 11 5 12 6 13 7 14 8 6 9 5 10 4 11 3 12 2 13
REMARK SMILES IDX 1 14
REMARK H PARENT
REMARK Flexibility Score: inf
ROOT
ATOM      1  C   UNL     1     101.999 305.871 193.463  1.00  0.00     0.000 C 
ENDROOT
BRANCH   1   2
ATOM      2  C   UNL     1     101.336 305.998 194.844  1.00  0.00     0.000 C 
BRANCH   2   3
ATOM      3  C   UNL     1     102.332 306.411 195.941  1.00  0.00     0.000 C 
BRANCH   3   4
ATOM      4  C   UNL     1     102.029 305.753 197.300  1.00  0.00     0.006 C 
BRANCH   4   5
ATOM      5  C   UNL     1     101.734 306.749 198.434  1.00  0.00     0.053 C 
BRANCH   5   6
ATOM      6  C   UNL     1     101.670 306.075 199.770  1.00  0.00     0.041 C 
ATOM      7  O   UNL     1     100.578 305.613 200.194  1.00  0.00    -0.550 OA
ATOM      8  O   UNL     1     102.809 305.986 200.559  1.00  0.00    -0.550 OA
ENDBRANCH   5   6
ENDBRANCH   4   5
ENDBRANCH   3   4
ENDBRANCH   2   3
ENDBRANCH   1   2
BRANCH   1   9
ATOM      9  C   UNL     1     103.517 306.120 193.511  1.00  0.00     0.000 C 
BRANCH   9  10
ATOM     10  C   UNL     1     103.958 307.257 192.576  1.00  0.00    -0.000 C 
BRANCH  10  11
ATOM     11  C   UNL     1     103.411 308.630 193.010  1.00  0.00    -0.000 C 
BRANCH  11  12
ATOM     12  C   UNL     1     102.214 309.084 192.160  1.00  0.00    -0.000 C 
BRANCH  12  13
ATOM     13  C   UNL     1     102.089 308.296 190.849  1.00  0.00    -0.003 C 
ATOM     14  C   UNL     1     101.993 309.235 189.651  1.00  0.00     0.004 C 
ENDBRANCH  12  13
ENDBRANCH  11  12
ENDBRANCH  10  11
ENDBRANCH   9  10
ENDBRANCH   1   9
TORSDOF 10
ENDMDL
MODEL 3
REMARK VINA RESULT:    -5.422      1.055      1.645
REMARK INTER + INTRA:          -9.369
REMARK INTER:                  -8.812
REMARK INTRA:                  -0.557
REMARK UNBOUND:                -0.777
REMARK SMILES CCCCCCCCCCCC(=O)[O-]
REMARK SMILES IDX 7 1 8 2 9 3 10 4 11 5 12 6 13 7 14 8 6 9 5 10 4 11 3 12 2 13
REMARK SMILES IDX 1 14
REMARK H PARENT
REMARK Flexibility Score: inf
ROOT
ATOM      1  C   UNL     1     102.214 307.206 195.699  1.00  0.00     0.000 C 
ENDROOT
BRANCH   1   2
ATOM      2  C   UNL     1     101.853 307.253 197.193  1.00  0.00     0.000 C 
BRANCH   2   3
ATOM      3  C   UNL     1     101.917 305.867 197.859  1.00  0.00     0.000 C 
BRANCH   3   4
ATOM      4  C   UNL     1     101.318 305.860 199.278  1.00  0.00     0.006 C 
BRANCH   4   5
ATOM      5  C   UNL     1     102.353 306.023 200.403  1.00  0.00     0.053 C 
BRANCH   5   6
ATOM      6  C   UNL     1     101.747 305.816 201.757  1.00  0.00     0.041 C 
ATOM      7  O   UNL     1     102.414 306.073 202.795  1.00  0.00    -0.550 OA
ATOM      8  O   UNL     1     100.460 305.310 201.873  1.00  0.00    -0.550 OA
ENDBRANCH   5   6
ENDBRANCH   4   5
ENDBRANCH   3   4
ENDBRANCH   2   3
ENDBRANCH   1   2
BRANCH   1   9
ATOM      9  C   UNL     1     101.488 306.074 194.951  1.00  0.00     0.000 C 
BRANCH   9  10
ATOM     10  C   UNL     1     102.016 305.878 193.521  1.00  0.00    -0.000 C 
BRANCH  10  11
ATOM     11  C   UNL     1     103.451 306.406 193.340  1.00  0.00    -0.000 C 
BRANCH  11  12
ATOM     12  C   UNL     1     103.570 307.403 192.177  1.00  0.00    -0.000 C 
BRANCH  12  13
ATOM     13  C   UNL     1     102.237 308.092 191.852  1.00  0.00    -0.003 C 
ATOM     14  C   UNL     1     102.278 308.744 190.472  1.00  0.00     0.004 C 
ENDBRANCH  12  13
ENDBRANCH  11  12
ENDBRANCH  10  11
ENDBRANCH   9  10
ENDBRANCH   1   9
TORSDOF 10
ENDMDL
MODEL 4
REMARK VINA RESULT:    -5.348      5.295      8.203
REMARK INTER + INTRA:          -9.251
REMARK INTER:                  -8.639
REMARK INTRA:                  -0.613
REMARK UNBOUND:                -0.777
REMARK SMILES CCCCCCCCCCCC(=O)[O-]
REMARK SMILES IDX 7 1 8 2 9 3 10 4 11 5 12 6 13 7 14 8 6 9 5 10 4 11 3 12 2 13
REMARK SMILES IDX 1 14
REMARK H PARENT
REMARK Flexibility Score: inf
ROOT
ATOM      1  C   UNL     1     103.403 306.061 193.220  1.00  0.00     0.000 C 
ENDROOT
BRANCH   1   2
ATOM      2  C   UNL     1     103.747 307.302 192.381  1.00  0.00     0.000 C 
BRANCH   2   3
ATOM      3  C   UNL     1     102.518 307.892 191.668  1.00  0.00     0.000 C 
BRANCH   3   4
ATOM      4  C   UNL     1     102.893 308.921 190.586  1.00  0.00     0.006 C 
BRANCH   4   5
ATOM      5  C   UNL     1     101.766 309.230 189.587  1.00  0.00     0.053 C 
BRANCH   5   6
ATOM      6  C   UNL     1     102.198 310.206 188.536  1.00  0.00     0.041 C 
ATOM      7  O   UNL     1     103.390 310.610 188.500  1.00  0.00    -0.550 OA
ATOM      8  O   UNL     1     101.278 310.691 187.617  1.00  0.00    -0.550 OA
ENDBRANCH   5   6
ENDBRANCH   4   5
ENDBRANCH   3   4
ENDBRANCH   2   3
ENDBRANCH   1   2
BRANCH   1   9
ATOM      9  C   UNL     1     101.885 305.865 193.389  1.00  0.00     0.000 C 
BRANCH   9  10
ATOM     10  C   UNL     1     101.445 305.916 194.860  1.00  0.00    -0.000 C 
BRANCH  10  11
ATOM     11  C   UNL     1     101.510 307.336 195.452  1.00  0.00    -0.000 C 
BRANCH  11  12
ATOM     12  C   UNL     1     102.007 307.347 196.906  1.00  0.00    -0.000 C 
BRANCH  12  13
ATOM     13  C   UNL     1     101.899 305.971 197.577  1.00  0.00    -0.003 C 
ATOM     14  C   UNL     1     101.783 306.106 199.092  1.00  0.00     0.004 C 
ENDBRANCH  12  13
ENDBRANCH  11  12
ENDBRANCH  10  11
ENDBRANCH   9  10
ENDBRANCH   1   9
TORSDOF 10
ENDMDL
MODEL 5
REMARK VINA RESULT:    -5.321     19.944     20.720
REMARK INTER + INTRA:          -9.209
REMARK INTER:                  -8.743
REMARK INTRA:                  -0.465
REMARK UNBOUND:                -0.777
REMARK SMILES CCCCCCCCCCCC(=O)[O-]
REMARK SMILES IDX 7 1 8 2 9 3 10 4 11 5 12 6 13 7 14 8 6 9 5 10 4 11 3 12 2 13
REMARK SMILES IDX 1 14
REMARK H PARENT
REMARK Flexibility Score: inf
ROOT
ATOM      1  C   UNL     1      86.482 320.322 197.121  1.00  0.00     0.000 C 
ENDROOT
BRANCH   1   2
ATOM      2  C   UNL     1      87.129 320.924 198.379  1.00  0.00     0.000 C 
BRANCH   2   3
ATOM      3  C   UNL     1      87.560 319.849 199.392  1.00  0.00     0.000 C 
BRANCH   3   4
ATOM      4  C   UNL     1      88.305 320.437 200.604  1.00  0.00     0.006 C 
BRANCH   4   5
ATOM      5  C   UNL     1      87.445 320.575 201.871  1.00  0.00     0.053 C 
BRANCH   5   6
ATOM      6  C   UNL     1      88.237 321.091 203.033  1.00  0.00     0.041 C 
ATOM      7  O   UNL     1      89.472 321.306 202.913  1.00  0.00    -0.550 OA
ATOM      8  O   UNL     1      87.617 321.304 204.257  1.00  0.00    -0.550 OA
ENDBRANCH   5   6
ENDBRANCH   4   5
ENDBRANCH   3   4
ENDBRANCH   2   3
ENDBRANCH   1   2
BRANCH   1   9
ATOM      9  C   UNL     1      87.356 320.500 195.866  1.00  0.00     0.000 C 
BRANCH   9  10
ATOM     10  C   UNL     1      86.538 320.913 194.632  1.00  0.00    -0.000 C 
BRANCH  10  11
ATOM     11  C   UNL     1      85.058 320.502 194.735  1.00  0.00    -0.000 C 
BRANCH  11  12
ATOM     12  C   UNL     1      84.635 319.534 193.619  1.00  0.00    -0.000 C 
BRANCH  12  13
ATOM     13  C   UNL     1      85.696 318.462 193.336  1.00  0.00    -0.003 C 
ATOM     14  C   UNL     1      86.115 318.477 191.869  1.00  0.00     0.004 C 
ENDBRANCH  12  13
ENDBRANCH  11  12
ENDBRANCH  10  11
ENDBRANCH   9  10
ENDBRANCH   1   9
TORSDOF 10
ENDMDL
MODEL 6
REMARK VINA RESULT:    -5.301      5.496      7.710
REMARK INTER + INTRA:          -9.177
REMARK INTER:                  -7.975
REMARK INTRA:                  -1.202
REMARK UNBOUND:                -0.777
REMARK SMILES CCCCCCCCCCCC(=O)[O-]
REMARK SMILES IDX 7 1 8 2 9 3 10 4 11 5 12 6 13 7 14 8 6 9 5 10 4 11 3 12 2 13
REMARK SMILES IDX 1 14
REMARK H PARENT
REMARK Flexibility Score: inf
ROOT
ATOM      1  C   UNL     1     103.681 306.248 193.417  1.00  0.00     0.000 C 
ENDROOT
BRANCH   1   2
ATOM      2  C   UNL     1     104.004 307.353 192.398  1.00  0.00     0.000 C 
BRANCH   2   3
ATOM      3  C   UNL     1     102.748 307.883 191.685  1.00  0.00     0.000 C 
BRANCH   3   4
ATOM      4  C   UNL     1     103.077 308.895 190.571  1.00  0.00     0.006 C 
BRANCH   4   5
ATOM      5  C   UNL     1     101.898 309.795 190.164  1.00  0.00     0.053 C 
BRANCH   5   6
ATOM      6  C   UNL     1     101.491 309.576 188.739  1.00  0.00     0.041 C 
ATOM      7  O   UNL     1     100.471 308.888 188.471  1.00  0.00    -0.550 OA
ATOM      8  O   UNL     1     102.255 310.106 187.708  1.00  0.00    -0.550 OA
ENDBRANCH   5   6
ENDBRANCH   4   5
ENDBRANCH   3   4
ENDBRANCH   2   3
ENDBRANCH   1   2
BRANCH   1   9
ATOM      9  C   UNL     1     102.234 305.736 193.293  1.00  0.00     0.000 C 
BRANCH   9  10
ATOM     10  C   UNL     1     101.414 305.974 194.571  1.00  0.00    -0.000 C 
BRANCH  10  11
ATOM     11  C   UNL     1     102.178 306.797 195.624  1.00  0.00    -0.000 C 
BRANCH  11  12
ATOM     12  C   UNL     1     101.582 308.200 195.822  1.00  0.00    -0.000 C 
BRANCH  12  13
ATOM     13  C   UNL     1     102.419 309.296 195.149  1.00  0.00    -0.003 C 
ATOM     14  C   UNL     1     101.552 310.175 194.251  1.00  0.00     0.004 C 
ENDBRANCH  12  13
ENDBRANCH  11  12
ENDBRANCH  10  11
ENDBRANCH   9  10
ENDBRANCH   1   9
TORSDOF 10
ENDMDL
MODEL 7
REMARK VINA RESULT:    -5.285      3.088      6.484
REMARK INTER + INTRA:          -9.152
REMARK INTER:                  -8.295
REMARK INTRA:                  -0.857
REMARK UNBOUND:                -0.777
REMARK SMILES CCCCCCCCCCCC(=O)[O-]
REMARK SMILES IDX 7 1 8 2 9 3 10 4 11 5 12 6 13 7 14 8 6 9 5 10 4 11 3 12 2 13
REMARK SMILES IDX 1 14
REMARK H PARENT
REMARK Flexibility Score: inf
ROOT
ATOM      1  C   UNL     1     102.053 305.847 193.299  1.00  0.00     0.000 C 
ENDROOT
BRANCH   1   2
ATOM      2  C   UNL     1     103.555 306.170 193.256  1.00  0.00     0.000 C 
BRANCH   2   3
ATOM      3  C   UNL     1     103.880 307.338 192.308  1.00  0.00     0.000 C 
BRANCH   3   4
ATOM      4  C   UNL     1     102.624 307.934 191.645  1.00  0.00     0.006 C 
BRANCH   4   5
ATOM      5  C   UNL     1     102.417 309.434 191.914  1.00  0.00     0.053 C 
BRANCH   5   6
ATOM      6  C   UNL     1     102.495 309.759 193.374  1.00  0.00     0.041 C 
ATOM      7  O   UNL     1     101.575 309.394 194.153  1.00  0.00    -0.550 OA
ATOM      8  O   UNL     1     103.566 310.492 193.867  1.00  0.00    -0.550 OA
ENDBRANCH   5   6
ENDBRANCH   4   5
ENDBRANCH   3   4
ENDBRANCH   2   3
ENDBRANCH   1   2
BRANCH   1   9
ATOM      9  C   UNL     1     101.476 305.910 194.725  1.00  0.00     0.000 C 
BRANCH   9  10
ATOM     10  C   UNL     1     102.509 306.387 195.758  1.00  0.00    -0.000 C 
BRANCH  10  11
ATOM     11  C   UNL     1     101.861 306.863 197.071  1.00  0.00    -0.000 C 
BRANCH  11  12
ATOM     12  C   UNL     1     101.771 305.746 198.123  1.00  0.00    -0.000 C 
BRANCH  12  13
ATOM     13  C   UNL     1     101.402 306.275 199.515  1.00  0.00    -0.003 C 
ATOM     14  C   UNL     1     102.547 306.068 200.503  1.00  0.00     0.004 C 
ENDBRANCH  12  13
ENDBRANCH  11  12
ENDBRANCH  10  11
ENDBRANCH   9  10
ENDBRANCH   1   9
TORSDOF 10
ENDMDL
MODEL 8
REMARK VINA RESULT:    -5.280     19.364     21.178
REMARK INTER + INTRA:          -9.144
REMARK INTER:                  -7.909
REMARK INTRA:                  -1.235
REMARK UNBOUND:                -0.777
REMARK SMILES CCCCCCCCCCCC(=O)[O-]
REMARK SMILES IDX 7 1 8 2 9 3 10 4 11 5 12 6 13 7 14 8 6 9 5 10 4 11 3 12 2 13
REMARK SMILES IDX 1 14
REMARK H PARENT
REMARK Flexibility Score: inf
ROOT
ATOM      1  C   UNL     1      85.019 320.375 194.408  1.00  0.00     0.000 C 
ENDROOT
BRANCH   1   2
ATOM      2  C   UNL     1      84.904 319.185 193.441  1.00  0.00     0.000 C 
BRANCH   2   3
ATOM      3  C   UNL     1      86.147 319.029 192.548  1.00  0.00     0.000 C 
BRANCH   3   4
ATOM      4  C   UNL     1      86.328 317.592 192.025  1.00  0.00     0.006 C 
BRANCH   4   5
ATOM      5  C   UNL     1      85.424 317.232 190.835  1.00  0.00     0.053 C 
BRANCH   5   6
ATOM      6  C   UNL     1      86.181 317.202 189.543  1.00  0.00     0.041 C 
ATOM      7  O   UNL     1      85.748 316.528 188.571  1.00  0.00    -0.550 OA
ATOM      8  O   UNL     1      87.380 317.892 189.423  1.00  0.00    -0.550 OA
ENDBRANCH   5   6
ENDBRANCH   4   5
ENDBRANCH   3   4
ENDBRANCH   2   3
ENDBRANCH   1   2
BRANCH   1   9
ATOM      9  C   UNL     1      86.394 321.064 194.335  1.00  0.00     0.000 C 
BRANCH   9  10
ATOM     10  C   UNL     1      87.318 320.660 195.493  1.00  0.00    -0.000 C 
BRANCH  10  11
ATOM     11  C   UNL     1      86.542 320.207 196.744  1.00  0.00    -0.000 C 
BRANCH  11  12
ATOM     12  C   UNL     1      86.951 318.803 197.216  1.00  0.00    -0.000 C 
BRANCH  12  13
ATOM     13  C   UNL     1      87.505 317.936 196.077  1.00  0.00    -0.003 C 
ATOM     14  C   UNL     1      86.565 316.776 195.761  1.00  0.00     0.004 C 
ENDBRANCH  12  13
ENDBRANCH  11  12
ENDBRANCH  10  11
ENDBRANCH   9  10
ENDBRANCH   1   9
TORSDOF 10
ENDMDL
MODEL 9
REMARK VINA RESULT:    -5.266      4.380      7.709
REMARK INTER + INTRA:          -9.121
REMARK INTER:                  -8.694
REMARK INTRA:                  -0.427
REMARK UNBOUND:                -0.777
REMARK SMILES CCCCCCCCCCCC(=O)[O-]
REMARK SMILES IDX 7 1 8 2 9 3 10 4 11 5 12 6 13 7 14 8 6 9 5 10 4 11 3 12 2 13
REMARK SMILES IDX 1 14
REMARK H PARENT
REMARK Flexibility Score: inf
ROOT
ATOM      1  C   UNL     1     101.495 306.192 194.657  1.00  0.00     0.000 C 
ENDROOT
BRANCH   1   2
ATOM      2  C   UNL     1     102.127 305.844 193.300  1.00  0.00     0.000 C 
BRANCH   2   3
ATOM      3  C   UNL     1     103.556 306.394 193.157  1.00  0.00     0.000 C 
BRANCH   3   4
ATOM      4  C   UNL     1     103.661 307.516 192.106  1.00  0.00     0.006 C 
BRANCH   4   5
ATOM      5  C   UNL     1     102.338 307.843 191.395  1.00  0.00     0.053 C 
BRANCH   5   6
ATOM      6  C   UNL     1     102.455 309.054 190.521  1.00  0.00     0.041 C 
ATOM      7  O   UNL     1     103.200 310.011 190.862  1.00  0.00    -0.550 OA
ATOM      8  O   UNL     1     101.719 309.138 189.347  1.00  0.00    -0.550 OA
ENDBRANCH   5   6
ENDBRANCH   4   5
ENDBRANCH   3   4
ENDBRANCH   2   3
ENDBRANCH   1   2
BRANCH   1   9
ATOM      9  C   UNL     1     102.546 306.408 195.760  1.00  0.00     0.000 C 
BRANCH   9  10
ATOM     10  C   UNL     1     101.913 306.738 197.121  1.00  0.00    -0.000 C 
BRANCH  10  11
ATOM     11  C   UNL     1     101.775 305.502 198.028  1.00  0.00    -0.000 C 
BRANCH  11  12
ATOM     12  C   UNL     1     101.334 305.863 199.456  1.00  0.00    -0.000 C 
BRANCH  12  13
ATOM     13  C   UNL     1     102.522 306.144 200.386  1.00  0.00    -0.003 C 
ATOM     14  C   UNL     1     102.146 305.906 201.845  1.00  0.00     0.004 C 
ENDBRANCH  12  13
ENDBRANCH  11  12
ENDBRANCH  10  11
ENDBRANCH   9  10
ENDBRANCH   1   9
TORSDOF 10
ENDMDL
