MODEL 1
REMARK VINA RESULT:    -0.445      0.000      0.000
REMARK INTER + INTRA:          -3.876
REMARK INTER:                  -1.174
REMARK INTRA:                  -2.702
REMARK UNBOUND:                -2.702
REMARK SMILES CCCCCCCCCCCCCCCCCCCCCCCCCCCCCC(=O)[O-]
REMARK SMILES IDX 16 1 17 2 18 3 19 4 20 5 21 6 22 7 23 8 24 9 25 10 26 11
REMARK SMILES IDX 27 12 28 13 29 14 30 15 31 16 32 17 15 18 14 19 13 20 12 21
REMARK SMILES IDX 11 22 10 23 9 24 8 25 7 26 6 27 5 28 4 29 3 30 2 31 1 32
REMARK H PARENT
REMARK Flexibility Score: inf
ROOT
ATOM      1  C   UNL     1      82.251 129.729 133.124  1.00  0.00     0.000 C 
ENDROOT
BRANCH   1   2
ATOM      2  C   UNL     1      83.273 130.442 132.221  1.00  0.00     0.000 C 
BRANCH   2   3
ATOM      3  C   UNL     1      83.221 129.945 130.767  1.00  0.00     0.000 C 
BRANCH   3   4
ATOM      4  C   UNL     1      84.504 129.208 130.345  1.00  0.00     0.000 C 
BRANCH   4   5
ATOM      5  C   UNL     1      84.471 128.763 128.874  1.00  0.00     0.000 C 
BRANCH   5   6
ATOM      6  C   UNL     1      83.884 127.355 128.698  1.00  0.00     0.000 C 
BRANCH   6   7
ATOM      7  C   UNL     1      84.957 126.280 128.926  1.00  0.00     0.000 C 
BRANCH   7   8
ATOM      8  C   UNL     1      85.049 125.270 127.769  1.00  0.00     0.000 C 
BRANCH   8   9
ATOM      9  C   UNL     1      84.265 123.958 127.979  1.00  0.00     0.000 C 
BRANCH   9  10
ATOM     10  C   UNL     1      82.766 124.126 128.281  1.00  0.00     0.000 C 
BRANCH  10  11
ATOM     11  C   UNL     1      81.878 123.185 127.449  1.00  0.00     0.000 C 
BRANCH  11  12
ATOM     12  C   UNL     1      82.644 122.493 126.307  1.00  0.00     0.000 C 
BRANCH  12  13
ATOM     13  C   UNL     1      82.659 120.951 126.367  1.00  0.00     0.006 C 
BRANCH  13  14
ATOM     14  C   UNL     1      82.104 120.258 125.113  1.00  0.00     0.053 C 
BRANCH  14  15
ATOM     15  C   UNL     1      82.717 120.798 123.857  1.00  0.00     0.041 C 
ATOM     16  O   UNL     1      83.948 121.060 123.815  1.00  0.00    -0.550 OA
ATOM     17  O   UNL     1      81.923 121.043 122.745  1.00  0.00    -0.550 OA
ENDBRANCH  14  15
ENDBRANCH  13  14
ENDBRANCH  12  13
ENDBRANCH  11  12
ENDBRANCH  10  11
ENDBRANCH   9  10
ENDBRANCH   8   9
ENDBRANCH   7   8
ENDBRANCH   6   7
ENDBRANCH   5   6
ENDBRANCH   4   5
ENDBRANCH   3   4
ENDBRANCH   2   3
ENDBRANCH   1   2
BRANCH   1  18
ATOM     18  C   UNL     1      82.077 128.246 132.758  1.00  0.00     0.000 C 
BRANCH  18  19
ATOM     19  C   UNL     1      83.407 127.473 132.775  1.00  0.00     0.000 C 
BRANCH  19  20
ATOM     20  C   UNL     1      83.201 125.954 132.882  1.00  0.00     0.000 C 
BRANCH  20  21
ATOM     21  C   UNL     1      82.173 125.420 131.869  1.00  0.00     0.000 C 
BRANCH  21  22
ATOM     22  C   UNL     1      82.099 123.882 131.845  1.00  0.00     0.000 C 
BRANCH  22  23
ATOM     23  C   UNL     1      82.598 123.185 133.125  1.00  0.00     0.000 C 
BRANCH  23  24
ATOM     24  C   UNL     1      83.055 121.736 132.879  1.00  0.00    -0.000 C 
BRANCH  24  25
ATOM     25  C   UNL     1      81.882 120.795 132.556  1.00  0.00    -0.000 C 
BRANCH  25  26
ATOM     26  C   UNL     1      82.330 119.509 131.846  1.00  0.00    -0.000 C 
BRANCH  26  27
ATOM     27  C   UNL     1      82.193 119.646 130.324  1.00  0.00    -0.000 C 
BRANCH  27  28
ATOM     28  C   UNL     1      83.322 120.513 129.746  1.00  0.00    -0.000 C 
BRANCH  28  29
ATOM     29  C   UNL     1      84.717 120.025 130.166  1.00  0.00    -0.000 C 
BRANCH  29  30
ATOM     30  C   UNL     1      85.778 121.134 130.094  1.00  0.00    -0.000 C 
BRANCH  30  31
ATOM     31  C   UNL     1      87.095 120.674 130.731  1.00  0.00    -0.003 C 
ATOM     32  C   UNL     1      88.270 121.513 130.235  1.00  0.00     0.004 C 
ENDBRANCH  30  31
ENDBRANCH  29  30
ENDBRANCH  28  29
ENDBRANCH  27  28
ENDBRANCH  26  27
ENDBRANCH  25  26
ENDBRANCH  24  25
ENDBRANCH  23  24
ENDBRANCH  22  23
ENDBRANCH  21  22
ENDBRANCH  20  21
ENDBRANCH  19  20
ENDBRANCH  18  19
ENDBRANCH   1  18
TORSDOF 28
ENDMDL
MODEL 2
REMARK VINA RESULT:     0.549     13.080     17.090
REMARK INTER + INTRA:          -1.255
REMARK INTER:                   0.391
REMARK INTRA:                  -1.645
REMARK UNBOUND:                -2.702
REMARK SMILES CCCCCCCCCCCCCCCCCCCCCCCCCCCCCC(=O)[O-]
REMARK SMILES IDX 16 1 17 2 18 3 19 4 20 5 21 6 22 7 23 8 24 9 25 10 26 11
REMARK SMILES IDX 27 12 28 13 29 14 30 15 31 16 32 17 15 18 14 19 13 20 12 21
REMARK SMILES IDX 11 22 10 23 9 24 8 25 7 26 6 27 5 28 4 29 3 30 2 31 1 32
REMARK H PARENT
REMARK Flexibility Score: inf
ROOT
ATOM      1  C   UNL     1      98.412 123.652 126.742  1.00  0.00     0.000 C 
ENDROOT
BRANCH   1   2
ATOM      2  C   UNL     1      98.623 125.163 126.540  1.00  0.00     0.000 C 
BRANCH   2   3
ATOM      3  C   UNL     1      97.625 125.769 125.540  1.00  0.00     0.000 C 
BRANCH   3   4
ATOM      4  C   UNL     1      97.606 127.307 125.578  1.00  0.00     0.000 C 
BRANCH   4   5
ATOM      5  C   UNL     1      97.618 127.860 127.013  1.00  0.00     0.000 C 
BRANCH   5   6
ATOM      6  C   UNL     1      96.863 129.192 127.137  1.00  0.00     0.000 C 
BRANCH   6   7
ATOM      7  C   UNL     1      97.402 130.020 128.312  1.00  0.00     0.000 C 
BRANCH   7   8
ATOM      8  C   UNL     1      96.496 131.212 128.670  1.00  0.00     0.000 C 
BRANCH   8   9
ATOM      9  C   UNL     1      96.157 131.352 130.169  1.00  0.00     0.000 C 
BRANCH   9  10
ATOM     10  C   UNL     1      95.676 132.746 130.609  1.00  0.00     0.000 C 
BRANCH  10  11
ATOM     11  C   UNL     1      96.676 133.459 131.534  1.00  0.00     0.000 C 
BRANCH  11  12
ATOM     12  C   UNL     1      96.706 134.984 131.323  1.00  0.00     0.000 C 
BRANCH  12  13
ATOM     13  C   UNL     1      97.989 135.690 131.810  1.00  0.00     0.006 C 
BRANCH  13  14
ATOM     14  C   UNL     1      98.716 136.509 130.733  1.00  0.00     0.053 C 
BRANCH  14  15
ATOM     15  C   UNL     1      99.564 137.590 131.329  1.00  0.00     0.041 C 
ATOM     16  O   UNL     1     100.810 137.593 131.145  1.00  0.00    -0.550 OA
ATOM     17  O   UNL     1      98.983 138.576 132.116  1.00  0.00    -0.550 OA
ENDBRANCH  14  15
ENDBRANCH  13  14
ENDBRANCH  12  13
ENDBRANCH  11  12
ENDBRANCH  10  11
ENDBRANCH   9  10
ENDBRANCH   8   9
ENDBRANCH   7   8
ENDBRANCH   6   7
ENDBRANCH   5   6
ENDBRANCH   4   5
ENDBRANCH   3   4
ENDBRANCH   2   3
ENDBRANCH   1   2
BRANCH   1  18
ATOM     18  C   UNL     1      97.411 123.059 125.737  1.00  0.00     0.000 C 
BRANCH  18  19
ATOM     19  C   UNL     1      96.124 122.553 126.413  1.00  0.00     0.000 C 
BRANCH  19  20
ATOM     20  C   UNL     1      94.860 122.928 125.622  1.00  0.00     0.000 C 
BRANCH  20  21
ATOM     21  C   UNL     1      95.164 123.808 124.398  1.00  0.00     0.000 C 
BRANCH  21  22
ATOM     22  C   UNL     1      93.891 124.309 123.691  1.00  0.00     0.000 C 
BRANCH  22  23
ATOM     23  C   UNL     1      92.672 123.375 123.801  1.00  0.00     0.000 C 
BRANCH  23  24
ATOM     24  C   UNL     1      92.741 122.181 122.832  1.00  0.00    -0.000 C 
BRANCH  24  25
ATOM     25  C   UNL     1      92.943 122.619 121.372  1.00  0.00    -0.000 C 
BRANCH  25  26
ATOM     26  C   UNL     1      94.024 121.801 120.651  1.00  0.00    -0.000 C 
BRANCH  26  27
ATOM     27  C   UNL     1      93.567 121.412 119.239  1.00  0.00    -0.000 C 
BRANCH  27  28
ATOM     28  C   UNL     1      92.156 121.947 118.950  1.00  0.00    -0.000 C 
BRANCH  28  29
ATOM     29  C   UNL     1      92.123 122.915 117.757  1.00  0.00    -0.000 C 
BRANCH  29  30
ATOM     30  C   UNL     1      91.368 122.340 116.549  1.00  0.00    -0.000 C 
BRANCH  30  31
ATOM     31  C   UNL     1      92.274 121.419 115.724  1.00  0.00    -0.003 C 
ATOM     32  C   UNL     1      91.750 119.985 115.723  1.00  0.00     0.004 C 
ENDBRANCH  30  31
ENDBRANCH  29  30
ENDBRANCH  28  29
ENDBRANCH  27  28
ENDBRANCH  26  27
ENDBRANCH  25  26
ENDBRANCH  24  25
ENDBRANCH  23  24
ENDBRANCH  22  23
ENDBRANCH  21  22
ENDBRANCH  20  21
ENDBRANCH  19  20
ENDBRANCH  18  19
ENDBRANCH   1  18
TORSDOF 28
ENDMDL
MODEL 3
REMARK VINA RESULT:     0.690     12.027     15.843
REMARK INTER + INTRA:          -0.882
REMARK INTER:                   0.723
REMARK INTRA:                  -1.605
REMARK UNBOUND:                -2.702
REMARK SMILES CCCCCCCCCCCCCCCCCCCCCCCCCCCCCC(=O)[O-]
REMARK SMILES IDX 16 1 17 2 18 3 19 4 20 5 21 6 22 7 23 8 24 9 25 10 26 11
REMARK SMILES IDX 27 12 28 13 29 14 30 15 31 16 32 17 15 18 14 19 13 20 12 21
REMARK SMILES IDX 11 22 10 23 9 24 8 25 7 26 6 27 5 28 4 29 3 30 2 31 1 32
REMARK H PARENT
REMARK Flexibility Score: inf
ROOT
ATOM      1  C   UNL     1      98.182 124.057 126.599  1.00  0.00     0.000 C 
ENDROOT
BRANCH   1   2
ATOM      2  C   UNL     1      97.125 123.216 125.861  1.00  0.00     0.000 C 
BRANCH   2   3
ATOM      3  C   UNL     1      96.654 123.876 124.554  1.00  0.00     0.000 C 
BRANCH   3   4
ATOM      4  C   UNL     1      95.122 123.989 124.466  1.00  0.00     0.000 C 
BRANCH   4   5
ATOM      5  C   UNL     1      94.403 122.849 125.206  1.00  0.00     0.000 C 
BRANCH   5   6
ATOM      6  C   UNL     1      92.880 122.890 125.015  1.00  0.00     0.000 C 
BRANCH   6   7
ATOM      7  C   UNL     1      92.515 123.489 123.649  1.00  0.00     0.000 C 
BRANCH   7   8
ATOM      8  C   UNL     1      92.364 122.423 122.549  1.00  0.00     0.000 C 
BRANCH   8   9
ATOM      9  C   UNL     1      93.166 122.694 121.258  1.00  0.00     0.000 C 
BRANCH   9  10
ATOM     10  C   UNL     1      93.769 121.449 120.584  1.00  0.00     0.000 C 
BRANCH  10  11
ATOM     11  C   UNL     1      93.806 121.557 119.050  1.00  0.00     0.000 C 
BRANCH  11  12
ATOM     12  C   UNL     1      92.781 122.564 118.496  1.00  0.00     0.000 C 
BRANCH  12  13
ATOM     13  C   UNL     1      91.586 121.940 117.746  1.00  0.00     0.006 C 
BRANCH  13  14
ATOM     14  C   UNL     1      91.617 122.134 116.222  1.00  0.00     0.053 C 
BRANCH  14  15
ATOM     15  C   UNL     1      92.133 120.919 115.514  1.00  0.00     0.041 C 
ATOM     16  O   UNL     1      91.563 119.807 115.665  1.00  0.00    -0.550 OA
ATOM     17  O   UNL     1      93.264 121.008 114.713  1.00  0.00    -0.550 OA
ENDBRANCH  14  15
ENDBRANCH  13  14
ENDBRANCH  12  13
ENDBRANCH  11  12
ENDBRANCH  10  11
ENDBRANCH   9  10
ENDBRANCH   8   9
ENDBRANCH   7   8
ENDBRANCH   6   7
ENDBRANCH   5   6
ENDBRANCH   4   5
ENDBRANCH   3   4
ENDBRANCH   2   3
ENDBRANCH   1   2
BRANCH   1  18
ATOM     18  C   UNL     1      98.217 125.515 126.111  1.00  0.00     0.000 C 
BRANCH  18  19
ATOM     19  C   UNL     1      97.613 126.495 127.133  1.00  0.00     0.000 C 
BRANCH  19  20
ATOM     20  C   UNL     1      97.534 127.931 126.592  1.00  0.00     0.000 C 
BRANCH  20  21
ATOM     21  C   UNL     1      97.657 128.992 127.699  1.00  0.00     0.000 C 
BRANCH  21  22
ATOM     22  C   UNL     1      96.392 129.859 127.840  1.00  0.00     0.000 C 
BRANCH  22  23
ATOM     23  C   UNL     1      96.627 131.267 128.421  1.00  0.00     0.000 C 
BRANCH  23  24
ATOM     24  C   UNL     1      95.594 131.653 129.493  1.00  0.00    -0.000 C 
BRANCH  24  25
ATOM     25  C   UNL     1      96.028 131.234 130.908  1.00  0.00    -0.000 C 
BRANCH  25  26
ATOM     26  C   UNL     1      96.110 132.421 131.880  1.00  0.00    -0.000 C 
BRANCH  26  27
ATOM     27  C   UNL     1      96.420 133.723 131.130  1.00  0.00    -0.000 C 
BRANCH  27  28
ATOM     28  C   UNL     1      97.206 134.697 132.020  1.00  0.00    -0.000 C 
BRANCH  28  29
ATOM     29  C   UNL     1      97.916 135.796 131.213  1.00  0.00    -0.000 C 
BRANCH  29  30
ATOM     30  C   UNL     1      98.926 136.590 132.055  1.00  0.00    -0.000 C 
BRANCH  30  31
ATOM     31  C   UNL     1      99.440 137.812 131.285  1.00  0.00    -0.003 C 
ATOM     32  C   UNL     1     100.900 137.634 130.877  1.00  0.00     0.004 C 
ENDBRANCH  30  31
ENDBRANCH  29  30
ENDBRANCH  28  29
ENDBRANCH  27  28
ENDBRANCH  26  27
ENDBRANCH  25  26
ENDBRANCH  24  25
ENDBRANCH  23  24
ENDBRANCH  22  23
ENDBRANCH  21  22
ENDBRANCH  20  21
ENDBRANCH  19  20
ENDBRANCH  18  19
ENDBRANCH   1  18
TORSDOF 28
ENDMDL
MODEL 4
REMARK VINA RESULT:     1.003     12.046     16.075
REMARK INTER + INTRA:          -0.059
REMARK INTER:                   1.467
REMARK INTRA:                  -1.526
REMARK UNBOUND:                -2.702
REMARK SMILES CCCCCCCCCCCCCCCCCCCCCCCCCCCCCC(=O)[O-]
REMARK SMILES IDX 16 1 17 2 18 3 19 4 20 5 21 6 22 7 23 8 24 9 25 10 26 11
REMARK SMILES IDX 27 12 28 13 29 14 30 15 31 16 32 17 15 18 14 19 13 20 12 21
REMARK SMILES IDX 11 22 10 23 9 24 8 25 7 26 6 27 5 28 4 29 3 30 2 31 1 32
REMARK H PARENT
REMARK Flexibility Score: inf
ROOT
ATOM      1  C   UNL     1      97.776 126.052 125.540  1.00  0.00     0.000 C 
ENDROOT
BRANCH   1   2
ATOM      2  C   UNL     1      97.901 125.267 126.859  1.00  0.00     0.000 C 
BRANCH   2   3
ATOM      3  C   UNL     1      98.636 123.929 126.680  1.00  0.00     0.000 C 
BRANCH   3   4
ATOM      4  C   UNL     1      97.760 122.856 126.010  1.00  0.00     0.000 C 
BRANCH   4   5
ATOM      5  C   UNL     1      96.390 122.704 126.692  1.00  0.00     0.000 C 
BRANCH   5   6
ATOM      6  C   UNL     1      95.222 122.850 125.706  1.00  0.00     0.000 C 
BRANCH   6   7
ATOM      7  C   UNL     1      95.576 123.829 124.577  1.00  0.00     0.000 C 
BRANCH   7   8
ATOM      8  C   UNL     1      94.390 124.117 123.640  1.00  0.00     0.000 C 
BRANCH   8   9
ATOM      9  C   UNL     1      93.074 123.399 124.006  1.00  0.00     0.000 C 
BRANCH   9  10
ATOM     10  C   UNL     1      92.619 122.312 123.016  1.00  0.00     0.000 C 
BRANCH  10  11
ATOM     11  C   UNL     1      92.758 122.745 121.547  1.00  0.00     0.000 C 
BRANCH  11  12
ATOM     12  C   UNL     1      93.340 121.639 120.648  1.00  0.00     0.000 C 
BRANCH  12  13
ATOM     13  C   UNL     1      93.361 121.960 119.139  1.00  0.00     0.006 C 
BRANCH  13  14
ATOM     14  C   UNL     1      92.027 122.478 118.579  1.00  0.00     0.053 C 
BRANCH  14  15
ATOM     15  C   UNL     1      91.825 122.072 117.151  1.00  0.00     0.041 C 
ATOM     16  O   UNL     1      91.472 122.924 116.294  1.00  0.00    -0.550 OA
ATOM     17  O   UNL     1      91.995 120.746 116.773  1.00  0.00    -0.550 OA
ENDBRANCH  14  15
ENDBRANCH  13  14
ENDBRANCH  12  13
ENDBRANCH  11  12
ENDBRANCH  10  11
ENDBRANCH   9  10
ENDBRANCH   8   9
ENDBRANCH   7   8
ENDBRANCH   6   7
ENDBRANCH   5   6
ENDBRANCH   4   5
ENDBRANCH   3   4
ENDBRANCH   2   3
ENDBRANCH   1   2
BRANCH   1  18
ATOM     18  C   UNL     1      97.621 127.564 125.770  1.00  0.00     0.000 C 
BRANCH  18  19
ATOM     19  C   UNL     1      97.314 127.911 127.238  1.00  0.00     0.000 C 
BRANCH  19  20
ATOM     20  C   UNL     1      97.650 129.371 127.577  1.00  0.00     0.000 C 
BRANCH  20  21
ATOM     21  C   UNL     1      96.666 129.989 128.587  1.00  0.00     0.000 C 
BRANCH  21  22
ATOM     22  C   UNL     1      96.384 131.477 128.314  1.00  0.00     0.000 C 
BRANCH  22  23
ATOM     23  C   UNL     1      95.246 131.752 127.312  1.00  0.00     0.000 C 
BRANCH  23  24
ATOM     24  C   UNL     1      95.756 132.025 125.886  1.00  0.00    -0.000 C 
BRANCH  24  25
ATOM     25  C   UNL     1      94.620 132.374 124.910  1.00  0.00    -0.000 C 
BRANCH  25  26
ATOM     26  C   UNL     1      94.810 133.745 124.244  1.00  0.00    -0.000 C 
BRANCH  26  27
ATOM     27  C   UNL     1      96.244 133.909 123.724  1.00  0.00    -0.000 C 
BRANCH  27  28
ATOM     28  C   UNL     1      96.445 135.292 123.088  1.00  0.00    -0.000 C 
BRANCH  28  29
ATOM     29  C   UNL     1      96.845 135.210 121.606  1.00  0.00    -0.000 C 
BRANCH  29  30
ATOM     30  C   UNL     1      97.150 136.587 120.998  1.00  0.00    -0.000 C 
BRANCH  30  31
ATOM     31  C   UNL     1      96.811 136.613 119.503  1.00  0.00    -0.003 C 
ATOM     32  C   UNL     1      96.575 138.040 119.015  1.00  0.00     0.004 C 
ENDBRANCH  30  31
ENDBRANCH  29  30
ENDBRANCH  28  29
ENDBRANCH  27  28
ENDBRANCH  26  27
ENDBRANCH  25  26
ENDBRANCH  24  25
ENDBRANCH  23  24
ENDBRANCH  22  23
ENDBRANCH  21  22
ENDBRANCH  20  21
ENDBRANCH  19  20
ENDBRANCH  18  19
ENDBRANCH   1  18
TORSDOF 28
ENDMDL
MODEL 5
REMARK VINA RESULT:     1.408     12.821     16.789
REMARK INTER + INTRA:           1.011
REMARK INTER:                   2.293
REMARK INTRA:                  -1.283
REMARK UNBOUND:                -2.702
REMARK SMILES CCCCCCCCCCCCCCCCCCCCCCCCCCCCCC(=O)[O-]
REMARK SMILES IDX 16 1 17 2 18 3 19 4 20 5 21 6 22 7 23 8 24 9 25 10 26 11
REMARK SMILES IDX 27 12 28 13 29 14 30 15 31 16 32 17 15 18 14 19 13 20 12 21
REMARK SMILES IDX 11 22 10 23 9 24 8 25 7 26 6 27 5 28 4 29 3 30 2 31 1 32
REMARK H PARENT
REMARK Flexibility Score: inf
ROOT
ATOM      1  C   UNL     1      96.867 129.097 127.616  1.00  0.00     0.000 C 
ENDROOT
BRANCH   1   2
ATOM      2  C   UNL     1      98.053 128.241 127.136  1.00  0.00     0.000 C 
BRANCH   2   3
ATOM      3  C   UNL     1      97.606 127.033 126.297  1.00  0.00     0.000 C 
BRANCH   3   4
ATOM      4  C   UNL     1      97.594 125.723 127.105  1.00  0.00     0.000 C 
BRANCH   4   5
ATOM      5  C   UNL     1      98.591 124.686 126.561  1.00  0.00     0.000 C 
BRANCH   5   6
ATOM      6  C   UNL     1      97.940 123.319 126.307  1.00  0.00     0.000 C 
BRANCH   6   7
ATOM      7  C   UNL     1      96.442 123.473 126.003  1.00  0.00     0.000 C 
BRANCH   7   8
ATOM      8  C   UNL     1      96.166 123.895 124.550  1.00  0.00     0.000 C 
BRANCH   8   9
ATOM      9  C   UNL     1      94.680 124.124 124.203  1.00  0.00     0.000 C 
BRANCH   9  10
ATOM     10  C   UNL     1      93.719 123.010 124.656  1.00  0.00     0.000 C 
BRANCH  10  11
ATOM     11  C   UNL     1      92.692 122.631 123.576  1.00  0.00     0.000 C 
BRANCH  11  12
ATOM     12  C   UNL     1      93.272 122.684 122.151  1.00  0.00     0.000 C 
BRANCH  12  13
ATOM     13  C   UNL     1      92.320 122.205 121.035  1.00  0.00     0.006 C 
BRANCH  13  14
ATOM     14  C   UNL     1      92.646 122.756 119.638  1.00  0.00     0.053 C 
BRANCH  14  15
ATOM     15  C   UNL     1      92.964 121.662 118.665  1.00  0.00     0.041 C 
ATOM     16  O   UNL     1      93.915 120.868 118.893  1.00  0.00    -0.550 OA
ATOM     17  O   UNL     1      92.233 121.541 117.491  1.00  0.00    -0.550 OA
ENDBRANCH  14  15
ENDBRANCH  13  14
ENDBRANCH  12  13
ENDBRANCH  11  12
ENDBRANCH  10  11
ENDBRANCH   9  10
ENDBRANCH   8   9
ENDBRANCH   7   8
ENDBRANCH   6   7
ENDBRANCH   5   6
ENDBRANCH   4   5
ENDBRANCH   3   4
ENDBRANCH   2   3
ENDBRANCH   1   2
BRANCH   1  18
ATOM     18  C   UNL     1      97.316 130.442 128.210  1.00  0.00     0.000 C 
BRANCH  18  19
ATOM     19  C   UNL     1      96.137 131.273 128.748  1.00  0.00     0.000 C 
BRANCH  19  20
ATOM     20  C   UNL     1      95.091 131.577 127.665  1.00  0.00     0.000 C 
BRANCH  20  21
ATOM     21  C   UNL     1      95.723 132.018 126.334  1.00  0.00     0.000 C 
BRANCH  21  22
ATOM     22  C   UNL     1      94.693 132.154 125.198  1.00  0.00     0.000 C 
BRANCH  22  23
ATOM     23  C   UNL     1      94.650 133.535 124.516  1.00  0.00     0.000 C 
BRANCH  23  24
ATOM     24  C   UNL     1      95.655 133.662 123.357  1.00  0.00    -0.000 C 
BRANCH  24  25
ATOM     25  C   UNL     1      96.719 134.742 123.616  1.00  0.00    -0.000 C 
BRANCH  25  26
ATOM     26  C   UNL     1      96.811 135.769 122.478  1.00  0.00    -0.000 C 
BRANCH  26  27
ATOM     27  C   UNL     1      97.267 135.103 121.173  1.00  0.00    -0.000 C 
BRANCH  27  28
ATOM     28  C   UNL     1      98.087 136.077 120.315  1.00  0.00    -0.000 C 
BRANCH  28  29
ATOM     29  C   UNL     1      97.810 137.549 120.661  1.00  0.00    -0.000 C 
BRANCH  29  30
ATOM     30  C   UNL     1      96.565 138.100 119.950  1.00  0.00    -0.000 C 
BRANCH  30  31
ATOM     31  C   UNL     1      96.601 137.776 118.452  1.00  0.00    -0.003 C 
ATOM     32  C   UNL     1      96.236 138.999 117.614  1.00  0.00     0.004 C 
ENDBRANCH  30  31
ENDBRANCH  29  30
ENDBRANCH  28  29
ENDBRANCH  27  28
ENDBRANCH  26  27
ENDBRANCH  25  26
ENDBRANCH  24  25
ENDBRANCH  23  24
ENDBRANCH  22  23
ENDBRANCH  21  22
ENDBRANCH  20  21
ENDBRANCH  19  20
ENDBRANCH  18  19
ENDBRANCH   1  18
TORSDOF 28
ENDMDL
MODEL 6
REMARK VINA RESULT:     1.446     12.803     16.677
REMARK INTER + INTRA:           1.111
REMARK INTER:                   2.574
REMARK INTRA:                  -1.464
REMARK UNBOUND:                -2.702
REMARK SMILES CCCCCCCCCCCCCCCCCCCCCCCCCCCCCC(=O)[O-]
REMARK SMILES IDX 16 1 17 2 18 3 19 4 20 5 21 6 22 7 23 8 24 9 25 10 26 11
REMARK SMILES IDX 27 12 28 13 29 14 30 15 31 16 32 17 15 18 14 19 13 20 12 21
REMARK SMILES IDX 11 22 10 23 9 24 8 25 7 26 6 27 5 28 4 29 3 30 2 31 1 32
REMARK H PARENT
REMARK Flexibility Score: inf
ROOT
ATOM      1  C   UNL     1      97.006 128.290 127.208  1.00  0.00     0.000 C 
ENDROOT
BRANCH   1   2
ATOM      2  C   UNL     1      98.030 127.283 126.654  1.00  0.00     0.000 C 
BRANCH   2   3
ATOM      3  C   UNL     1      97.425 125.886 126.439  1.00  0.00     0.000 C 
BRANCH   3   4
ATOM      4  C   UNL     1      97.431 125.458 124.961  1.00  0.00     0.000 C 
BRANCH   4   5
ATOM      5  C   UNL     1      96.232 124.566 124.600  1.00  0.00     0.000 C 
BRANCH   5   6
ATOM      6  C   UNL     1      95.921 123.528 125.689  1.00  0.00     0.000 C 
BRANCH   6   7
ATOM      7  C   UNL     1      94.554 122.872 125.447  1.00  0.00     0.000 C 
BRANCH   7   8
ATOM      8  C   UNL     1      93.764 123.537 124.306  1.00  0.00     0.000 C 
BRANCH   8   9
ATOM      9  C   UNL     1      93.155 122.564 123.275  1.00  0.00     0.000 C 
BRANCH   9  10
ATOM     10  C   UNL     1      92.892 123.160 121.881  1.00  0.00     0.000 C 
BRANCH  10  11
ATOM     11  C   UNL     1      92.627 122.087 120.811  1.00  0.00     0.000 C 
BRANCH  11  12
ATOM     12  C   UNL     1      93.801 121.914 119.830  1.00  0.00     0.000 C 
BRANCH  12  13
ATOM     13  C   UNL     1      93.434 121.284 118.471  1.00  0.00     0.006 C 
BRANCH  13  14
ATOM     14  C   UNL     1      91.979 121.510 118.034  1.00  0.00     0.053 C 
BRANCH  14  15
ATOM     15  C   UNL     1      91.858 121.666 116.549  1.00  0.00     0.041 C 
ATOM     16  O   UNL     1      91.361 122.715 116.060  1.00  0.00    -0.550 OA
ATOM     17  O   UNL     1      92.263 120.639 115.706  1.00  0.00    -0.550 OA
ENDBRANCH  14  15
ENDBRANCH  13  14
ENDBRANCH  12  13
ENDBRANCH  11  12
ENDBRANCH  10  11
ENDBRANCH   9  10
ENDBRANCH   8   9
ENDBRANCH   7   8
ENDBRANCH   6   7
ENDBRANCH   5   6
ENDBRANCH   4   5
ENDBRANCH   3   4
ENDBRANCH   2   3
ENDBRANCH   1   2
BRANCH   1  18
ATOM     18  C   UNL     1      97.677 129.510 127.859  1.00  0.00     0.000 C 
BRANCH  18  19
ATOM     19  C   UNL     1      96.773 130.197 128.899  1.00  0.00     0.000 C 
BRANCH  19  20
ATOM     20  C   UNL     1      96.360 131.614 128.471  1.00  0.00     0.000 C 
BRANCH  20  21
ATOM     21  C   UNL     1      95.394 131.617 127.274  1.00  0.00     0.000 C 
BRANCH  21  22
ATOM     22  C   UNL     1      95.958 132.364 126.051  1.00  0.00     0.000 C 
BRANCH  22  23
ATOM     23  C   UNL     1      95.009 132.446 124.841  1.00  0.00     0.000 C 
BRANCH  23  24
ATOM     24  C   UNL     1      95.157 133.758 124.051  1.00  0.00    -0.000 C 
BRANCH  24  25
ATOM     25  C   UNL     1      96.625 134.186 123.888  1.00  0.00    -0.000 C 
BRANCH  25  26
ATOM     26  C   UNL     1      96.792 135.387 122.945  1.00  0.00    -0.000 C 
BRANCH  26  27
ATOM     27  C   UNL     1      96.525 134.982 121.489  1.00  0.00    -0.000 C 
BRANCH  27  28
ATOM     28  C   UNL     1      97.340 135.849 120.518  1.00  0.00    -0.000 C 
BRANCH  28  29
ATOM     29  C   UNL     1      97.607 137.261 121.066  1.00  0.00    -0.000 C 
BRANCH  29  30
ATOM     30  C   UNL     1      97.361 138.358 120.020  1.00  0.00    -0.000 C 
BRANCH  30  31
ATOM     31  C   UNL     1      96.419 137.862 118.916  1.00  0.00    -0.003 C 
ATOM     32  C   UNL     1      96.513 138.742 117.673  1.00  0.00     0.004 C 
ENDBRANCH  30  31
ENDBRANCH  29  30
ENDBRANCH  28  29
ENDBRANCH  27  28
ENDBRANCH  26  27
ENDBRANCH  25  26
ENDBRANCH  24  25
ENDBRANCH  23  24
ENDBRANCH  22  23
ENDBRANCH  21  22
ENDBRANCH  20  21
ENDBRANCH  19  20
ENDBRANCH  18  19
ENDBRANCH   1  18
TORSDOF 28
ENDMDL
MODEL 7
REMARK VINA RESULT:     1.786     13.709     16.860
REMARK INTER + INTRA:           2.007
REMARK INTER:                   2.925
REMARK INTRA:                  -0.918
REMARK UNBOUND:                -2.702
REMARK SMILES CCCCCCCCCCCCCCCCCCCCCCCCCCCCCC(=O)[O-]
REMARK SMILES IDX 16 1 17 2 18 3 19 4 20 5 21 6 22 7 23 8 24 9 25 10 26 11
REMARK SMILES IDX 27 12 28 13 29 14 30 15 31 16 32 17 15 18 14 19 13 20 12 21
REMARK SMILES IDX 11 22 10 23 9 24 8 25 7 26 6 27 5 28 4 29 3 30 2 31 1 32
REMARK H PARENT
REMARK Flexibility Score: inf
ROOT
ATOM      1  C   UNL     1      97.573 130.231 127.978  1.00  0.00     0.000 C 
ENDROOT
BRANCH   1   2
ATOM      2  C   UNL     1      96.599 131.245 128.605  1.00  0.00     0.000 C 
BRANCH   2   3
ATOM      3  C   UNL     1      95.355 131.483 127.734  1.00  0.00     0.000 C 
BRANCH   3   4
ATOM      4  C   UNL     1      95.704 132.057 126.349  1.00  0.00     0.000 C 
BRANCH   4   5
ATOM      5  C   UNL     1      94.475 132.168 125.431  1.00  0.00     0.000 C 
BRANCH   5   6
ATOM      6  C   UNL     1      94.715 133.101 124.235  1.00  0.00     0.000 C 
BRANCH   6   7
ATOM      7  C   UNL     1      95.946 133.988 124.470  1.00  0.00     0.000 C 
BRANCH   7   8
ATOM      8  C   UNL     1      96.765 134.228 123.190  1.00  0.00     0.000 C 
BRANCH   8   9
ATOM      9  C   UNL     1      96.522 135.587 122.499  1.00  0.00     0.000 C 
BRANCH   9  10
ATOM     10  C   UNL     1      96.820 135.621 120.990  1.00  0.00     0.000 C 
BRANCH  10  11
ATOM     11  C   UNL     1      98.157 136.305 120.660  1.00  0.00     0.000 C 
BRANCH  11  12
ATOM     12  C   UNL     1      98.200 137.781 121.094  1.00  0.00     0.000 C 
BRANCH  12  13
ATOM     13  C   UNL     1      97.484 138.766 120.147  1.00  0.00     0.006 C 
BRANCH  13  14
ATOM     14  C   UNL     1      96.230 138.198 119.464  1.00  0.00     0.053 C 
BRANCH  14  15
ATOM     15  C   UNL     1      96.441 137.985 117.996  1.00  0.00     0.041 C 
ATOM     16  O   UNL     1      96.412 138.962 117.203  1.00  0.00    -0.550 OA
ATOM     17  O   UNL     1      96.635 136.702 117.500  1.00  0.00    -0.550 OA
ENDBRANCH  14  15
ENDBRANCH  13  14
ENDBRANCH  12  13
ENDBRANCH  11  12
ENDBRANCH  10  11
ENDBRANCH   9  10
ENDBRANCH   8   9
ENDBRANCH   7   8
ENDBRANCH   6   7
ENDBRANCH   5   6
ENDBRANCH   4   5
ENDBRANCH   3   4
ENDBRANCH   2   3
ENDBRANCH   1   2
BRANCH   1  18
ATOM     18  C   UNL     1      96.933 128.849 127.776  1.00  0.00     0.000 C 
BRANCH  18  19
ATOM     19  C   UNL     1      97.731 127.964 126.802  1.00  0.00     0.000 C 
BRANCH  19  20
ATOM     20  C   UNL     1      97.523 126.464 127.067  1.00  0.00     0.000 C 
BRANCH  20  21
ATOM     21  C   UNL     1      97.683 125.608 125.799  1.00  0.00     0.000 C 
BRANCH  21  22
ATOM     22  C   UNL     1      97.108 124.189 125.959  1.00  0.00     0.000 C 
BRANCH  22  23
ATOM     23  C   UNL     1      96.697 123.499 124.644  1.00  0.00     0.000 C 
BRANCH  23  24
ATOM     24  C   UNL     1      95.379 124.044 124.068  1.00  0.00    -0.000 C 
BRANCH  24  25
ATOM     25  C   UNL     1      94.144 123.322 124.633  1.00  0.00    -0.000 C 
BRANCH  25  26
ATOM     26  C   UNL     1      92.889 123.529 123.772  1.00  0.00    -0.000 C 
BRANCH  26  27
ATOM     27  C   UNL     1      92.770 122.432 122.706  1.00  0.00    -0.000 C 
BRANCH  27  28
ATOM     28  C   UNL     1      92.589 123.041 121.308  1.00  0.00    -0.000 C 
BRANCH  28  29
ATOM     29  C   UNL     1      92.991 122.073 120.183  1.00  0.00    -0.000 C 
BRANCH  29  30
ATOM     30  C   UNL     1      92.078 122.184 118.953  1.00  0.00    -0.000 C 
BRANCH  30  31
ATOM     31  C   UNL     1      92.668 121.417 117.763  1.00  0.00    -0.003 C 
ATOM     32  C   UNL     1      91.888 121.701 116.482  1.00  0.00     0.004 C 
ENDBRANCH  30  31
ENDBRANCH  29  30
ENDBRANCH  28  29
ENDBRANCH  27  28
ENDBRANCH  26  27
ENDBRANCH  25  26
ENDBRANCH  24  25
ENDBRANCH  23  24
ENDBRANCH  22  23
ENDBRANCH  21  22
ENDBRANCH  20  21
ENDBRANCH  19  20
ENDBRANCH  18  19
ENDBRANCH   1  18
TORSDOF 28
ENDMDL
MODEL 8
REMARK VINA RESULT:     1.857     12.255     16.088
REMARK INTER + INTRA:           2.193
REMARK INTER:                   2.889
REMARK INTRA:                  -0.695
REMARK UNBOUND:                -2.702
REMARK SMILES CCCCCCCCCCCCCCCCCCCCCCCCCCCCCC(=O)[O-]
REMARK SMILES IDX 16 1 17 2 18 3 19 4 20 5 21 6 22 7 23 8 24 9 25 10 26 11
REMARK SMILES IDX 27 12 28 13 29 14 30 15 31 16 32 17 15 18 14 19 13 20 12 21
REMARK SMILES IDX 11 22 10 23 9 24 8 25 7 26 6 27 5 28 4 29 3 30 2 31 1 32
REMARK H PARENT
REMARK Flexibility Score: inf
ROOT
ATOM      1  C   UNL     1      95.792 123.723 125.618  1.00  0.00     0.000 C 
ENDROOT
BRANCH   1   2
ATOM      2  C   UNL     1      96.020 122.329 126.230  1.00  0.00     0.000 C 
BRANCH   2   3
ATOM      3  C   UNL     1      97.264 122.277 127.132  1.00  0.00     0.000 C 
BRANCH   3   4
ATOM      4  C   UNL     1      98.577 122.349 126.334  1.00  0.00     0.000 C 
BRANCH   4   5
ATOM      5  C   UNL     1      99.164 123.769 126.290  1.00  0.00     0.000 C 
BRANCH   5   6
ATOM      6  C   UNL     1      98.531 124.700 127.335  1.00  0.00     0.000 C 
BRANCH   6   7
ATOM      7  C   UNL     1      97.409 125.542 126.712  1.00  0.00     0.000 C 
BRANCH   7   8
ATOM      8  C   UNL     1      97.922 126.535 125.654  1.00  0.00     0.000 C 
BRANCH   8   9
ATOM      9  C   UNL     1      97.954 128.012 126.100  1.00  0.00     0.000 C 
BRANCH   9  10
ATOM     10  C   UNL     1      97.223 128.319 127.419  1.00  0.00     0.000 C 
BRANCH  10  11
ATOM     11  C   UNL     1      97.602 129.687 128.009  1.00  0.00     0.000 C 
BRANCH  11  12
ATOM     12  C   UNL     1      96.485 130.736 127.858  1.00  0.00     0.000 C 
BRANCH  12  13
ATOM     13  C   UNL     1      96.423 131.797 128.977  1.00  0.00     0.006 C 
BRANCH  13  14
ATOM     14  C   UNL     1      95.626 131.369 130.219  1.00  0.00     0.053 C 
BRANCH  14  15
ATOM     15  C   UNL     1      96.066 132.105 131.447  1.00  0.00     0.041 C 
ATOM     16  O   UNL     1      96.420 131.470 132.475  1.00  0.00    -0.550 OA
ATOM     17  O   UNL     1      96.052 133.494 131.468  1.00  0.00    -0.550 OA
ENDBRANCH  14  15
ENDBRANCH  13  14
ENDBRANCH  12  13
ENDBRANCH  11  12
ENDBRANCH  10  11
ENDBRANCH   9  10
ENDBRANCH   8   9
ENDBRANCH   7   8
ENDBRANCH   6   7
ENDBRANCH   5   6
ENDBRANCH   4   5
ENDBRANCH   3   4
ENDBRANCH   2   3
ENDBRANCH   1   2
BRANCH   1  18
ATOM     18  C   UNL     1      96.023 123.741 124.099  1.00  0.00     0.000 C 
BRANCH  18  19
ATOM     19  C   UNL     1      94.793 124.242 123.320  1.00  0.00     0.000 C 
BRANCH  19  20
ATOM     20  C   UNL     1      93.534 124.317 124.198  1.00  0.00     0.000 C 
BRANCH  20  21
ATOM     21  C   UNL     1      92.732 123.004 124.202  1.00  0.00     0.000 C 
BRANCH  21  22
ATOM     22  C   UNL     1      92.826 122.241 122.868  1.00  0.00     0.000 C 
BRANCH  22  23
ATOM     23  C   UNL     1      92.339 123.022 121.633  1.00  0.00     0.000 C 
BRANCH  23  24
ATOM     24  C   UNL     1      92.318 122.168 120.354  1.00  0.00    -0.000 C 
BRANCH  24  25
ATOM     25  C   UNL     1      93.624 122.279 119.550  1.00  0.00    -0.000 C 
BRANCH  25  26
ATOM     26  C   UNL     1      94.499 121.021 119.661  1.00  0.00    -0.000 C 
BRANCH  26  27
ATOM     27  C   UNL     1      94.518 120.248 118.336  1.00  0.00    -0.000 C 
BRANCH  27  28
ATOM     28  C   UNL     1      93.144 120.297 117.650  1.00  0.00    -0.000 C 
BRANCH  28  29
ATOM     29  C   UNL     1      93.233 120.728 116.178  1.00  0.00    -0.000 C 
BRANCH  29  30
ATOM     30  C   UNL     1      91.889 121.225 115.624  1.00  0.00    -0.000 C 
BRANCH  30  31
ATOM     31  C   UNL     1      91.288 122.304 116.533  1.00  0.00    -0.003 C 
ATOM     32  C   UNL     1      92.043 123.624 116.395  1.00  0.00     0.004 C 
ENDBRANCH  30  31
ENDBRANCH  29  30
ENDBRANCH  28  29
ENDBRANCH  27  28
ENDBRANCH  26  27
ENDBRANCH  25  26
ENDBRANCH  24  25
ENDBRANCH  23  24
ENDBRANCH  22  23
ENDBRANCH  21  22
ENDBRANCH  20  21
ENDBRANCH  19  20
ENDBRANCH  18  19
ENDBRANCH   1  18
TORSDOF 28
ENDMDL
