MODEL 1
REMARK VINA RESULT:    -5.212      0.000      0.000
REMARK INTER + INTRA:          -5.718
REMARK INTER:                  -5.669
REMARK INTRA:                  -0.049
REMARK UNBOUND:                -0.049
REMARK SMILES COc1cc2ccc(=O)oc2cc1O
REMARK SMILES IDX 3 1 13 2 12 3 11 4 5 5 4 6 6 7 7 8 8 9 9 10 10 11 2 12 1 13
REMARK SMILES IDX 14 14
REMARK H PARENT 14 15
REMARK Flexibility Score: inf
ROOT
ATOM      1  C   UNL     1       8.000  -7.090  -7.228  1.00  0.00     0.161 A 
ATOM      2  C   UNL     1       7.685  -5.729  -7.042  1.00  0.00     0.161 A 
ATOM      3  C   UNL     1       7.568  -4.876  -8.146  1.00  0.00     0.098 A 
ATOM      4  C   UNL     1       7.760  -5.364  -9.440  1.00  0.00     0.142 A 
ATOM      5  C   UNL     1       8.076  -6.723  -9.637  1.00  0.00     0.022 A 
ATOM      6  C   UNL     1       8.196  -7.582  -8.535  1.00  0.00     0.062 A 
ATOM      7  C   UNL     1       8.264  -7.181 -10.945  1.00  0.00     0.019 A 
ATOM      8  C   UNL     1       8.135  -6.289 -12.009  1.00  0.00     0.094 A 
ATOM      9  C   UNL     1       7.820  -4.953 -11.737  1.00  0.00     0.336 A 
ATOM     10  O   UNL     1       7.698  -4.132 -12.682  1.00  0.00    -0.246 OA
ATOM     11  O   UNL     1       7.646  -4.544 -10.483  1.00  0.00    -0.423 OA
ENDROOT
BRANCH   1  12
ATOM     12  O   UNL     1       8.111  -7.918  -6.099  1.00  0.00    -0.493 OA
ATOM     13  C   UNL     1       7.030  -8.636  -5.514  1.00  0.00     0.278 C 
ENDBRANCH   1  12
BRANCH   2  14
ATOM     14  O   UNL     1       7.485  -5.205  -5.765  1.00  0.00    -0.504 OA
ATOM     15  H   UNL     1       8.212  -4.707  -5.267  1.00  0.00     0.293 HD
ENDBRANCH   2  14
TORSDOF 2
ENDMDL
MODEL 2
REMARK VINA RESULT:    -4.970      1.448      2.487
REMARK INTER + INTRA:          -5.455
REMARK INTER:                  -5.409
REMARK INTRA:                  -0.046
REMARK UNBOUND:                -0.049
REMARK SMILES COc1cc2ccc(=O)oc2cc1O
REMARK SMILES IDX 3 1 13 2 12 3 11 4 5 5 4 6 6 7 7 8 8 9 9 10 10 11 2 12 1 13
REMARK SMILES IDX 14 14
REMARK H PARENT 14 15
REMARK Flexibility Score: inf
ROOT
ATOM      1  C   UNL     1       8.103  -6.657  -6.760  1.00  0.00     0.161 A 
ATOM      2  C   UNL     1       8.385  -7.952  -7.240  1.00  0.00     0.161 A 
ATOM      3  C   UNL     1       8.487  -8.187  -8.616  1.00  0.00     0.098 A 
ATOM      4  C   UNL     1       8.313  -7.143  -9.527  1.00  0.00     0.142 A 
ATOM      5  C   UNL     1       8.030  -5.844  -9.058  1.00  0.00     0.022 A 
ATOM      6  C   UNL     1       7.926  -5.603  -7.681  1.00  0.00     0.062 A 
ATOM      7  C   UNL     1       7.860  -4.819  -9.995  1.00  0.00     0.019 A 
ATOM      8  C   UNL     1       7.973  -5.108 -11.354  1.00  0.00     0.094 A 
ATOM      9  C   UNL     1       8.255  -6.421 -11.746  1.00  0.00     0.336 A 
ATOM     10  O   UNL     1       8.361  -6.703 -12.968  1.00  0.00    -0.246 OA
ATOM     11  O   UNL     1       8.412  -7.376 -10.833  1.00  0.00    -0.423 OA
ENDROOT
BRANCH   1  12
ATOM     12  O   UNL     1       8.007  -6.456  -5.374  1.00  0.00    -0.493 OA
ATOM     13  C   UNL     1       8.372  -5.253  -4.704  1.00  0.00     0.278 C 
ENDBRANCH   1  12
BRANCH   2  14
ATOM     14  O   UNL     1       8.566  -9.020  -6.362  1.00  0.00    -0.504 OA
ATOM     15  H   UNL     1       8.647  -9.976  -6.684  1.00  0.00     0.293 HD
ENDBRANCH   2  14
TORSDOF 2
ENDMDL
MODEL 3
REMARK VINA RESULT:    -4.885     15.882     17.888
REMARK INTER + INTRA:          -5.362
REMARK INTER:                  -5.315
REMARK INTRA:                  -0.047
REMARK UNBOUND:                -0.049
REMARK SMILES COc1cc2ccc(=O)oc2cc1O
REMARK SMILES IDX 3 1 13 2 12 3 11 4 5 5 4 6 6 7 7 8 8 9 9 10 10 11 2 12 1 13
REMARK SMILES IDX 14 14
REMARK H PARENT 14 15
REMARK Flexibility Score: inf
ROOT
ATOM      1  C   UNL     1      20.276  -0.009 -19.847  1.00  0.00     0.161 A 
ATOM      2  C   UNL     1      19.302  -0.407 -18.908  1.00  0.00     0.161 A 
ATOM      3  C   UNL     1      19.481  -0.131 -17.548  1.00  0.00     0.098 A 
ATOM      4  C   UNL     1      20.623   0.542 -17.106  1.00  0.00     0.142 A 
ATOM      5  C   UNL     1      21.602   0.944 -18.037  1.00  0.00     0.022 A 
ATOM      6  C   UNL     1      21.429   0.669 -19.401  1.00  0.00     0.062 A 
ATOM      7  C   UNL     1      22.735   1.615 -17.564  1.00  0.00     0.019 A 
ATOM      8  C   UNL     1      22.863   1.866 -16.199  1.00  0.00     0.094 A 
ATOM      9  C   UNL     1      21.850   1.437 -15.334  1.00  0.00     0.336 A 
ATOM     10  O   UNL     1      21.945   1.653 -14.098  1.00  0.00    -0.246 OA
ATOM     11  O   UNL     1      20.783   0.801 -15.811  1.00  0.00    -0.423 OA
ENDROOT
BRANCH   1  12
ATOM     12  O   UNL     1      20.066  -0.303 -21.204  1.00  0.00    -0.493 OA
ATOM     13  C   UNL     1      21.089  -0.688 -22.116  1.00  0.00     0.278 C 
ENDBRANCH   1  12
BRANCH   2  14
ATOM     14  O   UNL     1      18.149  -1.081 -19.310  1.00  0.00    -0.504 OA
ATOM     15  H   UNL     1      17.363  -0.602 -19.731  1.00  0.00     0.293 HD
ENDBRANCH   2  14
TORSDOF 2
ENDMDL
MODEL 4
REMARK VINA RESULT:    -4.879      1.316      5.430
REMARK INTER + INTRA:          -5.355
REMARK INTER:                  -5.308
REMARK INTRA:                  -0.047
REMARK UNBOUND:                -0.049
REMARK SMILES COc1cc2ccc(=O)oc2cc1O
REMARK SMILES IDX 3 1 13 2 12 3 11 4 5 5 4 6 6 7 7 8 8 9 9 10 10 11 2 12 1 13
REMARK SMILES IDX 14 14
REMARK H PARENT 14 15
REMARK Flexibility Score: inf
ROOT
ATOM      1  C   UNL     1       7.994  -5.452 -11.450  1.00  0.00     0.161 A 
ATOM      2  C   UNL     1       8.042  -6.846 -11.649  1.00  0.00     0.161 A 
ATOM      3  C   UNL     1       8.055  -7.715 -10.552  1.00  0.00     0.098 A 
ATOM      4  C   UNL     1       8.020  -7.210  -9.249  1.00  0.00     0.142 A 
ATOM      5  C   UNL     1       7.972  -5.817  -9.039  1.00  0.00     0.022 A 
ATOM      6  C   UNL     1       7.959  -4.943 -10.135  1.00  0.00     0.062 A 
ATOM      7  C   UNL     1       7.938  -5.343  -7.724  1.00  0.00     0.019 A 
ATOM      8  C   UNL     1       7.952  -6.252  -6.667  1.00  0.00     0.094 A 
ATOM      9  C   UNL     1       8.001  -7.621  -6.952  1.00  0.00     0.336 A 
ATOM     10  O   UNL     1       8.014  -8.458  -6.013  1.00  0.00    -0.246 OA
ATOM     11  O   UNL     1       8.032  -8.045  -8.213  1.00  0.00    -0.423 OA
ENDROOT
BRANCH   1  12
ATOM     12  O   UNL     1       7.983  -4.608 -12.572  1.00  0.00    -0.493 OA
ATOM     13  C   UNL     1       7.248  -3.392 -12.663  1.00  0.00     0.278 C 
ENDBRANCH   1  12
BRANCH   2  14
ATOM     14  O   UNL     1       8.079  -7.388 -12.934  1.00  0.00    -0.504 OA
ATOM     15  H   UNL     1       7.648  -6.928 -13.726  1.00  0.00     0.293 HD
ENDBRANCH   2  14
TORSDOF 2
ENDMDL
MODEL 5
REMARK VINA RESULT:    -4.853      2.440      2.775
REMARK INTER + INTRA:          -5.327
REMARK INTER:                  -5.266
REMARK INTRA:                  -0.061
REMARK UNBOUND:                -0.049
REMARK SMILES COc1cc2ccc(=O)oc2cc1O
REMARK SMILES IDX 3 1 13 2 12 3 11 4 5 5 4 6 6 7 7 8 8 9 9 10 10 11 2 12 1 13
REMARK SMILES IDX 14 14
REMARK H PARENT 14 15
REMARK Flexibility Score: inf
ROOT
ATOM      1  C   UNL     1       8.601  -6.417  -7.032  1.00  0.00     0.161 A 
ATOM      2  C   UNL     1       9.915  -5.968  -7.272  1.00  0.00     0.161 A 
ATOM      3  C   UNL     1      10.561  -6.284  -8.473  1.00  0.00     0.098 A 
ATOM      4  C   UNL     1       9.909  -7.044  -9.447  1.00  0.00     0.142 A 
ATOM      5  C   UNL     1       8.595  -7.499  -9.217  1.00  0.00     0.022 A 
ATOM      6  C   UNL     1       7.945  -7.186  -8.015  1.00  0.00     0.062 A 
ATOM      7  C   UNL     1       7.969  -8.259 -10.211  1.00  0.00     0.019 A 
ATOM      8  C   UNL     1       8.657  -8.545 -11.390  1.00  0.00     0.094 A 
ATOM      9  C   UNL     1       9.960  -8.060 -11.548  1.00  0.00     0.336 A 
ATOM     10  O   UNL     1      10.598  -8.306 -12.604  1.00  0.00    -0.246 OA
ATOM     11  O   UNL     1      10.530  -7.339 -10.587  1.00  0.00    -0.423 OA
ENDROOT
BRANCH   1  12
ATOM     12  O   UNL     1       7.984  -6.083  -5.816  1.00  0.00    -0.493 OA
ATOM     13  C   UNL     1       7.986  -6.908  -4.655  1.00  0.00     0.278 C 
ENDBRANCH   1  12
BRANCH   2  14
ATOM     14  O   UNL     1      10.599  -5.206  -6.324  1.00  0.00    -0.504 OA
ATOM     15  H   UNL     1      11.610  -5.178  -6.281  1.00  0.00     0.293 HD
ENDBRANCH   2  14
TORSDOF 2
ENDMDL
MODEL 6
REMARK VINA RESULT:    -4.830      1.520      4.800
REMARK INTER + INTRA:          -5.302
REMARK INTER:                  -5.243
REMARK INTRA:                  -0.059
REMARK UNBOUND:                -0.049
REMARK SMILES COc1cc2ccc(=O)oc2cc1O
REMARK SMILES IDX 3 1 13 2 12 3 11 4 5 5 4 6 6 7 7 8 8 9 9 10 10 11 2 12 1 13
REMARK SMILES IDX 14 14
REMARK H PARENT 14 15
REMARK Flexibility Score: inf
ROOT
ATOM      1  C   UNL     1       8.015  -7.240 -10.724  1.00  0.00     0.161 A 
ATOM      2  C   UNL     1       8.051  -5.832 -10.711  1.00  0.00     0.161 A 
ATOM      3  C   UNL     1       8.080  -5.138  -9.496  1.00  0.00     0.098 A 
ATOM      4  C   UNL     1       8.076  -5.834  -8.284  1.00  0.00     0.142 A 
ATOM      5  C   UNL     1       8.040  -7.243  -8.286  1.00  0.00     0.022 A 
ATOM      6  C   UNL     1       8.010  -7.942  -9.501  1.00  0.00     0.062 A 
ATOM      7  C   UNL     1       8.036  -7.911  -7.057  1.00  0.00     0.019 A 
ATOM      8  C   UNL     1       8.067  -7.171  -5.875  1.00  0.00     0.094 A 
ATOM      9  C   UNL     1       8.101  -5.775  -5.951  1.00  0.00     0.336 A 
ATOM     10  O   UNL     1       8.129  -5.089  -4.897  1.00  0.00    -0.246 OA
ATOM     11  O   UNL     1       8.104  -5.165  -7.134  1.00  0.00    -0.423 OA
ENDROOT
BRANCH   1  12
ATOM     12  O   UNL     1       7.986  -7.904 -11.961  1.00  0.00    -0.493 OA
ATOM     13  C   UNL     1       9.138  -8.370 -12.656  1.00  0.00     0.278 C 
ENDBRANCH   1  12
BRANCH   2  14
ATOM     14  O   UNL     1       8.056  -5.102 -11.900  1.00  0.00    -0.504 OA
ATOM     15  H   UNL     1       8.910  -4.896 -12.403  1.00  0.00     0.293 HD
ENDBRANCH   2  14
TORSDOF 2
ENDMDL
MODEL 7
REMARK VINA RESULT:    -4.827      3.283      4.395
REMARK INTER + INTRA:          -5.299
REMARK INTER:                  -5.255
REMARK INTRA:                  -0.044
REMARK UNBOUND:                -0.049
REMARK SMILES COc1cc2ccc(=O)oc2cc1O
REMARK SMILES IDX 3 1 13 2 12 3 11 4 5 5 4 6 6 7 7 8 8 9 9 10 10 11 2 12 1 13
REMARK SMILES IDX 14 14
REMARK H PARENT 14 15
REMARK Flexibility Score: inf
ROOT
ATOM      1  C   UNL     1      11.343  -6.382  -9.891  1.00  0.00     0.161 A 
ATOM      2  C   UNL     1      10.542  -6.490  -8.736  1.00  0.00     0.161 A 
ATOM      3  C   UNL     1       9.293  -7.119  -8.801  1.00  0.00     0.098 A 
ATOM      4  C   UNL     1       8.829  -7.648 -10.008  1.00  0.00     0.142 A 
ATOM      5  C   UNL     1       9.622  -7.545 -11.168  1.00  0.00     0.022 A 
ATOM      6  C   UNL     1      10.873  -6.915 -11.109  1.00  0.00     0.062 A 
ATOM      7  C   UNL     1       9.130  -8.083 -12.362  1.00  0.00     0.019 A 
ATOM      8  C   UNL     1       7.880  -8.701 -12.371  1.00  0.00     0.094 A 
ATOM      9  C   UNL     1       7.148  -8.765 -11.180  1.00  0.00     0.336 A 
ATOM     10  O   UNL     1       6.018  -9.318 -11.166  1.00  0.00    -0.246 OA
ATOM     11  O   UNL     1       7.641  -8.245 -10.059  1.00  0.00    -0.423 OA
ENDROOT
BRANCH   1  12
ATOM     12  O   UNL     1      12.589  -5.744  -9.791  1.00  0.00    -0.493 OA
ATOM     13  C   UNL     1      13.367  -5.311 -10.903  1.00  0.00     0.278 C 
ENDBRANCH   1  12
BRANCH   2  14
ATOM     14  O   UNL     1      10.970  -5.974  -7.513  1.00  0.00    -0.504 OA
ATOM     15  H   UNL     1      11.841  -6.259  -7.083  1.00  0.00     0.293 HD
ENDBRANCH   2  14
TORSDOF 2
ENDMDL
MODEL 8
REMARK VINA RESULT:    -4.713      2.391      3.066
REMARK INTER + INTRA:          -5.176
REMARK INTER:                  -5.117
REMARK INTRA:                  -0.059
REMARK UNBOUND:                -0.049
REMARK SMILES COc1cc2ccc(=O)oc2cc1O
REMARK SMILES IDX 3 1 13 2 12 3 11 4 5 5 4 6 6 7 7 8 8 9 9 10 10 11 2 12 1 13
REMARK SMILES IDX 14 14
REMARK H PARENT 14 15
REMARK Flexibility Score: inf
ROOT
ATOM      1  C   UNL     1       8.233  -5.981  -7.353  1.00  0.00     0.161 A 
ATOM      2  C   UNL     1       7.915  -5.217  -8.494  1.00  0.00     0.161 A 
ATOM      3  C   UNL     1       8.466  -5.544  -9.738  1.00  0.00     0.098 A 
ATOM      4  C   UNL     1       9.334  -6.631  -9.863  1.00  0.00     0.142 A 
ATOM      5  C   UNL     1       9.660  -7.402  -8.729  1.00  0.00     0.022 A 
ATOM      6  C   UNL     1       9.111  -7.078  -7.480  1.00  0.00     0.062 A 
ATOM      7  C   UNL     1      10.533  -8.483  -8.886  1.00  0.00     0.019 A 
ATOM      8  C   UNL     1      11.053  -8.766 -10.148  1.00  0.00     0.094 A 
ATOM      9  C   UNL     1      10.685  -7.957 -11.228  1.00  0.00     0.336 A 
ATOM     10  O   UNL     1      11.143  -8.195 -12.376  1.00  0.00    -0.246 OA
ATOM     11  O   UNL     1       9.853  -6.935 -11.051  1.00  0.00    -0.423 OA
ENDROOT
BRANCH   1  12
ATOM     12  O   UNL     1       7.664  -5.625  -6.120  1.00  0.00    -0.493 OA
ATOM     13  C   UNL     1       8.404  -5.200  -4.981  1.00  0.00     0.278 C 
ENDBRANCH   1  12
BRANCH   2  14
ATOM     14  O   UNL     1       7.052  -4.125  -8.409  1.00  0.00    -0.504 OA
ATOM     15  H   UNL     1       6.262  -4.108  -7.775  1.00  0.00     0.293 HD
ENDBRANCH   2  14
TORSDOF 2
ENDMDL
MODEL 9
REMARK VINA RESULT:    -4.626      2.894      5.681
REMARK INTER + INTRA:          -5.081
REMARK INTER:                  -5.018
REMARK INTRA:                  -0.063
REMARK UNBOUND:                -0.049
REMARK SMILES COc1cc2ccc(=O)oc2cc1O
REMARK SMILES IDX 3 1 13 2 12 3 11 4 5 5 4 6 6 7 7 8 8 9 9 10 10 11 2 12 1 13
REMARK SMILES IDX 14 14
REMARK H PARENT 14 15
REMARK Flexibility Score: inf
ROOT
ATOM      1  C   UNL     1      10.802  -6.829  -9.587  1.00  0.00     0.161 A 
ATOM      2  C   UNL     1      10.657  -8.230  -9.539  1.00  0.00     0.161 A 
ATOM      3  C   UNL     1       9.872  -8.823  -8.543  1.00  0.00     0.098 A 
ATOM      4  C   UNL     1       9.225  -8.034  -7.589  1.00  0.00     0.142 A 
ATOM      5  C   UNL     1       9.364  -6.632  -7.628  1.00  0.00     0.022 A 
ATOM      6  C   UNL     1      10.150  -6.033  -8.623  1.00  0.00     0.062 A 
ATOM      7  C   UNL     1       8.704  -5.869  -6.658  1.00  0.00     0.019 A 
ATOM      8  C   UNL     1       7.935  -6.511  -5.689  1.00  0.00     0.094 A 
ATOM      9  C   UNL     1       7.843  -7.907  -5.712  1.00  0.00     0.336 A 
ATOM     10  O   UNL     1       7.153  -8.506  -4.847  1.00  0.00    -0.246 OA
ATOM     11  O   UNL     1       8.481  -8.608  -6.646  1.00  0.00    -0.423 OA
ENDROOT
BRANCH   1  12
ATOM     12  O   UNL     1      11.597  -6.267 -10.598  1.00  0.00    -0.493 OA
ATOM     13  C   UNL     1      12.873  -5.672 -10.387  1.00  0.00     0.278 C 
ENDBRANCH   1  12
BRANCH   2  14
ATOM     14  O   UNL     1      11.287  -9.051 -10.473  1.00  0.00    -0.504 OA
ATOM     15  H   UNL     1      12.279  -8.989 -10.664  1.00  0.00     0.293 HD
ENDBRANCH   2  14
TORSDOF 2
ENDMDL
