MODEL 1
REMARK VINA RESULT:    -5.595      0.000      0.000
REMARK INTER + INTRA:         -12.239
REMARK INTER:                 -10.501
REMARK INTRA:                  -1.738
REMARK UNBOUND:                -1.738
REMARK SMILES CCCCCCCCC=CCCCCCCCC(=O)[O-]
REMARK SMILES IDX 10 1 9 2 11 3 12 4 13 5 14 6 15 7 16 8 17 9 18 10 19 11
REMARK SMILES IDX 20 12 8 13 7 14 6 15 5 16 4 17 3 18 2 19 1 20
REMARK H PARENT
REMARK Flexibility Score: inf
ROOT
ATOM      1  C   UNL     1      26.828  35.609   5.553  1.00  0.00    -0.031 C 
ATOM      2  C   UNL     1      27.107  34.560   6.340  1.00  0.00    -0.031 C 
ENDROOT
BRANCH   1   3
ATOM      3  C   UNL     1      25.646  35.606   4.620  1.00  0.00     0.027 C 
BRANCH   3   4
ATOM      4  C   UNL     1      24.316  35.413   5.362  1.00  0.00     0.004 C 
BRANCH   4   5
ATOM      5  C   UNL     1      23.727  34.010   5.140  1.00  0.00     0.000 C 
BRANCH   5   6
ATOM      6  C   UNL     1      23.045  33.441   6.397  1.00  0.00     0.000 C 
BRANCH   6   7
ATOM      7  C   UNL     1      23.856  32.368   7.152  1.00  0.00     0.000 C 
BRANCH   7   8
ATOM      8  C   UNL     1      25.060  31.793   6.380  1.00  0.00     0.006 C 
BRANCH   8   9
ATOM      9  C   UNL     1      24.844  30.372   5.837  1.00  0.00     0.053 C 
BRANCH   9  10
ATOM     10  C   UNL     1      26.063  29.846   5.143  1.00  0.00     0.041 C 
ATOM     11  O   UNL     1      26.974  30.634   4.777  1.00  0.00    -0.550 OA
ATOM     12  O   UNL     1      26.178  28.488   4.871  1.00  0.00    -0.550 OA
ENDBRANCH   9  10
ENDBRANCH   8   9
ENDBRANCH   7   8
ENDBRANCH   6   7
ENDBRANCH   5   6
ENDBRANCH   4   5
ENDBRANCH   3   4
ENDBRANCH   1   3
BRANCH   2  13
ATOM     13  C   UNL     1      28.289  34.565   7.272  1.00  0.00     0.027 C 
BRANCH  13  14
ATOM     14  C   UNL     1      28.094  35.520   8.460  1.00  0.00     0.004 C 
BRANCH  14  15
ATOM     15  C   UNL     1      29.174  36.614   8.504  1.00  0.00     0.000 C 
BRANCH  15  16
ATOM     16  C   UNL     1      28.762  37.884   7.740  1.00  0.00     0.000 C 
BRANCH  16  17
ATOM     17  C   UNL     1      29.658  38.158   6.521  1.00  0.00    -0.000 C 
BRANCH  17  18
ATOM     18  C   UNL     1      31.104  37.678   6.733  1.00  0.00    -0.000 C 
BRANCH  18  19
ATOM     19  C   UNL     1      31.441  36.429   5.904  1.00  0.00    -0.003 C 
ATOM     20  C   UNL     1      31.087  36.635   4.433  1.00  0.00     0.004 C 
ENDBRANCH  18  19
ENDBRANCH  17  18
ENDBRANCH  16  17
ENDBRANCH  15  16
ENDBRANCH  14  15
ENDBRANCH  13  14
ENDBRANCH   2  13
TORSDOF 15
ENDMDL
MODEL 2
REMARK VINA RESULT:    -5.573      3.193      6.567
REMARK INTER + INTRA:         -12.197
REMARK INTER:                 -10.803
REMARK INTRA:                  -1.394
REMARK UNBOUND:                -1.738
REMARK SMILES CCCCCCCCC=CCCCCCCCC(=O)[O-]
REMARK SMILES IDX 10 1 9 2 11 3 12 4 13 5 14 6 15 7 16 8 17 9 18 10 19 11
REMARK SMILES IDX 20 12 8 13 7 14 6 15 5 16 4 17 3 18 2 19 1 20
REMARK H PARENT
REMARK Flexibility Score: inf
ROOT
ATOM      1  C   UNL     1      26.172  33.295   6.059  1.00  0.00    -0.031 C 
ATOM      2  C   UNL     1      26.242  32.124   5.408  1.00  0.00    -0.031 C 
ENDROOT
BRANCH   1   3
ATOM      3  C   UNL     1      25.906  34.587   5.334  1.00  0.00     0.027 C 
BRANCH   3   4
ATOM      4  C   UNL     1      27.034  35.610   5.530  1.00  0.00     0.004 C 
BRANCH   4   5
ATOM      5  C   UNL     1      28.005  35.194   6.648  1.00  0.00     0.000 C 
BRANCH   5   6
ATOM      6  C   UNL     1      27.861  36.054   7.916  1.00  0.00     0.000 C 
BRANCH   6   7
ATOM      7  C   UNL     1      28.390  37.497   7.791  1.00  0.00     0.000 C 
BRANCH   7   8
ATOM      8  C   UNL     1      29.915  37.622   7.602  1.00  0.00     0.006 C 
BRANCH   8   9
ATOM      9  C   UNL     1      30.346  38.035   6.185  1.00  0.00     0.053 C 
BRANCH   9  10
ATOM     10  C   UNL     1      31.131  36.958   5.503  1.00  0.00     0.041 C 
ATOM     11  O   UNL     1      31.035  36.793   4.259  1.00  0.00    -0.550 OA
ATOM     12  O   UNL     1      31.945  36.111   6.248  1.00  0.00    -0.550 OA
ENDBRANCH   9  10
ENDBRANCH   8   9
ENDBRANCH   7   8
ENDBRANCH   6   7
ENDBRANCH   5   6
ENDBRANCH   4   5
ENDBRANCH   3   4
ENDBRANCH   1   3
BRANCH   2  13
ATOM     13  C   UNL     1      26.507  30.832   6.134  1.00  0.00     0.027 C 
BRANCH  13  14
ATOM     14  C   UNL     1      25.441  30.528   7.198  1.00  0.00     0.004 C 
BRANCH  14  15
ATOM     15  C   UNL     1      25.943  30.828   8.620  1.00  0.00     0.000 C 
BRANCH  15  16
ATOM     16  C   UNL     1      27.422  31.249   8.650  1.00  0.00     0.000 C 
BRANCH  16  17
ATOM     17  C   UNL     1      27.971  31.377  10.081  1.00  0.00    -0.000 C 
BRANCH  17  18
ATOM     18  C   UNL     1      28.759  32.680  10.296  1.00  0.00    -0.000 C 
BRANCH  18  19
ATOM     19  C   UNL     1      28.733  33.153  11.757  1.00  0.00    -0.003 C 
ATOM     20  C   UNL     1      28.401  34.640  11.846  1.00  0.00     0.004 C 
ENDBRANCH  18  19
ENDBRANCH  17  18
ENDBRANCH  16  17
ENDBRANCH  15  16
ENDBRANCH  14  15
ENDBRANCH  13  14
ENDBRANCH   2  13
TORSDOF 15
ENDMDL
MODEL 3
REMARK VINA RESULT:    -5.291      1.681      2.099
REMARK INTER + INTRA:         -11.669
REMARK INTER:                 -10.064
REMARK INTRA:                  -1.605
REMARK UNBOUND:                -1.738
REMARK SMILES CCCCCCCCC=CCCCCCCCC(=O)[O-]
REMARK SMILES IDX 10 1 9 2 11 3 12 4 13 5 14 6 15 7 16 8 17 9 18 10 19 11
REMARK SMILES IDX 20 12 8 13 7 14 6 15 5 16 4 17 3 18 2 19 1 20
REMARK H PARENT
REMARK Flexibility Score: inf
ROOT
ATOM      1  C   UNL     1      25.155  35.975   5.500  1.00  0.00    -0.031 C 
ATOM      2  C   UNL     1      26.309  35.676   4.887  1.00  0.00    -0.031 C 
ENDROOT
BRANCH   1   3
ATOM      3  C   UNL     1      23.836  35.913   4.775  1.00  0.00     0.027 C 
BRANCH   3   4
ATOM      4  C   UNL     1      23.274  34.486   4.704  1.00  0.00     0.004 C 
BRANCH   4   5
ATOM      5  C   UNL     1      22.752  34.001   6.068  1.00  0.00     0.000 C 
BRANCH   5   6
ATOM      6  C   UNL     1      23.626  32.893   6.682  1.00  0.00     0.000 C 
BRANCH   6   7
ATOM      7  C   UNL     1      24.917  32.571   5.903  1.00  0.00     0.000 C 
BRANCH   7   8
ATOM      8  C   UNL     1      25.369  31.099   5.962  1.00  0.00     0.006 C 
BRANCH   8   9
ATOM      9  C   UNL     1      26.684  30.869   6.724  1.00  0.00     0.053 C 
BRANCH   9  10
ATOM     10  C   UNL     1      26.493  30.952   8.207  1.00  0.00     0.041 C 
ATOM     11  O   UNL     1      25.381  30.660   8.721  1.00  0.00    -0.550 OA
ATOM     12  O   UNL     1      27.534  31.385   9.020  1.00  0.00    -0.550 OA
ENDBRANCH   9  10
ENDBRANCH   8   9
ENDBRANCH   7   8
ENDBRANCH   6   7
ENDBRANCH   5   6
ENDBRANCH   4   5
ENDBRANCH   3   4
ENDBRANCH   1   3
BRANCH   2  13
ATOM     13  C   UNL     1      27.627  35.737   5.612  1.00  0.00     0.027 C 
BRANCH  13  14
ATOM     14  C   UNL     1      27.471  35.547   7.129  1.00  0.00     0.004 C 
BRANCH  14  15
ATOM     15  C   UNL     1      28.387  36.491   7.927  1.00  0.00     0.000 C 
BRANCH  15  16
ATOM     16  C   UNL     1      28.374  37.929   7.382  1.00  0.00     0.000 C 
BRANCH  16  17
ATOM     17  C   UNL     1      29.709  38.324   6.729  1.00  0.00    -0.000 C 
BRANCH  17  18
ATOM     18  C   UNL     1      30.866  37.401   7.147  1.00  0.00    -0.000 C 
BRANCH  18  19
ATOM     19  C   UNL     1      31.243  36.391   6.053  1.00  0.00    -0.003 C 
ATOM     20  C   UNL     1      31.092  37.005   4.663  1.00  0.00     0.004 C 
ENDBRANCH  18  19
ENDBRANCH  17  18
ENDBRANCH  16  17
ENDBRANCH  15  16
ENDBRANCH  14  15
ENDBRANCH  13  14
ENDBRANCH   2  13
TORSDOF 15
ENDMDL
MODEL 4
REMARK VINA RESULT:    -5.195      3.283      7.863
REMARK INTER + INTRA:         -11.489
REMARK INTER:                 -10.386
REMARK INTRA:                  -1.103
REMARK UNBOUND:                -1.738
REMARK SMILES CCCCCCCCC=CCCCCCCCC(=O)[O-]
REMARK SMILES IDX 10 1 9 2 11 3 12 4 13 5 14 6 15 7 16 8 17 9 18 10 19 11
REMARK SMILES IDX 20 12 8 13 7 14 6 15 5 16 4 17 3 18 2 19 1 20
REMARK H PARENT
REMARK Flexibility Score: inf
ROOT
ATOM      1  C   UNL     1      25.969  32.917   6.085  1.00  0.00    -0.031 C 
ATOM      2  C   UNL     1      26.276  31.765   5.470  1.00  0.00    -0.031 C 
ENDROOT
BRANCH   1   3
ATOM      3  C   UNL     1      26.042  34.239   5.367  1.00  0.00     0.027 C 
BRANCH   3   4
ATOM      4  C   UNL     1      27.058  35.196   6.006  1.00  0.00     0.004 C 
BRANCH   4   5
ATOM      5  C   UNL     1      27.804  34.546   7.184  1.00  0.00     0.000 C 
BRANCH   5   6
ATOM      6  C   UNL     1      28.247  35.567   8.247  1.00  0.00     0.000 C 
BRANCH   6   7
ATOM      7  C   UNL     1      27.919  37.038   7.918  1.00  0.00     0.000 C 
BRANCH   7   8
ATOM      8  C   UNL     1      29.095  37.862   7.358  1.00  0.00     0.006 C 
BRANCH   8   9
ATOM      9  C   UNL     1      30.468  37.185   7.497  1.00  0.00     0.053 C 
BRANCH   9  10
ATOM     10  C   UNL     1      31.103  36.929   6.165  1.00  0.00     0.041 C 
ATOM     11  O   UNL     1      30.672  37.508   5.134  1.00  0.00    -0.550 OA
ATOM     12  O   UNL     1      32.151  36.022   6.057  1.00  0.00    -0.550 OA
ENDBRANCH   9  10
ENDBRANCH   8   9
ENDBRANCH   7   8
ENDBRANCH   6   7
ENDBRANCH   5   6
ENDBRANCH   4   5
ENDBRANCH   3   4
ENDBRANCH   1   3
BRANCH   2  13
ATOM     13  C   UNL     1      26.202  30.444   6.189  1.00  0.00     0.027 C 
BRANCH  13  14
ATOM     14  C   UNL     1      24.765  30.073   6.587  1.00  0.00     0.004 C 
BRANCH  14  15
ATOM     15  C   UNL     1      24.551  30.142   8.108  1.00  0.00     0.000 C 
BRANCH  15  16
ATOM     16  C   UNL     1      23.637  31.306   8.526  1.00  0.00     0.000 C 
BRANCH  16  17
ATOM     17  C   UNL     1      23.067  31.130   9.943  1.00  0.00    -0.000 C 
BRANCH  17  18
ATOM     18  C   UNL     1      21.588  31.542  10.039  1.00  0.00    -0.000 C 
BRANCH  18  19
ATOM     19  C   UNL     1      21.343  32.627  11.098  1.00  0.00    -0.003 C 
ATOM     20  C   UNL     1      22.199  32.386  12.339  1.00  0.00     0.004 C 
ENDBRANCH  18  19
ENDBRANCH  17  18
ENDBRANCH  16  17
ENDBRANCH  15  16
ENDBRANCH  14  15
ENDBRANCH  13  14
ENDBRANCH   2  13
TORSDOF 15
ENDMDL
MODEL 5
REMARK VINA RESULT:    -5.141      3.444      7.217
REMARK INTER + INTRA:         -11.387
REMARK INTER:                  -9.707
REMARK INTRA:                  -1.680
REMARK UNBOUND:                -1.738
REMARK SMILES CCCCCCCCC=CCCCCCCCC(=O)[O-]
REMARK SMILES IDX 10 1 9 2 11 3 12 4 13 5 14 6 15 7 16 8 17 9 18 10 19 11
REMARK SMILES IDX 20 12 8 13 7 14 6 15 5 16 4 17 3 18 2 19 1 20
REMARK H PARENT
REMARK Flexibility Score: inf
ROOT
ATOM      1  C   UNL     1      25.884  35.959   5.470  1.00  0.00    -0.031 C 
ATOM      2  C   UNL     1      24.930  35.335   4.764  1.00  0.00    -0.031 C 
ENDROOT
BRANCH   1   3
ATOM      3  C   UNL     1      27.284  35.410   5.563  1.00  0.00     0.027 C 
BRANCH   3   4
ATOM      4  C   UNL     1      27.464  34.468   6.762  1.00  0.00     0.004 C 
BRANCH   4   5
ATOM      5  C   UNL     1      28.569  34.952   7.717  1.00  0.00     0.000 C 
BRANCH   5   6
ATOM      6  C   UNL     1      28.155  36.192   8.528  1.00  0.00     0.000 C 
BRANCH   6   7
ATOM      7  C   UNL     1      28.502  37.546   7.876  1.00  0.00     0.000 C 
BRANCH   7   8
ATOM      8  C   UNL     1      30.000  37.774   7.594  1.00  0.00     0.006 C 
BRANCH   8   9
ATOM      9  C   UNL     1      30.334  38.043   6.118  1.00  0.00     0.053 C 
BRANCH   9  10
ATOM     10  C   UNL     1      31.073  36.899   5.494  1.00  0.00     0.041 C 
ATOM     11  O   UNL     1      30.952  36.662   4.263  1.00  0.00    -0.550 OA
ATOM     12  O   UNL     1      31.870  36.074   6.278  1.00  0.00    -0.550 OA
ENDBRANCH   9  10
ENDBRANCH   8   9
ENDBRANCH   7   8
ENDBRANCH   6   7
ENDBRANCH   5   6
ENDBRANCH   4   5
ENDBRANCH   3   4
ENDBRANCH   1   3
BRANCH   2  13
ATOM     13  C   UNL     1      23.531  35.885   4.671  1.00  0.00     0.027 C 
BRANCH  13  14
ATOM     14  C   UNL     1      22.483  34.784   4.446  1.00  0.00     0.004 C 
BRANCH  14  15
ATOM     15  C   UNL     1      21.136  35.126   5.105  1.00  0.00     0.000 C 
BRANCH  15  16
ATOM     16  C   UNL     1      21.205  36.396   5.970  1.00  0.00     0.000 C 
BRANCH  16  17
ATOM     17  C   UNL     1      21.310  36.083   7.472  1.00  0.00    -0.000 C 
BRANCH  17  18
ATOM     18  C   UNL     1      21.962  37.226   8.268  1.00  0.00    -0.000 C 
BRANCH  18  19
ATOM     19  C   UNL     1      22.529  38.330   7.363  1.00  0.00    -0.003 C 
ATOM     20  C   UNL     1      24.049  38.408   7.479  1.00  0.00     0.004 C 
ENDBRANCH  18  19
ENDBRANCH  17  18
ENDBRANCH  16  17
ENDBRANCH  15  16
ENDBRANCH  14  15
ENDBRANCH  13  14
ENDBRANCH   2  13
TORSDOF 15
ENDMDL
MODEL 6
REMARK VINA RESULT:    -5.093      4.667      6.377
REMARK INTER + INTRA:         -11.297
REMARK INTER:                 -10.497
REMARK INTRA:                  -0.800
REMARK UNBOUND:                -1.738
REMARK SMILES CCCCCCCCC=CCCCCCCCC(=O)[O-]
REMARK SMILES IDX 10 1 9 2 11 3 12 4 13 5 14 6 15 7 16 8 17 9 18 10 19 11
REMARK SMILES IDX 20 12 8 13 7 14 6 15 5 16 4 17 3 18 2 19 1 20
REMARK H PARENT
REMARK Flexibility Score: inf
ROOT
ATOM      1  C   UNL     1      28.313  35.529   9.137  1.00  0.00    -0.031 C 
ATOM      2  C   UNL     1      28.876  35.614  10.352  1.00  0.00    -0.031 C 
ENDROOT
BRANCH   1   3
ATOM      3  C   UNL     1      28.790  36.374   7.985  1.00  0.00     0.027 C 
BRANCH   3   4
ATOM      4  C   UNL     1      27.681  36.644   6.959  1.00  0.00     0.004 C 
BRANCH   4   5
ATOM      5  C   UNL     1      27.617  35.554   5.875  1.00  0.00     0.000 C 
BRANCH   5   6
ATOM      6  C   UNL     1      26.256  35.500   5.161  1.00  0.00     0.000 C 
BRANCH   6   7
ATOM      7  C   UNL     1      25.454  34.201   5.379  1.00  0.00     0.000 C 
BRANCH   7   8
ATOM      8  C   UNL     1      26.158  33.132   6.238  1.00  0.00     0.006 C 
BRANCH   8   9
ATOM      9  C   UNL     1      26.381  31.790   5.524  1.00  0.00     0.053 C 
BRANCH   9  10
ATOM     10  C   UNL     1      25.446  30.729   6.018  1.00  0.00     0.041 C 
ATOM     11  O   UNL     1      24.628  30.985   6.941  1.00  0.00    -0.550 OA
ATOM     12  O   UNL     1      25.502  29.447   5.484  1.00  0.00    -0.550 OA
ENDBRANCH   9  10
ENDBRANCH   8   9
ENDBRANCH   7   8
ENDBRANCH   6   7
ENDBRANCH   5   6
ENDBRANCH   4   5
ENDBRANCH   3   4
ENDBRANCH   1   3
BRANCH   2  13
ATOM     13  C   UNL     1      28.399  34.768  11.502  1.00  0.00     0.027 C 
BRANCH  13  14
ATOM     14  C   UNL     1      29.025  33.365  11.498  1.00  0.00     0.004 C 
BRANCH  14  15
ATOM     15  C   UNL     1      28.787  32.622  12.824  1.00  0.00     0.000 C 
BRANCH  15  16
ATOM     16  C   UNL     1      30.053  32.544  13.694  1.00  0.00     0.000 C 
BRANCH  16  17
ATOM     17  C   UNL     1      29.748  32.689  15.194  1.00  0.00    -0.000 C 
BRANCH  17  18
ATOM     18  C   UNL     1      31.011  32.965  16.027  1.00  0.00    -0.000 C 
BRANCH  18  19
ATOM     19  C   UNL     1      30.839  34.154  16.985  1.00  0.00    -0.003 C 
ATOM     20  C   UNL     1      30.133  33.727  18.269  1.00  0.00     0.004 C 
ENDBRANCH  18  19
ENDBRANCH  17  18
ENDBRANCH  16  17
ENDBRANCH  15  16
ENDBRANCH  14  15
ENDBRANCH  13  14
ENDBRANCH   2  13
TORSDOF 15
ENDMDL
MODEL 7
REMARK VINA RESULT:    -5.046      3.701      5.123
REMARK INTER + INTRA:         -11.209
REMARK INTER:                  -9.516
REMARK INTRA:                  -1.693
REMARK UNBOUND:                -1.738
REMARK SMILES CCCCCCCCC=CCCCCCCCC(=O)[O-]
REMARK SMILES IDX 10 1 9 2 11 3 12 4 13 5 14 6 15 7 16 8 17 9 18 10 19 11
REMARK SMILES IDX 20 12 8 13 7 14 6 15 5 16 4 17 3 18 2 19 1 20
REMARK H PARENT
REMARK Flexibility Score: inf
ROOT
ATOM      1  C   UNL     1      24.249  35.314   5.140  1.00  0.00    -0.031 C 
ATOM      2  C   UNL     1      25.510  35.051   4.768  1.00  0.00    -0.031 C 
ENDROOT
BRANCH   1   3
ATOM      3  C   UNL     1      23.072  34.685   4.442  1.00  0.00     0.027 C 
BRANCH   3   4
ATOM      4  C   UNL     1      21.781  34.785   5.268  1.00  0.00     0.004 C 
BRANCH   4   5
ATOM      5  C   UNL     1      21.963  34.240   6.695  1.00  0.00     0.000 C 
BRANCH   5   6
ATOM      6  C   UNL     1      21.432  35.201   7.773  1.00  0.00     0.000 C 
BRANCH   6   7
ATOM      7  C   UNL     1      20.470  36.291   7.261  1.00  0.00     0.000 C 
BRANCH   7   8
ATOM      8  C   UNL     1      20.927  37.741   7.514  1.00  0.00     0.006 C 
BRANCH   8   9
ATOM      9  C   UNL     1      22.128  38.185   6.664  1.00  0.00     0.053 C 
BRANCH   9  10
ATOM     10  C   UNL     1      23.206  38.805   7.497  1.00  0.00     0.041 C 
ATOM     11  O   UNL     1      22.990  39.880   8.117  1.00  0.00    -0.550 OA
ATOM     12  O   UNL     1      24.462  38.214   7.563  1.00  0.00    -0.550 OA
ENDBRANCH   9  10
ENDBRANCH   8   9
ENDBRANCH   7   8
ENDBRANCH   6   7
ENDBRANCH   5   6
ENDBRANCH   4   5
ENDBRANCH   3   4
ENDBRANCH   1   3
BRANCH   2  13
ATOM     13  C   UNL     1      26.686  35.680   5.466  1.00  0.00     0.027 C 
BRANCH  13  14
ATOM     14  C   UNL     1      27.380  34.709   6.435  1.00  0.00     0.004 C 
BRANCH  14  15
ATOM     15  C   UNL     1      28.252  35.446   7.465  1.00  0.00     0.000 C 
BRANCH  15  16
ATOM     16  C   UNL     1      27.701  36.836   7.821  1.00  0.00     0.000 C 
BRANCH  16  17
ATOM     17  C   UNL     1      28.667  37.970   7.440  1.00  0.00    -0.000 C 
BRANCH  17  18
ATOM     18  C   UNL     1      30.093  37.463   7.167  1.00  0.00    -0.000 C 
BRANCH  18  19
ATOM     19  C   UNL     1      30.660  37.979   5.836  1.00  0.00    -0.003 C 
ATOM     20  C   UNL     1      31.003  36.822   4.900  1.00  0.00     0.004 C 
ENDBRANCH  18  19
ENDBRANCH  17  18
ENDBRANCH  16  17
ENDBRANCH  15  16
ENDBRANCH  14  15
ENDBRANCH  13  14
ENDBRANCH   2  13
TORSDOF 15
ENDMDL
MODEL 8
REMARK VINA RESULT:    -5.034      3.355      4.492
REMARK INTER + INTRA:         -11.186
REMARK INTER:                 -10.046
REMARK INTRA:                  -1.139
REMARK UNBOUND:                -1.738
REMARK SMILES CCCCCCCCC=CCCCCCCCC(=O)[O-]
REMARK SMILES IDX 10 1 9 2 11 3 12 4 13 5 14 6 15 7 16 8 17 9 18 10 19 11
REMARK SMILES IDX 20 12 8 13 7 14 6 15 5 16 4 17 3 18 2 19 1 20
REMARK H PARENT
REMARK Flexibility Score: inf
ROOT
ATOM      1  C   UNL     1      26.113  32.281   5.881  1.00  0.00    -0.031 C 
ATOM      2  C   UNL     1      26.604  33.444   6.335  1.00  0.00    -0.031 C 
ENDROOT
BRANCH   1   3
ATOM      3  C   UNL     1      26.285  30.998   6.649  1.00  0.00     0.027 C 
BRANCH   3   4
ATOM      4  C   UNL     1      24.941  30.341   6.997  1.00  0.00     0.004 C 
BRANCH   4   5
ATOM      5  C   UNL     1      24.078  31.235   7.904  1.00  0.00     0.000 C 
BRANCH   5   6
ATOM      6  C   UNL     1      23.656  30.534   9.207  1.00  0.00     0.000 C 
BRANCH   6   7
ATOM      7  C   UNL     1      22.916  31.429  10.222  1.00  0.00     0.000 C 
BRANCH   7   8
ATOM      8  C   UNL     1      21.480  30.985  10.563  1.00  0.00     0.006 C 
BRANCH   8   9
ATOM      9  C   UNL     1      20.420  31.425   9.541  1.00  0.00     0.053 C 
BRANCH   9  10
ATOM     10  C   UNL     1      20.500  32.891   9.248  1.00  0.00     0.041 C 
ATOM     11  O   UNL     1      20.837  33.292   8.103  1.00  0.00    -0.550 OA
ATOM     12  O   UNL     1      20.234  33.817  10.250  1.00  0.00    -0.550 OA
ENDBRANCH   9  10
ENDBRANCH   8   9
ENDBRANCH   7   8
ENDBRANCH   6   7
ENDBRANCH   5   6
ENDBRANCH   4   5
ENDBRANCH   3   4
ENDBRANCH   1   3
BRANCH   2  13
ATOM     13  C   UNL     1      26.432  34.727   5.566  1.00  0.00     0.027 C 
BRANCH  13  14
ATOM     14  C   UNL     1      27.517  35.762   5.903  1.00  0.00     0.004 C 
BRANCH  14  15
ATOM     15  C   UNL     1      28.414  35.302   7.065  1.00  0.00     0.000 C 
BRANCH  15  16
ATOM     16  C   UNL     1      28.850  36.464   7.972  1.00  0.00     0.000 C 
BRANCH  16  17
ATOM     17  C   UNL     1      29.151  37.749   7.183  1.00  0.00    -0.000 C 
BRANCH  17  18
ATOM     18  C   UNL     1      30.658  37.987   6.997  1.00  0.00    -0.000 C 
BRANCH  18  19
ATOM     19  C   UNL     1      31.356  36.827   6.272  1.00  0.00    -0.003 C 
ATOM     20  C   UNL     1      31.073  36.868   4.772  1.00  0.00     0.004 C 
ENDBRANCH  18  19
ENDBRANCH  17  18
ENDBRANCH  16  17
ENDBRANCH  15  16
ENDBRANCH  14  15
ENDBRANCH  13  14
ENDBRANCH   2  13
TORSDOF 15
ENDMDL
MODEL 9
REMARK VINA RESULT:    -4.980      4.402      5.735
REMARK INTER + INTRA:         -11.085
REMARK INTER:                  -9.416
REMARK INTRA:                  -1.669
REMARK UNBOUND:                -1.738
REMARK SMILES CCCCCCCCC=CCCCCCCCC(=O)[O-]
REMARK SMILES IDX 10 1 9 2 11 3 12 4 13 5 14 6 15 7 16 8 17 9 18 10 19 11
REMARK SMILES IDX 20 12 8 13 7 14 6 15 5 16 4 17 3 18 2 19 1 20
REMARK H PARENT
REMARK Flexibility Score: inf
ROOT
ATOM      1  C   UNL     1      25.342  34.459   5.471  1.00  0.00    -0.031 C 
ATOM      2  C   UNL     1      26.110  35.493   5.096  1.00  0.00    -0.031 C 
ENDROOT
BRANCH   1   3
ATOM      3  C   UNL     1      23.982  34.226   4.869  1.00  0.00     0.027 C 
BRANCH   3   4
ATOM      4  C   UNL     1      22.845  34.606   5.828  1.00  0.00     0.004 C 
BRANCH   4   5
ATOM      5  C   UNL     1      21.976  35.747   5.271  1.00  0.00     0.000 C 
BRANCH   5   6
ATOM      6  C   UNL     1      22.711  37.099   5.244  1.00  0.00     0.000 C 
BRANCH   6   7
ATOM      7  C   UNL     1      23.449  37.468   6.546  1.00  0.00     0.000 C 
BRANCH   7   8
ATOM      8  C   UNL     1      22.539  37.767   7.754  1.00  0.00     0.006 C 
BRANCH   8   9
ATOM      9  C   UNL     1      21.850  39.140   7.706  1.00  0.00     0.053 C 
BRANCH   9  10
ATOM     10  C   UNL     1      20.735  39.242   8.700  1.00  0.00     0.041 C 
ATOM     11  O   UNL     1      19.551  38.995   8.353  1.00  0.00    -0.550 OA
ATOM     12  O   UNL     1      21.000  39.645  10.004  1.00  0.00    -0.550 OA
ENDBRANCH   9  10
ENDBRANCH   8   9
ENDBRANCH   7   8
ENDBRANCH   6   7
ENDBRANCH   5   6
ENDBRANCH   4   5
ENDBRANCH   3   4
ENDBRANCH   1   3
BRANCH   2  13
ATOM     13  C   UNL     1      27.470  35.725   5.699  1.00  0.00     0.027 C 
BRANCH  13  14
ATOM     14  C   UNL     1      27.747  34.800   6.894  1.00  0.00     0.004 C 
BRANCH  14  15
ATOM     15  C   UNL     1      28.420  35.547   8.059  1.00  0.00     0.000 C 
BRANCH  15  16
ATOM     16  C   UNL     1      28.557  37.056   7.794  1.00  0.00     0.000 C 
BRANCH  16  17
ATOM     17  C   UNL     1      30.021  37.496   7.628  1.00  0.00    -0.000 C 
BRANCH  17  18
ATOM     18  C   UNL     1      30.292  38.135   6.256  1.00  0.00    -0.000 C 
BRANCH  18  19
ATOM     19  C   UNL     1      30.932  37.154   5.263  1.00  0.00    -0.003 C 
ATOM     20  C   UNL     1      31.856  36.172   5.979  1.00  0.00     0.004 C 
ENDBRANCH  18  19
ENDBRANCH  17  18
ENDBRANCH  16  17
ENDBRANCH  15  16
ENDBRANCH  14  15
ENDBRANCH  13  14
ENDBRANCH   2  13
TORSDOF 15
ENDMDL
