MODEL 1
REMARK VINA RESULT:    -4.135      0.000      0.000
REMARK INTER + INTRA:         -12.950
REMARK INTER:                 -10.419
REMARK INTRA:                  -2.531
REMARK UNBOUND:                -2.531
REMARK SMILES CCCCCCCCCCCCCCCCCCCCCCCCCCCC(=O)[O-]
REMARK SMILES IDX 15 1 16 2 17 3 18 4 19 5 20 6 21 7 22 8 23 9 24 10 25 11
REMARK SMILES IDX 26 12 27 13 28 14 29 15 30 16 14 17 13 18 12 19 11 20 10 21
REMARK SMILES IDX 9 22 8 23 7 24 6 25 5 26 4 27 3 28 2 29 1 30
REMARK H PARENT
REMARK Flexibility Score: inf
ROOT
ATOM      1  C   UNL     1     -12.859   4.986   5.690  1.00  0.00     0.000 C 
ENDROOT
BRANCH   1   2
ATOM      2  C   UNL     1     -13.516   6.377   5.761  1.00  0.00     0.000 C 
BRANCH   2   3
ATOM      3  C   UNL     1     -14.825   6.463   4.963  1.00  0.00     0.000 C 
BRANCH   3   4
ATOM      4  C   UNL     1     -14.553   6.446   3.454  1.00  0.00     0.000 C 
BRANCH   4   5
ATOM      5  C   UNL     1     -13.574   7.558   3.059  1.00  0.00     0.000 C 
BRANCH   5   6
ATOM      6  C   UNL     1     -13.950   8.165   1.701  1.00  0.00     0.000 C 
BRANCH   6   7
ATOM      7  C   UNL     1     -13.761   9.692   1.656  1.00  0.00     0.000 C 
BRANCH   7   8
ATOM      8  C   UNL     1     -13.565  10.363   3.031  1.00  0.00     0.000 C 
BRANCH   8   9
ATOM      9  C   UNL     1     -14.335  11.685   3.227  1.00  0.00     0.000 C 
BRANCH   9  10
ATOM     10  C   UNL     1     -14.910  11.899   4.642  1.00  0.00     0.000 C 
BRANCH  10  11
ATOM     11  C   UNL     1     -14.773  10.694   5.589  1.00  0.00     0.000 C 
BRANCH  11  12
ATOM     12  C   UNL     1     -14.863  11.088   7.073  1.00  0.00     0.006 C 
BRANCH  12  13
ATOM     13  C   UNL     1     -13.528  10.890   7.804  1.00  0.00     0.053 C 
BRANCH  13  14
ATOM     14  C   UNL     1     -12.405  10.644   6.844  1.00  0.00     0.041 C 
ATOM     15  O   UNL     1     -11.676  11.596   6.462  1.00  0.00    -0.550 OA
ATOM     16  O   UNL     1     -12.143   9.354   6.397  1.00  0.00    -0.550 OA
ENDBRANCH  13  14
ENDBRANCH  12  13
ENDBRANCH  11  12
ENDBRANCH  10  11
ENDBRANCH   9  10
ENDBRANCH   8   9
ENDBRANCH   7   8
ENDBRANCH   6   7
ENDBRANCH   5   6
ENDBRANCH   4   5
ENDBRANCH   3   4
ENDBRANCH   2   3
ENDBRANCH   1   2
BRANCH   1  17
ATOM     17  C   UNL     1     -12.608   4.312   7.050  1.00  0.00     0.000 C 
BRANCH  17  18
ATOM     18  C   UNL     1     -11.157   3.829   7.220  1.00  0.00     0.000 C 
BRANCH  18  19
ATOM     19  C   UNL     1     -10.403   4.596   8.319  1.00  0.00     0.000 C 
BRANCH  19  20
ATOM     20  C   UNL     1     -10.119   6.057   7.937  1.00  0.00     0.000 C 
BRANCH  20  21
ATOM     21  C   UNL     1      -9.058   6.138   6.828  1.00  0.00     0.000 C 
BRANCH  21  22
ATOM     22  C   UNL     1      -9.426   7.141   5.723  1.00  0.00    -0.000 C 
BRANCH  22  23
ATOM     23  C   UNL     1      -8.321   8.184   5.479  1.00  0.00    -0.000 C 
BRANCH  23  24
ATOM     24  C   UNL     1      -8.875   9.609   5.291  1.00  0.00    -0.000 C 
BRANCH  24  25
ATOM     25  C   UNL     1      -8.035  10.727   5.935  1.00  0.00    -0.000 C 
BRANCH  25  26
ATOM     26  C   UNL     1      -6.894  10.191   6.813  1.00  0.00    -0.000 C 
BRANCH  26  27
ATOM     27  C   UNL     1      -6.312  11.303   7.698  1.00  0.00    -0.000 C 
BRANCH  27  28
ATOM     28  C   UNL     1      -4.883  11.707   7.292  1.00  0.00    -0.000 C 
BRANCH  28  29
ATOM     29  C   UNL     1      -4.367  11.048   6.001  1.00  0.00    -0.003 C 
ATOM     30  C   UNL     1      -3.074  11.678   5.484  1.00  0.00     0.004 C 
ENDBRANCH  28  29
ENDBRANCH  27  28
ENDBRANCH  26  27
ENDBRANCH  25  26
ENDBRANCH  24  25
ENDBRANCH  23  24
ENDBRANCH  22  23
ENDBRANCH  21  22
ENDBRANCH  20  21
ENDBRANCH  19  20
ENDBRANCH  18  19
ENDBRANCH  17  18
ENDBRANCH   1  17
TORSDOF 26
ENDMDL
MODEL 2
REMARK VINA RESULT:    -3.582      2.089      3.407
REMARK INTER + INTRA:         -11.556
REMARK INTER:                  -8.752
REMARK INTRA:                  -2.804
REMARK UNBOUND:                -2.531
REMARK SMILES CCCCCCCCCCCCCCCCCCCCCCCCCCCC(=O)[O-]
REMARK SMILES IDX 15 1 16 2 17 3 18 4 19 5 20 6 21 7 22 8 23 9 24 10 25 11
REMARK SMILES IDX 26 12 27 13 28 14 29 15 30 16 14 17 13 18 12 19 11 20 10 21
REMARK SMILES IDX 9 22 8 23 7 24 6 25 5 26 4 27 3 28 2 29 1 30
REMARK H PARENT
REMARK Flexibility Score: inf
ROOT
ATOM      1  C   UNL     1     -12.058   5.006   6.917  1.00  0.00     0.000 C 
ENDROOT
BRANCH   1   2
ATOM      2  C   UNL     1     -11.765   4.933   5.407  1.00  0.00     0.000 C 
BRANCH   2   3
ATOM      3  C   UNL     1     -12.718   5.799   4.570  1.00  0.00     0.000 C 
BRANCH   3   4
ATOM      4  C   UNL     1     -14.122   5.824   5.184  1.00  0.00     0.000 C 
BRANCH   4   5
ATOM      5  C   UNL     1     -15.048   6.764   4.403  1.00  0.00     0.000 C 
BRANCH   5   6
ATOM      6  C   UNL     1     -14.506   8.200   4.407  1.00  0.00     0.000 C 
BRANCH   6   7
ATOM      7  C   UNL     1     -14.114   8.687   5.814  1.00  0.00     0.000 C 
BRANCH   7   8
ATOM      8  C   UNL     1     -14.540  10.132   6.144  1.00  0.00     0.000 C 
BRANCH   8   9
ATOM      9  C   UNL     1     -13.410  11.178   6.073  1.00  0.00     0.000 C 
BRANCH   9  10
ATOM     10  C   UNL     1     -11.995  10.595   5.884  1.00  0.00     0.000 C 
BRANCH  10  11
ATOM     11  C   UNL     1     -11.417  10.737   4.464  1.00  0.00     0.000 C 
BRANCH  11  12
ATOM     12  C   UNL     1     -12.406  11.385   3.480  1.00  0.00     0.006 C 
BRANCH  12  13
ATOM     13  C   UNL     1     -11.696  11.983   2.258  1.00  0.00     0.053 C 
BRANCH  13  14
ATOM     14  C   UNL     1     -11.934  11.164   1.027  1.00  0.00     0.041 C 
ATOM     15  O   UNL     1     -12.691  10.159   1.069  1.00  0.00    -0.550 OA
ATOM     16  O   UNL     1     -11.342  11.529  -0.176  1.00  0.00    -0.550 OA
ENDBRANCH  13  14
ENDBRANCH  12  13
ENDBRANCH  11  12
ENDBRANCH  10  11
ENDBRANCH   9  10
ENDBRANCH   8   9
ENDBRANCH   7   8
ENDBRANCH   6   7
ENDBRANCH   5   6
ENDBRANCH   4   5
ENDBRANCH   3   4
ENDBRANCH   2   3
ENDBRANCH   1   2
BRANCH   1  17
ATOM     17  C   UNL     1     -11.195   6.010   7.703  1.00  0.00     0.000 C 
BRANCH  17  18
ATOM     18  C   UNL     1      -9.746   5.531   7.896  1.00  0.00     0.000 C 
BRANCH  18  19
ATOM     19  C   UNL     1      -8.723   6.445   7.202  1.00  0.00     0.000 C 
BRANCH  19  20
ATOM     20  C   UNL     1      -9.376   7.439   6.229  1.00  0.00     0.000 C 
BRANCH  20  21
ATOM     21  C   UNL     1      -8.393   7.847   5.120  1.00  0.00     0.000 C 
BRANCH  21  22
ATOM     22  C   UNL     1      -8.054   9.347   5.146  1.00  0.00    -0.000 C 
BRANCH  22  23
ATOM     23  C   UNL     1      -7.711   9.851   6.559  1.00  0.00    -0.000 C 
BRANCH  23  24
ATOM     24  C   UNL     1      -7.779  11.384   6.680  1.00  0.00    -0.000 C 
BRANCH  24  25
ATOM     25  C   UNL     1      -6.420  12.106   6.625  1.00  0.00    -0.000 C 
BRANCH  25  26
ATOM     26  C   UNL     1      -5.233  11.141   6.489  1.00  0.00    -0.000 C 
BRANCH  26  27
ATOM     27  C   UNL     1      -3.910  11.910   6.359  1.00  0.00    -0.000 C 
BRANCH  27  28
ATOM     28  C   UNL     1      -2.867  11.171   5.503  1.00  0.00    -0.000 C 
BRANCH  28  29
ATOM     29  C   UNL     1      -1.890  12.084   4.742  1.00  0.00    -0.003 C 
ATOM     30  C   UNL     1      -0.432  11.649   4.882  1.00  0.00     0.004 C 
ENDBRANCH  28  29
ENDBRANCH  27  28
ENDBRANCH  26  27
ENDBRANCH  25  26
ENDBRANCH  24  25
ENDBRANCH  23  24
ENDBRANCH  22  23
ENDBRANCH  21  22
ENDBRANCH  20  21
ENDBRANCH  19  20
ENDBRANCH  18  19
ENDBRANCH  17  18
ENDBRANCH   1  17
TORSDOF 26
ENDMDL
MODEL 3
REMARK VINA RESULT:    -3.137      2.461      7.136
REMARK INTER + INTRA:         -10.435
REMARK INTER:                  -7.611
REMARK INTRA:                  -2.824
REMARK UNBOUND:                -2.531
REMARK SMILES CCCCCCCCCCCCCCCCCCCCCCCCCCCC(=O)[O-]
REMARK SMILES IDX 15 1 16 2 17 3 18 4 19 5 20 6 21 7 22 8 23 9 24 10 25 11
REMARK SMILES IDX 26 12 27 13 28 14 29 15 30 16 14 17 13 18 12 19 11 20 10 21
REMARK SMILES IDX 9 22 8 23 7 24 6 25 5 26 4 27 3 28 2 29 1 30
REMARK H PARENT
REMARK Flexibility Score: inf
ROOT
ATOM      1  C   UNL     1     -11.947   5.630   5.161  1.00  0.00     0.000 C 
ENDROOT
BRANCH   1   2
ATOM      2  C   UNL     1     -12.857   4.781   6.068  1.00  0.00     0.000 C 
BRANCH   2   3
ATOM      3  C   UNL     1     -12.079   3.752   6.903  1.00  0.00     0.000 C 
BRANCH   3   4
ATOM      4  C   UNL     1     -11.868   4.253   8.336  1.00  0.00     0.000 C 
BRANCH   4   5
ATOM      5  C   UNL     1     -10.384   4.214   8.720  1.00  0.00     0.000 C 
BRANCH   5   6
ATOM      6  C   UNL     1      -9.787   5.628   8.754  1.00  0.00     0.000 C 
BRANCH   6   7
ATOM      7  C   UNL     1      -9.847   6.335   7.388  1.00  0.00     0.000 C 
BRANCH   7   8
ATOM      8  C   UNL     1      -8.481   6.775   6.824  1.00  0.00     0.000 C 
BRANCH   8   9
ATOM      9  C   UNL     1      -8.528   7.401   5.416  1.00  0.00     0.000 C 
BRANCH   9  10
ATOM     10  C   UNL     1      -8.410   8.938   5.382  1.00  0.00     0.000 C 
BRANCH  10  11
ATOM     11  C   UNL     1      -7.268   9.522   6.232  1.00  0.00     0.000 C 
BRANCH  11  12
ATOM     12  C   UNL     1      -6.834  10.922   5.767  1.00  0.00     0.006 C 
BRANCH  12  13
ATOM     13  C   UNL     1      -5.605  11.430   6.533  1.00  0.00     0.053 C 
BRANCH  13  14
ATOM     14  C   UNL     1      -4.364  11.351   5.698  1.00  0.00     0.041 C 
ATOM     15  O   UNL     1      -3.263  11.040   6.225  1.00  0.00    -0.550 OA
ATOM     16  O   UNL     1      -4.430  11.589   4.331  1.00  0.00    -0.550 OA
ENDBRANCH  13  14
ENDBRANCH  12  13
ENDBRANCH  11  12
ENDBRANCH  10  11
ENDBRANCH   9  10
ENDBRANCH   8   9
ENDBRANCH   7   8
ENDBRANCH   6   7
ENDBRANCH   5   6
ENDBRANCH   4   5
ENDBRANCH   3   4
ENDBRANCH   2   3
ENDBRANCH   1   2
BRANCH   1  17
ATOM     17  C   UNL     1     -12.484   7.033   4.827  1.00  0.00     0.000 C 
BRANCH  17  18
ATOM     18  C   UNL     1     -13.117   7.737   6.039  1.00  0.00     0.000 C 
BRANCH  18  19
ATOM     19  C   UNL     1     -12.113   8.610   6.808  1.00  0.00     0.000 C 
BRANCH  19  20
ATOM     20  C   UNL     1     -11.777   9.917   6.075  1.00  0.00     0.000 C 
BRANCH  20  21
ATOM     21  C   UNL     1     -11.715  11.098   7.058  1.00  0.00     0.000 C 
BRANCH  21  22
ATOM     22  C   UNL     1     -12.835  12.125   6.828  1.00  0.00    -0.000 C 
BRANCH  22  23
ATOM     23  C   UNL     1     -14.206  11.464   6.598  1.00  0.00    -0.000 C 
BRANCH  23  24
ATOM     24  C   UNL     1     -14.979  12.085   5.420  1.00  0.00    -0.000 C 
BRANCH  24  25
ATOM     25  C   UNL     1     -14.214  12.124   4.084  1.00  0.00    -0.000 C 
BRANCH  25  26
ATOM     26  C   UNL     1     -14.136  10.752   3.397  1.00  0.00    -0.000 C 
BRANCH  26  27
ATOM     27  C   UNL     1     -14.313  10.888   1.877  1.00  0.00    -0.000 C 
BRANCH  27  28
ATOM     28  C   UNL     1     -13.305  11.862   1.240  1.00  0.00    -0.000 C 
BRANCH  28  29
ATOM     29  C   UNL     1     -11.842  11.387   1.265  1.00  0.00    -0.003 C 
ATOM     30  C   UNL     1     -11.235  11.246  -0.130  1.00  0.00     0.004 C 
ENDBRANCH  28  29
ENDBRANCH  27  28
ENDBRANCH  26  27
ENDBRANCH  25  26
ENDBRANCH  24  25
ENDBRANCH  23  24
ENDBRANCH  22  23
ENDBRANCH  21  22
ENDBRANCH  20  21
ENDBRANCH  19  20
ENDBRANCH  18  19
ENDBRANCH  17  18
ENDBRANCH   1  17
TORSDOF 26
ENDMDL
MODEL 4
REMARK VINA RESULT:    -3.069      2.724      7.351
REMARK INTER + INTRA:         -10.265
REMARK INTER:                  -8.108
REMARK INTRA:                  -2.157
REMARK UNBOUND:                -2.531
REMARK SMILES CCCCCCCCCCCCCCCCCCCCCCCCCCCC(=O)[O-]
REMARK SMILES IDX 15 1 16 2 17 3 18 4 19 5 20 6 21 7 22 8 23 9 24 10 25 11
REMARK SMILES IDX 26 12 27 13 28 14 29 15 30 16 14 17 13 18 12 19 11 20 10 21
REMARK SMILES IDX 9 22 8 23 7 24 6 25 5 26 4 27 3 28 2 29 1 30
REMARK H PARENT
REMARK Flexibility Score: inf
ROOT
ATOM      1  C   UNL     1     -11.447   5.816   5.376  1.00  0.00     0.000 C 
ENDROOT
BRANCH   1   2
ATOM      2  C   UNL     1     -10.698   4.758   6.206  1.00  0.00     0.000 C 
BRANCH   2   3
ATOM      3  C   UNL     1     -10.242   5.283   7.576  1.00  0.00     0.000 C 
BRANCH   3   4
ATOM      4  C   UNL     1      -9.564   6.652   7.442  1.00  0.00     0.000 C 
BRANCH   4   5
ATOM      5  C   UNL     1      -8.390   6.590   6.459  1.00  0.00     0.000 C 
BRANCH   5   6
ATOM      6  C   UNL     1      -8.504   7.691   5.395  1.00  0.00     0.000 C 
BRANCH   6   7
ATOM      7  C   UNL     1      -8.125   9.083   5.932  1.00  0.00     0.000 C 
BRANCH   7   8
ATOM      8  C   UNL     1      -8.985  10.244   5.393  1.00  0.00     0.000 C 
BRANCH   8   9
ATOM      9  C   UNL     1      -8.512  11.652   5.805  1.00  0.00     0.000 C 
BRANCH   9  10
ATOM     10  C   UNL     1      -7.023  11.750   6.195  1.00  0.00     0.000 C 
BRANCH  10  11
ATOM     11  C   UNL     1      -6.055  11.003   5.261  1.00  0.00     0.000 C 
BRANCH  11  12
ATOM     12  C   UNL     1      -4.721  10.653   5.941  1.00  0.00     0.006 C 
BRANCH  12  13
ATOM     13  C   UNL     1      -3.797  11.873   6.063  1.00  0.00     0.053 C 
BRANCH  13  14
ATOM     14  C   UNL     1      -2.759  11.888   4.984  1.00  0.00     0.041 C 
ATOM     15  O   UNL     1      -3.100  11.979   3.776  1.00  0.00    -0.550 OA
ATOM     16  O   UNL     1      -1.411  11.835   5.316  1.00  0.00    -0.550 OA
ENDBRANCH  13  14
ENDBRANCH  12  13
ENDBRANCH  11  12
ENDBRANCH  10  11
ENDBRANCH   9  10
ENDBRANCH   8   9
ENDBRANCH   7   8
ENDBRANCH   6   7
ENDBRANCH   5   6
ENDBRANCH   4   5
ENDBRANCH   3   4
ENDBRANCH   2   3
ENDBRANCH   1   2
BRANCH   1  17
ATOM     17  C   UNL     1     -12.648   5.287   4.571  1.00  0.00     0.000 C 
BRANCH  17  18
ATOM     18  C   UNL     1     -13.742   6.347   4.360  1.00  0.00     0.000 C 
BRANCH  18  19
ATOM     19  C   UNL     1     -14.407   6.244   2.978  1.00  0.00     0.000 C 
BRANCH  19  20
ATOM     20  C   UNL     1     -13.990   7.377   2.030  1.00  0.00     0.000 C 
BRANCH  20  21
ATOM     21  C   UNL     1     -14.008   8.733   2.754  1.00  0.00     0.000 C 
BRANCH  21  22
ATOM     22  C   UNL     1     -13.283   9.839   1.969  1.00  0.00    -0.000 C 
BRANCH  22  23
ATOM     23  C   UNL     1     -14.187  11.050   1.682  1.00  0.00    -0.000 C 
BRANCH  23  24
ATOM     24  C   UNL     1     -14.143  12.108   2.800  1.00  0.00    -0.000 C 
BRANCH  24  25
ATOM     25  C   UNL     1     -15.118  11.866   3.968  1.00  0.00    -0.000 C 
BRANCH  25  26
ATOM     26  C   UNL     1     -14.404  11.541   5.288  1.00  0.00    -0.000 C 
BRANCH  26  27
ATOM     27  C   UNL     1     -12.898  11.824   5.183  1.00  0.00    -0.000 C 
BRANCH  27  28
ATOM     28  C   UNL     1     -12.161  11.655   6.524  1.00  0.00    -0.000 C 
BRANCH  28  29
ATOM     29  C   UNL     1     -12.557  10.404   7.327  1.00  0.00    -0.003 C 
ATOM     30  C   UNL     1     -12.401   9.109   6.531  1.00  0.00     0.004 C 
ENDBRANCH  28  29
ENDBRANCH  27  28
ENDBRANCH  26  27
ENDBRANCH  25  26
ENDBRANCH  24  25
ENDBRANCH  23  24
ENDBRANCH  22  23
ENDBRANCH  21  22
ENDBRANCH  20  21
ENDBRANCH  19  20
ENDBRANCH  18  19
ENDBRANCH  17  18
ENDBRANCH   1  17
TORSDOF 26
ENDMDL
MODEL 5
REMARK VINA RESULT:    -3.066      1.906      6.703
REMARK INTER + INTRA:         -10.257
REMARK INTER:                  -6.644
REMARK INTRA:                  -3.613
REMARK UNBOUND:                -2.531
REMARK SMILES CCCCCCCCCCCCCCCCCCCCCCCCCCCC(=O)[O-]
REMARK SMILES IDX 15 1 16 2 17 3 18 4 19 5 20 6 21 7 22 8 23 9 24 10 25 11
REMARK SMILES IDX 26 12 27 13 28 14 29 15 30 16 14 17 13 18 12 19 11 20 10 21
REMARK SMILES IDX 9 22 8 23 7 24 6 25 5 26 4 27 3 28 2 29 1 30
REMARK H PARENT
REMARK Flexibility Score: inf
ROOT
ATOM      1  C   UNL     1      -8.029   9.049   5.047  1.00  0.00     0.000 C 
ENDROOT
BRANCH   1   2
ATOM      2  C   UNL     1      -7.230   9.710   6.186  1.00  0.00     0.000 C 
BRANCH   2   3
ATOM      3  C   UNL     1      -7.305  11.244   6.158  1.00  0.00     0.000 C 
BRANCH   3   4
ATOM      4  C   UNL     1      -8.558  11.720   5.414  1.00  0.00     0.000 C 
BRANCH   4   5
ATOM      5  C   UNL     1      -9.662  12.125   6.397  1.00  0.00     0.000 C 
BRANCH   5   6
ATOM      6  C   UNL     1     -10.704  11.008   6.547  1.00  0.00     0.000 C 
BRANCH   6   7
ATOM      7  C   UNL     1     -11.794  11.059   5.461  1.00  0.00     0.000 C 
BRANCH   7   8
ATOM      8  C   UNL     1     -13.193  10.602   5.922  1.00  0.00     0.000 C 
BRANCH   8   9
ATOM      9  C   UNL     1     -13.942   9.690   4.930  1.00  0.00     0.000 C 
BRANCH   9  10
ATOM     10  C   UNL     1     -15.067  10.380   4.134  1.00  0.00     0.000 C 
BRANCH  10  11
ATOM     11  C   UNL     1     -14.654  11.677   3.414  1.00  0.00     0.000 C 
BRANCH  11  12
ATOM     12  C   UNL     1     -14.422  11.474   1.907  1.00  0.00     0.006 C 
BRANCH  12  13
ATOM     13  C   UNL     1     -13.175  10.625   1.625  1.00  0.00     0.053 C 
BRANCH  13  14
ATOM     14  C   UNL     1     -11.984  11.479   1.317  1.00  0.00     0.041 C 
ATOM     15  O   UNL     1     -11.345  12.036   2.247  1.00  0.00    -0.550 OA
ATOM     16  O   UNL     1     -11.561  11.634   0.002  1.00  0.00    -0.550 OA
ENDBRANCH  13  14
ENDBRANCH  12  13
ENDBRANCH  11  12
ENDBRANCH  10  11
ENDBRANCH   9  10
ENDBRANCH   8   9
ENDBRANCH   7   8
ENDBRANCH   6   7
ENDBRANCH   5   6
ENDBRANCH   4   5
ENDBRANCH   3   4
ENDBRANCH   2   3
ENDBRANCH   1   2
BRANCH   1  17
ATOM     17  C   UNL     1      -8.360   7.561   5.259  1.00  0.00     0.000 C 
BRANCH  17  18
ATOM     18  C   UNL     1      -9.870   7.296   5.392  1.00  0.00     0.000 C 
BRANCH  18  19
ATOM     19  C   UNL     1     -10.319   7.151   6.855  1.00  0.00     0.000 C 
BRANCH  19  20
ATOM     20  C   UNL     1      -9.163   6.794   7.800  1.00  0.00     0.000 C 
BRANCH  20  21
ATOM     21  C   UNL     1      -9.516   5.569   8.660  1.00  0.00     0.000 C 
BRANCH  21  22
ATOM     22  C   UNL     1     -10.989   5.150   8.525  1.00  0.00    -0.000 C 
BRANCH  22  23
ATOM     23  C   UNL     1     -11.171   3.904   7.640  1.00  0.00    -0.000 C 
BRANCH  23  24
ATOM     24  C   UNL     1     -12.555   3.844   6.969  1.00  0.00    -0.000 C 
BRANCH  24  25
ATOM     25  C   UNL     1     -12.732   4.768   5.750  1.00  0.00    -0.000 C 
BRANCH  25  26
ATOM     26  C   UNL     1     -13.463   6.076   6.089  1.00  0.00    -0.000 C 
BRANCH  26  27
ATOM     27  C   UNL     1     -14.639   6.312   5.131  1.00  0.00    -0.000 C 
BRANCH  27  28
ATOM     28  C   UNL     1     -14.503   5.534   3.810  1.00  0.00    -0.000 C 
BRANCH  28  29
ATOM     29  C   UNL     1     -14.931   6.313   2.553  1.00  0.00    -0.003 C 
ATOM     30  C   UNL     1     -13.793   7.127   1.939  1.00  0.00     0.004 C 
ENDBRANCH  28  29
ENDBRANCH  27  28
ENDBRANCH  26  27
ENDBRANCH  25  26
ENDBRANCH  24  25
ENDBRANCH  23  24
ENDBRANCH  22  23
ENDBRANCH  21  22
ENDBRANCH  20  21
ENDBRANCH  19  20
ENDBRANCH  18  19
ENDBRANCH  17  18
ENDBRANCH   1  17
TORSDOF 26
ENDMDL
MODEL 6
REMARK VINA RESULT:    -2.940      2.420      6.619
REMARK INTER + INTRA:          -9.939
REMARK INTER:                  -7.000
REMARK INTRA:                  -2.939
REMARK UNBOUND:                -2.531
REMARK SMILES CCCCCCCCCCCCCCCCCCCCCCCCCCCC(=O)[O-]
REMARK SMILES IDX 15 1 16 2 17 3 18 4 19 5 20 6 21 7 22 8 23 9 24 10 25 11
REMARK SMILES IDX 26 12 27 13 28 14 29 15 30 16 14 17 13 18 12 19 11 20 10 21
REMARK SMILES IDX 9 22 8 23 7 24 6 25 5 26 4 27 3 28 2 29 1 30
REMARK H PARENT
REMARK Flexibility Score: inf
ROOT
ATOM      1  C   UNL     1     -10.576   4.896   6.069  1.00  0.00     0.000 C 
ENDROOT
BRANCH   1   2
ATOM      2  C   UNL     1      -9.723   5.148   7.326  1.00  0.00     0.000 C 
BRANCH   2   3
ATOM      3  C   UNL     1      -8.928   6.460   7.257  1.00  0.00     0.000 C 
BRANCH   3   4
ATOM      4  C   UNL     1      -8.615   6.839   5.805  1.00  0.00     0.000 C 
BRANCH   4   5
ATOM      5  C   UNL     1      -9.153   8.235   5.472  1.00  0.00     0.000 C 
BRANCH   5   6
ATOM      6  C   UNL     1     -10.677   8.294   5.644  1.00  0.00     0.000 C 
BRANCH   6   7
ATOM      7  C   UNL     1     -11.211   9.733   5.753  1.00  0.00     0.000 C 
BRANCH   7   8
ATOM      8  C   UNL     1     -10.348  10.802   5.052  1.00  0.00     0.000 C 
BRANCH   8   9
ATOM      9  C   UNL     1     -10.016  12.038   5.912  1.00  0.00     0.000 C 
BRANCH   9  10
ATOM     10  C   UNL     1      -9.276  11.734   7.231  1.00  0.00     0.000 C 
BRANCH  10  11
ATOM     11  C   UNL     1      -7.780  12.094   7.235  1.00  0.00     0.000 C 
BRANCH  11  12
ATOM     12  C   UNL     1      -6.871  10.862   7.382  1.00  0.00     0.006 C 
BRANCH  12  13
ATOM     13  C   UNL     1      -6.196  10.482   6.057  1.00  0.00     0.053 C 
BRANCH  13  14
ATOM     14  C   UNL     1      -4.802  11.024   5.973  1.00  0.00     0.041 C 
ATOM     15  O   UNL     1      -4.315  11.352   4.859  1.00  0.00    -0.550 OA
ATOM     16  O   UNL     1      -4.053  11.198   7.130  1.00  0.00    -0.550 OA
ENDBRANCH  13  14
ENDBRANCH  12  13
ENDBRANCH  11  12
ENDBRANCH  10  11
ENDBRANCH   9  10
ENDBRANCH   8   9
ENDBRANCH   7   8
ENDBRANCH   6   7
ENDBRANCH   5   6
ENDBRANCH   4   5
ENDBRANCH   3   4
ENDBRANCH   2   3
ENDBRANCH   1   2
BRANCH   1  17
ATOM     17  C   UNL     1     -11.940   4.231   6.326  1.00  0.00     0.000 C 
BRANCH  17  18
ATOM     18  C   UNL     1     -13.110   4.997   5.684  1.00  0.00     0.000 C 
BRANCH  18  19
ATOM     19  C   UNL     1     -12.683   5.798   4.444  1.00  0.00     0.000 C 
BRANCH  19  20
ATOM     20  C   UNL     1     -13.676   5.665   3.279  1.00  0.00     0.000 C 
BRANCH  20  21
ATOM     21  C   UNL     1     -15.065   6.187   3.680  1.00  0.00     0.000 C 
BRANCH  21  22
ATOM     22  C   UNL     1     -15.123   7.720   3.773  1.00  0.00    -0.000 C 
BRANCH  22  23
ATOM     23  C   UNL     1     -14.629   8.250   5.130  1.00  0.00    -0.000 C 
BRANCH  23  24
ATOM     24  C   UNL     1     -15.125   9.676   5.432  1.00  0.00    -0.000 C 
BRANCH  24  25
ATOM     25  C   UNL     1     -14.015  10.728   5.615  1.00  0.00    -0.000 C 
BRANCH  25  26
ATOM     26  C   UNL     1     -14.282  12.024   4.835  1.00  0.00    -0.000 C 
BRANCH  26  27
ATOM     27  C   UNL     1     -13.366  12.124   3.607  1.00  0.00    -0.000 C 
BRANCH  27  28
ATOM     28  C   UNL     1     -14.058  11.684   2.304  1.00  0.00    -0.000 C 
BRANCH  28  29
ATOM     29  C   UNL     1     -13.166  10.890   1.334  1.00  0.00    -0.003 C 
ATOM     30  C   UNL     1     -11.824  11.569   1.064  1.00  0.00     0.004 C 
ENDBRANCH  28  29
ENDBRANCH  27  28
ENDBRANCH  26  27
ENDBRANCH  25  26
ENDBRANCH  24  25
ENDBRANCH  23  24
ENDBRANCH  22  23
ENDBRANCH  21  22
ENDBRANCH  20  21
ENDBRANCH  19  20
ENDBRANCH  18  19
ENDBRANCH  17  18
ENDBRANCH   1  17
TORSDOF 26
ENDMDL
MODEL 7
REMARK VINA RESULT:    -2.799      2.097      6.791
REMARK INTER + INTRA:          -9.585
REMARK INTER:                  -7.456
REMARK INTRA:                  -2.129
REMARK UNBOUND:                -2.531
REMARK SMILES CCCCCCCCCCCCCCCCCCCCCCCCCCCC(=O)[O-]
REMARK SMILES IDX 15 1 16 2 17 3 18 4 19 5 20 6 21 7 22 8 23 9 24 10 25 11
REMARK SMILES IDX 26 12 27 13 28 14 29 15 30 16 14 17 13 18 12 19 11 20 10 21
REMARK SMILES IDX 9 22 8 23 7 24 6 25 5 26 4 27 3 28 2 29 1 30
REMARK H PARENT
REMARK Flexibility Score: inf
ROOT
ATOM      1  C   UNL     1     -12.911   5.868   4.462  1.00  0.00     0.000 C 
ENDROOT
BRANCH   1   2
ATOM      2  C   UNL     1     -12.890   6.243   5.955  1.00  0.00     0.000 C 
BRANCH   2   3
ATOM      3  C   UNL     1     -13.029   5.025   6.881  1.00  0.00     0.000 C 
BRANCH   3   4
ATOM      4  C   UNL     1     -11.875   4.038   6.668  1.00  0.00     0.000 C 
BRANCH   4   5
ATOM      5  C   UNL     1     -10.956   3.995   7.894  1.00  0.00     0.000 C 
BRANCH   5   6
ATOM      6  C   UNL     1      -9.601   4.649   7.590  1.00  0.00     0.000 C 
BRANCH   6   7
ATOM      7  C   UNL     1      -9.574   6.151   7.924  1.00  0.00     0.000 C 
BRANCH   7   8
ATOM      8  C   UNL     1      -8.603   6.990   7.070  1.00  0.00     0.000 C 
BRANCH   8   9
ATOM      9  C   UNL     1      -9.047   7.220   5.612  1.00  0.00     0.000 C 
BRANCH   9  10
ATOM     10  C   UNL     1      -8.726   8.619   5.046  1.00  0.00     0.000 C 
BRANCH  10  11
ATOM     11  C   UNL     1      -8.377   9.683   6.102  1.00  0.00     0.000 C 
BRANCH  11  12
ATOM     12  C   UNL     1      -7.834  10.982   5.482  1.00  0.00     0.006 C 
BRANCH  12  13
ATOM     13  C   UNL     1      -6.318  10.924   5.255  1.00  0.00     0.053 C 
BRANCH  13  14
ATOM     14  C   UNL     1      -5.566  10.904   6.550  1.00  0.00     0.041 C 
ATOM     15  O   UNL     1      -6.102  11.341   7.602  1.00  0.00    -0.550 OA
ATOM     16  O   UNL     1      -4.284  10.371   6.601  1.00  0.00    -0.550 OA
ENDBRANCH  13  14
ENDBRANCH  12  13
ENDBRANCH  11  12
ENDBRANCH  10  11
ENDBRANCH   9  10
ENDBRANCH   8   9
ENDBRANCH   7   8
ENDBRANCH   6   7
ENDBRANCH   5   6
ENDBRANCH   4   5
ENDBRANCH   3   4
ENDBRANCH   2   3
ENDBRANCH   1   2
BRANCH   1  17
ATOM     17  C   UNL     1     -14.307   5.848   3.813  1.00  0.00     0.000 C 
BRANCH  17  18
ATOM     18  C   UNL     1     -14.283   6.254   2.329  1.00  0.00     0.000 C 
BRANCH  18  19
ATOM     19  C   UNL     1     -13.652   7.638   2.105  1.00  0.00     0.000 C 
BRANCH  19  20
ATOM     20  C   UNL     1     -14.426   8.766   2.803  1.00  0.00     0.000 C 
BRANCH  20  21
ATOM     21  C   UNL     1     -14.139  10.122   2.139  1.00  0.00     0.000 C 
BRANCH  21  22
ATOM     22  C   UNL     1     -13.062  10.035   1.046  1.00  0.00    -0.000 C 
BRANCH  22  23
ATOM     23  C   UNL     1     -12.044  11.186   1.125  1.00  0.00    -0.000 C 
BRANCH  23  24
ATOM     24  C   UNL     1     -11.607  11.500   2.568  1.00  0.00    -0.000 C 
BRANCH  24  25
ATOM     25  C   UNL     1     -12.696  12.124   3.460  1.00  0.00    -0.000 C 
BRANCH  25  26
ATOM     26  C   UNL     1     -12.587  11.693   4.930  1.00  0.00    -0.000 C 
BRANCH  26  27
ATOM     27  C   UNL     1     -13.955  11.261   5.478  1.00  0.00    -0.000 C 
BRANCH  27  28
ATOM     28  C   UNL     1     -13.861  10.089   6.471  1.00  0.00    -0.000 C 
BRANCH  28  29
ATOM     29  C   UNL     1     -12.654  10.145   7.425  1.00  0.00    -0.003 C 
ATOM     30  C   UNL     1     -12.659  11.380   8.324  1.00  0.00     0.004 C 
ENDBRANCH  28  29
ENDBRANCH  27  28
ENDBRANCH  26  27
ENDBRANCH  25  26
ENDBRANCH  24  25
ENDBRANCH  23  24
ENDBRANCH  22  23
ENDBRANCH  21  22
ENDBRANCH  20  21
ENDBRANCH  19  20
ENDBRANCH  18  19
ENDBRANCH  17  18
ENDBRANCH   1  17
TORSDOF 26
ENDMDL
MODEL 8
REMARK VINA RESULT:    -2.471      2.216      6.502
REMARK INTER + INTRA:          -8.759
REMARK INTER:                  -4.684
REMARK INTRA:                  -4.074
REMARK UNBOUND:                -2.531
REMARK SMILES CCCCCCCCCCCCCCCCCCCCCCCCCCCC(=O)[O-]
REMARK SMILES IDX 15 1 16 2 17 3 18 4 19 5 20 6 21 7 22 8 23 9 24 10 25 11
REMARK SMILES IDX 26 12 27 13 28 14 29 15 30 16 14 17 13 18 12 19 11 20 10 21
REMARK SMILES IDX 9 22 8 23 7 24 6 25 5 26 4 27 3 28 2 29 1 30
REMARK H PARENT
REMARK Flexibility Score: inf
ROOT
ATOM      1  C   UNL     1     -15.124   6.767   4.529  1.00  0.00     0.000 C 
ENDROOT
BRANCH   1   2
ATOM      2  C   UNL     1     -14.767   6.073   3.202  1.00  0.00     0.000 C 
BRANCH   2   3
ATOM      3  C   UNL     1     -13.253   5.996   2.955  1.00  0.00     0.000 C 
BRANCH   3   4
ATOM      4  C   UNL     1     -12.648   4.756   3.623  1.00  0.00     0.000 C 
BRANCH   4   5
ATOM      5  C   UNL     1     -11.448   5.133   4.499  1.00  0.00     0.000 C 
BRANCH   5   6
ATOM      6  C   UNL     1     -11.627   4.613   5.932  1.00  0.00     0.000 C 
BRANCH   6   7
ATOM      7  C   UNL     1     -12.178   5.684   6.891  1.00  0.00     0.000 C 
BRANCH   7   8
ATOM      8  C   UNL     1     -11.151   6.740   7.346  1.00  0.00     0.000 C 
BRANCH   8   9
ATOM      9  C   UNL     1      -9.692   6.247   7.411  1.00  0.00     0.000 C 
BRANCH   9  10
ATOM     10  C   UNL     1      -8.654   7.199   6.786  1.00  0.00     0.000 C 
BRANCH  10  11
ATOM     11  C   UNL     1      -9.150   7.989   5.561  1.00  0.00     0.000 C 
BRANCH  11  12
ATOM     12  C   UNL     1      -8.113   9.001   5.044  1.00  0.00     0.006 C 
BRANCH  12  13
ATOM     13  C   UNL     1      -7.681   9.993   6.133  1.00  0.00     0.053 C 
BRANCH  13  14
ATOM     14  C   UNL     1      -6.281  10.476   5.914  1.00  0.00     0.041 C 
ATOM     15  O   UNL     1      -6.021  11.261   4.966  1.00  0.00    -0.550 OA
ATOM     16  O   UNL     1      -5.267  10.082   6.780  1.00  0.00    -0.550 OA
ENDBRANCH  13  14
ENDBRANCH  12  13
ENDBRANCH  11  12
ENDBRANCH  10  11
ENDBRANCH   9  10
ENDBRANCH   8   9
ENDBRANCH   7   8
ENDBRANCH   6   7
ENDBRANCH   5   6
ENDBRANCH   4   5
ENDBRANCH   3   4
ENDBRANCH   2   3
ENDBRANCH   1   2
BRANCH   1  17
ATOM     17  C   UNL     1     -14.145   7.868   4.976  1.00  0.00     0.000 C 
BRANCH  17  18
ATOM     18  C   UNL     1     -14.857   9.141   5.464  1.00  0.00     0.000 C 
BRANCH  18  19
ATOM     19  C   UNL     1     -14.553   9.462   6.936  1.00  0.00     0.000 C 
BRANCH  19  20
ATOM     20  C   UNL     1     -15.063  10.847   7.361  1.00  0.00     0.000 C 
BRANCH  20  21
ATOM     21  C   UNL     1     -13.947  11.899   7.254  1.00  0.00     0.000 C 
BRANCH  21  22
ATOM     22  C   UNL     1     -12.674  11.498   8.017  1.00  0.00    -0.000 C 
BRANCH  22  23
ATOM     23  C   UNL     1     -11.398  12.083   7.388  1.00  0.00    -0.000 C 
BRANCH  23  24
ATOM     24  C   UNL     1     -10.920  11.291   6.158  1.00  0.00    -0.000 C 
BRANCH  24  25
ATOM     25  C   UNL     1     -10.723  12.125   4.878  1.00  0.00    -0.000 C 
BRANCH  25  26
ATOM     26  C   UNL     1     -11.915  12.033   3.913  1.00  0.00    -0.000 C 
BRANCH  26  27
ATOM     27  C   UNL     1     -11.438  11.799   2.472  1.00  0.00    -0.000 C 
BRANCH  27  28
ATOM     28  C   UNL     1     -12.542  11.240   1.558  1.00  0.00    -0.000 C 
BRANCH  28  29
ATOM     29  C   UNL     1     -13.270  10.000   2.107  1.00  0.00    -0.003 C 
ATOM     30  C   UNL     1     -14.164   9.323   1.069  1.00  0.00     0.004 C 
ENDBRANCH  28  29
ENDBRANCH  27  28
ENDBRANCH  26  27
ENDBRANCH  25  26
ENDBRANCH  24  25
ENDBRANCH  23  24
ENDBRANCH  22  23
ENDBRANCH  21  22
ENDBRANCH  20  21
ENDBRANCH  19  20
ENDBRANCH  18  19
ENDBRANCH  17  18
ENDBRANCH   1  17
TORSDOF 26
ENDMDL
MODEL 9
REMARK VINA RESULT:    -2.456      1.336      2.132
REMARK INTER + INTRA:          -8.720
REMARK INTER:                  -6.907
REMARK INTRA:                  -1.813
REMARK UNBOUND:                -2.531
REMARK SMILES CCCCCCCCCCCCCCCCCCCCCCCCCCCC(=O)[O-]
REMARK SMILES IDX 15 1 16 2 17 3 18 4 19 5 20 6 21 7 22 8 23 9 24 10 25 11
REMARK SMILES IDX 26 12 27 13 28 14 29 15 30 16 14 17 13 18 12 19 11 20 10 21
REMARK SMILES IDX 9 22 8 23 7 24 6 25 5 26 4 27 3 28 2 29 1 30
REMARK H PARENT
REMARK Flexibility Score: inf
ROOT
ATOM      1  C   UNL     1     -11.977   6.261   7.204  1.00  0.00     0.000 C 
ENDROOT
BRANCH   1   2
ATOM      2  C   UNL     1     -12.982   5.281   6.571  1.00  0.00     0.000 C 
BRANCH   2   3
ATOM      3  C   UNL     1     -14.259   5.972   6.071  1.00  0.00     0.000 C 
BRANCH   3   4
ATOM      4  C   UNL     1     -14.453   5.747   4.566  1.00  0.00     0.000 C 
BRANCH   4   5
ATOM      5  C   UNL     1     -13.297   6.358   3.766  1.00  0.00     0.000 C 
BRANCH   5   6
ATOM      6  C   UNL     1     -13.597   6.335   2.260  1.00  0.00     0.000 C 
BRANCH   6   7
ATOM      7  C   UNL     1     -14.215   7.651   1.754  1.00  0.00     0.000 C 
BRANCH   7   8
ATOM      8  C   UNL     1     -13.738   8.919   2.491  1.00  0.00     0.000 C 
BRANCH   8   9
ATOM      9  C   UNL     1     -13.149  10.018   1.584  1.00  0.00     0.000 C 
BRANCH   9  10
ATOM     10  C   UNL     1     -13.783  11.413   1.756  1.00  0.00     0.000 C 
BRANCH  10  11
ATOM     11  C   UNL     1     -13.442  12.124   3.078  1.00  0.00     0.000 C 
BRANCH  11  12
ATOM     12  C   UNL     1     -12.723  11.205   4.081  1.00  0.00     0.006 C 
BRANCH  12  13
ATOM     13  C   UNL     1     -13.184  11.453   5.523  1.00  0.00     0.053 C 
BRANCH  13  14
ATOM     14  C   UNL     1     -13.425  10.169   6.254  1.00  0.00     0.041 C 
ATOM     15  O   UNL     1     -14.327   9.379   5.869  1.00  0.00    -0.550 OA
ATOM     16  O   UNL     1     -12.631   9.829   7.343  1.00  0.00    -0.550 OA
ENDBRANCH  13  14
ENDBRANCH  12  13
ENDBRANCH  11  12
ENDBRANCH  10  11
ENDBRANCH   9  10
ENDBRANCH   8   9
ENDBRANCH   7   8
ENDBRANCH   6   7
ENDBRANCH   5   6
ENDBRANCH   4   5
ENDBRANCH   3   4
ENDBRANCH   2   3
ENDBRANCH   1   2
BRANCH   1  17
ATOM     17  C   UNL     1     -11.023   5.640   8.240  1.00  0.00     0.000 C 
BRANCH  17  18
ATOM     18  C   UNL     1      -9.650   5.279   7.649  1.00  0.00     0.000 C 
BRANCH  18  19
ATOM     19  C   UNL     1      -9.697   5.069   6.127  1.00  0.00     0.000 C 
BRANCH  19  20
ATOM     20  C   UNL     1      -9.028   6.212   5.348  1.00  0.00     0.000 C 
BRANCH  20  21
ATOM     21  C   UNL     1      -8.839   7.448   6.241  1.00  0.00     0.000 C 
BRANCH  21  22
ATOM     22  C   UNL     1      -8.627   8.740   5.435  1.00  0.00    -0.000 C 
BRANCH  22  23
ATOM     23  C   UNL     1      -9.453   9.918   5.979  1.00  0.00    -0.000 C 
BRANCH  23  24
ATOM     24  C   UNL     1      -8.675  11.247   5.976  1.00  0.00    -0.000 C 
BRANCH  24  25
ATOM     25  C   UNL     1      -7.642  11.396   4.843  1.00  0.00    -0.000 C 
BRANCH  25  26
ATOM     26  C   UNL     1      -6.230  11.712   5.357  1.00  0.00    -0.000 C 
BRANCH  26  27
ATOM     27  C   UNL     1      -5.556  10.453   5.921  1.00  0.00    -0.000 C 
BRANCH  27  28
ATOM     28  C   UNL     1      -4.222  10.752   6.629  1.00  0.00    -0.000 C 
BRANCH  28  29
ATOM     29  C   UNL     1      -3.444  11.953   6.063  1.00  0.00    -0.003 C 
ATOM     30  C   UNL     1      -2.257  11.539   5.194  1.00  0.00     0.004 C 
ENDBRANCH  28  29
ENDBRANCH  27  28
ENDBRANCH  26  27
ENDBRANCH  25  26
ENDBRANCH  24  25
ENDBRANCH  23  24
ENDBRANCH  22  23
ENDBRANCH  21  22
ENDBRANCH  20  21
ENDBRANCH  19  20
ENDBRANCH  18  19
ENDBRANCH  17  18
ENDBRANCH   1  17
TORSDOF 26
ENDMDL
