MODEL 1
REMARK VINA RESULT:    -4.836      0.000      0.000
REMARK INTER + INTRA:          -8.611
REMARK INTER:                  -7.098
REMARK INTRA:                  -1.513
REMARK UNBOUND:                -1.513
REMARK SMILES O=c1c(O[C@H]2O[C@H](CO)[C@@H](O)[C@@H](O)[C@H]2O)c(-c2ccc(O)c(O)c2)oc2cc(O)cc(O)c12
REMARK SMILES IDX 4 1 3 2 16 3 25 4 2 5 26 6 1 7 33 8 27 9 31 10 28 11 30 12
REMARK SMILES IDX 17 13 18 14 19 15 20 16 24 17 22 18 21 19 23 21 32 23 29 25
REMARK SMILES IDX 5 27 14 28 6 29 12 30 7 31 10 32 15 33 13 35 8 37 9 38 11 40
REMARK H PARENT 21 20 23 22 32 24 29 26 15 34 13 36 9 39 11 41
REMARK Flexibility Score: inf
ROOT
ATOM      1  O   UNL     1       4.130  -2.001  -7.944  1.00  0.00    -0.454 OA
ENDROOT
BRANCH   1   2
ATOM      2  C   UNL     1       2.992  -2.815  -8.112  1.00  0.00     0.214 A 
ATOM      3  C   UNL     1       3.014  -4.106  -7.549  1.00  0.00     0.180 A 
ATOM      4  O   UNL     1       1.956  -4.899  -7.658  1.00  0.00    -0.452 OA
ATOM      5  C   UNL     1       1.829  -2.402  -8.802  1.00  0.00     0.239 A 
ATOM      6  C   UNL     1       0.839  -4.547  -8.278  1.00  0.00     0.146 A 
ATOM      7  O   UNL     1       1.815  -1.293  -9.397  1.00  0.00    -0.285 OA
ATOM      8  C   UNL     1       0.700  -3.255  -8.850  1.00  0.00     0.111 A 
ATOM      9  C   UNL     1      -0.196  -5.480  -8.373  1.00  0.00     0.094 A 
ATOM     10  C   UNL     1      -0.542  -2.916  -9.466  1.00  0.00     0.134 A 
ATOM     11  C   UNL     1      -1.376  -5.164  -9.041  1.00  0.00     0.123 A 
ATOM     12  C   UNL     1      -1.543  -3.886  -9.583  1.00  0.00     0.093 A 
BRANCH   3  13
ATOM     13  C   UNL     1       4.190  -4.616  -6.807  1.00  0.00     0.025 A 
ATOM     14  C   UNL     1       5.160  -5.361  -7.488  1.00  0.00     0.016 A 
ATOM     15  C   UNL     1       6.280  -5.848  -6.811  1.00  0.00     0.051 A 
ATOM     16  C   UNL     1       6.457  -5.593  -5.448  1.00  0.00     0.157 A 
ATOM     17  C   UNL     1       4.377  -4.335  -5.444  1.00  0.00     0.062 A 
ATOM     18  C   UNL     1       5.499  -4.816  -4.758  1.00  0.00     0.158 A 
BRANCH  16  19
ATOM     19  O   UNL     1       7.587  -6.124  -4.824  1.00  0.00    -0.504 OA
ATOM     20  H   UNL     1       8.122  -6.899  -5.192  1.00  0.00     0.293 HD
ENDBRANCH  16  19
BRANCH  18  21
ATOM     21  O   UNL     1       5.623  -4.492  -3.406  1.00  0.00    -0.504 OA
ATOM     22  H   UNL     1       5.140  -3.723  -2.964  1.00  0.00     0.293 HD
ENDBRANCH  18  21
ENDBRANCH   3  13
BRANCH  10  23
ATOM     23  O   UNL     1      -0.847  -1.636  -9.947  1.00  0.00    -0.507 OA
ATOM     24  H   UNL     1      -1.758  -1.204  -9.880  1.00  0.00     0.293 HD
ENDBRANCH  10  23
BRANCH  11  25
ATOM     25  O   UNL     1      -2.377  -6.125  -9.164  1.00  0.00    -0.508 OA
ATOM     26  H   UNL     1      -2.763  -6.373 -10.067  1.00  0.00     0.293 HD
ENDBRANCH  11  25
ENDBRANCH   1   2
BRANCH   1  27
ATOM     27  C   UNL     1       4.262  -0.849  -7.113  1.00  0.00     0.339 C 
ATOM     28  C   UNL     1       5.014   0.261  -7.861  1.00  0.00     0.214 C 
ATOM     29  O   UNL     1       4.869  -1.193  -5.873  1.00  0.00    -0.332 OA
ATOM     30  C   UNL     1       6.465  -0.166  -8.199  1.00  0.00     0.180 C 
ATOM     31  C   UNL     1       6.297  -1.228  -5.867  1.00  0.00     0.179 C 
ATOM     32  C   UNL     1       6.981  -1.279  -7.259  1.00  0.00     0.177 C 
BRANCH  28  33
ATOM     33  O   UNL     1       4.300   0.608  -9.022  1.00  0.00    -0.384 OA
ATOM     34  H   UNL     1       4.958   0.999  -9.655  1.00  0.00     0.211 HD
ENDBRANCH  28  33
BRANCH  30  35
ATOM     35  O   UNL     1       6.567  -0.596  -9.536  1.00  0.00    -0.387 OA
ATOM     36  H   UNL     1       5.755  -0.274 -10.010  1.00  0.00     0.211 HD
ENDBRANCH  30  35
BRANCH  31  37
ATOM     37  C   UNL     1       6.837  -0.069  -5.012  1.00  0.00     0.191 C 
BRANCH  37  38
ATOM     38  O   UNL     1       6.913  -0.447  -3.663  1.00  0.00    -0.394 OA
ATOM     39  H   UNL     1       7.219  -1.393  -3.648  1.00  0.00     0.210 HD
ENDBRANCH  37  38
ENDBRANCH  31  37
BRANCH  32  40
ATOM     40  O   UNL     1       6.758  -2.548  -7.832  1.00  0.00    -0.387 OA
ATOM     41  H   UNL     1       6.243  -2.417  -8.672  1.00  0.00     0.211 HD
ENDBRANCH  32  40
ENDBRANCH   1  27
TORSDOF 12
ENDMDL
MODEL 2
REMARK VINA RESULT:    -4.493      2.931      6.794
REMARK INTER + INTRA:          -8.107
REMARK INTER:                  -6.665
REMARK INTRA:                  -1.442
REMARK UNBOUND:                -1.513
REMARK SMILES O=c1c(O[C@H]2O[C@H](CO)[C@@H](O)[C@@H](O)[C@H]2O)c(-c2ccc(O)c(O)c2)oc2cc(O)cc(O)c12
REMARK SMILES IDX 4 1 3 2 16 3 25 4 2 5 26 6 1 7 33 8 27 9 31 10 28 11 30 12
REMARK SMILES IDX 17 13 18 14 19 15 20 16 24 17 22 18 21 19 23 21 32 23 29 25
REMARK SMILES IDX 5 27 14 28 6 29 12 30 7 31 10 32 15 33 13 35 8 37 9 38 11 40
REMARK H PARENT 21 20 23 22 32 24 29 26 15 34 13 36 9 39 11 41
REMARK Flexibility Score: inf
ROOT
ATOM      1  O   UNL     1       4.517  -0.526  -8.303  1.00  0.00    -0.454 OA
ENDROOT
BRANCH   1   2
ATOM      2  C   UNL     1       4.005   0.757  -8.578  1.00  0.00     0.214 A 
ATOM      3  C   UNL     1       2.652   0.862  -8.955  1.00  0.00     0.180 A 
ATOM      4  O   UNL     1       2.117   2.051  -9.198  1.00  0.00    -0.452 OA
ATOM      5  C   UNL     1       4.771   1.942  -8.486  1.00  0.00     0.239 A 
ATOM      6  C   UNL     1       2.791   3.188  -9.105  1.00  0.00     0.146 A 
ATOM      7  O   UNL     1       6.004   1.873  -8.247  1.00  0.00    -0.285 OA
ATOM      8  C   UNL     1       4.151   3.198  -8.700  1.00  0.00     0.111 A 
ATOM      9  C   UNL     1       2.139   4.380  -9.430  1.00  0.00     0.094 A 
ATOM     10  C   UNL     1       4.814   4.455  -8.574  1.00  0.00     0.134 A 
ATOM     11  C   UNL     1       2.817   5.596  -9.375  1.00  0.00     0.123 A 
ATOM     12  C   UNL     1       4.148   5.627  -8.948  1.00  0.00     0.093 A 
BRANCH   3  13
ATOM     13  C   UNL     1       1.778  -0.328  -9.072  1.00  0.00     0.025 A 
ATOM     14  C   UNL     1       2.098  -1.326 -10.000  1.00  0.00     0.016 A 
ATOM     15  C   UNL     1       1.293  -2.459 -10.125  1.00  0.00     0.051 A 
ATOM     16  C   UNL     1       0.161  -2.623  -9.321  1.00  0.00     0.157 A 
ATOM     17  C   UNL     1       0.657  -0.502  -8.244  1.00  0.00     0.062 A 
ATOM     18  C   UNL     1      -0.154  -1.636  -8.359  1.00  0.00     0.158 A 
BRANCH  16  19
ATOM     19  O   UNL     1      -0.615  -3.768  -9.508  1.00  0.00    -0.504 OA
ATOM     20  H   UNL     1      -1.625  -3.765  -9.544  1.00  0.00     0.293 HD
ENDBRANCH  16  19
BRANCH  18  21
ATOM     21  O   UNL     1      -1.248  -1.745  -7.498  1.00  0.00    -0.504 OA
ATOM     22  H   UNL     1      -1.657  -0.964  -7.006  1.00  0.00     0.293 HD
ENDBRANCH  18  21
ENDBRANCH   3  13
BRANCH  10  23
ATOM     23  O   UNL     1       6.109   4.605  -8.059  1.00  0.00    -0.507 OA
ATOM     24  H   UNL     1       6.423   4.213  -7.182  1.00  0.00     0.293 HD
ENDBRANCH  10  23
BRANCH  11  25
ATOM     25  O   UNL     1       2.161   6.767  -9.747  1.00  0.00    -0.508 OA
ATOM     26  H   UNL     1       2.369   7.233 -10.623  1.00  0.00     0.293 HD
ENDBRANCH  11  25
ENDBRANCH   1   2
BRANCH   1  27
ATOM     27  C   UNL     1       4.680  -1.143  -7.027  1.00  0.00     0.339 C 
ATOM     28  C   UNL     1       6.152  -1.516  -6.802  1.00  0.00     0.214 C 
ATOM     29  O   UNL     1       3.800  -2.252  -6.891  1.00  0.00    -0.332 OA
ATOM     30  C   UNL     1       6.633  -2.572  -7.830  1.00  0.00     0.180 C 
ATOM     31  C   UNL     1       4.268  -3.490  -7.429  1.00  0.00     0.179 C 
ATOM     32  C   UNL     1       5.462  -3.393  -8.417  1.00  0.00     0.177 C 
BRANCH  28  33
ATOM     33  O   UNL     1       6.942  -0.353  -6.857  1.00  0.00    -0.384 OA
ATOM     34  H   UNL     1       7.831  -0.629  -7.205  1.00  0.00     0.211 HD
ENDBRANCH  28  33
BRANCH  30  35
ATOM     35  O   UNL     1       7.353  -1.967  -8.878  1.00  0.00    -0.387 OA
ATOM     36  H   UNL     1       7.005  -2.346  -9.729  1.00  0.00     0.211 HD
ENDBRANCH  30  35
BRANCH  31  37
ATOM     37  C   UNL     1       4.560  -4.473  -6.282  1.00  0.00     0.191 C 
BRANCH  37  38
ATOM     38  O   UNL     1       4.375  -3.847  -5.040  1.00  0.00    -0.394 OA
ATOM     39  H   UNL     1       4.159  -4.565  -4.387  1.00  0.00     0.210 HD
ENDBRANCH  37  38
ENDBRANCH  31  37
BRANCH  32  40
ATOM     40  O   UNL     1       5.012  -2.814  -9.622  1.00  0.00    -0.387 OA
ATOM     41  H   UNL     1       4.450  -2.028  -9.391  1.00  0.00     0.211 HD
ENDBRANCH  32  40
ENDBRANCH   1  27
TORSDOF 12
ENDMDL
MODEL 3
REMARK VINA RESULT:    -4.391      2.044      5.017
REMARK INTER + INTRA:          -7.957
REMARK INTER:                  -7.140
REMARK INTRA:                  -0.817
REMARK UNBOUND:                -1.513
REMARK SMILES O=c1c(O[C@H]2O[C@H](CO)[C@@H](O)[C@@H](O)[C@H]2O)c(-c2ccc(O)c(O)c2)oc2cc(O)cc(O)c12
REMARK SMILES IDX 4 1 3 2 16 3 25 4 2 5 26 6 1 7 33 8 27 9 31 10 28 11 30 12
REMARK SMILES IDX 17 13 18 14 19 15 20 16 24 17 22 18 21 19 23 21 32 23 29 25
REMARK SMILES IDX 5 27 14 28 6 29 12 30 7 31 10 32 15 33 13 35 8 37 9 38 11 40
REMARK H PARENT 21 20 23 22 32 24 29 26 15 34 13 36 9 39 11 41
REMARK Flexibility Score: inf
ROOT
ATOM      1  O   UNL     1       4.450  -1.416  -8.092  1.00  0.00    -0.454 OA
ENDROOT
BRANCH   1   2
ATOM      2  C   UNL     1       3.098  -1.626  -8.427  1.00  0.00     0.214 A 
ATOM      3  C   UNL     1       2.382  -0.551  -8.989  1.00  0.00     0.180 A 
ATOM      4  O   UNL     1       1.114  -0.707  -9.345  1.00  0.00    -0.452 OA
ATOM      5  C   UNL     1       2.427  -2.857  -8.242  1.00  0.00     0.239 A 
ATOM      6  C   UNL     1       0.452  -1.847  -9.208  1.00  0.00     0.146 A 
ATOM      7  O   UNL     1       3.010  -3.804  -7.655  1.00  0.00    -0.285 OA
ATOM      8  C   UNL     1       1.090  -3.002  -8.685  1.00  0.00     0.111 A 
ATOM      9  C   UNL     1      -0.895  -1.886  -9.575  1.00  0.00     0.094 A 
ATOM     10  C   UNL     1       0.341  -4.213  -8.602  1.00  0.00     0.134 A 
ATOM     11  C   UNL     1      -1.638  -3.054  -9.420  1.00  0.00     0.123 A 
ATOM     12  C   UNL     1      -1.017  -4.209  -8.936  1.00  0.00     0.093 A 
BRANCH   3  13
ATOM     13  C   UNL     1       3.009   0.771  -9.221  1.00  0.00     0.025 A 
ATOM     14  C   UNL     1       4.237   0.840  -9.890  1.00  0.00     0.016 A 
ATOM     15  C   UNL     1       4.845   2.074 -10.125  1.00  0.00     0.051 A 
ATOM     16  C   UNL     1       4.236   3.261  -9.707  1.00  0.00     0.157 A 
ATOM     17  C   UNL     1       2.382   1.962  -8.823  1.00  0.00     0.062 A 
ATOM     18  C   UNL     1       2.982   3.205  -9.057  1.00  0.00     0.158 A 
BRANCH  16  19
ATOM     19  O   UNL     1       4.904   4.461  -9.953  1.00  0.00    -0.504 OA
ATOM     20  H   UNL     1       4.494   5.245 -10.443  1.00  0.00     0.293 HD
ENDBRANCH  16  19
BRANCH  18  21
ATOM     21  O   UNL     1       2.297   4.348  -8.640  1.00  0.00    -0.504 OA
ATOM     22  H   UNL     1       1.704   4.901  -9.241  1.00  0.00     0.293 HD
ENDBRANCH  18  21
ENDBRANCH   3  13
BRANCH  10  23
ATOM     23  O   UNL     1       0.893  -5.446  -8.228  1.00  0.00    -0.507 OA
ATOM     24  H   UNL     1       0.851  -5.830  -7.294  1.00  0.00     0.293 HD
ENDBRANCH  10  23
BRANCH  11  25
ATOM     25  O   UNL     1      -2.992  -3.058  -9.749  1.00  0.00    -0.508 OA
ATOM     26  H   UNL     1      -3.346  -2.524 -10.534  1.00  0.00     0.293 HD
ENDBRANCH  11  25
ENDBRANCH   1   2
BRANCH   1  27
ATOM     27  C   UNL     1       4.984  -1.029  -6.826  1.00  0.00     0.339 C 
ATOM     28  C   UNL     1       6.474  -0.685  -6.962  1.00  0.00     0.214 C 
ATOM     29  O   UNL     1       4.733  -2.031  -5.848  1.00  0.00    -0.332 OA
ATOM     30  C   UNL     1       7.304  -1.921  -7.393  1.00  0.00     0.180 C 
ATOM     31  C   UNL     1       5.676  -3.104  -5.798  1.00  0.00     0.179 C 
ATOM     32  C   UNL     1       6.604  -3.251  -7.034  1.00  0.00     0.177 C 
BRANCH  28  33
ATOM     33  O   UNL     1       6.628   0.376  -7.872  1.00  0.00    -0.384 OA
ATOM     34  H   UNL     1       5.869   0.317  -8.511  1.00  0.00     0.211 HD
ENDBRANCH  28  33
BRANCH  30  35
ATOM     35  O   UNL     1       7.573  -1.892  -8.775  1.00  0.00    -0.387 OA
ATOM     36  H   UNL     1       8.375  -2.459  -8.930  1.00  0.00     0.211 HD
ENDBRANCH  30  35
BRANCH  31  37
ATOM     37  C   UNL     1       6.483  -3.018  -4.490  1.00  0.00     0.191 C 
BRANCH  37  38
ATOM     38  O   UNL     1       6.184  -4.106  -3.657  1.00  0.00    -0.394 OA
ATOM     39  H   UNL     1       5.238  -3.996  -3.371  1.00  0.00     0.210 HD
ENDBRANCH  37  38
ENDBRANCH  31  37
BRANCH  32  40
ATOM     40  O   UNL     1       5.841  -3.715  -8.125  1.00  0.00    -0.387 OA
ATOM     41  H   UNL     1       6.471  -4.053  -8.815  1.00  0.00     0.211 HD
ENDBRANCH  32  40
ENDBRANCH   1  27
TORSDOF 12
ENDMDL
MODEL 4
REMARK VINA RESULT:    -4.218      0.959      1.984
REMARK INTER + INTRA:          -7.704
REMARK INTER:                  -6.460
REMARK INTRA:                  -1.244
REMARK UNBOUND:                -1.513
REMARK SMILES O=c1c(O[C@H]2O[C@H](CO)[C@@H](O)[C@@H](O)[C@H]2O)c(-c2ccc(O)c(O)c2)oc2cc(O)cc(O)c12
REMARK SMILES IDX 4 1 3 2 16 3 25 4 2 5 26 6 1 7 33 8 27 9 31 10 28 11 30 12
REMARK SMILES IDX 17 13 18 14 19 15 20 16 24 17 22 18 21 19 23 21 32 23 29 25
REMARK SMILES IDX 5 27 14 28 6 29 12 30 7 31 10 32 15 33 13 35 8 37 9 38 11 40
REMARK H PARENT 21 20 23 22 32 24 29 26 15 34 13 36 9 39 11 41
REMARK Flexibility Score: inf
ROOT
ATOM      1  O   UNL     1       3.937  -1.990  -8.075  1.00  0.00    -0.454 OA
ENDROOT
BRANCH   1   2
ATOM      2  C   UNL     1       2.794  -2.805  -8.188  1.00  0.00     0.214 A 
ATOM      3  C   UNL     1       2.847  -4.098  -7.631  1.00  0.00     0.180 A 
ATOM      4  O   UNL     1       1.787  -4.893  -7.689  1.00  0.00    -0.452 OA
ATOM      5  C   UNL     1       1.597  -2.393  -8.819  1.00  0.00     0.239 A 
ATOM      6  C   UNL     1       0.640  -4.542  -8.252  1.00  0.00     0.146 A 
ATOM      7  O   UNL     1       1.552  -1.283  -9.409  1.00  0.00    -0.285 OA
ATOM      8  C   UNL     1       0.469  -3.249  -8.813  1.00  0.00     0.111 A 
ATOM      9  C   UNL     1      -0.397  -5.477  -8.297  1.00  0.00     0.094 A 
ATOM     10  C   UNL     1      -0.802  -2.911  -9.366  1.00  0.00     0.134 A 
ATOM     11  C   UNL     1      -1.609  -5.162  -8.905  1.00  0.00     0.123 A 
ATOM     12  C   UNL     1      -1.805  -3.883  -9.435  1.00  0.00     0.093 A 
BRANCH   3  13
ATOM     13  C   UNL     1       4.059  -4.607  -6.949  1.00  0.00     0.025 A 
ATOM     14  C   UNL     1       4.935  -5.450  -7.645  1.00  0.00     0.016 A 
ATOM     15  C   UNL     1       6.086  -5.938  -7.025  1.00  0.00     0.051 A 
ATOM     16  C   UNL     1       6.391  -5.588  -5.707  1.00  0.00     0.157 A 
ATOM     17  C   UNL     1       4.375  -4.232  -5.634  1.00  0.00     0.062 A 
ATOM     18  C   UNL     1       5.530  -4.713  -5.006  1.00  0.00     0.158 A 
BRANCH  16  19
ATOM     19  O   UNL     1       7.546  -6.125  -5.137  1.00  0.00    -0.504 OA
ATOM     20  H   UNL     1       8.470  -6.026  -5.536  1.00  0.00     0.293 HD
ENDBRANCH  16  19
BRANCH  18  21
ATOM     21  O   UNL     1       5.784  -4.292  -3.699  1.00  0.00    -0.504 OA
ATOM     22  H   UNL     1       6.658  -3.886  -3.397  1.00  0.00     0.293 HD
ENDBRANCH  18  21
ENDBRANCH   3  13
BRANCH  10  23
ATOM     23  O   UNL     1      -1.134  -1.630  -9.828  1.00  0.00    -0.507 OA
ATOM     24  H   UNL     1      -2.043  -1.203  -9.719  1.00  0.00     0.293 HD
ENDBRANCH  10  23
BRANCH  11  25
ATOM     25  O   UNL     1      -2.613  -6.125  -8.981  1.00  0.00    -0.508 OA
ATOM     26  H   UNL     1      -3.464  -5.960  -9.504  1.00  0.00     0.293 HD
ENDBRANCH  11  25
ENDBRANCH   1   2
BRANCH   1  27
ATOM     27  C   UNL     1       4.525  -1.168  -9.083  1.00  0.00     0.339 C 
ATOM     28  C   UNL     1       5.982  -1.587  -9.325  1.00  0.00     0.214 C 
ATOM     29  O   UNL     1       4.391   0.208  -8.750  1.00  0.00    -0.332 OA
ATOM     30  C   UNL     1       6.853  -1.367  -8.062  1.00  0.00     0.180 C 
ATOM     31  C   UNL     1       5.395   0.740  -7.883  1.00  0.00     0.179 C 
ATOM     32  C   UNL     1       6.252  -0.302  -7.116  1.00  0.00     0.177 C 
BRANCH  28  33
ATOM     33  O   UNL     1       6.019  -2.930  -9.743  1.00  0.00    -0.384 OA
ATOM     34  H   UNL     1       5.429  -2.998 -10.539  1.00  0.00     0.211 HD
ENDBRANCH  28  33
BRANCH  30  35
ATOM     35  O   UNL     1       7.034  -2.572  -7.356  1.00  0.00    -0.387 OA
ATOM     36  H   UNL     1       6.137  -2.866  -7.043  1.00  0.00     0.211 HD
ENDBRANCH  30  35
BRANCH  31  37
ATOM     37  C   UNL     1       6.274   1.733  -8.663  1.00  0.00     0.191 C 
BRANCH  37  38
ATOM     38  O   UNL     1       5.622   2.154  -9.831  1.00  0.00    -0.394 OA
ATOM     39  H   UNL     1       4.925   2.805  -9.551  1.00  0.00     0.210 HD
ENDBRANCH  37  38
ENDBRANCH  31  37
BRANCH  32  40
ATOM     40  O   UNL     1       5.450  -0.917  -6.131  1.00  0.00    -0.387 OA
ATOM     41  H   UNL     1       5.751  -1.860  -6.039  1.00  0.00     0.211 HD
ENDBRANCH  32  40
ENDBRANCH   1  27
TORSDOF 12
ENDMDL
MODEL 5
REMARK VINA RESULT:    -4.191      2.128      7.062
REMARK INTER + INTRA:          -7.663
REMARK INTER:                  -6.244
REMARK INTRA:                  -1.419
REMARK UNBOUND:                -1.513
REMARK SMILES O=c1c(O[C@H]2O[C@H](CO)[C@@H](O)[C@@H](O)[C@H]2O)c(-c2ccc(O)c(O)c2)oc2cc(O)cc(O)c12
REMARK SMILES IDX 4 1 3 2 16 3 25 4 2 5 26 6 1 7 33 8 27 9 31 10 28 11 30 12
REMARK SMILES IDX 17 13 18 14 19 15 20 16 24 17 22 18 21 19 23 21 32 23 29 25
REMARK SMILES IDX 5 27 14 28 6 29 12 30 7 31 10 32 15 33 13 35 8 37 9 38 11 40
REMARK H PARENT 21 20 23 22 32 24 29 26 15 34 13 36 9 39 11 41
REMARK Flexibility Score: inf
ROOT
ATOM      1  O   UNL     1       4.969  -2.169  -6.421  1.00  0.00    -0.454 OA
ENDROOT
BRANCH   1   2
ATOM      2  C   UNL     1       5.154  -0.875  -6.946  1.00  0.00     0.214 A 
ATOM      3  C   UNL     1       4.242  -0.421  -7.920  1.00  0.00     0.180 A 
ATOM      4  O   UNL     1       4.359   0.800  -8.425  1.00  0.00    -0.452 OA
ATOM      5  C   UNL     1       6.193  -0.007  -6.541  1.00  0.00     0.239 A 
ATOM      6  C   UNL     1       5.306   1.654  -8.061  1.00  0.00     0.146 A 
ATOM      7  O   UNL     1       7.077  -0.418  -5.747  1.00  0.00    -0.285 OA
ATOM      8  C   UNL     1       6.253   1.309  -7.063  1.00  0.00     0.111 A 
ATOM      9  C   UNL     1       5.362   2.899  -8.692  1.00  0.00     0.094 A 
ATOM     10  C   UNL     1       7.222   2.284  -6.679  1.00  0.00     0.134 A 
ATOM     11  C   UNL     1       6.357   3.815  -8.364  1.00  0.00     0.123 A 
ATOM     12  C   UNL     1       7.280   3.504  -7.360  1.00  0.00     0.093 A 
BRANCH   3  13
ATOM     13  C   UNL     1       3.122  -1.264  -8.397  1.00  0.00     0.025 A 
ATOM     14  C   UNL     1       3.381  -2.301  -9.301  1.00  0.00     0.016 A 
ATOM     15  C   UNL     1       2.342  -3.112  -9.761  1.00  0.00     0.051 A 
ATOM     16  C   UNL     1       1.030  -2.911  -9.321  1.00  0.00     0.157 A 
ATOM     17  C   UNL     1       1.810  -1.075  -7.933  1.00  0.00     0.062 A 
ATOM     18  C   UNL     1       0.763  -1.886  -8.385  1.00  0.00     0.158 A 
BRANCH  16  19
ATOM     19  O   UNL     1       0.034  -3.742  -9.834  1.00  0.00    -0.504 OA
ATOM     20  H   UNL     1      -0.919  -3.756  -9.495  1.00  0.00     0.293 HD
ENDBRANCH  16  19
BRANCH  18  21
ATOM     21  O   UNL     1      -0.514  -1.646  -7.875  1.00  0.00    -0.504 OA
ATOM     22  H   UNL     1      -0.860  -0.729  -7.632  1.00  0.00     0.293 HD
ENDBRANCH  18  21
ENDBRANCH   3  13
BRANCH  10  23
ATOM     23  O   UNL     1       8.123   2.112  -5.619  1.00  0.00    -0.507 OA
ATOM     24  H   UNL     1       9.025   2.563  -5.558  1.00  0.00     0.293 HD
ENDBRANCH  10  23
BRANCH  11  25
ATOM     25  O   UNL     1       6.423   5.033  -9.038  1.00  0.00    -0.508 OA
ATOM     26  H   UNL     1       5.637   5.385  -9.570  1.00  0.00     0.293 HD
ENDBRANCH  11  25
ENDBRANCH   1   2
BRANCH   1  27
ATOM     27  C   UNL     1       5.433  -3.404  -6.965  1.00  0.00     0.339 C 
ATOM     28  C   UNL     1       4.801  -4.584  -6.213  1.00  0.00     0.214 C 
ATOM     29  O   UNL     1       6.854  -3.447  -6.971  1.00  0.00    -0.332 OA
ATOM     30  C   UNL     1       5.235  -4.606  -4.724  1.00  0.00     0.180 C 
ATOM     31  C   UNL     1       7.471  -3.874  -5.755  1.00  0.00     0.179 C 
ATOM     32  C   UNL     1       6.567  -3.857  -4.493  1.00  0.00     0.177 C 
BRANCH  28  33
ATOM     33  O   UNL     1       3.402  -4.522  -6.335  1.00  0.00    -0.384 OA
ATOM     34  H   UNL     1       3.160  -5.067  -7.130  1.00  0.00     0.211 HD
ENDBRANCH  28  33
BRANCH  30  35
ATOM     35  O   UNL     1       4.237  -4.053  -3.899  1.00  0.00    -0.387 OA
ATOM     36  H   UNL     1       4.370  -4.428  -2.987  1.00  0.00     0.211 HD
ENDBRANCH  30  35
BRANCH  31  37
ATOM     37  C   UNL     1       8.125  -5.250  -5.965  1.00  0.00     0.191 C 
BRANCH  37  38
ATOM     38  O   UNL     1       8.023  -5.642  -7.308  1.00  0.00    -0.394 OA
ATOM     39  H   UNL     1       8.323  -6.589  -7.354  1.00  0.00     0.210 HD
ENDBRANCH  37  38
ENDBRANCH  31  37
BRANCH  32  40
ATOM     40  O   UNL     1       6.320  -2.518  -4.125  1.00  0.00    -0.387 OA
ATOM     41  H   UNL     1       6.322  -1.969  -4.954  1.00  0.00     0.211 HD
ENDBRANCH  32  40
ENDBRANCH   1  27
TORSDOF 12
ENDMDL
MODEL 6
REMARK VINA RESULT:    -4.174      3.097      6.765
REMARK INTER + INTRA:          -7.639
REMARK INTER:                  -7.013
REMARK INTRA:                  -0.627
REMARK UNBOUND:                -1.513
REMARK SMILES O=c1c(O[C@H]2O[C@H](CO)[C@@H](O)[C@@H](O)[C@H]2O)c(-c2ccc(O)c(O)c2)oc2cc(O)cc(O)c12
REMARK SMILES IDX 4 1 3 2 16 3 25 4 2 5 26 6 1 7 33 8 27 9 31 10 28 11 30 12
REMARK SMILES IDX 17 13 18 14 19 15 20 16 24 17 22 18 21 19 23 21 32 23 29 25
REMARK SMILES IDX 5 27 14 28 6 29 12 30 7 31 10 32 15 33 13 35 8 37 9 38 11 40
REMARK H PARENT 21 20 23 22 32 24 29 26 15 34 13 36 9 39 11 41
REMARK Flexibility Score: inf
ROOT
ATOM      1  O   UNL     1       4.753  -0.058  -8.360  1.00  0.00    -0.454 OA
ENDROOT
BRANCH   1   2
ATOM      2  C   UNL     1       4.115   1.167  -8.637  1.00  0.00     0.214 A 
ATOM      3  C   UNL     1       2.754   1.136  -9.000  1.00  0.00     0.180 A 
ATOM      4  O   UNL     1       2.103   2.265  -9.245  1.00  0.00    -0.452 OA
ATOM      5  C   UNL     1       4.762   2.422  -8.559  1.00  0.00     0.239 A 
ATOM      6  C   UNL     1       2.664   3.464  -9.165  1.00  0.00     0.146 A 
ATOM      7  O   UNL     1       5.998   2.475  -8.333  1.00  0.00    -0.285 OA
ATOM      8  C   UNL     1       4.020   3.609  -8.774  1.00  0.00     0.111 A 
ATOM      9  C   UNL     1       1.895   4.584  -9.489  1.00  0.00     0.094 A 
ATOM     10  C   UNL     1       4.558   4.926  -8.662  1.00  0.00     0.134 A 
ATOM     11  C   UNL     1       2.451   5.860  -9.449  1.00  0.00     0.123 A 
ATOM     12  C   UNL     1       3.777   6.025  -9.036  1.00  0.00     0.093 A 
BRANCH   3  13
ATOM     13  C   UNL     1       2.000  -0.135  -9.101  1.00  0.00     0.025 A 
ATOM     14  C   UNL     1       2.418  -1.110 -10.015  1.00  0.00     0.016 A 
ATOM     15  C   UNL     1       1.726  -2.317 -10.125  1.00  0.00     0.051 A 
ATOM     16  C   UNL     1       0.614  -2.579  -9.320  1.00  0.00     0.157 A 
ATOM     17  C   UNL     1       0.899  -0.404  -8.272  1.00  0.00     0.062 A 
ATOM     18  C   UNL     1       0.202  -1.614  -8.372  1.00  0.00     0.158 A 
BRANCH  16  19
ATOM     19  O   UNL     1      -0.047  -3.796  -9.492  1.00  0.00    -0.504 OA
ATOM     20  H   UNL     1       0.020  -4.570  -8.845  1.00  0.00     0.293 HD
ENDBRANCH  16  19
BRANCH  18  21
ATOM     21  O   UNL     1      -0.878  -1.815  -7.512  1.00  0.00    -0.504 OA
ATOM     22  H   UNL     1      -1.782  -2.152  -7.811  1.00  0.00     0.293 HD
ENDBRANCH  18  21
ENDBRANCH   3  13
BRANCH  10  23
ATOM     23  O   UNL     1       5.837   5.205  -8.162  1.00  0.00    -0.507 OA
ATOM     24  H   UNL     1       6.496   4.502  -7.856  1.00  0.00     0.293 HD
ENDBRANCH  10  23
BRANCH  11  25
ATOM     25  O   UNL     1       1.680   6.960  -9.821  1.00  0.00    -0.508 OA
ATOM     26  H   UNL     1       1.955   7.904  -9.577  1.00  0.00     0.293 HD
ENDBRANCH  11  25
ENDBRANCH   1   2
BRANCH   1  27
ATOM     27  C   UNL     1       6.044  -0.258  -7.786  1.00  0.00     0.339 C 
ATOM     28  C   UNL     1       6.625  -1.604  -8.242  1.00  0.00     0.214 C 
ATOM     29  O   UNL     1       5.988  -0.129  -6.370  1.00  0.00    -0.332 OA
ATOM     30  C   UNL     1       5.766  -2.792  -7.737  1.00  0.00     0.180 C 
ATOM     31  C   UNL     1       5.605  -1.303  -5.651  1.00  0.00     0.179 C 
ATOM     32  C   UNL     1       4.932  -2.423  -6.489  1.00  0.00     0.177 C 
BRANCH  28  33
ATOM     33  O   UNL     1       6.736  -1.614  -9.644  1.00  0.00    -0.384 OA
ATOM     34  H   UNL     1       6.939  -2.550  -9.907  1.00  0.00     0.211 HD
ENDBRANCH  28  33
BRANCH  30  35
ATOM     35  O   UNL     1       4.909  -3.263  -8.751  1.00  0.00    -0.387 OA
ATOM     36  H   UNL     1       4.364  -3.996  -8.357  1.00  0.00     0.211 HD
ENDBRANCH  30  35
BRANCH  31  37
ATOM     37  C   UNL     1       6.810  -1.835  -4.856  1.00  0.00     0.191 C 
BRANCH  37  38
ATOM     38  O   UNL     1       6.440  -2.953  -4.094  1.00  0.00    -0.394 OA
ATOM     39  H   UNL     1       7.069  -2.997  -3.326  1.00  0.00     0.210 HD
ENDBRANCH  37  38
ENDBRANCH  31  37
BRANCH  32  40
ATOM     40  O   UNL     1       3.642  -1.998  -6.869  1.00  0.00    -0.387 OA
ATOM     41  H   UNL     1       3.744  -1.197  -7.449  1.00  0.00     0.211 HD
ENDBRANCH  32  40
ENDBRANCH   1  27
TORSDOF 12
ENDMDL
MODEL 7
REMARK VINA RESULT:    -4.138      2.237      7.012
REMARK INTER + INTRA:          -7.587
REMARK INTER:                  -6.799
REMARK INTRA:                  -0.787
REMARK UNBOUND:                -1.513
REMARK SMILES O=c1c(O[C@H]2O[C@H](CO)[C@@H](O)[C@@H](O)[C@H]2O)c(-c2ccc(O)c(O)c2)oc2cc(O)cc(O)c12
REMARK SMILES IDX 4 1 3 2 16 3 25 4 2 5 26 6 1 7 33 8 27 9 31 10 28 11 30 12
REMARK SMILES IDX 17 13 18 14 19 15 20 16 24 17 22 18 21 19 23 21 32 23 29 25
REMARK SMILES IDX 5 27 14 28 6 29 12 30 7 31 10 32 15 33 13 35 8 37 9 38 11 40
REMARK H PARENT 21 20 23 22 32 24 29 26 15 34 13 36 9 39 11 41
REMARK Flexibility Score: inf
ROOT
ATOM      1  O   UNL     1       5.160  -1.740  -6.274  1.00  0.00    -0.454 OA
ENDROOT
BRANCH   1   2
ATOM      2  C   UNL     1       5.332  -0.479  -6.877  1.00  0.00     0.214 A 
ATOM      3  C   UNL     1       4.461  -0.125  -7.927  1.00  0.00     0.180 A 
ATOM      4  O   UNL     1       4.566   1.062  -8.509  1.00  0.00    -0.452 OA
ATOM      5  C   UNL     1       6.319   0.451  -6.480  1.00  0.00     0.239 A 
ATOM      6  C   UNL     1       5.463   1.972  -8.156  1.00  0.00     0.146 A 
ATOM      7  O   UNL     1       7.171   0.127  -5.613  1.00  0.00    -0.285 OA
ATOM      8  C   UNL     1       6.365   1.730  -7.088  1.00  0.00     0.111 A 
ATOM      9  C   UNL     1       5.514   3.172  -8.869  1.00  0.00     0.094 A 
ATOM     10  C   UNL     1       7.279   2.763  -6.723  1.00  0.00     0.134 A 
ATOM     11  C   UNL     1       6.459   4.144  -8.553  1.00  0.00     0.123 A 
ATOM     12  C   UNL     1       7.335   3.935  -7.483  1.00  0.00     0.093 A 
BRANCH   3  13
ATOM     13  C   UNL     1       3.397  -1.039  -8.402  1.00  0.00     0.025 A 
ATOM     14  C   UNL     1       3.722  -2.065  -9.297  1.00  0.00     0.016 A 
ATOM     15  C   UNL     1       2.738  -2.942  -9.755  1.00  0.00     0.051 A 
ATOM     16  C   UNL     1       1.414  -2.818  -9.323  1.00  0.00     0.157 A 
ATOM     17  C   UNL     1       2.073  -0.927  -7.945  1.00  0.00     0.062 A 
ATOM     18  C   UNL     1       1.080  -1.804  -8.396  1.00  0.00     0.158 A 
BRANCH  16  19
ATOM     19  O   UNL     1       0.472  -3.712  -9.833  1.00  0.00    -0.504 OA
ATOM     20  H   UNL     1       0.009  -4.420  -9.280  1.00  0.00     0.293 HD
ENDBRANCH  16  19
BRANCH  18  21
ATOM     21  O   UNL     1      -0.212  -1.637  -7.894  1.00  0.00    -0.504 OA
ATOM     22  H   UNL     1      -0.658  -2.285  -7.260  1.00  0.00     0.293 HD
ENDBRANCH  18  21
ENDBRANCH   3  13
BRANCH  10  23
ATOM     23  O   UNL     1       8.125   2.696  -5.608  1.00  0.00    -0.507 OA
ATOM     24  H   UNL     1       7.894   2.225  -4.744  1.00  0.00     0.293 HD
ENDBRANCH  10  23
BRANCH  11  25
ATOM     25  O   UNL     1       6.523   5.314  -9.307  1.00  0.00    -0.508 OA
ATOM     26  H   UNL     1       7.043   6.122  -8.984  1.00  0.00     0.293 HD
ENDBRANCH  11  25
ENDBRANCH   1   2
BRANCH   1  27
ATOM     27  C   UNL     1       6.025  -2.384  -5.339  1.00  0.00     0.339 C 
ATOM     28  C   UNL     1       6.915  -3.408  -6.059  1.00  0.00     0.214 C 
ATOM     29  O   UNL     1       5.277  -2.952  -4.272  1.00  0.00    -0.332 OA
ATOM     30  C   UNL     1       6.073  -4.549  -6.686  1.00  0.00     0.180 C 
ATOM     31  C   UNL     1       4.741  -4.256  -4.510  1.00  0.00     0.179 C 
ATOM     32  C   UNL     1       4.701  -4.713  -5.992  1.00  0.00     0.177 C 
BRANCH  28  33
ATOM     33  O   UNL     1       7.690  -2.752  -7.032  1.00  0.00    -0.384 OA
ATOM     34  H   UNL     1       7.070  -2.487  -7.760  1.00  0.00     0.211 HD
ENDBRANCH  28  33
BRANCH  30  35
ATOM     35  O   UNL     1       5.878  -4.334  -8.064  1.00  0.00    -0.387 OA
ATOM     36  H   UNL     1       4.898  -4.368  -8.231  1.00  0.00     0.211 HD
ENDBRANCH  30  35
BRANCH  31  37
ATOM     37  C   UNL     1       5.467  -5.280  -3.620  1.00  0.00     0.191 C 
BRANCH  37  38
ATOM     38  O   UNL     1       6.421  -4.642  -2.813  1.00  0.00    -0.394 OA
ATOM     39  H   UNL     1       7.075  -5.339  -2.538  1.00  0.00     0.210 HD
ENDBRANCH  37  38
ENDBRANCH  31  37
BRANCH  32  40
ATOM     40  O   UNL     1       3.714  -3.970  -6.673  1.00  0.00    -0.387 OA
ATOM     41  H   UNL     1       2.994  -4.599  -6.945  1.00  0.00     0.211 HD
ENDBRANCH  32  40
ENDBRANCH   1  27
TORSDOF 12
ENDMDL
MODEL 8
REMARK VINA RESULT:    -4.059      1.755      4.525
REMARK INTER + INTRA:          -7.470
REMARK INTER:                  -5.840
REMARK INTRA:                  -1.630
REMARK UNBOUND:                -1.513
REMARK SMILES O=c1c(O[C@H]2O[C@H](CO)[C@@H](O)[C@@H](O)[C@H]2O)c(-c2ccc(O)c(O)c2)oc2cc(O)cc(O)c12
REMARK SMILES IDX 4 1 3 2 16 3 25 4 2 5 26 6 1 7 33 8 27 9 31 10 28 11 30 12
REMARK SMILES IDX 17 13 18 14 19 15 20 16 24 17 22 18 21 19 23 21 32 23 29 25
REMARK SMILES IDX 5 27 14 28 6 29 12 30 7 31 10 32 15 33 13 35 8 37 9 38 11 40
REMARK H PARENT 21 20 23 22 32 24 29 26 15 34 13 36 9 39 11 41
REMARK Flexibility Score: inf
ROOT
ATOM      1  O   UNL     1       4.551  -3.514  -7.676  1.00  0.00    -0.454 OA
ENDROOT
BRANCH   1   2
ATOM      2  C   UNL     1       3.260  -3.129  -8.084  1.00  0.00     0.214 A 
ATOM      3  C   UNL     1       3.086  -1.821  -8.577  1.00  0.00     0.180 A 
ATOM      4  O   UNL     1       1.893  -1.420  -8.998  1.00  0.00    -0.452 OA
ATOM      5  C   UNL     1       2.135  -3.985  -8.037  1.00  0.00     0.239 A 
ATOM      6  C   UNL     1       0.817  -2.194  -8.991  1.00  0.00     0.146 A 
ATOM      7  O   UNL     1       2.238  -5.124  -7.513  1.00  0.00    -0.285 OA
ATOM      8  C   UNL     1       0.891  -3.539  -8.546  1.00  0.00     0.111 A 
ATOM      9  C   UNL     1      -0.399  -1.652  -9.415  1.00  0.00     0.094 A 
ATOM     10  C   UNL     1      -0.289  -4.339  -8.602  1.00  0.00     0.134 A 
ATOM     11  C   UNL     1      -1.560  -2.419  -9.395  1.00  0.00     0.123 A 
ATOM     12  C   UNL     1      -1.500  -3.756  -8.991  1.00  0.00     0.093 A 
BRANCH   3  13
ATOM     13  C   UNL     1       4.210  -0.861  -8.664  1.00  0.00     0.025 A 
ATOM     14  C   UNL     1       4.825  -0.635  -9.902  1.00  0.00     0.016 A 
ATOM     15  C   UNL     1       5.883   0.269 -10.010  1.00  0.00     0.051 A 
ATOM     16  C   UNL     1       6.341   0.970  -8.890  1.00  0.00     0.157 A 
ATOM     17  C   UNL     1       4.650  -0.140  -7.543  1.00  0.00     0.062 A 
ATOM     18  C   UNL     1       5.708   0.771  -7.642  1.00  0.00     0.158 A 
BRANCH  16  19
ATOM     19  O   UNL     1       7.416   1.843  -9.060  1.00  0.00    -0.504 OA
ATOM     20  H   UNL     1       7.948   1.924  -9.916  1.00  0.00     0.293 HD
ENDBRANCH  16  19
BRANCH  18  21
ATOM     21  O   UNL     1       6.087   1.457  -6.487  1.00  0.00    -0.504 OA
ATOM     22  H   UNL     1       5.904   1.128  -5.550  1.00  0.00     0.293 HD
ENDBRANCH  18  21
ENDBRANCH   3  13
BRANCH  10  23
ATOM     23  O   UNL     1      -0.315  -5.711  -8.317  1.00  0.00    -0.507 OA
ATOM     24  H   UNL     1      -1.140  -6.290  -8.377  1.00  0.00     0.293 HD
ENDBRANCH  10  23
BRANCH  11  25
ATOM     25  O   UNL     1      -2.771  -1.846  -9.779  1.00  0.00    -0.508 OA
ATOM     26  H   UNL     1      -3.085  -0.965  -9.389  1.00  0.00     0.293 HD
ENDBRANCH  11  25
ENDBRANCH   1   2
BRANCH   1  27
ATOM     27  C   UNL     1       5.126  -3.394  -6.375  1.00  0.00     0.339 C 
ATOM     28  C   UNL     1       6.654  -3.523  -6.457  1.00  0.00     0.214 C 
ATOM     29  O   UNL     1       4.538  -4.329  -5.479  1.00  0.00    -0.332 OA
ATOM     30  C   UNL     1       7.078  -4.926  -6.961  1.00  0.00     0.180 C 
ATOM     31  C   UNL     1       5.100  -5.642  -5.488  1.00  0.00     0.179 C 
ATOM     32  C   UNL     1       5.986  -5.992  -6.714  1.00  0.00     0.177 C 
BRANCH  28  33
ATOM     33  O   UNL     1       7.166  -2.507  -7.284  1.00  0.00    -0.384 OA
ATOM     34  H   UNL     1       6.383  -2.035  -7.672  1.00  0.00     0.211 HD
ENDBRANCH  28  33
BRANCH  30  35
ATOM     35  O   UNL     1       7.399  -4.895  -8.332  1.00  0.00    -0.387 OA
ATOM     36  H   UNL     1       7.768  -5.788  -8.568  1.00  0.00     0.211 HD
ENDBRANCH  30  35
BRANCH  31  37
ATOM     37  C   UNL     1       5.839  -5.895  -4.163  1.00  0.00     0.191 C 
BRANCH  37  38
ATOM     38  O   UNL     1       5.300  -5.101  -3.141  1.00  0.00    -0.394 OA
ATOM     39  H   UNL     1       4.995  -4.255  -3.566  1.00  0.00     0.210 HD
ENDBRANCH  37  38
ENDBRANCH  31  37
BRANCH  32  40
ATOM     40  O   UNL     1       5.163  -6.125  -7.851  1.00  0.00    -0.387 OA
ATOM     41  H   UNL     1       4.487  -5.397  -7.824  1.00  0.00     0.211 HD
ENDBRANCH  32  40
ENDBRANCH   1  27
TORSDOF 12
ENDMDL
MODEL 9
REMARK VINA RESULT:    -3.798      1.434      2.461
REMARK INTER + INTRA:          -7.086
REMARK INTER:                  -5.929
REMARK INTRA:                  -1.158
REMARK UNBOUND:                -1.513
REMARK SMILES O=c1c(O[C@H]2O[C@H](CO)[C@@H](O)[C@@H](O)[C@H]2O)c(-c2ccc(O)c(O)c2)oc2cc(O)cc(O)c12
REMARK SMILES IDX 4 1 3 2 16 3 25 4 2 5 26 6 1 7 33 8 27 9 31 10 28 11 30 12
REMARK SMILES IDX 17 13 18 14 19 15 20 16 24 17 22 18 21 19 23 21 32 23 29 25
REMARK SMILES IDX 5 27 14 28 6 29 12 30 7 31 10 32 15 33 13 35 8 37 9 38 11 40
REMARK H PARENT 21 20 23 22 32 24 29 26 15 34 13 36 9 39 11 41
REMARK Flexibility Score: inf
ROOT
ATOM      1  O   UNL     1       4.897  -1.569  -6.943  1.00  0.00    -0.454 OA
ENDROOT
BRANCH   1   2
ATOM      2  C   UNL     1       3.879  -2.410  -7.432  1.00  0.00     0.214 A 
ATOM      3  C   UNL     1       3.871  -3.754  -7.007  1.00  0.00     0.180 A 
ATOM      4  O   UNL     1       2.918  -4.579  -7.420  1.00  0.00    -0.452 OA
ATOM      5  C   UNL     1       2.860  -1.978  -8.313  1.00  0.00     0.239 A 
ATOM      6  C   UNL     1       1.934  -4.212  -8.229  1.00  0.00     0.146 A 
ATOM      7  O   UNL     1       2.895  -0.813  -8.785  1.00  0.00    -0.285 OA
ATOM      8  C   UNL     1       1.829  -2.873  -8.688  1.00  0.00     0.111 A 
ATOM      9  C   UNL     1       1.009  -5.176  -8.636  1.00  0.00     0.094 A 
ATOM     10  C   UNL     1       0.724  -2.526  -9.521  1.00  0.00     0.134 A 
ATOM     11  C   UNL     1      -0.023  -4.843  -9.509  1.00  0.00     0.123 A 
ATOM     12  C   UNL     1      -0.161  -3.522  -9.946  1.00  0.00     0.093 A 
BRANCH   3  13
ATOM     13  C   UNL     1       4.897  -4.288  -6.082  1.00  0.00     0.025 A 
ATOM     14  C   UNL     1       4.709  -4.160  -4.701  1.00  0.00     0.016 A 
ATOM     15  C   UNL     1       5.660  -4.660  -3.810  1.00  0.00     0.051 A 
ATOM     16  C   UNL     1       6.809  -5.304  -4.278  1.00  0.00     0.157 A 
ATOM     17  C   UNL     1       6.037  -4.957  -6.557  1.00  0.00     0.062 A 
ATOM     18  C   UNL     1       6.994  -5.465  -5.670  1.00  0.00     0.158 A 
BRANCH  16  19
ATOM     19  O   UNL     1       7.731  -5.764  -3.337  1.00  0.00    -0.504 OA
ATOM     20  H   UNL     1       8.454  -5.187  -2.928  1.00  0.00     0.293 HD
ENDBRANCH  16  19
BRANCH  18  21
ATOM     21  O   UNL     1       8.098  -6.125  -6.213  1.00  0.00    -0.504 OA
ATOM     22  H   UNL     1       8.897  -6.424  -5.673  1.00  0.00     0.293 HD
ENDBRANCH  18  21
ENDBRANCH   3  13
BRANCH  10  23
ATOM     23  O   UNL     1       0.438  -1.216  -9.929  1.00  0.00    -0.507 OA
ATOM     24  H   UNL     1       1.045  -0.423  -9.769  1.00  0.00     0.293 HD
ENDBRANCH  10  23
BRANCH  11  25
ATOM     25  O   UNL     1      -0.908  -5.830  -9.939  1.00  0.00    -0.508 OA
ATOM     26  H   UNL     1      -1.865  -5.609 -10.188  1.00  0.00     0.293 HD
ENDBRANCH  11  25
ENDBRANCH   1   2
BRANCH   1  27
ATOM     27  C   UNL     1       5.741  -0.697  -7.693  1.00  0.00     0.339 C 
ATOM     28  C   UNL     1       7.213  -1.094  -7.506  1.00  0.00     0.214 C 
ATOM     29  O   UNL     1       5.486   0.661  -7.357  1.00  0.00    -0.332 OA
ATOM     30  C   UNL     1       7.662  -0.926  -6.031  1.00  0.00     0.180 C 
ATOM     31  C   UNL     1       6.173   1.160  -6.208  1.00  0.00     0.179 C 
ATOM     32  C   UNL     1       6.783   0.089  -5.264  1.00  0.00     0.177 C 
BRANCH  28  33
ATOM     33  O   UNL     1       7.401  -2.415  -7.949  1.00  0.00    -0.384 OA
ATOM     34  H   UNL     1       7.828  -2.357  -8.844  1.00  0.00     0.211 HD
ENDBRANCH  28  33
BRANCH  30  35
ATOM     35  O   UNL     1       7.649  -2.161  -5.355  1.00  0.00    -0.387 OA
ATOM     36  H   UNL     1       7.631  -2.874  -6.048  1.00  0.00     0.211 HD
ENDBRANCH  30  35
BRANCH  31  37
ATOM     37  C   UNL     1       7.224   2.194  -6.646  1.00  0.00     0.191 C 
BRANCH  37  38
ATOM     38  O   UNL     1       6.788   2.884  -7.787  1.00  0.00    -0.394 OA
ATOM     39  H   UNL     1       5.826   3.090  -7.647  1.00  0.00     0.210 HD
ENDBRANCH  37  38
ENDBRANCH  31  37
BRANCH  32  40
ATOM     40  O   UNL     1       5.737  -0.577  -4.592  1.00  0.00    -0.387 OA
ATOM     41  H   UNL     1       5.758  -1.532  -4.866  1.00  0.00     0.211 HD
ENDBRANCH  32  40
ENDBRANCH   1  27
TORSDOF 12
ENDMDL
