MODEL 1
REMARK VINA RESULT:     8.114      0.000      0.000
REMARK INTER + INTRA:          18.500
REMARK INTER:                  20.447
REMARK INTRA:                  -1.947
REMARK UNBOUND:                -1.947
REMARK SMILES CCCCCCCCCCCCCCCCCCCCCCCCCCCC(=O)[O-]
REMARK SMILES IDX 15 1 16 2 17 3 18 4 19 5 20 6 21 7 22 8 23 9 24 10 25 11
REMARK SMILES IDX 26 12 27 13 28 14 29 15 30 16 14 17 13 18 12 19 11 20 10 21
REMARK SMILES IDX 9 22 8 23 7 24 6 25 5 26 4 27 3 28 2 29 1 30
REMARK H PARENT
REMARK Flexibility Score: inf
ROOT
ATOM      1  C   UNL     1     -31.065  -0.202 -27.071  1.00  0.00     0.000 C 
ENDROOT
BRANCH   1   2
ATOM      2  C   UNL     1     -32.124   0.844 -27.453  1.00  0.00     0.000 C 
BRANCH   2   3
ATOM      3  C   UNL     1     -31.979   1.325 -28.905  1.00  0.00     0.000 C 
BRANCH   3   4
ATOM      4  C   UNL     1     -32.114   2.850 -28.994  1.00  0.00     0.000 C 
BRANCH   4   5
ATOM      5  C   UNL     1     -30.735   3.526 -28.985  1.00  0.00     0.000 C 
BRANCH   5   6
ATOM      6  C   UNL     1     -30.650   4.691 -27.985  1.00  0.00     0.000 C 
BRANCH   6   7
ATOM      7  C   UNL     1     -30.594   4.216 -26.525  1.00  0.00     0.000 C 
BRANCH   7   8
ATOM      8  C   UNL     1     -31.981   4.287 -25.871  1.00  0.00     0.000 C 
BRANCH   8   9
ATOM      9  C   UNL     1     -32.106   3.390 -24.625  1.00  0.00     0.000 C 
BRANCH   9  10
ATOM     10  C   UNL     1     -31.138   2.193 -24.587  1.00  0.00     0.000 C 
BRANCH  10  11
ATOM     11  C   UNL     1     -31.401   1.179 -23.457  1.00  0.00     0.000 C 
BRANCH  11  12
ATOM     12  C   UNL     1     -30.288   0.121 -23.301  1.00  0.00     0.006 C 
BRANCH  12  13
ATOM     13  C   UNL     1     -30.545  -0.832 -22.126  1.00  0.00     0.053 C 
BRANCH  13  14
ATOM     14  C   UNL     1     -29.322  -1.643 -21.834  1.00  0.00     0.041 C 
ATOM     15  O   UNL     1     -29.398  -2.661 -21.098  1.00  0.00    -0.550 OA
ATOM     16  O   UNL     1     -28.088  -1.245 -22.335  1.00  0.00    -0.550 OA
ENDBRANCH  13  14
ENDBRANCH  12  13
ENDBRANCH  11  12
ENDBRANCH  10  11
ENDBRANCH   9  10
ENDBRANCH   8   9
ENDBRANCH   7   8
ENDBRANCH   6   7
ENDBRANCH   5   6
ENDBRANCH   4   5
ENDBRANCH   3   4
ENDBRANCH   2   3
ENDBRANCH   1   2
BRANCH   1  17
ATOM     17  C   UNL     1     -31.640  -1.628 -27.005  1.00  0.00     0.000 C 
BRANCH  17  18
ATOM     18  C   UNL     1     -31.758  -2.279 -28.393  1.00  0.00     0.000 C 
BRANCH  18  19
ATOM     19  C   UNL     1     -31.006  -3.615 -28.482  1.00  0.00     0.000 C 
BRANCH  19  20
ATOM     20  C   UNL     1     -29.568  -3.404 -28.972  1.00  0.00     0.000 C 
BRANCH  20  21
ATOM     21  C   UNL     1     -28.751  -2.597 -27.952  1.00  0.00     0.000 C 
BRANCH  21  22
ATOM     22  C   UNL     1     -27.278  -2.410 -28.378  1.00  0.00    -0.000 C 
BRANCH  22  23
ATOM     23  C   UNL     1     -26.330  -3.496 -27.835  1.00  0.00    -0.000 C 
BRANCH  23  24
ATOM     24  C   UNL     1     -25.712  -3.180 -26.462  1.00  0.00    -0.000 C 
BRANCH  24  25
ATOM     25  C   UNL     1     -24.304  -3.788 -26.265  1.00  0.00    -0.000 C 
BRANCH  25  26
ATOM     26  C   UNL     1     -23.196  -2.926 -26.889  1.00  0.00    -0.000 C 
BRANCH  26  27
ATOM     27  C   UNL     1     -23.248  -1.460 -26.427  1.00  0.00    -0.000 C 
BRANCH  27  28
ATOM     28  C   UNL     1     -22.603  -0.475 -27.426  1.00  0.00    -0.000 C 
BRANCH  28  29
ATOM     29  C   UNL     1     -22.692   0.981 -26.946  1.00  0.00    -0.003 C 
ATOM     30  C   UNL     1     -21.310   1.623 -26.872  1.00  0.00     0.004 C 
ENDBRANCH  28  29
ENDBRANCH  27  28
ENDBRANCH  26  27
ENDBRANCH  25  26
ENDBRANCH  24  25
ENDBRANCH  23  24
ENDBRANCH  22  23
ENDBRANCH  21  22
ENDBRANCH  20  21
ENDBRANCH  19  20
ENDBRANCH  18  19
ENDBRANCH  17  18
ENDBRANCH   1  17
TORSDOF 26
ENDMDL
MODEL 2
REMARK VINA RESULT:     8.304      2.882      8.486
REMARK INTER + INTRA:          18.979
REMARK INTER:                  20.832
REMARK INTRA:                  -1.853
REMARK UNBOUND:                -1.947
REMARK SMILES CCCCCCCCCCCCCCCCCCCCCCCCCCCC(=O)[O-]
REMARK SMILES IDX 15 1 16 2 17 3 18 4 19 5 20 6 21 7 22 8 23 9 24 10 25 11
REMARK SMILES IDX 26 12 27 13 28 14 29 15 30 16 14 17 13 18 12 19 11 20 10 21
REMARK SMILES IDX 9 22 8 23 7 24 6 25 5 26 4 27 3 28 2 29 1 30
REMARK H PARENT
REMARK Flexibility Score: inf
ROOT
ATOM      1  C   UNL     1     -31.673  -1.828 -27.438  1.00  0.00     0.000 C 
ENDROOT
BRANCH   1   2
ATOM      2  C   UNL     1     -30.262  -2.373 -27.163  1.00  0.00     0.000 C 
BRANCH   2   3
ATOM      3  C   UNL     1     -29.734  -3.245 -28.312  1.00  0.00     0.000 C 
BRANCH   3   4
ATOM      4  C   UNL     1     -28.357  -2.761 -28.781  1.00  0.00     0.000 C 
BRANCH   4   5
ATOM      5  C   UNL     1     -27.430  -2.497 -27.585  1.00  0.00     0.000 C 
BRANCH   5   6
ATOM      6  C   UNL     1     -26.246  -3.475 -27.522  1.00  0.00     0.000 C 
BRANCH   6   7
ATOM      7  C   UNL     1     -25.293  -3.177 -26.356  1.00  0.00     0.000 C 
BRANCH   7   8
ATOM      8  C   UNL     1     -23.931  -2.688 -26.871  1.00  0.00     0.000 C 
BRANCH   8   9
ATOM      9  C   UNL     1     -24.000  -1.294 -27.524  1.00  0.00     0.000 C 
BRANCH   9  10
ATOM     10  C   UNL     1     -22.650  -0.737 -28.010  1.00  0.00     0.000 C 
BRANCH  10  11
ATOM     11  C   UNL     1     -22.441   0.770 -27.765  1.00  0.00     0.000 C 
BRANCH  11  12
ATOM     12  C   UNL     1     -22.361   1.151 -26.272  1.00  0.00     0.006 C 
BRANCH  12  13
ATOM     13  C   UNL     1     -21.102   1.963 -25.940  1.00  0.00     0.053 C 
BRANCH  13  14
ATOM     14  C   UNL     1     -20.927   3.078 -26.921  1.00  0.00     0.041 C 
ATOM     15  O   UNL     1     -21.928   3.578 -27.498  1.00  0.00    -0.550 OA
ATOM     16  O   UNL     1     -19.652   3.534 -27.234  1.00  0.00    -0.550 OA
ENDBRANCH  13  14
ENDBRANCH  12  13
ENDBRANCH  11  12
ENDBRANCH  10  11
ENDBRANCH   9  10
ENDBRANCH   8   9
ENDBRANCH   7   8
ENDBRANCH   6   7
ENDBRANCH   5   6
ENDBRANCH   4   5
ENDBRANCH   3   4
ENDBRANCH   2   3
ENDBRANCH   1   2
BRANCH   1  17
ATOM     17  C   UNL     1     -31.879  -1.441 -28.913  1.00  0.00     0.000 C 
BRANCH  17  18
ATOM     18  C   UNL     1     -32.113   0.067 -29.098  1.00  0.00     0.000 C 
BRANCH  18  19
ATOM     19  C   UNL     1     -32.106   0.832 -27.766  1.00  0.00     0.000 C 
BRANCH  19  20
ATOM     20  C   UNL     1     -30.770   1.556 -27.558  1.00  0.00     0.000 C 
BRANCH  20  21
ATOM     21  C   UNL     1     -30.669   2.796 -28.459  1.00  0.00     0.000 C 
BRANCH  21  22
ATOM     22  C   UNL     1     -30.640   4.117 -27.658  1.00  0.00    -0.000 C 
BRANCH  22  23
ATOM     23  C   UNL     1     -31.852   4.307 -26.727  1.00  0.00    -0.000 C 
BRANCH  23  24
ATOM     24  C   UNL     1     -31.540   4.153 -25.228  1.00  0.00    -0.000 C 
BRANCH  24  25
ATOM     25  C   UNL     1     -32.123   2.862 -24.607  1.00  0.00    -0.000 C 
BRANCH  25  26
ATOM     26  C   UNL     1     -31.081   2.075 -23.796  1.00  0.00    -0.000 C 
BRANCH  26  27
ATOM     27  C   UNL     1     -31.043   0.582 -24.162  1.00  0.00    -0.000 C 
BRANCH  27  28
ATOM     28  C   UNL     1     -29.941  -0.206 -23.422  1.00  0.00    -0.000 C 
BRANCH  28  29
ATOM     29  C   UNL     1     -30.515  -1.341 -22.562  1.00  0.00    -0.003 C 
ATOM     30  C   UNL     1     -31.251  -0.792 -21.344  1.00  0.00     0.004 C 
ENDBRANCH  28  29
ENDBRANCH  27  28
ENDBRANCH  26  27
ENDBRANCH  25  26
ENDBRANCH  24  25
ENDBRANCH  23  24
ENDBRANCH  22  23
ENDBRANCH  21  22
ENDBRANCH  20  21
ENDBRANCH  19  20
ENDBRANCH  18  19
ENDBRANCH  17  18
ENDBRANCH   1  17
TORSDOF 26
ENDMDL
MODEL 3
REMARK VINA RESULT:     9.944      5.616     11.264
REMARK INTER + INTRA:          23.111
REMARK INTER:                  23.324
REMARK INTRA:                  -0.213
REMARK UNBOUND:                -1.947
REMARK SMILES CCCCCCCCCCCCCCCCCCCCCCCCCCCC(=O)[O-]
REMARK SMILES IDX 15 1 16 2 17 3 18 4 19 5 20 6 21 7 22 8 23 9 24 10 25 11
REMARK SMILES IDX 26 12 27 13 28 14 29 15 30 16 14 17 13 18 12 19 11 20 10 21
REMARK SMILES IDX 9 22 8 23 7 24 6 25 5 26 4 27 3 28 2 29 1 30
REMARK H PARENT
REMARK Flexibility Score: inf
ROOT
ATOM      1  C   UNL     1     -25.103  -2.094 -27.526  1.00  0.00     0.000 C 
ENDROOT
BRANCH   1   2
ATOM      2  C   UNL     1     -24.150  -1.272 -28.408  1.00  0.00     0.000 C 
BRANCH   2   3
ATOM      3  C   UNL     1     -23.137  -0.462 -27.583  1.00  0.00     0.000 C 
BRANCH   3   4
ATOM      4  C   UNL     1     -22.686   0.791 -28.344  1.00  0.00     0.000 C 
BRANCH   4   5
ATOM      5  C   UNL     1     -21.612   1.555 -27.557  1.00  0.00     0.000 C 
BRANCH   5   6
ATOM      6  C   UNL     1     -21.529   3.039 -27.950  1.00  0.00     0.000 C 
BRANCH   6   7
ATOM      7  C   UNL     1     -20.380   3.775 -27.245  1.00  0.00     0.000 C 
BRANCH   7   8
ATOM      8  C   UNL     1     -20.025   5.074 -27.985  1.00  0.00     0.000 C 
BRANCH   8   9
ATOM      9  C   UNL     1     -18.787   4.931 -28.891  1.00  0.00     0.000 C 
BRANCH   9  10
ATOM     10  C   UNL     1     -17.444   4.831 -28.145  1.00  0.00     0.000 C 
BRANCH  10  11
ATOM     11  C   UNL     1     -16.195   5.043 -29.022  1.00  0.00     0.000 C 
BRANCH  11  12
ATOM     12  C   UNL     1     -14.865   4.788 -28.281  1.00  0.00     0.006 C 
BRANCH  12  13
ATOM     13  C   UNL     1     -14.199   3.473 -28.706  1.00  0.00     0.053 C 
BRANCH  13  14
ATOM     14  C   UNL     1     -12.788   3.418 -28.211  1.00  0.00     0.041 C 
ATOM     15  O   UNL     1     -12.365   2.392 -27.618  1.00  0.00    -0.550 OA
ATOM     16  O   UNL     1     -11.956   4.520 -28.362  1.00  0.00    -0.550 OA
ENDBRANCH  13  14
ENDBRANCH  12  13
ENDBRANCH  11  12
ENDBRANCH  10  11
ENDBRANCH   9  10
ENDBRANCH   8   9
ENDBRANCH   7   8
ENDBRANCH   6   7
ENDBRANCH   5   6
ENDBRANCH   4   5
ENDBRANCH   3   4
ENDBRANCH   2   3
ENDBRANCH   1   2
BRANCH   1  17
ATOM     17  C   UNL     1     -26.151  -2.865 -28.347  1.00  0.00     0.000 C 
BRANCH  17  18
ATOM     18  C   UNL     1     -27.532  -2.190 -28.319  1.00  0.00     0.000 C 
BRANCH  18  19
ATOM     19  C   UNL     1     -28.534  -2.939 -27.428  1.00  0.00     0.000 C 
BRANCH  19  20
ATOM     20  C   UNL     1     -29.972  -2.716 -27.914  1.00  0.00     0.000 C 
BRANCH  20  21
ATOM     21  C   UNL     1     -30.979  -2.942 -26.777  1.00  0.00     0.000 C 
BRANCH  21  22
ATOM     22  C   UNL     1     -32.083  -1.862 -26.731  1.00  0.00    -0.000 C 
BRANCH  22  23
ATOM     23  C   UNL     1     -31.673  -0.526 -27.379  1.00  0.00    -0.000 C 
BRANCH  23  24
ATOM     24  C   UNL     1     -30.636   0.283 -26.580  1.00  0.00    -0.000 C 
BRANCH  24  25
ATOM     25  C   UNL     1     -31.238   1.033 -25.369  1.00  0.00    -0.000 C 
BRANCH  25  26
ATOM     26  C   UNL     1     -31.988   2.310 -25.779  1.00  0.00    -0.000 C 
BRANCH  26  27
ATOM     27  C   UNL     1     -31.304   3.592 -25.276  1.00  0.00    -0.000 C 
BRANCH  27  28
ATOM     28  C   UNL     1     -32.036   4.885 -25.693  1.00  0.00    -0.000 C 
BRANCH  28  29
ATOM     29  C   UNL     1     -32.077   5.064 -27.218  1.00  0.00    -0.003 C 
ATOM     30  C   UNL     1     -31.341   3.930 -27.926  1.00  0.00     0.004 C 
ENDBRANCH  28  29
ENDBRANCH  27  28
ENDBRANCH  26  27
ENDBRANCH  25  26
ENDBRANCH  24  25
ENDBRANCH  23  24
ENDBRANCH  22  23
ENDBRANCH  21  22
ENDBRANCH  20  21
ENDBRANCH  19  20
ENDBRANCH  18  19
ENDBRANCH  17  18
ENDBRANCH   1  17
TORSDOF 26
ENDMDL
MODEL 4
REMARK VINA RESULT:    10.040      2.515      8.341
REMARK INTER + INTRA:          23.353
REMARK INTER:                  21.345
REMARK INTRA:                   2.008
REMARK UNBOUND:                -1.947
REMARK SMILES CCCCCCCCCCCCCCCCCCCCCCCCCCCC(=O)[O-]
REMARK SMILES IDX 15 1 16 2 17 3 18 4 19 5 20 6 21 7 22 8 23 9 24 10 25 11
REMARK SMILES IDX 26 12 27 13 28 14 29 15 30 16 14 17 13 18 12 19 11 20 10 21
REMARK SMILES IDX 9 22 8 23 7 24 6 25 5 26 4 27 3 28 2 29 1 30
REMARK H PARENT
REMARK Flexibility Score: inf
ROOT
ATOM      1  C   UNL     1     -24.979  -3.884 -26.436  1.00  0.00     0.000 C 
ENDROOT
BRANCH   1   2
ATOM      2  C   UNL     1     -24.231  -2.565 -26.186  1.00  0.00     0.000 C 
BRANCH   2   3
ATOM      3  C   UNL     1     -23.489  -2.064 -27.434  1.00  0.00     0.000 C 
BRANCH   3   4
ATOM      4  C   UNL     1     -23.342  -0.538 -27.411  1.00  0.00     0.000 C 
BRANCH   4   5
ATOM      5  C   UNL     1     -22.353  -0.064 -28.486  1.00  0.00     0.000 C 
BRANCH   5   6
ATOM      6  C   UNL     1     -22.380   1.460 -28.689  1.00  0.00     0.000 C 
BRANCH   6   7
ATOM      7  C   UNL     1     -22.623   2.228 -27.381  1.00  0.00     0.000 C 
BRANCH   7   8
ATOM      8  C   UNL     1     -22.054   3.652 -27.467  1.00  0.00     0.000 C 
BRANCH   8   9
ATOM      9  C   UNL     1     -20.605   3.752 -26.953  1.00  0.00     0.000 C 
BRANCH   9  10
ATOM     10  C   UNL     1     -19.842   2.416 -26.895  1.00  0.00     0.000 C 
BRANCH  10  11
ATOM     11  C   UNL     1     -20.562   1.288 -26.130  1.00  0.00     0.000 C 
BRANCH  11  12
ATOM     12  C   UNL     1     -21.637   1.795 -25.145  1.00  0.00     0.006 C 
BRANCH  12  13
ATOM     13  C   UNL     1     -22.337   0.651 -24.401  1.00  0.00     0.053 C 
BRANCH  13  14
ATOM     14  C   UNL     1     -21.566   0.277 -23.174  1.00  0.00     0.041 C 
ATOM     15  O   UNL     1     -20.899   1.147 -22.556  1.00  0.00    -0.550 OA
ATOM     16  O   UNL     1     -21.544  -1.044 -22.743  1.00  0.00    -0.550 OA
ENDBRANCH  13  14
ENDBRANCH  12  13
ENDBRANCH  11  12
ENDBRANCH  10  11
ENDBRANCH   9  10
ENDBRANCH   8   9
ENDBRANCH   7   8
ENDBRANCH   6   7
ENDBRANCH   5   6
ENDBRANCH   4   5
ENDBRANCH   3   4
ENDBRANCH   2   3
ENDBRANCH   1   2
BRANCH   1  17
ATOM     17  C   UNL     1     -26.504  -3.694 -26.512  1.00  0.00     0.000 C 
BRANCH  17  18
ATOM     18  C   UNL     1     -26.948  -3.024 -27.822  1.00  0.00     0.000 C 
BRANCH  18  19
ATOM     19  C   UNL     1     -28.334  -2.372 -27.709  1.00  0.00     0.000 C 
BRANCH  19  20
ATOM     20  C   UNL     1     -29.213  -2.739 -28.910  1.00  0.00     0.000 C 
BRANCH  20  21
ATOM     21  C   UNL     1     -30.625  -3.140 -28.459  1.00  0.00     0.000 C 
BRANCH  21  22
ATOM     22  C   UNL     1     -30.994  -2.571 -27.070  1.00  0.00    -0.000 C 
BRANCH  22  23
ATOM     23  C   UNL     1     -31.641  -1.175 -27.122  1.00  0.00    -0.000 C 
BRANCH  23  24
ATOM     24  C   UNL     1     -31.329  -0.278 -25.910  1.00  0.00    -0.000 C 
BRANCH  24  25
ATOM     25  C   UNL     1     -31.782   1.189 -26.096  1.00  0.00    -0.000 C 
BRANCH  25  26
ATOM     26  C   UNL     1     -30.988   2.167 -25.217  1.00  0.00    -0.000 C 
BRANCH  26  27
ATOM     27  C   UNL     1     -31.130   3.630 -25.672  1.00  0.00    -0.000 C 
BRANCH  27  28
ATOM     28  C   UNL     1     -30.211   3.999 -26.856  1.00  0.00    -0.000 C 
BRANCH  28  29
ATOM     29  C   UNL     1     -30.965   4.748 -27.965  1.00  0.00    -0.003 C 
ATOM     30  C   UNL     1     -32.050   3.872 -28.583  1.00  0.00     0.004 C 
ENDBRANCH  28  29
ENDBRANCH  27  28
ENDBRANCH  26  27
ENDBRANCH  25  26
ENDBRANCH  24  25
ENDBRANCH  23  24
ENDBRANCH  22  23
ENDBRANCH  21  22
ENDBRANCH  20  21
ENDBRANCH  19  20
ENDBRANCH  18  19
ENDBRANCH  17  18
ENDBRANCH   1  17
TORSDOF 26
ENDMDL
MODEL 5
REMARK VINA RESULT:    10.204      1.618      4.818
REMARK INTER + INTRA:          23.765
REMARK INTER:                  25.272
REMARK INTRA:                  -1.506
REMARK UNBOUND:                -1.947
REMARK SMILES CCCCCCCCCCCCCCCCCCCCCCCCCCCC(=O)[O-]
REMARK SMILES IDX 15 1 16 2 17 3 18 4 19 5 20 6 21 7 22 8 23 9 24 10 25 11
REMARK SMILES IDX 26 12 27 13 28 14 29 15 30 16 14 17 13 18 12 19 11 20 10 21
REMARK SMILES IDX 9 22 8 23 7 24 6 25 5 26 4 27 3 28 2 29 1 30
REMARK H PARENT
REMARK Flexibility Score: inf
ROOT
ATOM      1  C   UNL     1     -27.108  -3.152 -29.063  1.00  0.00     0.000 C 
ENDROOT
BRANCH   1   2
ATOM      2  C   UNL     1     -27.940  -2.012 -28.455  1.00  0.00     0.000 C 
BRANCH   2   3
ATOM      3  C   UNL     1     -29.449  -2.293 -28.506  1.00  0.00     0.000 C 
BRANCH   3   4
ATOM      4  C   UNL     1     -30.009  -2.545 -27.100  1.00  0.00     0.000 C 
BRANCH   4   5
ATOM      5  C   UNL     1     -31.544  -2.525 -27.107  1.00  0.00     0.000 C 
BRANCH   5   6
ATOM      6  C   UNL     1     -32.124  -1.173 -26.661  1.00  0.00     0.000 C 
BRANCH   6   7
ATOM      7  C   UNL     1     -31.151  -0.006 -26.890  1.00  0.00     0.000 C 
BRANCH   7   8
ATOM      8  C   UNL     1     -31.912   1.314 -27.080  1.00  0.00     0.000 C 
BRANCH   8   9
ATOM      9  C   UNL     1     -31.155   2.532 -26.517  1.00  0.00     0.000 C 
BRANCH   9  10
ATOM     10  C   UNL     1     -31.175   2.657 -24.983  1.00  0.00     0.000 C 
BRANCH  10  11
ATOM     11  C   UNL     1     -32.052   1.618 -24.257  1.00  0.00     0.000 C 
BRANCH  11  12
ATOM     12  C   UNL     1     -31.340   0.919 -23.079  1.00  0.00     0.006 C 
BRANCH  12  13
ATOM     13  C   UNL     1     -30.636  -0.376 -23.504  1.00  0.00     0.053 C 
BRANCH  13  14
ATOM     14  C   UNL     1     -29.970  -1.018 -22.329  1.00  0.00     0.041 C 
ATOM     15  O   UNL     1     -30.632  -1.281 -21.291  1.00  0.00    -0.550 OA
ATOM     16  O   UNL     1     -28.606  -1.282 -22.361  1.00  0.00    -0.550 OA
ENDBRANCH  13  14
ENDBRANCH  12  13
ENDBRANCH  11  12
ENDBRANCH  10  11
ENDBRANCH   9  10
ENDBRANCH   8   9
ENDBRANCH   7   8
ENDBRANCH   6   7
ENDBRANCH   5   6
ENDBRANCH   4   5
ENDBRANCH   3   4
ENDBRANCH   2   3
ENDBRANCH   1   2
BRANCH   1  17
ATOM     17  C   UNL     1     -25.776  -3.370 -28.325  1.00  0.00     0.000 C 
BRANCH  17  18
ATOM     18  C   UNL     1     -25.975  -3.690 -26.835  1.00  0.00     0.000 C 
BRANCH  18  19
ATOM     19  C   UNL     1     -24.671  -3.579 -26.030  1.00  0.00     0.000 C 
BRANCH  19  20
ATOM     20  C   UNL     1     -23.532  -3.041 -26.904  1.00  0.00     0.000 C 
BRANCH  20  21
ATOM     21  C   UNL     1     -23.111  -1.634 -26.455  1.00  0.00     0.000 C 
BRANCH  21  22
ATOM     22  C   UNL     1     -23.928  -0.516 -27.141  1.00  0.00    -0.000 C 
BRANCH  22  23
ATOM     23  C   UNL     1     -23.084   0.417 -28.028  1.00  0.00    -0.000 C 
BRANCH  23  24
ATOM     24  C   UNL     1     -21.564   0.303 -27.816  1.00  0.00    -0.000 C 
BRANCH  24  25
ATOM     25  C   UNL     1     -20.908   1.620 -27.340  1.00  0.00    -0.000 C 
BRANCH  25  26
ATOM     26  C   UNL     1     -21.920   2.768 -27.201  1.00  0.00    -0.000 C 
BRANCH  26  27
ATOM     27  C   UNL     1     -21.691   3.893 -28.223  1.00  0.00    -0.000 C 
BRANCH  27  28
ATOM     28  C   UNL     1     -20.728   4.992 -27.725  1.00  0.00    -0.000 C 
BRANCH  28  29
ATOM     29  C   UNL     1     -19.421   4.411 -27.166  1.00  0.00    -0.003 C 
ATOM     30  C   UNL     1     -18.205   5.117 -27.760  1.00  0.00     0.004 C 
ENDBRANCH  28  29
ENDBRANCH  27  28
ENDBRANCH  26  27
ENDBRANCH  25  26
ENDBRANCH  24  25
ENDBRANCH  23  24
ENDBRANCH  22  23
ENDBRANCH  21  22
ENDBRANCH  20  21
ENDBRANCH  19  20
ENDBRANCH  18  19
ENDBRANCH  17  18
ENDBRANCH   1  17
TORSDOF 26
ENDMDL
MODEL 6
REMARK VINA RESULT:    10.272      3.739      9.400
REMARK INTER + INTRA:          23.937
REMARK INTER:                  24.610
REMARK INTRA:                  -0.673
REMARK UNBOUND:                -1.947
REMARK SMILES CCCCCCCCCCCCCCCCCCCCCCCCCCCC(=O)[O-]
REMARK SMILES IDX 15 1 16 2 17 3 18 4 19 5 20 6 21 7 22 8 23 9 24 10 25 11
REMARK SMILES IDX 26 12 27 13 28 14 29 15 30 16 14 17 13 18 12 19 11 20 10 21
REMARK SMILES IDX 9 22 8 23 7 24 6 25 5 26 4 27 3 28 2 29 1 30
REMARK H PARENT
REMARK Flexibility Score: inf
ROOT
ATOM      1  C   UNL     1     -25.208  -3.703 -26.527  1.00  0.00     0.000 C 
ENDROOT
BRANCH   1   2
ATOM      2  C   UNL     1     -24.212  -2.539 -26.656  1.00  0.00     0.000 C 
BRANCH   2   3
ATOM      3  C   UNL     1     -23.700  -2.049 -25.293  1.00  0.00     0.000 C 
BRANCH   3   4
ATOM      4  C   UNL     1     -22.914  -0.741 -25.439  1.00  0.00     0.000 C 
BRANCH   4   5
ATOM      5  C   UNL     1     -22.877   0.031 -24.112  1.00  0.00     0.000 C 
BRANCH   5   6
ATOM      6  C   UNL     1     -21.616   0.896 -23.961  1.00  0.00     0.000 C 
BRANCH   6   7
ATOM      7  C   UNL     1     -20.981   1.259 -25.312  1.00  0.00     0.000 C 
BRANCH   7   8
ATOM      8  C   UNL     1     -22.058   1.438 -26.393  1.00  0.00     0.000 C 
BRANCH   8   9
ATOM      9  C   UNL     1     -21.472   1.534 -27.815  1.00  0.00     0.000 C 
BRANCH   9  10
ATOM     10  C   UNL     1     -21.880   2.793 -28.602  1.00  0.00     0.000 C 
BRANCH  10  11
ATOM     11  C   UNL     1     -22.420   3.952 -27.741  1.00  0.00     0.000 C 
BRANCH  11  12
ATOM     12  C   UNL     1     -21.421   5.116 -27.569  1.00  0.00     0.006 C 
BRANCH  12  13
ATOM     13  C   UNL     1     -20.218   5.001 -28.515  1.00  0.00     0.053 C 
BRANCH  13  14
ATOM     14  C   UNL     1     -18.949   4.879 -27.733  1.00  0.00     0.041 C 
ATOM     15  O   UNL     1     -17.839   4.845 -28.328  1.00  0.00    -0.550 OA
ATOM     16  O   UNL     1     -18.994   4.754 -26.350  1.00  0.00    -0.550 OA
ENDBRANCH  13  14
ENDBRANCH  12  13
ENDBRANCH  11  12
ENDBRANCH  10  11
ENDBRANCH   9  10
ENDBRANCH   8   9
ENDBRANCH   7   8
ENDBRANCH   6   7
ENDBRANCH   5   6
ENDBRANCH   4   5
ENDBRANCH   3   4
ENDBRANCH   2   3
ENDBRANCH   1   2
BRANCH   1  17
ATOM     17  C   UNL     1     -26.663  -3.266 -26.771  1.00  0.00     0.000 C 
BRANCH  17  18
ATOM     18  C   UNL     1     -26.887  -2.742 -28.199  1.00  0.00     0.000 C 
BRANCH  18  19
ATOM     19  C   UNL     1     -28.320  -2.235 -28.422  1.00  0.00     0.000 C 
BRANCH  19  20
ATOM     20  C   UNL     1     -29.234  -2.648 -27.262  1.00  0.00     0.000 C 
BRANCH  20  21
ATOM     21  C   UNL     1     -30.544  -3.257 -27.781  1.00  0.00     0.000 C 
BRANCH  21  22
ATOM     22  C   UNL     1     -31.791  -2.453 -27.350  1.00  0.00    -0.000 C 
BRANCH  22  23
ATOM     23  C   UNL     1     -32.117  -1.267 -28.276  1.00  0.00    -0.000 C 
BRANCH  23  24
ATOM     24  C   UNL     1     -31.982   0.117 -27.616  1.00  0.00    -0.000 C 
BRANCH  24  25
ATOM     25  C   UNL     1     -31.746   0.053 -26.089  1.00  0.00    -0.000 C 
BRANCH  25  26
ATOM     26  C   UNL     1     -31.208   1.374 -25.519  1.00  0.00    -0.000 C 
BRANCH  26  27
ATOM     27  C   UNL     1     -31.003   2.451 -26.597  1.00  0.00    -0.000 C 
BRANCH  27  28
ATOM     28  C   UNL     1     -32.123   3.513 -26.629  1.00  0.00    -0.000 C 
BRANCH  28  29
ATOM     29  C   UNL     1     -31.641   4.850 -27.210  1.00  0.00    -0.003 C 
ATOM     30  C   UNL     1     -30.440   4.651 -28.130  1.00  0.00     0.004 C 
ENDBRANCH  28  29
ENDBRANCH  27  28
ENDBRANCH  26  27
ENDBRANCH  25  26
ENDBRANCH  24  25
ENDBRANCH  23  24
ENDBRANCH  22  23
ENDBRANCH  21  22
ENDBRANCH  20  21
ENDBRANCH  19  20
ENDBRANCH  18  19
ENDBRANCH  17  18
ENDBRANCH   1  17
TORSDOF 26
ENDMDL
MODEL 7
REMARK VINA RESULT:    10.358      2.248      8.374
REMARK INTER + INTRA:          24.154
REMARK INTER:                  23.130
REMARK INTRA:                   1.024
REMARK UNBOUND:                -1.947
REMARK SMILES CCCCCCCCCCCCCCCCCCCCCCCCCCCC(=O)[O-]
REMARK SMILES IDX 15 1 16 2 17 3 18 4 19 5 20 6 21 7 22 8 23 9 24 10 25 11
REMARK SMILES IDX 26 12 27 13 28 14 29 15 30 16 14 17 13 18 12 19 11 20 10 21
REMARK SMILES IDX 9 22 8 23 7 24 6 25 5 26 4 27 3 28 2 29 1 30
REMARK H PARENT
REMARK Flexibility Score: inf
ROOT
ATOM      1  C   UNL     1     -27.955  -2.815 -27.062  1.00  0.00     0.000 C 
ENDROOT
BRANCH   1   2
ATOM      2  C   UNL     1     -26.656  -3.633 -27.142  1.00  0.00     0.000 C 
BRANCH   2   3
ATOM      3  C   UNL     1     -25.659  -3.265 -26.033  1.00  0.00     0.000 C 
BRANCH   3   4
ATOM      4  C   UNL     1     -24.224  -3.236 -26.571  1.00  0.00     0.000 C 
BRANCH   4   5
ATOM      5  C   UNL     1     -24.068  -2.172 -27.667  1.00  0.00     0.000 C 
BRANCH   5   6
ATOM      6  C   UNL     1     -23.198  -0.985 -27.224  1.00  0.00     0.000 C 
BRANCH   6   7
ATOM      7  C   UNL     1     -23.283   0.205 -28.192  1.00  0.00     0.000 C 
BRANCH   7   8
ATOM      8  C   UNL     1     -22.062   1.124 -28.040  1.00  0.00     0.000 C 
BRANCH   8   9
ATOM      9  C   UNL     1     -22.442   2.606 -27.862  1.00  0.00     0.000 C 
BRANCH   9  10
ATOM     10  C   UNL     1     -21.286   3.526 -27.427  1.00  0.00     0.000 C 
BRANCH  10  11
ATOM     11  C   UNL     1     -20.018   2.794 -26.948  1.00  0.00     0.000 C 
BRANCH  11  12
ATOM     12  C   UNL     1     -20.301   1.648 -25.953  1.00  0.00     0.006 C 
BRANCH  12  13
ATOM     13  C   UNL     1     -21.320   2.043 -24.877  1.00  0.00     0.053 C 
BRANCH  13  14
ATOM     14  C   UNL     1     -21.806   0.831 -24.147  1.00  0.00     0.041 C 
ATOM     15  O   UNL     1     -21.288   0.504 -23.047  1.00  0.00    -0.550 OA
ATOM     16  O   UNL     1     -22.798   0.034 -24.706  1.00  0.00    -0.550 OA
ENDBRANCH  13  14
ENDBRANCH  12  13
ENDBRANCH  11  12
ENDBRANCH  10  11
ENDBRANCH   9  10
ENDBRANCH   8   9
ENDBRANCH   7   8
ENDBRANCH   6   7
ENDBRANCH   5   6
ENDBRANCH   4   5
ENDBRANCH   3   4
ENDBRANCH   2   3
ENDBRANCH   1   2
BRANCH   1  17
ATOM     17  C   UNL     1     -29.154  -3.547 -27.688  1.00  0.00     0.000 C 
BRANCH  17  18
ATOM     18  C   UNL     1     -29.887  -2.689 -28.732  1.00  0.00     0.000 C 
BRANCH  18  19
ATOM     19  C   UNL     1     -31.408  -2.898 -28.703  1.00  0.00     0.000 C 
BRANCH  19  20
ATOM     20  C   UNL     1     -32.121  -1.661 -28.144  1.00  0.00     0.000 C 
BRANCH  20  21
ATOM     21  C   UNL     1     -31.110  -0.592 -27.708  1.00  0.00     0.000 C 
BRANCH  21  22
ATOM     22  C   UNL     1     -31.624   0.278 -26.539  1.00  0.00    -0.000 C 
BRANCH  22  23
ATOM     23  C   UNL     1     -30.978  -0.060 -25.182  1.00  0.00    -0.000 C 
BRANCH  23  24
ATOM     24  C   UNL     1     -30.809   1.142 -24.235  1.00  0.00    -0.000 C 
BRANCH  24  25
ATOM     25  C   UNL     1     -31.903   2.221 -24.408  1.00  0.00    -0.000 C 
BRANCH  25  26
ATOM     26  C   UNL     1     -32.019   2.718 -25.857  1.00  0.00    -0.000 C 
BRANCH  26  27
ATOM     27  C   UNL     1     -31.398   4.110 -26.063  1.00  0.00    -0.000 C 
BRANCH  27  28
ATOM     28  C   UNL     1     -30.606   4.243 -27.381  1.00  0.00    -0.000 C 
BRANCH  28  29
ATOM     29  C   UNL     1     -31.525   4.450 -28.594  1.00  0.00    -0.003 C 
ATOM     30  C   UNL     1     -32.044   3.117 -29.125  1.00  0.00     0.004 C 
ENDBRANCH  28  29
ENDBRANCH  27  28
ENDBRANCH  26  27
ENDBRANCH  25  26
ENDBRANCH  24  25
ENDBRANCH  23  24
ENDBRANCH  22  23
ENDBRANCH  21  22
ENDBRANCH  20  21
ENDBRANCH  19  20
ENDBRANCH  18  19
ENDBRANCH  17  18
ENDBRANCH   1  17
TORSDOF 26
ENDMDL
