MODEL 1
REMARK VINA RESULT:    -8.030      0.000      0.000
REMARK INTER + INTRA:          -9.723
REMARK INTER:                  -9.673
REMARK INTRA:                  -0.050
REMARK UNBOUND:                -0.050
REMARK SMILES O=c1c(O)c(-c2ccc(O)c(O)c2)oc2cc(O)cc(O)c12
REMARK SMILES IDX 5 1 3 2 2 3 1 4 22 5 20 6 19 7 17 8 16 9 15 10 14 11 6 12
REMARK SMILES IDX 7 13 8 14 9 15 13 16 11 17 10 18 12 20 4 22 21 24 18 26
REMARK H PARENT 10 19 12 21 4 23 21 25 18 27
REMARK Flexibility Score: inf
ROOT
ATOM      1  C   UNL     1      23.145  24.438  34.518  1.00  0.00     0.180 A 
ATOM      2  C   UNL     1      24.269  23.876  33.880  1.00  0.00     0.208 A 
ATOM      3  C   UNL     1      24.650  22.566  34.210  1.00  0.00     0.238 A 
ATOM      4  O   UNL     1      25.648  22.049  33.639  1.00  0.00    -0.285 OA
ATOM      5  C   UNL     1      23.920  21.851  35.182  1.00  0.00     0.111 A 
ATOM      6  C   UNL     1      24.242  20.528  35.574  1.00  0.00     0.134 A 
ATOM      7  C   UNL     1      23.471  19.887  36.554  1.00  0.00     0.093 A 
ATOM      8  C   UNL     1      22.387  20.541  37.150  1.00  0.00     0.123 A 
ATOM      9  C   UNL     1      22.066  21.844  36.767  1.00  0.00     0.094 A 
ATOM     10  C   UNL     1      22.821  22.500  35.789  1.00  0.00     0.146 A 
ATOM     11  O   UNL     1      22.489  23.738  35.440  1.00  0.00    -0.452 OA
ENDROOT
BRANCH   1  12
ATOM     12  C   UNL     1      22.668  25.806  34.211  1.00  0.00     0.025 A 
ATOM     13  C   UNL     1      21.355  25.994  33.756  1.00  0.00     0.016 A 
ATOM     14  C   UNL     1      20.891  27.273  33.441  1.00  0.00     0.051 A 
ATOM     15  C   UNL     1      21.735  28.381  33.559  1.00  0.00     0.157 A 
ATOM     16  C   UNL     1      23.524  26.918  34.310  1.00  0.00     0.062 A 
ATOM     17  C   UNL     1      23.060  28.204  33.992  1.00  0.00     0.158 A 
BRANCH  15  18
ATOM     18  O   UNL     1      21.244  29.645  33.239  1.00  0.00    -0.504 OA
ATOM     19  H   UNL     1      21.196  30.393  33.921  1.00  0.00     0.293 HD
ENDBRANCH  15  18
BRANCH  17  20
ATOM     20  O   UNL     1      23.912  29.302  34.099  1.00  0.00    -0.504 OA
ATOM     21  H   UNL     1      24.181  29.680  34.999  1.00  0.00     0.293 HD
ENDBRANCH  17  20
ENDBRANCH   1  12
BRANCH   2  22
ATOM     22  O   UNL     1      25.004  24.624  32.959  1.00  0.00    -0.502 OA
ATOM     23  H   UNL     1      25.611  25.385  33.238  1.00  0.00     0.293 HD
ENDBRANCH   2  22
BRANCH   6  24
ATOM     24  O   UNL     1      25.317  19.850  34.998  1.00  0.00    -0.507 OA
ATOM     25  H   UNL     1      25.248  19.417  34.084  1.00  0.00     0.293 HD
ENDBRANCH   6  24
BRANCH   8  26
ATOM     26  O   UNL     1      21.622  19.904  38.125  1.00  0.00    -0.508 OA
ATOM     27  H   UNL     1      22.005  19.681  39.037  1.00  0.00     0.293 HD
ENDBRANCH   8  26
TORSDOF 6
ENDMDL
MODEL 2
REMARK VINA RESULT:    -7.686      0.602      1.465
REMARK INTER + INTRA:          -9.308
REMARK INTER:                  -9.319
REMARK INTRA:                   0.010
REMARK UNBOUND:                -0.050
REMARK SMILES O=c1c(O)c(-c2ccc(O)c(O)c2)oc2cc(O)cc(O)c12
REMARK SMILES IDX 5 1 3 2 2 3 1 4 22 5 20 6 19 7 17 8 16 9 15 10 14 11 6 12
REMARK SMILES IDX 7 13 8 14 9 15 13 16 11 17 10 18 12 20 4 22 21 24 18 26
REMARK H PARENT 10 19 12 21 4 23 21 25 18 27
REMARK Flexibility Score: inf
ROOT
ATOM      1  C   UNL     1      23.141  24.386  34.531  1.00  0.00     0.180 A 
ATOM      2  C   UNL     1      24.298  23.848  33.933  1.00  0.00     0.208 A 
ATOM      3  C   UNL     1      24.701  22.550  34.284  1.00  0.00     0.238 A 
ATOM      4  O   UNL     1      25.728  22.053  33.749  1.00  0.00    -0.285 OA
ATOM      5  C   UNL     1      23.958  21.823  35.238  1.00  0.00     0.111 A 
ATOM      6  C   UNL     1      24.300  20.512  35.650  1.00  0.00     0.134 A 
ATOM      7  C   UNL     1      23.514  19.859  36.611  1.00  0.00     0.093 A 
ATOM      8  C   UNL     1      22.396  20.490  37.167  1.00  0.00     0.123 A 
ATOM      9  C   UNL     1      22.055  21.782  36.764  1.00  0.00     0.094 A 
ATOM     10  C   UNL     1      22.825  22.450  35.806  1.00  0.00     0.146 A 
ATOM     11  O   UNL     1      22.474  23.677  35.436  1.00  0.00    -0.452 OA
ENDROOT
BRANCH   1  12
ATOM     12  C   UNL     1      22.642  25.740  34.198  1.00  0.00     0.025 A 
ATOM     13  C   UNL     1      23.513  26.837  34.279  1.00  0.00     0.016 A 
ATOM     14  C   UNL     1      23.058  28.125  33.990  1.00  0.00     0.051 A 
ATOM     15  C   UNL     1      21.723  28.341  33.633  1.00  0.00     0.157 A 
ATOM     16  C   UNL     1      21.294  25.960  33.859  1.00  0.00     0.062 A 
ATOM     17  C   UNL     1      20.835  27.254  33.571  1.00  0.00     0.158 A 
BRANCH  15  18
ATOM     18  O   UNL     1      21.298  29.637  33.349  1.00  0.00    -0.504 OA
ATOM     19  H   UNL     1      21.272  30.362  34.055  1.00  0.00     0.293 HD
ENDBRANCH  15  18
BRANCH  17  20
ATOM     20  O   UNL     1      19.500  27.463  33.229  1.00  0.00    -0.504 OA
ATOM     21  H   UNL     1      18.771  26.818  33.513  1.00  0.00     0.293 HD
ENDBRANCH  17  20
ENDBRANCH   1  12
BRANCH   2  22
ATOM     22  O   UNL     1      25.044  24.607  33.029  1.00  0.00    -0.502 OA
ATOM     23  H   UNL     1      24.939  24.514  32.026  1.00  0.00     0.293 HD
ENDBRANCH   2  22
BRANCH   6  24
ATOM     24  O   UNL     1      25.408  19.857  35.114  1.00  0.00    -0.507 OA
ATOM     25  H   UNL     1      26.326  20.286  35.098  1.00  0.00     0.293 HD
ENDBRANCH   6  24
BRANCH   8  26
ATOM     26  O   UNL     1      21.616  19.841  38.122  1.00  0.00    -0.508 OA
ATOM     27  H   UNL     1      20.838  20.307  38.576  1.00  0.00     0.293 HD
ENDBRANCH   8  26
TORSDOF 6
ENDMDL
MODEL 3
REMARK VINA RESULT:    -7.607      1.220      2.935
REMARK INTER + INTRA:          -9.213
REMARK INTER:                  -9.139
REMARK INTRA:                  -0.074
REMARK UNBOUND:                -0.050
REMARK SMILES O=c1c(O)c(-c2ccc(O)c(O)c2)oc2cc(O)cc(O)c12
REMARK SMILES IDX 5 1 3 2 2 3 1 4 22 5 20 6 19 7 17 8 16 9 15 10 14 11 6 12
REMARK SMILES IDX 7 13 8 14 9 15 13 16 11 17 10 18 12 20 4 22 21 24 18 26
REMARK H PARENT 10 19 12 21 4 23 21 25 18 27
REMARK Flexibility Score: inf
ROOT
ATOM      1  C   UNL     1      23.027  24.551  34.750  1.00  0.00     0.180 A 
ATOM      2  C   UNL     1      22.486  23.851  35.846  1.00  0.00     0.208 A 
ATOM      3  C   UNL     1      22.977  22.569  36.141  1.00  0.00     0.238 A 
ATOM      4  O   UNL     1      22.508  21.937  37.126  1.00  0.00    -0.285 OA
ATOM      5  C   UNL     1      23.979  22.002  35.327  1.00  0.00     0.111 A 
ATOM      6  C   UNL     1      24.523  20.714  35.553  1.00  0.00     0.134 A 
ATOM      7  C   UNL     1      25.513  20.217  34.692  1.00  0.00     0.093 A 
ATOM      8  C   UNL     1      25.967  20.980  33.610  1.00  0.00     0.123 A 
ATOM      9  C   UNL     1      25.433  22.250  33.384  1.00  0.00     0.094 A 
ATOM     10  C   UNL     1      24.447  22.765  34.232  1.00  0.00     0.146 A 
ATOM     11  O   UNL     1      23.961  23.978  33.996  1.00  0.00    -0.452 OA
ENDROOT
BRANCH   1  12
ATOM     12  C   UNL     1      22.576  25.914  34.386  1.00  0.00     0.025 A 
ATOM     13  C   UNL     1      21.226  26.134  34.076  1.00  0.00     0.016 A 
ATOM     14  C   UNL     1      20.782  27.407  33.710  1.00  0.00     0.051 A 
ATOM     15  C   UNL     1      21.681  28.474  33.633  1.00  0.00     0.157 A 
ATOM     16  C   UNL     1      23.484  26.983  34.288  1.00  0.00     0.062 A 
ATOM     17  C   UNL     1      23.040  28.263  33.919  1.00  0.00     0.158 A 
BRANCH  15  18
ATOM     18  O   UNL     1      21.210  29.734  33.267  1.00  0.00    -0.504 OA
ATOM     19  H   UNL     1      20.498  29.857  32.557  1.00  0.00     0.293 HD
ENDBRANCH  15  18
BRANCH  17  20
ATOM     20  O   UNL     1      23.946  29.319  33.831  1.00  0.00    -0.504 OA
ATOM     21  H   UNL     1      23.701  30.192  33.379  1.00  0.00     0.293 HD
ENDBRANCH  17  20
ENDBRANCH   1  12
BRANCH   2  22
ATOM     22  O   UNL     1      21.459  24.415  36.606  1.00  0.00    -0.502 OA
ATOM     23  H   UNL     1      21.494  24.460  37.618  1.00  0.00     0.293 HD
ENDBRANCH   2  22
BRANCH   6  24
ATOM     24  O   UNL     1      24.091  19.930  36.622  1.00  0.00    -0.507 OA
ATOM     25  H   UNL     1      23.116  19.893  36.898  1.00  0.00     0.293 HD
ENDBRANCH   6  24
BRANCH   8  26
ATOM     26  O   UNL     1      26.948  20.486  32.755  1.00  0.00    -0.508 OA
ATOM     27  H   UNL     1      27.913  20.790  32.823  1.00  0.00     0.293 HD
ENDBRANCH   8  26
TORSDOF 6
ENDMDL
MODEL 4
REMARK VINA RESULT:    -7.566      1.525      6.832
REMARK INTER + INTRA:          -9.164
REMARK INTER:                  -8.903
REMARK INTRA:                  -0.261
REMARK UNBOUND:                -0.050
REMARK SMILES O=c1c(O)c(-c2ccc(O)c(O)c2)oc2cc(O)cc(O)c12
REMARK SMILES IDX 5 1 3 2 2 3 1 4 22 5 20 6 19 7 17 8 16 9 15 10 14 11 6 12
REMARK SMILES IDX 7 13 8 14 9 15 13 16 11 17 10 18 12 20 4 22 21 24 18 26
REMARK H PARENT 10 19 12 21 4 23 21 25 18 27
REMARK Flexibility Score: inf
ROOT
ATOM      1  C   UNL     1      23.211  25.159  34.571  1.00  0.00     0.180 A 
ATOM      2  C   UNL     1      24.075  26.254  34.376  1.00  0.00     0.208 A 
ATOM      3  C   UNL     1      23.519  27.527  34.167  1.00  0.00     0.238 A 
ATOM      4  O   UNL     1      24.282  28.516  34.001  1.00  0.00    -0.285 OA
ATOM      5  C   UNL     1      22.118  27.679  34.135  1.00  0.00     0.111 A 
ATOM      6  C   UNL     1      21.479  28.925  33.926  1.00  0.00     0.134 A 
ATOM      7  C   UNL     1      20.078  28.992  33.900  1.00  0.00     0.093 A 
ATOM      8  C   UNL     1      19.305  27.839  34.079  1.00  0.00     0.123 A 
ATOM      9  C   UNL     1      19.931  26.609  34.286  1.00  0.00     0.094 A 
ATOM     10  C   UNL     1      21.326  26.521  34.317  1.00  0.00     0.146 A 
ATOM     11  O   UNL     1      21.894  25.338  34.521  1.00  0.00    -0.452 OA
ENDROOT
BRANCH   1  12
ATOM     12  C   UNL     1      23.720  23.790  34.816  1.00  0.00     0.025 A 
ATOM     13  C   UNL     1      24.227  23.039  33.744  1.00  0.00     0.016 A 
ATOM     14  C   UNL     1      24.693  21.739  33.948  1.00  0.00     0.051 A 
ATOM     15  C   UNL     1      24.645  21.162  35.221  1.00  0.00     0.157 A 
ATOM     16  C   UNL     1      23.654  23.202  36.092  1.00  0.00     0.062 A 
ATOM     17  C   UNL     1      24.119  21.894  36.299  1.00  0.00     0.158 A 
BRANCH  15  18
ATOM     18  O   UNL     1      25.119  19.862  35.395  1.00  0.00    -0.504 OA
ATOM     19  H   UNL     1      25.061  19.166  34.662  1.00  0.00     0.293 HD
ENDBRANCH  15  18
BRANCH  17  20
ATOM     20  O   UNL     1      24.056  21.320  37.568  1.00  0.00    -0.504 OA
ATOM     21  H   UNL     1      23.170  21.133  38.022  1.00  0.00     0.293 HD
ENDBRANCH  17  20
ENDBRANCH   1  12
BRANCH   2  22
ATOM     22  O   UNL     1      25.459  26.068  34.361  1.00  0.00    -0.502 OA
ATOM     23  H   UNL     1      25.896  25.217  34.694  1.00  0.00     0.293 HD
ENDBRANCH   2  22
BRANCH   6  24
ATOM     24  O   UNL     1      22.222  30.092  33.745  1.00  0.00    -0.507 OA
ATOM     25  H   UNL     1      23.230  30.104  33.849  1.00  0.00     0.293 HD
ENDBRANCH   6  24
BRANCH   8  26
ATOM     26  O   UNL     1      17.914  27.906  34.052  1.00  0.00    -0.508 OA
ATOM     27  H   UNL     1      17.340  27.149  34.405  1.00  0.00     0.293 HD
ENDBRANCH   8  26
TORSDOF 6
ENDMDL
MODEL 5
REMARK VINA RESULT:    -7.490      1.522      6.825
REMARK INTER + INTRA:          -9.072
REMARK INTER:                  -8.833
REMARK INTRA:                  -0.238
REMARK UNBOUND:                -0.050
REMARK SMILES O=c1c(O)c(-c2ccc(O)c(O)c2)oc2cc(O)cc(O)c12
REMARK SMILES IDX 5 1 3 2 2 3 1 4 22 5 20 6 19 7 17 8 16 9 15 10 14 11 6 12
REMARK SMILES IDX 7 13 8 14 9 15 13 16 11 17 10 18 12 20 4 22 21 24 18 26
REMARK H PARENT 10 19 12 21 4 23 21 25 18 27
REMARK Flexibility Score: inf
ROOT
ATOM      1  C   UNL     1      23.152  25.074  34.651  1.00  0.00     0.180 A 
ATOM      2  C   UNL     1      24.044  26.141  34.427  1.00  0.00     0.208 A 
ATOM      3  C   UNL     1      23.522  27.421  34.183  1.00  0.00     0.238 A 
ATOM      4  O   UNL     1      24.311  28.386  33.992  1.00  0.00    -0.285 OA
ATOM      5  C   UNL     1      22.125  27.609  34.146  1.00  0.00     0.111 A 
ATOM      6  C   UNL     1      21.519  28.866  33.903  1.00  0.00     0.134 A 
ATOM      7  C   UNL     1      20.120  28.969  33.874  1.00  0.00     0.093 A 
ATOM      8  C   UNL     1      19.317  27.841  34.082  1.00  0.00     0.123 A 
ATOM      9  C   UNL     1      19.910  26.601  34.322  1.00  0.00     0.094 A 
ATOM     10  C   UNL     1      21.303  26.478  34.357  1.00  0.00     0.146 A 
ATOM     11  O   UNL     1      21.840  25.286  34.594  1.00  0.00    -0.452 OA
ENDROOT
BRANCH   1  12
ATOM     12  C   UNL     1      23.624  23.699  34.933  1.00  0.00     0.025 A 
ATOM     13  C   UNL     1      23.545  23.195  36.240  1.00  0.00     0.016 A 
ATOM     14  C   UNL     1      24.004  21.910  36.532  1.00  0.00     0.051 A 
ATOM     15  C   UNL     1      24.564  21.113  35.529  1.00  0.00     0.157 A 
ATOM     16  C   UNL     1      24.207  22.905  33.928  1.00  0.00     0.062 A 
ATOM     17  C   UNL     1      24.671  21.613  34.221  1.00  0.00     0.158 A 
BRANCH  15  18
ATOM     18  O   UNL     1      25.013  19.833  35.851  1.00  0.00    -0.504 OA
ATOM     19  H   UNL     1      25.995  19.623  35.977  1.00  0.00     0.293 HD
ENDBRANCH  15  18
BRANCH  17  20
ATOM     20  O   UNL     1      25.242  20.830  33.218  1.00  0.00    -0.504 OA
ATOM     21  H   UNL     1      24.710  20.115  32.736  1.00  0.00     0.293 HD
ENDBRANCH  17  20
ENDBRANCH   1  12
BRANCH   2  22
ATOM     22  O   UNL     1      25.422  25.918  34.419  1.00  0.00    -0.502 OA
ATOM     23  H   UNL     1      25.880  25.372  33.699  1.00  0.00     0.293 HD
ENDBRANCH   2  22
BRANCH   6  24
ATOM     24  O   UNL     1      22.292  30.007  33.692  1.00  0.00    -0.507 OA
ATOM     25  H   UNL     1      22.172  30.589  32.871  1.00  0.00     0.293 HD
ENDBRANCH   6  24
BRANCH   8  26
ATOM     26  O   UNL     1      17.928  27.944  34.052  1.00  0.00    -0.508 OA
ATOM     27  H   UNL     1      17.334  27.197  34.393  1.00  0.00     0.293 HD
ENDBRANCH   8  26
TORSDOF 6
ENDMDL
MODEL 6
REMARK VINA RESULT:    -7.175      1.363      3.286
REMARK INTER + INTRA:          -8.692
REMARK INTER:                  -8.592
REMARK INTRA:                  -0.101
REMARK UNBOUND:                -0.050
REMARK SMILES O=c1c(O)c(-c2ccc(O)c(O)c2)oc2cc(O)cc(O)c12
REMARK SMILES IDX 5 1 3 2 2 3 1 4 22 5 20 6 19 7 17 8 16 9 15 10 14 11 6 12
REMARK SMILES IDX 7 13 8 14 9 15 13 16 11 17 10 18 12 20 4 22 21 24 18 26
REMARK H PARENT 10 19 12 21 4 23 21 25 18 27
REMARK Flexibility Score: inf
ROOT
ATOM      1  C   UNL     1      23.128  24.368  34.735  1.00  0.00     0.180 A 
ATOM      2  C   UNL     1      22.622  23.687  35.860  1.00  0.00     0.208 A 
ATOM      3  C   UNL     1      23.141  22.422  36.176  1.00  0.00     0.238 A 
ATOM      4  O   UNL     1      22.703  21.807  37.186  1.00  0.00    -0.285 OA
ATOM      5  C   UNL     1      24.135  21.851  35.355  1.00  0.00     0.111 A 
ATOM      6  C   UNL     1      24.707  20.579  35.602  1.00  0.00     0.134 A 
ATOM      7  C   UNL     1      25.687  20.077  34.733  1.00  0.00     0.093 A 
ATOM      8  C   UNL     1      26.105  20.820  33.623  1.00  0.00     0.123 A 
ATOM      9  C   UNL     1      25.545  22.074  33.377  1.00  0.00     0.094 A 
ATOM     10  C   UNL     1      24.567  22.594  34.232  1.00  0.00     0.146 A 
ATOM     11  O   UNL     1      24.056  23.792  33.976  1.00  0.00    -0.452 OA
ENDROOT
BRANCH   1  12
ATOM     12  C   UNL     1      22.645  25.713  34.347  1.00  0.00     0.025 A 
ATOM     13  C   UNL     1      23.544  26.790  34.328  1.00  0.00     0.016 A 
ATOM     14  C   UNL     1      23.107  28.072  33.986  1.00  0.00     0.051 A 
ATOM     15  C   UNL     1      21.763  28.301  33.674  1.00  0.00     0.157 A 
ATOM     16  C   UNL     1      21.290  25.948  34.053  1.00  0.00     0.062 A 
ATOM     17  C   UNL     1      20.848  27.235  33.711  1.00  0.00     0.158 A 
BRANCH  15  18
ATOM     18  O   UNL     1      21.356  29.590  33.334  1.00  0.00    -0.504 OA
ATOM     19  H   UNL     1      20.405  29.909  33.476  1.00  0.00     0.293 HD
ENDBRANCH  15  18
BRANCH  17  20
ATOM     20  O   UNL     1      19.504  27.459  33.415  1.00  0.00    -0.504 OA
ATOM     21  H   UNL     1      18.763  27.078  33.991  1.00  0.00     0.293 HD
ENDBRANCH  17  20
ENDBRANCH   1  12
BRANCH   2  22
ATOM     22  O   UNL     1      21.601  24.253  36.627  1.00  0.00    -0.502 OA
ATOM     23  H   UNL     1      21.288  25.207  36.496  1.00  0.00     0.293 HD
ENDBRANCH   2  22
BRANCH   6  24
ATOM     24  O   UNL     1      24.311  19.814  36.700  1.00  0.00    -0.507 OA
ATOM     25  H   UNL     1      24.984  19.346  37.295  1.00  0.00     0.293 HD
ENDBRANCH   6  24
BRANCH   8  26
ATOM     26  O   UNL     1      27.077  20.321  32.760  1.00  0.00    -0.508 OA
ATOM     27  H   UNL     1      28.033  20.658  32.786  1.00  0.00     0.293 HD
ENDBRANCH   8  26
TORSDOF 6
ENDMDL
MODEL 7
REMARK VINA RESULT:    -7.156      3.955      7.029
REMARK INTER + INTRA:          -8.669
REMARK INTER:                  -9.125
REMARK INTRA:                   0.455
REMARK UNBOUND:                -0.050
REMARK SMILES O=c1c(O)c(-c2ccc(O)c(O)c2)oc2cc(O)cc(O)c12
REMARK SMILES IDX 5 1 3 2 2 3 1 4 22 5 20 6 19 7 17 8 16 9 15 10 14 11 6 12
REMARK SMILES IDX 7 13 8 14 9 15 13 16 11 17 10 18 12 20 4 22 21 24 18 26
REMARK H PARENT 10 19 12 21 4 23 21 25 18 27
REMARK Flexibility Score: inf
ROOT
ATOM      1  C   UNL     1      25.959  21.342  34.377  1.00  0.00     0.180 A 
ATOM      2  C   UNL     1      27.011  20.409  34.453  1.00  0.00     0.208 A 
ATOM      3  C   UNL     1      28.185  20.651  33.722  1.00  0.00     0.238 A 
ATOM      4  O   UNL     1      29.138  19.828  33.790  1.00  0.00    -0.285 OA
ATOM      5  C   UNL     1      28.279  21.803  32.914  1.00  0.00     0.111 A 
ATOM      6  C   UNL     1      29.425  22.117  32.143  1.00  0.00     0.134 A 
ATOM      7  C   UNL     1      29.437  23.279  31.358  1.00  0.00     0.093 A 
ATOM      8  C   UNL     1      28.328  24.131  31.328  1.00  0.00     0.123 A 
ATOM      9  C   UNL     1      27.197  23.826  32.086  1.00  0.00     0.094 A 
ATOM     10  C   UNL     1      27.165  22.673  32.877  1.00  0.00     0.146 A 
ATOM     11  O   UNL     1      26.078  22.410  33.593  1.00  0.00    -0.452 OA
ENDROOT
BRANCH   1  12
ATOM     12  C   UNL     1      24.697  21.168  35.132  1.00  0.00     0.025 A 
ATOM     13  C   UNL     1      23.659  22.097  34.967  1.00  0.00     0.016 A 
ATOM     14  C   UNL     1      22.469  21.964  35.685  1.00  0.00     0.051 A 
ATOM     15  C   UNL     1      22.302  20.913  36.590  1.00  0.00     0.157 A 
ATOM     16  C   UNL     1      24.537  20.122  36.059  1.00  0.00     0.062 A 
ATOM     17  C   UNL     1      23.342  19.988  36.783  1.00  0.00     0.158 A 
BRANCH  15  18
ATOM     18  O   UNL     1      21.103  20.804  37.292  1.00  0.00    -0.504 OA
ATOM     19  H   UNL     1      20.349  20.204  36.979  1.00  0.00     0.293 HD
ENDBRANCH  15  18
BRANCH  17  20
ATOM     20  O   UNL     1      23.189  18.944  37.694  1.00  0.00    -0.504 OA
ATOM     21  H   UNL     1      22.540  19.007  38.469  1.00  0.00     0.293 HD
ENDBRANCH  17  20
ENDBRANCH   1  12
BRANCH   2  22
ATOM     22  O   UNL     1      26.874  19.251  35.221  1.00  0.00    -0.502 OA
ATOM     23  H   UNL     1      26.039  19.053  35.760  1.00  0.00     0.293 HD
ENDBRANCH   2  22
BRANCH   6  24
ATOM     24  O   UNL     1      30.546  21.287  32.152  1.00  0.00    -0.507 OA
ATOM     25  H   UNL     1      31.316  21.421  31.506  1.00  0.00     0.293 HD
ENDBRANCH   6  24
BRANCH   8  26
ATOM     26  O   UNL     1      28.340  25.285  30.547  1.00  0.00    -0.508 OA
ATOM     27  H   UNL     1      27.482  25.760  30.291  1.00  0.00     0.293 HD
ENDBRANCH   8  26
TORSDOF 6
ENDMDL
MODEL 8
REMARK VINA RESULT:    -7.149      1.772      3.697
REMARK INTER + INTRA:          -8.661
REMARK INTER:                  -8.497
REMARK INTRA:                  -0.164
REMARK UNBOUND:                -0.050
REMARK SMILES O=c1c(O)c(-c2ccc(O)c(O)c2)oc2cc(O)cc(O)c12
REMARK SMILES IDX 5 1 3 2 2 3 1 4 22 5 20 6 19 7 17 8 16 9 15 10 14 11 6 12
REMARK SMILES IDX 7 13 8 14 9 15 13 16 11 17 10 18 12 20 4 22 21 24 18 26
REMARK H PARENT 10 19 12 21 4 23 21 25 18 27
REMARK Flexibility Score: inf
ROOT
ATOM      1  C   UNL     1      23.664  23.983  34.237  1.00  0.00     0.180 A 
ATOM      2  C   UNL     1      23.189  23.027  35.157  1.00  0.00     0.208 A 
ATOM      3  C   UNL     1      23.923  21.845  35.345  1.00  0.00     0.238 A 
ATOM      4  O   UNL     1      23.514  20.987  36.173  1.00  0.00    -0.285 OA
ATOM      5  C   UNL     1      25.100  21.629  34.598  1.00  0.00     0.111 A 
ATOM      6  C   UNL     1      25.893  20.462  34.725  1.00  0.00     0.134 A 
ATOM      7  C   UNL     1      27.047  20.318  33.940  1.00  0.00     0.093 A 
ATOM      8  C   UNL     1      27.421  21.315  33.032  1.00  0.00     0.123 A 
ATOM      9  C   UNL     1      26.642  22.466  32.904  1.00  0.00     0.094 A 
ATOM     10  C   UNL     1      25.489  22.630  33.679  1.00  0.00     0.146 A 
ATOM     11  O   UNL     1      24.771  23.738  33.541  1.00  0.00    -0.452 OA
ENDROOT
BRANCH   1  12
ATOM     12  C   UNL     1      22.957  25.262  33.997  1.00  0.00     0.025 A 
ATOM     13  C   UNL     1      23.557  26.467  34.392  1.00  0.00     0.016 A 
ATOM     14  C   UNL     1      22.900  27.683  34.195  1.00  0.00     0.051 A 
ATOM     15  C   UNL     1      21.628  27.714  33.616  1.00  0.00     0.157 A 
ATOM     16  C   UNL     1      21.669  25.292  33.434  1.00  0.00     0.062 A 
ATOM     17  C   UNL     1      21.006  26.513  33.237  1.00  0.00     0.158 A 
BRANCH  15  18
ATOM     18  O   UNL     1      20.997  28.943  33.430  1.00  0.00    -0.504 OA
ATOM     19  H   UNL     1      20.559  29.196  32.552  1.00  0.00     0.293 HD
ENDBRANCH  15  18
BRANCH  17  20
ATOM     20  O   UNL     1      19.732  26.535  32.672  1.00  0.00    -0.504 OA
ATOM     21  H   UNL     1      18.941  26.940  33.159  1.00  0.00     0.293 HD
ENDBRANCH  17  20
ENDBRANCH   1  12
BRANCH   2  22
ATOM     22  O   UNL     1      21.995  23.243  35.846  1.00  0.00    -0.502 OA
ATOM     23  H   UNL     1      21.190  23.683  35.415  1.00  0.00     0.293 HD
ENDBRANCH   2  22
BRANCH   6  24
ATOM     24  O   UNL     1      25.546  19.451  35.621  1.00  0.00    -0.507 OA
ATOM     25  H   UNL     1      25.837  19.475  36.592  1.00  0.00     0.293 HD
ENDBRANCH   6  24
BRANCH   8  26
ATOM     26  O   UNL     1      28.566  21.171  32.252  1.00  0.00    -0.508 OA
ATOM     27  H   UNL     1      29.493  21.288  32.645  1.00  0.00     0.293 HD
ENDBRANCH   8  26
TORSDOF 6
ENDMDL
MODEL 9
REMARK VINA RESULT:    -6.826      2.934      4.893
REMARK INTER + INTRA:          -8.272
REMARK INTER:                  -7.961
REMARK INTRA:                  -0.311
REMARK UNBOUND:                -0.050
REMARK SMILES O=c1c(O)c(-c2ccc(O)c(O)c2)oc2cc(O)cc(O)c12
REMARK SMILES IDX 5 1 3 2 2 3 1 4 22 5 20 6 19 7 17 8 16 9 15 10 14 11 6 12
REMARK SMILES IDX 7 13 8 14 9 15 13 16 11 17 10 18 12 20 4 22 21 24 18 26
REMARK H PARENT 10 19 12 21 4 23 21 25 18 27
REMARK Flexibility Score: inf
ROOT
ATOM      1  C   UNL     1      25.780  23.419  34.161  1.00  0.00     0.180 A 
ATOM      2  C   UNL     1      24.580  24.148  34.273  1.00  0.00     0.208 A 
ATOM      3  C   UNL     1      23.509  23.584  34.984  1.00  0.00     0.238 A 
ATOM      4  O   UNL     1      22.433  24.231  35.100  1.00  0.00    -0.285 OA
ATOM      5  C   UNL     1      23.646  22.299  35.549  1.00  0.00     0.111 A 
ATOM      6  C   UNL     1      22.614  21.659  36.277  1.00  0.00     0.134 A 
ATOM      7  C   UNL     1      22.826  20.375  36.801  1.00  0.00     0.093 A 
ATOM      8  C   UNL     1      24.048  19.721  36.613  1.00  0.00     0.123 A 
ATOM      9  C   UNL     1      25.069  20.348  35.897  1.00  0.00     0.094 A 
ATOM     10  C   UNL     1      24.878  21.629  35.367  1.00  0.00     0.146 A 
ATOM     11  O   UNL     1      25.868  22.204  34.695  1.00  0.00    -0.452 OA
ENDROOT
BRANCH   1  12
ATOM     12  C   UNL     1      26.961  23.953  33.443  1.00  0.00     0.025 A 
ATOM     13  C   UNL     1      27.252  23.489  32.152  1.00  0.00     0.016 A 
ATOM     14  C   UNL     1      28.372  23.963  31.465  1.00  0.00     0.051 A 
ATOM     15  C   UNL     1      29.226  24.894  32.062  1.00  0.00     0.157 A 
ATOM     16  C   UNL     1      27.832  24.874  34.052  1.00  0.00     0.062 A 
ATOM     17  C   UNL     1      28.958  25.351  33.364  1.00  0.00     0.158 A 
BRANCH  15  18
ATOM     18  O   UNL     1      30.335  25.352  31.352  1.00  0.00    -0.504 OA
ATOM     19  H   UNL     1      31.126  24.754  31.145  1.00  0.00     0.293 HD
ENDBRANCH  15  18
BRANCH  17  20
ATOM     20  O   UNL     1      29.813  26.269  33.971  1.00  0.00    -0.504 OA
ATOM     21  H   UNL     1      30.718  26.495  33.576  1.00  0.00     0.293 HD
ENDBRANCH  17  20
ENDBRANCH   1  12
BRANCH   2  22
ATOM     22  O   UNL     1      24.453  25.396  33.661  1.00  0.00    -0.502 OA
ATOM     23  H   UNL     1      25.021  26.192  33.927  1.00  0.00     0.293 HD
ENDBRANCH   2  22
BRANCH   6  24
ATOM     24  O   UNL     1      21.384  22.286  36.482  1.00  0.00    -0.507 OA
ATOM     25  H   UNL     1      20.880  22.199  37.357  1.00  0.00     0.293 HD
ENDBRANCH   6  24
BRANCH   8  26
ATOM     26  O   UNL     1      24.259  18.446  37.133  1.00  0.00    -0.508 OA
ATOM     27  H   UNL     1      23.671  18.070  37.868  1.00  0.00     0.293 HD
ENDBRANCH   8  26
TORSDOF 6
ENDMDL
