MODEL 1
REMARK VINA RESULT:    -4.833      0.000      0.000
REMARK INTER + INTRA:          -6.111
REMARK INTER:                  -5.822
REMARK INTRA:                  -0.289
REMARK UNBOUND:                -0.289
REMARK SMILES O=c1c(O)c(-c2ccc(O)c(O)c2)oc2cc(O)cc(O)c12
REMARK SMILES IDX 5 1 3 2 2 3 1 4 22 5 20 6 19 7 17 8 16 9 15 10 14 11 6 12
REMARK SMILES IDX 7 13 8 14 9 15 13 16 11 17 10 18 12 20 4 22 21 24 18 26
REMARK H PARENT 10 19 12 21 4 23 21 25 18 27
REMARK Flexibility Score: inf
ROOT
ATOM      1  C   UNL     1      46.946  13.328  85.917  1.00  0.00     0.180 A 
ATOM      2  C   UNL     1      47.476  14.254  86.833  1.00  0.00     0.208 A 
ATOM      3  C   UNL     1      48.868  14.422  86.901  1.00  0.00     0.238 A 
ATOM      4  O   UNL     1      49.332  15.305  87.669  1.00  0.00    -0.285 OA
ATOM      5  C   UNL     1      49.716  13.624  86.094  1.00  0.00     0.111 A 
ATOM      6  C   UNL     1      51.142  13.678  86.114  1.00  0.00     0.134 A 
ATOM      7  C   UNL     1      51.875  12.917  85.194  1.00  0.00     0.093 A 
ATOM      8  C   UNL     1      51.235  12.055  84.301  1.00  0.00     0.123 A 
ATOM      9  C   UNL     1      49.846  11.954  84.312  1.00  0.00     0.094 A 
ATOM     10  C   UNL     1      49.086  12.730  85.189  1.00  0.00     0.146 A 
ATOM     11  O   UNL     1      47.764  12.618  85.151  1.00  0.00    -0.452 OA
ENDROOT
BRANCH   1  12
ATOM     12  C   UNL     1      45.488  13.106  85.776  1.00  0.00     0.025 A 
ATOM     13  C   UNL     1      44.764  13.652  84.702  1.00  0.00     0.016 A 
ATOM     14  C   UNL     1      43.394  13.408  84.579  1.00  0.00     0.051 A 
ATOM     15  C   UNL     1      42.731  12.605  85.515  1.00  0.00     0.157 A 
ATOM     16  C   UNL     1      44.823  12.285  86.701  1.00  0.00     0.062 A 
ATOM     17  C   UNL     1      43.450  12.039  86.581  1.00  0.00     0.158 A 
BRANCH  15  18
ATOM     18  O   UNL     1      41.363  12.366  85.390  1.00  0.00    -0.504 OA
ATOM     19  H   UNL     1      40.836  11.903  86.120  1.00  0.00     0.293 HD
ENDBRANCH  15  18
BRANCH  17  20
ATOM     20  O   UNL     1      42.822  11.229  87.525  1.00  0.00    -0.504 OA
ATOM     21  H   UNL     1      43.020  10.239  87.604  1.00  0.00     0.293 HD
ENDBRANCH  17  20
ENDBRANCH   1  12
BRANCH   2  22
ATOM     22  O   UNL     1      46.627  14.977  87.674  1.00  0.00    -0.502 OA
ATOM     23  H   UNL     1      46.916  15.830  88.136  1.00  0.00     0.293 HD
ENDBRANCH   2  22
BRANCH   6  24
ATOM     24  O   UNL     1      51.886  14.437  87.024  1.00  0.00    -0.507 OA
ATOM     25  H   UNL     1      52.887  14.558  86.992  1.00  0.00     0.293 HD
ENDBRANCH   6  24
BRANCH   8  26
ATOM     26  O   UNL     1      51.972  11.288  83.402  1.00  0.00    -0.508 OA
ATOM     27  H   UNL     1      52.403  10.413  83.680  1.00  0.00     0.293 HD
ENDBRANCH   8  26
TORSDOF 6
ENDMDL
MODEL 2
REMARK VINA RESULT:    -4.623      3.920      6.002
REMARK INTER + INTRA:          -5.859
REMARK INTER:                  -5.542
REMARK INTRA:                  -0.317
REMARK UNBOUND:                -0.289
REMARK SMILES O=c1c(O)c(-c2ccc(O)c(O)c2)oc2cc(O)cc(O)c12
REMARK SMILES IDX 5 1 3 2 2 3 1 4 22 5 20 6 19 7 17 8 16 9 15 10 14 11 6 12
REMARK SMILES IDX 7 13 8 14 9 15 13 16 11 17 10 18 12 20 4 22 21 24 18 26
REMARK H PARENT 10 19 12 21 4 23 21 25 18 27
REMARK Flexibility Score: inf
ROOT
ATOM      1  C   UNL     1      44.437  12.698  84.780  1.00  0.00     0.180 A 
ATOM      2  C   UNL     1      44.017  11.985  85.916  1.00  0.00     0.208 A 
ATOM      3  C   UNL     1      44.019  10.582  85.878  1.00  0.00     0.238 A 
ATOM      4  O   UNL     1      43.713   9.950  86.923  1.00  0.00    -0.285 OA
ATOM      5  C   UNL     1      44.389   9.909  84.688  1.00  0.00     0.111 A 
ATOM      6  C   UNL     1      44.385   8.491  84.522  1.00  0.00     0.134 A 
ATOM      7  C   UNL     1      44.873   7.933  83.333  1.00  0.00     0.093 A 
ATOM      8  C   UNL     1      45.302   8.743  82.280  1.00  0.00     0.123 A 
ATOM      9  C   UNL     1      45.257  10.129  82.412  1.00  0.00     0.094 A 
ATOM     10  C   UNL     1      44.814  10.715  83.599  1.00  0.00     0.146 A 
ATOM     11  O   UNL     1      44.809  12.040  83.689  1.00  0.00    -0.452 OA
ENDROOT
BRANCH   1  12
ATOM     12  C   UNL     1      44.476  14.179  84.748  1.00  0.00     0.025 A 
ATOM     13  C   UNL     1      43.332  14.936  84.440  1.00  0.00     0.016 A 
ATOM     14  C   UNL     1      43.389  16.332  84.441  1.00  0.00     0.051 A 
ATOM     15  C   UNL     1      44.583  16.991  84.761  1.00  0.00     0.157 A 
ATOM     16  C   UNL     1      45.665  14.844  85.089  1.00  0.00     0.062 A 
ATOM     17  C   UNL     1      45.725  16.243  85.089  1.00  0.00     0.158 A 
BRANCH  15  18
ATOM     18  O   UNL     1      44.636  18.385  84.758  1.00  0.00    -0.504 OA
ATOM     19  H   UNL     1      44.274  18.928  83.984  1.00  0.00     0.293 HD
ENDBRANCH  15  18
BRANCH  17  20
ATOM     20  O   UNL     1      46.927  16.869  85.420  1.00  0.00    -0.504 OA
ATOM     21  H   UNL     1      47.818  16.393  85.354  1.00  0.00     0.293 HD
ENDBRANCH  17  20
ENDBRANCH   1  12
BRANCH   2  22
ATOM     22  O   UNL     1      43.583  12.668  87.055  1.00  0.00    -0.502 OA
ATOM     23  H   UNL     1      42.935  13.445  87.010  1.00  0.00     0.293 HD
ENDBRANCH   2  22
BRANCH   6  24
ATOM     24  O   UNL     1      43.895   7.591  85.475  1.00  0.00    -0.507 OA
ATOM     25  H   UNL     1      44.457   6.925  85.982  1.00  0.00     0.293 HD
ENDBRANCH   6  24
BRANCH   8  26
ATOM     26  O   UNL     1      45.768   8.181  81.094  1.00  0.00    -0.508 OA
ATOM     27  H   UNL     1      45.694   8.672  80.210  1.00  0.00     0.293 HD
ENDBRANCH   8  26
TORSDOF 6
ENDMDL
MODEL 3
REMARK VINA RESULT:    -4.617      1.317      2.933
REMARK INTER + INTRA:          -5.851
REMARK INTER:                  -5.590
REMARK INTRA:                  -0.261
REMARK UNBOUND:                -0.289
REMARK SMILES O=c1c(O)c(-c2ccc(O)c(O)c2)oc2cc(O)cc(O)c12
REMARK SMILES IDX 5 1 3 2 2 3 1 4 22 5 20 6 19 7 17 8 16 9 15 10 14 11 6 12
REMARK SMILES IDX 7 13 8 14 9 15 13 16 11 17 10 18 12 20 4 22 21 24 18 26
REMARK H PARENT 10 19 12 21 4 23 21 25 18 27
REMARK Flexibility Score: inf
ROOT
ATOM      1  C   UNL     1      46.487  12.900  85.588  1.00  0.00     0.180 A 
ATOM      2  C   UNL     1      47.211  12.244  84.577  1.00  0.00     0.208 A 
ATOM      3  C   UNL     1      48.587  12.497  84.451  1.00  0.00     0.238 A 
ATOM      4  O   UNL     1      49.242  11.851  83.592  1.00  0.00    -0.285 OA
ATOM      5  C   UNL     1      49.210  13.444  85.300  1.00  0.00     0.111 A 
ATOM      6  C   UNL     1      50.588  13.813  85.231  1.00  0.00     0.134 A 
ATOM      7  C   UNL     1      51.118  14.683  86.193  1.00  0.00     0.093 A 
ATOM      8  C   UNL     1      50.307  15.247  87.180  1.00  0.00     0.123 A 
ATOM      9  C   UNL     1      48.950  14.936  87.221  1.00  0.00     0.094 A 
ATOM     10  C   UNL     1      48.399  14.042  86.301  1.00  0.00     0.146 A 
ATOM     11  O   UNL     1      47.106  13.757  86.390  1.00  0.00    -0.452 OA
ENDROOT
BRANCH   1  12
ATOM     12  C   UNL     1      45.038  12.673  85.794  1.00  0.00     0.025 A 
ATOM     13  C   UNL     1      44.080  13.213  84.918  1.00  0.00     0.016 A 
ATOM     14  C   UNL     1      42.720  12.965  85.119  1.00  0.00     0.051 A 
ATOM     15  C   UNL     1      42.299  12.163  86.188  1.00  0.00     0.157 A 
ATOM     16  C   UNL     1      44.612  11.853  86.851  1.00  0.00     0.062 A 
ATOM     17  C   UNL     1      43.250  11.603  87.056  1.00  0.00     0.158 A 
BRANCH  15  18
ATOM     18  O   UNL     1      40.940  11.919  86.387  1.00  0.00    -0.504 OA
ATOM     19  H   UNL     1      40.338  11.618  85.631  1.00  0.00     0.293 HD
ENDBRANCH  15  18
BRANCH  17  20
ATOM     20  O   UNL     1      42.863  10.795  88.125  1.00  0.00    -0.504 OA
ATOM     21  H   UNL     1      43.381   9.966  88.388  1.00  0.00     0.293 HD
ENDBRANCH  17  20
ENDBRANCH   1  12
BRANCH   2  22
ATOM     22  O   UNL     1      46.562  11.370  83.701  1.00  0.00    -0.502 OA
ATOM     23  H   UNL     1      46.586  11.492  82.695  1.00  0.00     0.293 HD
ENDBRANCH   2  22
BRANCH   6  24
ATOM     24  O   UNL     1      51.467  13.378  84.235  1.00  0.00    -0.507 OA
ATOM     25  H   UNL     1      52.362  13.797  84.033  1.00  0.00     0.293 HD
ENDBRANCH   6  24
BRANCH   8  26
ATOM     26  O   UNL     1      50.839  16.125  88.121  1.00  0.00    -0.508 OA
ATOM     27  H   UNL     1      50.985  15.845  89.085  1.00  0.00     0.293 HD
ENDBRANCH   8  26
TORSDOF 6
ENDMDL
MODEL 4
REMARK VINA RESULT:    -4.597      1.724      6.954
REMARK INTER + INTRA:          -5.827
REMARK INTER:                  -5.496
REMARK INTRA:                  -0.330
REMARK UNBOUND:                -0.289
REMARK SMILES O=c1c(O)c(-c2ccc(O)c(O)c2)oc2cc(O)cc(O)c12
REMARK SMILES IDX 5 1 3 2 2 3 1 4 22 5 20 6 19 7 17 8 16 9 15 10 14 11 6 12
REMARK SMILES IDX 7 13 8 14 9 15 13 16 11 17 10 18 12 20 4 22 21 24 18 26
REMARK H PARENT 10 19 12 21 4 23 21 25 18 27
REMARK Flexibility Score: inf
ROOT
ATOM      1  C   UNL     1      47.321  13.656  85.852  1.00  0.00     0.180 A 
ATOM      2  C   UNL     1      47.048  14.407  84.695  1.00  0.00     0.208 A 
ATOM      3  C   UNL     1      45.734  14.447  84.204  1.00  0.00     0.238 A 
ATOM      4  O   UNL     1      45.483  15.180  83.212  1.00  0.00    -0.285 OA
ATOM      5  C   UNL     1      44.719  13.692  84.841  1.00  0.00     0.111 A 
ATOM      6  C   UNL     1      43.362  13.623  84.403  1.00  0.00     0.134 A 
ATOM      7  C   UNL     1      42.422  12.928  85.176  1.00  0.00     0.093 A 
ATOM      8  C   UNL     1      42.802  12.247  86.334  1.00  0.00     0.123 A 
ATOM      9  C   UNL     1      44.134  12.263  86.739  1.00  0.00     0.094 A 
ATOM     10  C   UNL     1      45.088  12.979  86.013  1.00  0.00     0.146 A 
ATOM     11  O   UNL     1      46.343  12.985  86.447  1.00  0.00    -0.452 OA
ENDROOT
BRANCH   1  12
ATOM     12  C   UNL     1      48.678  13.577  86.439  1.00  0.00     0.025 A 
ATOM     13  C   UNL     1      49.101  14.479  87.432  1.00  0.00     0.016 A 
ATOM     14  C   UNL     1      50.379  14.369  87.986  1.00  0.00     0.051 A 
ATOM     15  C   UNL     1      51.246  13.351  87.570  1.00  0.00     0.157 A 
ATOM     16  C   UNL     1      49.543  12.546  86.040  1.00  0.00     0.062 A 
ATOM     17  C   UNL     1      50.825  12.434  86.593  1.00  0.00     0.158 A 
BRANCH  15  18
ATOM     18  O   UNL     1      52.521  13.246  88.125  1.00  0.00    -0.504 OA
ATOM     19  H   UNL     1      53.295  13.803  87.785  1.00  0.00     0.293 HD
ENDBRANCH  15  18
BRANCH  17  20
ATOM     20  O   UNL     1      51.661  11.404  86.162  1.00  0.00    -0.504 OA
ATOM     21  H   UNL     1      51.335  10.667  85.549  1.00  0.00     0.293 HD
ENDBRANCH  17  20
ENDBRANCH   1  12
BRANCH   2  22
ATOM     22  O   UNL     1      48.078  15.083  84.036  1.00  0.00    -0.502 OA
ATOM     23  H   UNL     1      48.524  15.905  84.424  1.00  0.00     0.293 HD
ENDBRANCH   2  22
BRANCH   6  24
ATOM     24  O   UNL     1      42.891  14.191  83.215  1.00  0.00    -0.507 OA
ATOM     25  H   UNL     1      42.138  13.820  82.657  1.00  0.00     0.293 HD
ENDBRANCH   6  24
BRANCH   8  26
ATOM     26  O   UNL     1      41.864  11.544  87.086  1.00  0.00    -0.508 OA
ATOM     27  H   UNL     1      41.931  10.540  87.212  1.00  0.00     0.293 HD
ENDBRANCH   8  26
TORSDOF 6
ENDMDL
MODEL 5
REMARK VINA RESULT:    -4.588      2.394      2.723
REMARK INTER + INTRA:          -5.816
REMARK INTER:                  -5.486
REMARK INTRA:                  -0.331
REMARK UNBOUND:                -0.289
REMARK SMILES O=c1c(O)c(-c2ccc(O)c(O)c2)oc2cc(O)cc(O)c12
REMARK SMILES IDX 5 1 3 2 2 3 1 4 22 5 20 6 19 7 17 8 16 9 15 10 14 11 6 12
REMARK SMILES IDX 7 13 8 14 9 15 13 16 11 17 10 18 12 20 4 22 21 24 18 26
REMARK H PARENT 10 19 12 21 4 23 21 25 18 27
REMARK Flexibility Score: inf
ROOT
ATOM      1  C   UNL     1      46.228  12.040  85.067  1.00  0.00     0.180 A 
ATOM      2  C   UNL     1      45.874  12.986  86.045  1.00  0.00     0.208 A 
ATOM      3  C   UNL     1      46.872  13.813  86.584  1.00  0.00     0.238 A 
ATOM      4  O   UNL     1      46.536  14.707  87.404  1.00  0.00    -0.285 OA
ATOM      5  C   UNL     1      48.220  13.647  86.181  1.00  0.00     0.111 A 
ATOM      6  C   UNL     1      49.319  14.399  86.695  1.00  0.00     0.134 A 
ATOM      7  C   UNL     1      50.595  14.222  86.143  1.00  0.00     0.093 A 
ATOM      8  C   UNL     1      50.822  13.274  85.143  1.00  0.00     0.123 A 
ATOM      9  C   UNL     1      49.766  12.497  84.675  1.00  0.00     0.094 A 
ATOM     10  C   UNL     1      48.475  12.677  85.176  1.00  0.00     0.146 A 
ATOM     11  O   UNL     1      47.494  11.930  84.685  1.00  0.00    -0.452 OA
ENDROOT
BRANCH   1  12
ATOM     12  C   UNL     1      45.230  11.143  84.440  1.00  0.00     0.025 A 
ATOM     13  C   UNL     1      44.557  11.505  83.260  1.00  0.00     0.016 A 
ATOM     14  C   UNL     1      43.637  10.631  82.675  1.00  0.00     0.051 A 
ATOM     15  C   UNL     1      43.386   9.379  83.251  1.00  0.00     0.157 A 
ATOM     16  C   UNL     1      44.990   9.879  85.002  1.00  0.00     0.062 A 
ATOM     17  C   UNL     1      44.068   9.001  84.419  1.00  0.00     0.158 A 
BRANCH  15  18
ATOM     18  O   UNL     1      42.466   8.510  82.666  1.00  0.00    -0.504 OA
ATOM     19  H   UNL     1      41.803   8.830  81.970  1.00  0.00     0.293 HD
ENDBRANCH  15  18
BRANCH  17  20
ATOM     20  O   UNL     1      43.847   7.759  85.013  1.00  0.00    -0.504 OA
ATOM     21  H   UNL     1      44.599   7.104  85.189  1.00  0.00     0.293 HD
ENDBRANCH  17  20
ENDBRANCH   1  12
BRANCH   2  22
ATOM     22  O   UNL     1      44.551  13.082  86.484  1.00  0.00    -0.502 OA
ATOM     23  H   UNL     1      44.252  12.737  87.389  1.00  0.00     0.293 HD
ENDBRANCH   2  22
BRANCH   6  24
ATOM     24  O   UNL     1      49.221  15.308  87.753  1.00  0.00    -0.507 OA
ATOM     25  H   UNL     1      49.919  15.438  88.469  1.00  0.00     0.293 HD
ENDBRANCH   6  24
BRANCH   8  26
ATOM     26  O   UNL     1      52.097  13.091  84.614  1.00  0.00    -0.508 OA
ATOM     27  H   UNL     1      52.685  12.317  84.903  1.00  0.00     0.293 HD
ENDBRANCH   8  26
TORSDOF 6
ENDMDL
MODEL 6
REMARK VINA RESULT:    -4.496      4.100      5.796
REMARK INTER + INTRA:          -5.706
REMARK INTER:                  -5.373
REMARK INTRA:                  -0.332
REMARK UNBOUND:                -0.289
REMARK SMILES O=c1c(O)c(-c2ccc(O)c(O)c2)oc2cc(O)cc(O)c12
REMARK SMILES IDX 5 1 3 2 2 3 1 4 22 5 20 6 19 7 17 8 16 9 15 10 14 11 6 12
REMARK SMILES IDX 7 13 8 14 9 15 13 16 11 17 10 18 12 20 4 22 21 24 18 26
REMARK H PARENT 10 19 12 21 4 23 21 25 18 27
REMARK Flexibility Score: inf
ROOT
ATOM      1  C   UNL     1      44.030  13.950  84.729  1.00  0.00     0.180 A 
ATOM      2  C   UNL     1      42.900  14.626  84.234  1.00  0.00     0.208 A 
ATOM      3  C   UNL     1      42.983  16.008  83.998  1.00  0.00     0.238 A 
ATOM      4  O   UNL     1      41.993  16.592  83.486  1.00  0.00    -0.285 OA
ATOM      5  C   UNL     1      44.174  16.707  84.313  1.00  0.00     0.111 A 
ATOM      6  C   UNL     1      44.354  18.115  84.158  1.00  0.00     0.134 A 
ATOM      7  C   UNL     1      45.612  18.681  84.401  1.00  0.00     0.093 A 
ATOM      8  C   UNL     1      46.678  17.901  84.856  1.00  0.00     0.123 A 
ATOM      9  C   UNL     1      46.496  16.536  85.064  1.00  0.00     0.094 A 
ATOM     10  C   UNL     1      45.265  15.935  84.792  1.00  0.00     0.146 A 
ATOM     11  O   UNL     1      45.142  14.627  84.983  1.00  0.00    -0.452 OA
ENDROOT
BRANCH   1  12
ATOM     12  C   UNL     1      44.025  12.492  84.987  1.00  0.00     0.025 A 
ATOM     13  C   UNL     1      44.339  11.567  83.976  1.00  0.00     0.016 A 
ATOM     14  C   UNL     1      44.350  10.197  84.252  1.00  0.00     0.051 A 
ATOM     15  C   UNL     1      44.064   9.733  85.542  1.00  0.00     0.157 A 
ATOM     16  C   UNL     1      43.758  12.023  86.284  1.00  0.00     0.062 A 
ATOM     17  C   UNL     1      43.769  10.651  86.563  1.00  0.00     0.158 A 
BRANCH  15  18
ATOM     18  O   UNL     1      44.074   8.365  85.812  1.00  0.00    -0.504 OA
ATOM     19  H   UNL     1      44.328   7.686  85.105  1.00  0.00     0.293 HD
ENDBRANCH  15  18
BRANCH  17  20
ATOM     20  O   UNL     1      43.486  10.221  87.859  1.00  0.00    -0.504 OA
ATOM     21  H   UNL     1      43.339   9.245  88.083  1.00  0.00     0.293 HD
ENDBRANCH  17  20
ENDBRANCH   1  12
BRANCH   2  22
ATOM     22  O   UNL     1      41.710  13.931  84.002  1.00  0.00    -0.502 OA
ATOM     23  H   UNL     1      41.059  14.196  83.273  1.00  0.00     0.293 HD
ENDBRANCH   2  22
BRANCH   6  24
ATOM     24  O   UNL     1      43.334  19.000  83.794  1.00  0.00    -0.507 OA
ATOM     25  H   UNL     1      43.417  19.718  83.091  1.00  0.00     0.293 HD
ENDBRANCH   6  24
BRANCH   8  26
ATOM     26  O   UNL     1      47.920  18.475  85.113  1.00  0.00    -0.508 OA
ATOM     27  H   UNL     1      48.680  17.937  85.513  1.00  0.00     0.293 HD
ENDBRANCH   8  26
TORSDOF 6
ENDMDL
MODEL 7
REMARK VINA RESULT:    -4.294      3.181      5.229
REMARK INTER + INTRA:          -5.462
REMARK INTER:                  -5.183
REMARK INTRA:                  -0.279
REMARK UNBOUND:                -0.289
REMARK SMILES O=c1c(O)c(-c2ccc(O)c(O)c2)oc2cc(O)cc(O)c12
REMARK SMILES IDX 5 1 3 2 2 3 1 4 22 5 20 6 19 7 17 8 16 9 15 10 14 11 6 12
REMARK SMILES IDX 7 13 8 14 9 15 13 16 11 17 10 18 12 20 4 22 21 24 18 26
REMARK H PARENT 10 19 12 21 4 23 21 25 18 27
REMARK Flexibility Score: inf
ROOT
ATOM      1  C   UNL     1      45.547  13.219  85.302  1.00  0.00     0.180 A 
ATOM      2  C   UNL     1      46.831  13.636  85.696  1.00  0.00     0.208 A 
ATOM      3  C   UNL     1      47.157  15.000  85.621  1.00  0.00     0.238 A 
ATOM      4  O   UNL     1      48.280  15.376  86.045  1.00  0.00    -0.285 OA
ATOM      5  C   UNL     1      46.215  15.922  85.101  1.00  0.00     0.111 A 
ATOM      6  C   UNL     1      46.454  17.320  84.937  1.00  0.00     0.134 A 
ATOM      7  C   UNL     1      45.410  18.153  84.512  1.00  0.00     0.093 A 
ATOM      8  C   UNL     1      44.158  17.630  84.183  1.00  0.00     0.123 A 
ATOM      9  C   UNL     1      43.933  16.259  84.287  1.00  0.00     0.094 A 
ATOM     10  C   UNL     1      44.940  15.407  84.746  1.00  0.00     0.146 A 
ATOM     11  O   UNL     1      44.675  14.111  84.850  1.00  0.00    -0.452 OA
ENDROOT
BRANCH   1  12
ATOM     12  C   UNL     1      45.125  11.801  85.367  1.00  0.00     0.025 A 
ATOM     13  C   UNL     1      44.268  11.336  86.380  1.00  0.00     0.016 A 
ATOM     14  C   UNL     1      43.866   9.999  86.406  1.00  0.00     0.051 A 
ATOM     15  C   UNL     1      44.300   9.111  85.414  1.00  0.00     0.157 A 
ATOM     16  C   UNL     1      45.541  10.911  84.363  1.00  0.00     0.062 A 
ATOM     17  C   UNL     1      45.140   9.570  84.386  1.00  0.00     0.158 A 
BRANCH  15  18
ATOM     18  O   UNL     1      43.897   7.775  85.444  1.00  0.00    -0.504 OA
ATOM     19  H   UNL     1      43.019   7.495  85.863  1.00  0.00     0.293 HD
ENDBRANCH  15  18
BRANCH  17  20
ATOM     20  O   UNL     1      45.583   8.713  83.380  1.00  0.00    -0.504 OA
ATOM     21  H   UNL     1      44.942   8.183  82.803  1.00  0.00     0.293 HD
ENDBRANCH  17  20
ENDBRANCH   1  12
BRANCH   2  22
ATOM     22  O   UNL     1      47.771  12.700  86.134  1.00  0.00    -0.502 OA
ATOM     23  H   UNL     1      48.361  12.181  85.495  1.00  0.00     0.293 HD
ENDBRANCH   2  22
BRANCH   6  24
ATOM     24  O   UNL     1      47.691  17.935  85.152  1.00  0.00    -0.507 OA
ATOM     25  H   UNL     1      47.817  18.871  85.505  1.00  0.00     0.293 HD
ENDBRANCH   6  24
BRANCH   8  26
ATOM     26  O   UNL     1      43.132  18.463  83.745  1.00  0.00    -0.508 OA
ATOM     27  H   UNL     1      42.282  18.585  84.283  1.00  0.00     0.293 HD
ENDBRANCH   8  26
TORSDOF 6
ENDMDL
MODEL 8
REMARK VINA RESULT:    -4.261      4.700      8.112
REMARK INTER + INTRA:          -5.422
REMARK INTER:                  -5.121
REMARK INTRA:                  -0.301
REMARK UNBOUND:                -0.289
REMARK SMILES O=c1c(O)c(-c2ccc(O)c(O)c2)oc2cc(O)cc(O)c12
REMARK SMILES IDX 5 1 3 2 2 3 1 4 22 5 20 6 19 7 17 8 16 9 15 10 14 11 6 12
REMARK SMILES IDX 7 13 8 14 9 15 13 16 11 17 10 18 12 20 4 22 21 24 18 26
REMARK H PARENT 10 19 12 21 4 23 21 25 18 27
REMARK Flexibility Score: inf
ROOT
ATOM      1  C   UNL     1      39.287  12.147  85.700  1.00  0.00     0.180 A 
ATOM      2  C   UNL     1      39.228  12.902  84.515  1.00  0.00     0.208 A 
ATOM      3  C   UNL     1      40.423  13.362  83.941  1.00  0.00     0.238 A 
ATOM      4  O   UNL     1      40.368  13.973  82.842  1.00  0.00    -0.285 OA
ATOM      5  C   UNL     1      41.659  13.110  84.587  1.00  0.00     0.111 A 
ATOM      6  C   UNL     1      42.928  13.568  84.118  1.00  0.00     0.134 A 
ATOM      7  C   UNL     1      44.094  13.167  84.783  1.00  0.00     0.093 A 
ATOM      8  C   UNL     1      44.034  12.380  85.935  1.00  0.00     0.123 A 
ATOM      9  C   UNL     1      42.796  11.975  86.431  1.00  0.00     0.094 A 
ATOM     10  C   UNL     1      41.618  12.325  85.769  1.00  0.00     0.146 A 
ATOM     11  O   UNL     1      40.462  11.899  86.264  1.00  0.00    -0.452 OA
ENDROOT
BRANCH   1  12
ATOM     12  C   UNL     1      38.071  11.614  86.356  1.00  0.00     0.025 A 
ATOM     13  C   UNL     1      37.262  12.426  87.171  1.00  0.00     0.016 A 
ATOM     14  C   UNL     1      36.107  11.905  87.760  1.00  0.00     0.051 A 
ATOM     15  C   UNL     1      35.735  10.574  87.533  1.00  0.00     0.157 A 
ATOM     16  C   UNL     1      37.683  10.286  86.115  1.00  0.00     0.062 A 
ATOM     17  C   UNL     1      36.526   9.762  86.704  1.00  0.00     0.158 A 
BRANCH  15  18
ATOM     18  O   UNL     1      34.582  10.058  88.124  1.00  0.00    -0.504 OA
ATOM     19  H   UNL     1      34.399  10.167  89.114  1.00  0.00     0.293 HD
ENDBRANCH  15  18
BRANCH  17  20
ATOM     20  O   UNL     1      36.180   8.435  86.453  1.00  0.00    -0.504 OA
ATOM     21  H   UNL     1      36.084   7.753  87.195  1.00  0.00     0.293 HD
ENDBRANCH  17  20
ENDBRANCH   1  12
BRANCH   2  22
ATOM     22  O   UNL     1      37.994  13.205  83.935  1.00  0.00    -0.502 OA
ATOM     23  H   UNL     1      37.307  12.493  83.714  1.00  0.00     0.293 HD
ENDBRANCH   2  22
BRANCH   6  24
ATOM     24  O   UNL     1      43.098  14.430  83.031  1.00  0.00    -0.507 OA
ATOM     25  H   UNL     1      43.952  14.919  82.810  1.00  0.00     0.293 HD
ENDBRANCH   6  24
BRANCH   8  26
ATOM     26  O   UNL     1      45.197  12.001  86.599  1.00  0.00    -0.508 OA
ATOM     27  H   UNL     1      45.208  11.844  87.601  1.00  0.00     0.293 HD
ENDBRANCH   8  26
TORSDOF 6
ENDMDL
MODEL 9
REMARK VINA RESULT:    -4.258      2.832      4.226
REMARK INTER + INTRA:          -5.419
REMARK INTER:                  -5.181
REMARK INTRA:                  -0.238
REMARK UNBOUND:                -0.289
REMARK SMILES O=c1c(O)c(-c2ccc(O)c(O)c2)oc2cc(O)cc(O)c12
REMARK SMILES IDX 5 1 3 2 2 3 1 4 22 5 20 6 19 7 17 8 16 9 15 10 14 11 6 12
REMARK SMILES IDX 7 13 8 14 9 15 13 16 11 17 10 18 12 20 4 22 21 24 18 26
REMARK H PARENT 10 19 12 21 4 23 21 25 18 27
REMARK Flexibility Score: inf
ROOT
ATOM      1  C   UNL     1      45.519  13.775  85.068  1.00  0.00     0.180 A 
ATOM      2  C   UNL     1      44.600  14.806  84.802  1.00  0.00     0.208 A 
ATOM      3  C   UNL     1      45.076  16.116  84.637  1.00  0.00     0.238 A 
ATOM      4  O   UNL     1      44.258  17.021  84.327  1.00  0.00    -0.285 OA
ATOM      5  C   UNL     1      46.457  16.390  84.795  1.00  0.00     0.111 A 
ATOM      6  C   UNL     1      47.044  17.688  84.695  1.00  0.00     0.134 A 
ATOM      7  C   UNL     1      48.437  17.823  84.764  1.00  0.00     0.093 A 
ATOM      8  C   UNL     1      49.258  16.717  84.994  1.00  0.00     0.123 A 
ATOM      9  C   UNL     1      48.690  15.454  85.148  1.00  0.00     0.094 A 
ATOM     10  C   UNL     1      47.308  15.281  85.045  1.00  0.00     0.146 A 
ATOM     11  O   UNL     1      46.811  14.057  85.177  1.00  0.00    -0.452 OA
ENDROOT
BRANCH   1  12
ATOM     12  C   UNL     1      45.095  12.366  85.238  1.00  0.00     0.025 A 
ATOM     13  C   UNL     1      45.380  11.392  84.266  1.00  0.00     0.016 A 
ATOM     14  C   UNL     1      44.990  10.065  84.461  1.00  0.00     0.051 A 
ATOM     15  C   UNL     1      44.324   9.689  85.635  1.00  0.00     0.157 A 
ATOM     16  C   UNL     1      44.445  11.981  86.422  1.00  0.00     0.062 A 
ATOM     17  C   UNL     1      44.052  10.652  86.621  1.00  0.00     0.158 A 
BRANCH  15  18
ATOM     18  O   UNL     1      43.934   8.363  85.825  1.00  0.00    -0.504 OA
ATOM     19  H   UNL     1      43.188   7.946  85.283  1.00  0.00     0.293 HD
ENDBRANCH  15  18
BRANCH  17  20
ATOM     20  O   UNL     1      43.397  10.309  87.803  1.00  0.00    -0.504 OA
ATOM     21  H   UNL     1      43.113   9.358  88.004  1.00  0.00     0.293 HD
ENDBRANCH  17  20
ENDBRANCH   1  12
BRANCH   2  22
ATOM     22  O   UNL     1      43.233  14.528  84.726  1.00  0.00    -0.502 OA
ATOM     23  H   UNL     1      42.807  14.114  83.905  1.00  0.00     0.293 HD
ENDBRANCH   2  22
BRANCH   6  24
ATOM     24  O   UNL     1      46.312  18.871  84.553  1.00  0.00    -0.507 OA
ATOM     25  H   UNL     1      46.687  19.799  84.677  1.00  0.00     0.293 HD
ENDBRANCH   6  24
BRANCH   8  26
ATOM     26  O   UNL     1      50.640  16.862  85.079  1.00  0.00    -0.508 OA
ATOM     27  H   UNL     1      51.188  17.194  84.293  1.00  0.00     0.293 HD
ENDBRANCH   8  26
TORSDOF 6
ENDMDL
