MODEL 1
REMARK VINA RESULT:    -4.873      0.000      0.000
REMARK INTER + INTRA:         -11.075
REMARK INTER:                  -9.432
REMARK INTRA:                  -1.643
REMARK UNBOUND:                -1.643
REMARK SMILES CCCCCCCCCCCCCCCCCC(=O)[O-]
REMARK SMILES IDX 10 1 11 2 12 3 13 4 14 5 15 6 16 7 17 8 18 9 19 10 20 11
REMARK SMILES IDX 9 12 8 13 7 14 6 15 5 16 4 17 3 18 2 19 1 20
REMARK H PARENT
REMARK Flexibility Score: inf
ROOT
ATOM      1  C   UNL     1     -14.278 -12.083  12.903  1.00  0.00     0.000 C 
ENDROOT
BRANCH   1   2
ATOM      2  C   UNL     1     -13.046 -12.133  13.824  1.00  0.00     0.000 C 
BRANCH   2   3
ATOM      3  C   UNL     1     -12.262 -13.462  13.799  1.00  0.00     0.000 C 
BRANCH   3   4
ATOM      4  C   UNL     1     -11.691 -13.908  15.159  1.00  0.00     0.000 C 
BRANCH   4   5
ATOM      5  C   UNL     1     -11.279 -12.757  16.097  1.00  0.00     0.000 C 
BRANCH   5   6
ATOM      6  C   UNL     1      -9.762 -12.472  16.099  1.00  0.00     0.000 C 
BRANCH   6   7
ATOM      7  C   UNL     1      -9.257 -11.972  14.734  1.00  0.00     0.006 C 
BRANCH   7   8
ATOM      8  C   UNL     1      -7.912 -12.602  14.348  1.00  0.00     0.053 C 
BRANCH   8   9
ATOM      9  C   UNL     1      -6.775 -11.643  14.533  1.00  0.00     0.041 C 
ATOM     10  O   UNL     1      -6.700 -10.943  15.577  1.00  0.00    -0.550 OA
ATOM     11  O   UNL     1      -5.816 -11.502  13.537  1.00  0.00    -0.550 OA
ENDBRANCH   8   9
ENDBRANCH   7   8
ENDBRANCH   6   7
ENDBRANCH   5   6
ENDBRANCH   4   5
ENDBRANCH   3   4
ENDBRANCH   2   3
ENDBRANCH   1   2
BRANCH   1  12
ATOM     12  C   UNL     1     -15.279 -13.214  13.180  1.00  0.00     0.000 C 
BRANCH  12  13
ATOM     13  C   UNL     1     -16.401 -12.737  14.114  1.00  0.00    -0.000 C 
BRANCH  13  14
ATOM     14  C   UNL     1     -16.883 -13.835  15.079  1.00  0.00    -0.000 C 
BRANCH  14  15
ATOM     15  C   UNL     1     -16.418 -13.670  16.540  1.00  0.00    -0.000 C 
BRANCH  15  16
ATOM     16  C   UNL     1     -14.898 -13.509  16.727  1.00  0.00    -0.000 C 
BRANCH  16  17
ATOM     17  C   UNL     1     -14.526 -12.887  18.081  1.00  0.00    -0.000 C 
BRANCH  17  18
ATOM     18  C   UNL     1     -15.534 -11.804  18.482  1.00  0.00    -0.000 C 
BRANCH  18  19
ATOM     19  C   UNL     1     -15.986 -11.985  19.936  1.00  0.00    -0.003 C 
ATOM     20  C   UNL     1     -17.507 -11.961  20.048  1.00  0.00     0.004 C 
ENDBRANCH  18  19
ENDBRANCH  17  18
ENDBRANCH  16  17
ENDBRANCH  15  16
ENDBRANCH  14  15
ENDBRANCH  13  14
ENDBRANCH  12  13
ENDBRANCH   1  12
TORSDOF 16
ENDMDL
MODEL 2
REMARK VINA RESULT:    -4.757      4.148      7.801
REMARK INTER + INTRA:         -10.849
REMARK INTER:                  -9.508
REMARK INTRA:                  -1.341
REMARK UNBOUND:                -1.643
REMARK SMILES CCCCCCCCCCCCCCCCCC(=O)[O-]
REMARK SMILES IDX 10 1 11 2 12 3 13 4 14 5 15 6 16 7 17 8 18 9 19 10 20 11
REMARK SMILES IDX 9 12 8 13 7 14 6 15 5 16 4 17 3 18 2 19 1 20
REMARK H PARENT
REMARK Flexibility Score: inf
ROOT
ATOM      1  C   UNL     1     -14.997 -13.326  13.253  1.00  0.00     0.000 C 
ENDROOT
BRANCH   1   2
ATOM      2  C   UNL     1     -16.489 -13.234  13.622  1.00  0.00     0.000 C 
BRANCH   2   3
ATOM      3  C   UNL     1     -16.856 -13.795  15.012  1.00  0.00     0.000 C 
BRANCH   3   4
ATOM      4  C   UNL     1     -15.729 -13.728  16.061  1.00  0.00     0.000 C 
BRANCH   4   5
ATOM      5  C   UNL     1     -16.200 -13.444  17.500  1.00  0.00     0.000 C 
BRANCH   5   6
ATOM      6  C   UNL     1     -15.332 -12.406  18.243  1.00  0.00     0.000 C 
BRANCH   6   7
ATOM      7  C   UNL     1     -15.850 -12.114  19.662  1.00  0.00     0.006 C 
BRANCH   7   8
ATOM      8  C   UNL     1     -17.378 -11.980  19.706  1.00  0.00     0.053 C 
BRANCH   8   9
ATOM      9  C   UNL     1     -17.828 -11.121  20.849  1.00  0.00     0.041 C 
ATOM     10  O   UNL     1     -17.001 -10.392  21.458  1.00  0.00    -0.550 OA
ATOM     11  O   UNL     1     -19.155 -11.149  21.259  1.00  0.00    -0.550 OA
ENDBRANCH   8   9
ENDBRANCH   7   8
ENDBRANCH   6   7
ENDBRANCH   5   6
ENDBRANCH   4   5
ENDBRANCH   3   4
ENDBRANCH   2   3
ENDBRANCH   1   2
BRANCH   1  12
ATOM     12  C   UNL     1     -14.314 -11.953  13.177  1.00  0.00     0.000 C 
BRANCH  12  13
ATOM     13  C   UNL     1     -12.808 -12.074  13.454  1.00  0.00    -0.000 C 
BRANCH  13  14
ATOM     14  C   UNL     1     -12.498 -12.467  14.909  1.00  0.00    -0.000 C 
BRANCH  14  15
ATOM     15  C   UNL     1     -11.885 -13.871  15.090  1.00  0.00    -0.000 C 
BRANCH  15  16
ATOM     16  C   UNL     1     -10.364 -13.893  15.330  1.00  0.00    -0.000 C 
BRANCH  16  17
ATOM     17  C   UNL     1      -9.813 -12.537  15.793  1.00  0.00    -0.000 C 
BRANCH  17  18
ATOM     18  C   UNL     1      -8.303 -12.444  15.541  1.00  0.00    -0.000 C 
BRANCH  18  19
ATOM     19  C   UNL     1      -7.918 -11.059  15.007  1.00  0.00    -0.003 C 
ATOM     20  C   UNL     1      -8.996 -10.506  14.081  1.00  0.00     0.004 C 
ENDBRANCH  18  19
ENDBRANCH  17  18
ENDBRANCH  16  17
ENDBRANCH  15  16
ENDBRANCH  14  15
ENDBRANCH  13  14
ENDBRANCH  12  13
ENDBRANCH   1  12
TORSDOF 16
ENDMDL
MODEL 3
REMARK VINA RESULT:    -4.727      4.960      9.080
REMARK INTER + INTRA:         -10.792
REMARK INTER:                  -9.607
REMARK INTRA:                  -1.186
REMARK UNBOUND:                -1.643
REMARK SMILES CCCCCCCCCCCCCCCCCC(=O)[O-]
REMARK SMILES IDX 10 1 11 2 12 3 13 4 14 5 15 6 16 7 17 8 18 9 19 10 20 11
REMARK SMILES IDX 9 12 8 13 7 14 6 15 5 16 4 17 3 18 2 19 1 20
REMARK H PARENT
REMARK Flexibility Score: inf
ROOT
ATOM      1  C   UNL     1     -14.678 -12.040  15.254  1.00  0.00     0.000 C 
ENDROOT
BRANCH   1   2
ATOM      2  C   UNL     1     -15.224 -13.414  15.686  1.00  0.00     0.000 C 
BRANCH   2   3
ATOM      3  C   UNL     1     -15.819 -13.464  17.109  1.00  0.00     0.000 C 
BRANCH   3   4
ATOM      4  C   UNL     1     -14.996 -12.732  18.186  1.00  0.00     0.000 C 
BRANCH   4   5
ATOM      5  C   UNL     1     -15.784 -11.693  19.008  1.00  0.00     0.000 C 
BRANCH   5   6
ATOM      6  C   UNL     1     -17.082 -12.251  19.631  1.00  0.00     0.000 C 
BRANCH   6   7
ATOM      7  C   UNL     1     -17.513 -11.472  20.886  1.00  0.00     0.006 C 
BRANCH   7   8
ATOM      8  C   UNL     1     -18.997 -11.087  20.849  1.00  0.00     0.053 C 
BRANCH   8   9
ATOM      9  C   UNL     1     -19.566 -10.929  22.227  1.00  0.00     0.041 C 
ATOM     10  O   UNL     1     -20.812 -10.863  22.395  1.00  0.00    -0.550 OA
ATOM     11  O   UNL     1     -18.716 -10.824  23.321  1.00  0.00    -0.550 OA
ENDBRANCH   8   9
ENDBRANCH   7   8
ENDBRANCH   6   7
ENDBRANCH   5   6
ENDBRANCH   4   5
ENDBRANCH   3   4
ENDBRANCH   2   3
ENDBRANCH   1   2
BRANCH   1  12
ATOM     12  C   UNL     1     -13.328 -12.134  14.529  1.00  0.00     0.000 C 
BRANCH  12  13
ATOM     13  C   UNL     1     -12.890 -13.598  14.374  1.00  0.00    -0.000 C 
BRANCH  13  14
ATOM     14  C   UNL     1     -11.592 -13.918  15.137  1.00  0.00    -0.000 C 
BRANCH  14  15
ATOM     15  C   UNL     1     -11.066 -12.781  16.036  1.00  0.00    -0.000 C 
BRANCH  15  16
ATOM     16  C   UNL     1      -9.570 -12.455  15.868  1.00  0.00    -0.000 C 
BRANCH  16  17
ATOM     17  C   UNL     1      -9.160 -12.275  14.399  1.00  0.00    -0.000 C 
BRANCH  17  18
ATOM     18  C   UNL     1      -8.822 -10.810  14.100  1.00  0.00    -0.000 C 
BRANCH  18  19
ATOM     19  C   UNL     1      -7.305 -10.595  14.047  1.00  0.00    -0.003 C 
ATOM     20  C   UNL     1      -6.574 -11.895  13.732  1.00  0.00     0.004 C 
ENDBRANCH  18  19
ENDBRANCH  17  18
ENDBRANCH  16  17
ENDBRANCH  15  16
ENDBRANCH  14  15
ENDBRANCH  13  14
ENDBRANCH  12  13
ENDBRANCH   1  12
TORSDOF 16
ENDMDL
MODEL 4
REMARK VINA RESULT:    -4.717      1.298      2.459
REMARK INTER + INTRA:         -10.772
REMARK INTER:                  -9.754
REMARK INTRA:                  -1.017
REMARK UNBOUND:                -1.643
REMARK SMILES CCCCCCCCCCCCCCCCCC(=O)[O-]
REMARK SMILES IDX 10 1 11 2 12 3 13 4 14 5 15 6 16 7 17 8 18 9 19 10 20 11
REMARK SMILES IDX 9 12 8 13 7 14 6 15 5 16 4 17 3 18 2 19 1 20
REMARK H PARENT
REMARK Flexibility Score: inf
ROOT
ATOM      1  C   UNL     1     -15.681 -12.692  14.469  1.00  0.00     0.000 C 
ENDROOT
BRANCH   1   2
ATOM      2  C   UNL     1     -14.479 -13.346  13.765  1.00  0.00     0.000 C 
BRANCH   2   3
ATOM      3  C   UNL     1     -13.113 -12.689  14.053  1.00  0.00     0.000 C 
BRANCH   3   4
ATOM      4  C   UNL     1     -12.396 -13.203  15.316  1.00  0.00     0.000 C 
BRANCH   4   5
ATOM      5  C   UNL     1     -11.017 -13.844  15.063  1.00  0.00     0.000 C 
BRANCH   5   6
ATOM      6  C   UNL     1      -9.831 -12.943  15.469  1.00  0.00     0.000 C 
BRANCH   6   7
ATOM      7  C   UNL     1      -9.013 -12.468  14.255  1.00  0.00     0.006 C 
BRANCH   7   8
ATOM      8  C   UNL     1      -8.736 -10.959  14.297  1.00  0.00     0.053 C 
BRANCH   8   9
ATOM      9  C   UNL     1      -7.309 -10.666  14.648  1.00  0.00     0.041 C 
ATOM     10  O   UNL     1      -6.587  -9.998  13.861  1.00  0.00    -0.550 OA
ATOM     11  O   UNL     1      -6.768 -11.156  15.830  1.00  0.00    -0.550 OA
ENDBRANCH   8   9
ENDBRANCH   7   8
ENDBRANCH   6   7
ENDBRANCH   5   6
ENDBRANCH   4   5
ENDBRANCH   3   4
ENDBRANCH   2   3
ENDBRANCH   1   2
BRANCH   1  12
ATOM     12  C   UNL     1     -16.559 -13.704  15.219  1.00  0.00     0.000 C 
BRANCH  12  13
ATOM     13  C   UNL     1     -16.121 -13.829  16.686  1.00  0.00    -0.000 C 
BRANCH  13  14
ATOM     14  C   UNL     1     -15.419 -12.563  17.211  1.00  0.00    -0.000 C 
BRANCH  14  15
ATOM     15  C   UNL     1     -15.469 -12.376  18.741  1.00  0.00    -0.000 C 
BRANCH  15  16
ATOM     16  C   UNL     1     -16.883 -12.300  19.344  1.00  0.00    -0.000 C 
BRANCH  16  17
ATOM     17  C   UNL     1     -16.880 -11.888  20.823  1.00  0.00    -0.000 C 
BRANCH  17  18
ATOM     18  C   UNL     1     -17.659 -10.583  21.030  1.00  0.00    -0.000 C 
BRANCH  18  19
ATOM     19  C   UNL     1     -18.992 -10.844  21.741  1.00  0.00    -0.003 C 
ATOM     20  C   UNL     1     -20.174 -10.479  20.849  1.00  0.00     0.004 C 
ENDBRANCH  18  19
ENDBRANCH  17  18
ENDBRANCH  16  17
ENDBRANCH  15  16
ENDBRANCH  14  15
ENDBRANCH  13  14
ENDBRANCH  12  13
ENDBRANCH   1  12
TORSDOF 16
ENDMDL
MODEL 5
REMARK VINA RESULT:    -4.656      2.335      4.426
REMARK INTER + INTRA:         -10.653
REMARK INTER:                  -8.774
REMARK INTRA:                  -1.879
REMARK UNBOUND:                -1.643
REMARK SMILES CCCCCCCCCCCCCCCCCC(=O)[O-]
REMARK SMILES IDX 10 1 11 2 12 3 13 4 14 5 15 6 16 7 17 8 18 9 19 10 20 11
REMARK SMILES IDX 9 12 8 13 7 14 6 15 5 16 4 17 3 18 2 19 1 20
REMARK H PARENT
REMARK Flexibility Score: inf
ROOT
ATOM      1  C   UNL     1     -11.483 -12.808  15.935  1.00  0.00     0.000 C 
ENDROOT
BRANCH   1   2
ATOM      2  C   UNL     1     -10.276 -13.582  15.375  1.00  0.00     0.000 C 
BRANCH   2   3
ATOM      3  C   UNL     1      -9.552 -12.901  14.195  1.00  0.00     0.000 C 
BRANCH   3   4
ATOM      4  C   UNL     1      -9.703 -11.369  14.132  1.00  0.00     0.000 C 
BRANCH   4   5
ATOM      5  C   UNL     1      -8.533 -10.578  14.748  1.00  0.00     0.000 C 
BRANCH   5   6
ATOM      6  C   UNL     1      -7.296 -11.445  15.064  1.00  0.00     0.000 C 
BRANCH   6   7
ATOM      7  C   UNL     1      -6.826 -11.289  16.520  1.00  0.00     0.006 C 
BRANCH   7   8
ATOM      8  C   UNL     1      -7.692 -12.091  17.499  1.00  0.00     0.053 C 
BRANCH   8   9
ATOM      9  C   UNL     1      -7.182 -11.991  18.905  1.00  0.00     0.041 C 
ATOM     10  O   UNL     1      -7.964 -11.686  19.844  1.00  0.00    -0.550 OA
ATOM     11  O   UNL     1      -5.835 -12.204  19.172  1.00  0.00    -0.550 OA
ENDBRANCH   8   9
ENDBRANCH   7   8
ENDBRANCH   6   7
ENDBRANCH   5   6
ENDBRANCH   4   5
ENDBRANCH   3   4
ENDBRANCH   2   3
ENDBRANCH   1   2
BRANCH   1  12
ATOM     12  C   UNL     1     -12.824 -13.496  15.641  1.00  0.00     0.000 C 
BRANCH  12  13
ATOM     13  C   UNL     1     -13.855 -13.180  16.735  1.00  0.00    -0.000 C 
BRANCH  13  14
ATOM     14  C   UNL     1     -15.121 -12.498  16.186  1.00  0.00    -0.000 C 
BRANCH  14  15
ATOM     15  C   UNL     1     -16.279 -13.456  15.837  1.00  0.00    -0.000 C 
BRANCH  15  16
ATOM     16  C   UNL     1     -16.826 -13.323  14.404  1.00  0.00    -0.000 C 
BRANCH  16  17
ATOM     17  C   UNL     1     -16.245 -14.370  13.443  1.00  0.00    -0.000 C 
BRANCH  17  18
ATOM     18  C   UNL     1     -14.983 -13.840  12.753  1.00  0.00    -0.000 C 
BRANCH  18  19
ATOM     19  C   UNL     1     -15.083 -12.329  12.508  1.00  0.00    -0.003 C 
ATOM     20  C   UNL     1     -13.751 -11.637  12.778  1.00  0.00     0.004 C 
ENDBRANCH  18  19
ENDBRANCH  17  18
ENDBRANCH  16  17
ENDBRANCH  15  16
ENDBRANCH  14  15
ENDBRANCH  13  14
ENDBRANCH  12  13
ENDBRANCH   1  12
TORSDOF 16
ENDMDL
MODEL 6
REMARK VINA RESULT:    -4.601      4.907      8.659
REMARK INTER + INTRA:         -10.547
REMARK INTER:                  -9.245
REMARK INTRA:                  -1.301
REMARK UNBOUND:                -1.643
REMARK SMILES CCCCCCCCCCCCCCCCCC(=O)[O-]
REMARK SMILES IDX 10 1 11 2 12 3 13 4 14 5 15 6 16 7 17 8 18 9 19 10 20 11
REMARK SMILES IDX 9 12 8 13 7 14 6 15 5 16 4 17 3 18 2 19 1 20
REMARK H PARENT
REMARK Flexibility Score: inf
ROOT
ATOM      1  C   UNL     1     -15.952 -12.594  14.942  1.00  0.00     0.000 C 
ENDROOT
BRANCH   1   2
ATOM      2  C   UNL     1     -16.067 -13.617  16.087  1.00  0.00     0.000 C 
BRANCH   2   3
ATOM      3  C   UNL     1     -15.037 -13.447  17.224  1.00  0.00     0.000 C 
BRANCH   3   4
ATOM      4  C   UNL     1     -15.413 -12.403  18.293  1.00  0.00     0.000 C 
BRANCH   4   5
ATOM      5  C   UNL     1     -16.809 -12.591  18.918  1.00  0.00     0.000 C 
BRANCH   5   6
ATOM      6  C   UNL     1     -16.846 -12.334  20.440  1.00  0.00     0.000 C 
BRANCH   6   7
ATOM      7  C   UNL     1     -17.528 -11.001  20.794  1.00  0.00     0.006 C 
BRANCH   7   8
ATOM      8  C   UNL     1     -19.048 -11.146  20.936  1.00  0.00     0.053 C 
BRANCH   8   9
ATOM      9  C   UNL     1     -19.499 -10.918  22.347  1.00  0.00     0.041 C 
ATOM     10  O   UNL     1     -18.654 -10.718  23.259  1.00  0.00    -0.550 OA
ATOM     11  O   UNL     1     -20.852 -10.959  22.659  1.00  0.00    -0.550 OA
ENDBRANCH   8   9
ENDBRANCH   7   8
ENDBRANCH   6   7
ENDBRANCH   5   6
ENDBRANCH   4   5
ENDBRANCH   3   4
ENDBRANCH   2   3
ENDBRANCH   1   2
BRANCH   1  12
ATOM     12  C   UNL     1     -15.928 -13.249  13.554  1.00  0.00     0.000 C 
BRANCH  12  13
ATOM     13  C   UNL     1     -14.701 -12.791  12.752  1.00  0.00    -0.000 C 
BRANCH  13  14
ATOM     14  C   UNL     1     -13.809 -11.808  13.532  1.00  0.00    -0.000 C 
BRANCH  14  15
ATOM     15  C   UNL     1     -12.363 -12.287  13.772  1.00  0.00    -0.000 C 
BRANCH  15  16
ATOM     16  C   UNL     1     -12.224 -13.501  14.709  1.00  0.00    -0.000 C 
BRANCH  16  17
ATOM     17  C   UNL     1     -10.768 -13.952  14.891  1.00  0.00    -0.000 C 
BRANCH  17  18
ATOM     18  C   UNL     1      -9.837 -13.196  13.935  1.00  0.00    -0.000 C 
BRANCH  18  19
ATOM     19  C   UNL     1      -8.596 -12.679  14.671  1.00  0.00    -0.003 C 
ATOM     20  C   UNL     1      -8.849 -12.569  16.171  1.00  0.00     0.004 C 
ENDBRANCH  18  19
ENDBRANCH  17  18
ENDBRANCH  16  17
ENDBRANCH  15  16
ENDBRANCH  14  15
ENDBRANCH  13  14
ENDBRANCH  12  13
ENDBRANCH   1  12
TORSDOF 16
ENDMDL
MODEL 7
REMARK VINA RESULT:    -4.543      3.609      7.619
REMARK INTER + INTRA:         -10.435
REMARK INTER:                  -9.076
REMARK INTRA:                  -1.358
REMARK UNBOUND:                -1.643
REMARK SMILES CCCCCCCCCCCCCCCCCC(=O)[O-]
REMARK SMILES IDX 10 1 11 2 12 3 13 4 14 5 15 6 16 7 17 8 18 9 19 10 20 11
REMARK SMILES IDX 9 12 8 13 7 14 6 15 5 16 4 17 3 18 2 19 1 20
REMARK H PARENT
REMARK Flexibility Score: inf
ROOT
ATOM      1  C   UNL     1     -16.608 -13.775  14.945  1.00  0.00     0.000 C 
ENDROOT
BRANCH   1   2
ATOM      2  C   UNL     1     -16.335 -13.798  16.460  1.00  0.00     0.000 C 
BRANCH   2   3
ATOM      3  C   UNL     1     -15.363 -12.712  16.967  1.00  0.00     0.000 C 
BRANCH   3   4
ATOM      4  C   UNL     1     -15.440 -12.422  18.478  1.00  0.00     0.000 C 
BRANCH   4   5
ATOM      5  C   UNL     1     -16.826 -12.651  19.112  1.00  0.00     0.000 C 
BRANCH   5   6
ATOM      6  C   UNL     1     -16.852 -12.433  20.640  1.00  0.00     0.000 C 
BRANCH   6   7
ATOM      7  C   UNL     1     -17.775 -11.272  21.052  1.00  0.00     0.006 C 
BRANCH   7   8
ATOM      8  C   UNL     1     -16.995  -9.978  21.315  1.00  0.00     0.053 C 
BRANCH   8   9
ATOM      9  C   UNL     1     -15.694 -10.243  22.010  1.00  0.00     0.041 C 
ATOM     10  O   UNL     1     -15.673 -10.485  23.246  1.00  0.00    -0.550 OA
ATOM     11  O   UNL     1     -14.503 -10.192  21.298  1.00  0.00    -0.550 OA
ENDBRANCH   8   9
ENDBRANCH   7   8
ENDBRANCH   6   7
ENDBRANCH   5   6
ENDBRANCH   4   5
ENDBRANCH   3   4
ENDBRANCH   2   3
ENDBRANCH   1   2
BRANCH   1  12
ATOM     12  C   UNL     1     -15.862 -12.647  14.219  1.00  0.00     0.000 C 
BRANCH  12  13
ATOM     13  C   UNL     1     -14.863 -13.216  13.201  1.00  0.00    -0.000 C 
BRANCH  13  14
ATOM     14  C   UNL     1     -13.557 -13.703  13.852  1.00  0.00    -0.000 C 
BRANCH  14  15
ATOM     15  C   UNL     1     -12.666 -12.590  14.441  1.00  0.00    -0.000 C 
BRANCH  15  16
ATOM     16  C   UNL     1     -11.828 -13.004  15.665  1.00  0.00    -0.000 C 
BRANCH  16  17
ATOM     17  C   UNL     1     -10.404 -13.440  15.294  1.00  0.00    -0.000 C 
BRANCH  17  18
ATOM     18  C   UNL     1      -9.361 -12.577  16.013  1.00  0.00    -0.000 C 
BRANCH  18  19
ATOM     19  C   UNL     1      -8.433 -11.883  15.008  1.00  0.00    -0.003 C 
ATOM     20  C   UNL     1      -9.207 -10.910  14.124  1.00  0.00     0.004 C 
ENDBRANCH  18  19
ENDBRANCH  17  18
ENDBRANCH  16  17
ENDBRANCH  15  16
ENDBRANCH  14  15
ENDBRANCH  13  14
ENDBRANCH  12  13
ENDBRANCH   1  12
TORSDOF 16
ENDMDL
MODEL 8
REMARK VINA RESULT:    -4.540      1.701      3.197
REMARK INTER + INTRA:         -10.430
REMARK INTER:                  -9.332
REMARK INTRA:                  -1.099
REMARK UNBOUND:                -1.643
REMARK SMILES CCCCCCCCCCCCCCCCCC(=O)[O-]
REMARK SMILES IDX 10 1 11 2 12 3 13 4 14 5 15 6 16 7 17 8 18 9 19 10 20 11
REMARK SMILES IDX 9 12 8 13 7 14 6 15 5 16 4 17 3 18 2 19 1 20
REMARK H PARENT
REMARK Flexibility Score: inf
ROOT
ATOM      1  C   UNL     1     -15.815 -12.794  15.226  1.00  0.00     0.000 C 
ENDROOT
BRANCH   1   2
ATOM      2  C   UNL     1     -15.864 -13.752  14.021  1.00  0.00     0.000 C 
BRANCH   2   3
ATOM      3  C   UNL     1     -14.536 -13.903  13.249  1.00  0.00     0.000 C 
BRANCH   3   4
ATOM      4  C   UNL     1     -13.288 -14.101  14.130  1.00  0.00     0.000 C 
BRANCH   4   5
ATOM      5  C   UNL     1     -12.300 -12.918  14.129  1.00  0.00     0.000 C 
BRANCH   5   6
ATOM      6  C   UNL     1     -11.438 -12.829  15.407  1.00  0.00     0.000 C 
BRANCH   6   7
ATOM      7  C   UNL     1     -10.140 -13.648  15.298  1.00  0.00     0.006 C 
BRANCH   7   8
ATOM      8  C   UNL     1      -8.943 -12.925  15.929  1.00  0.00     0.053 C 
BRANCH   8   9
ATOM      9  C   UNL     1      -8.327 -11.940  14.982  1.00  0.00     0.041 C 
ATOM     10  O   UNL     1      -7.537 -11.057  15.411  1.00  0.00    -0.550 OA
ATOM     11  O   UNL     1      -8.650 -11.978  13.632  1.00  0.00    -0.550 OA
ENDBRANCH   8   9
ENDBRANCH   7   8
ENDBRANCH   6   7
ENDBRANCH   5   6
ENDBRANCH   4   5
ENDBRANCH   3   4
ENDBRANCH   2   3
ENDBRANCH   1   2
BRANCH   1  12
ATOM     12  C   UNL     1     -15.898 -13.525  16.574  1.00  0.00     0.000 C 
BRANCH  12  13
ATOM     13  C   UNL     1     -14.710 -13.151  17.474  1.00  0.00    -0.000 C 
BRANCH  13  14
ATOM     14  C   UNL     1     -15.134 -12.370  18.730  1.00  0.00    -0.000 C 
BRANCH  14  15
ATOM     15  C   UNL     1     -16.655 -12.314  18.982  1.00  0.00    -0.000 C 
BRANCH  15  16
ATOM     16  C   UNL     1     -17.072 -12.348  20.464  1.00  0.00    -0.000 C 
BRANCH  16  17
ATOM     17  C   UNL     1     -18.116 -11.278  20.815  1.00  0.00    -0.000 C 
BRANCH  17  18
ATOM     18  C   UNL     1     -17.658 -10.437  22.012  1.00  0.00    -0.000 C 
BRANCH  18  19
ATOM     19  C   UNL     1     -18.665 -10.527  23.165  1.00  0.00    -0.003 C 
ATOM     20  C   UNL     1     -20.052 -10.909  22.658  1.00  0.00     0.004 C 
ENDBRANCH  18  19
ENDBRANCH  17  18
ENDBRANCH  16  17
ENDBRANCH  15  16
ENDBRANCH  14  15
ENDBRANCH  13  14
ENDBRANCH  12  13
ENDBRANCH   1  12
TORSDOF 16
ENDMDL
MODEL 9
REMARK VINA RESULT:    -4.488      1.452      2.434
REMARK INTER + INTRA:         -10.328
REMARK INTER:                  -9.143
REMARK INTRA:                  -1.186
REMARK UNBOUND:                -1.643
REMARK SMILES CCCCCCCCCCCCCCCCCC(=O)[O-]
REMARK SMILES IDX 10 1 11 2 12 3 13 4 14 5 15 6 16 7 17 8 18 9 19 10 20 11
REMARK SMILES IDX 9 12 8 13 7 14 6 15 5 16 4 17 3 18 2 19 1 20
REMARK H PARENT
REMARK Flexibility Score: inf
ROOT
ATOM      1  C   UNL     1     -14.911 -12.717  14.794  1.00  0.00     0.000 C 
ENDROOT
BRANCH   1   2
ATOM      2  C   UNL     1     -14.056 -13.784  14.086  1.00  0.00     0.000 C 
BRANCH   2   3
ATOM      3  C   UNL     1     -12.558 -13.774  14.456  1.00  0.00     0.000 C 
BRANCH   3   4
ATOM      4  C   UNL     1     -12.223 -13.110  15.805  1.00  0.00     0.000 C 
BRANCH   4   5
ATOM      5  C   UNL     1     -10.746 -12.706  15.979  1.00  0.00     0.000 C 
BRANCH   5   6
ATOM      6  C   UNL     1     -10.070 -12.252  14.667  1.00  0.00     0.000 C 
BRANCH   6   7
ATOM      7  C   UNL     1      -8.566 -12.579  14.639  1.00  0.00     0.006 C 
BRANCH   7   8
ATOM      8  C   UNL     1      -7.791 -11.659  13.687  1.00  0.00     0.053 C 
BRANCH   8   9
ATOM      9  C   UNL     1      -6.846 -10.762  14.428  1.00  0.00     0.041 C 
ATOM     10  O   UNL     1      -6.832 -10.756  15.687  1.00  0.00    -0.550 OA
ATOM     11  O   UNL     1      -6.002  -9.910  13.727  1.00  0.00    -0.550 OA
ENDBRANCH   8   9
ENDBRANCH   7   8
ENDBRANCH   6   7
ENDBRANCH   5   6
ENDBRANCH   4   5
ENDBRANCH   3   4
ENDBRANCH   2   3
ENDBRANCH   1   2
BRANCH   1  12
ATOM     12  C   UNL     1     -16.268 -13.257  15.269  1.00  0.00     0.000 C 
BRANCH  12  13
ATOM     13  C   UNL     1     -16.152 -13.872  16.672  1.00  0.00    -0.000 C 
BRANCH  13  14
ATOM     14  C   UNL     1     -15.605 -12.883  17.716  1.00  0.00    -0.000 C 
BRANCH  14  15
ATOM     15  C   UNL     1     -16.511 -12.663  18.945  1.00  0.00    -0.000 C 
BRANCH  15  16
ATOM     16  C   UNL     1     -16.243 -11.366  19.729  1.00  0.00    -0.000 C 
BRANCH  16  17
ATOM     17  C   UNL     1     -16.415 -11.538  21.245  1.00  0.00    -0.000 C 
BRANCH  17  18
ATOM     18  C   UNL     1     -15.122 -11.181  21.988  1.00  0.00    -0.000 C 
BRANCH  18  19
ATOM     19  C   UNL     1     -13.891 -11.474  21.122  1.00  0.00    -0.003 C 
ATOM     20  C   UNL     1     -13.249 -12.802  21.507  1.00  0.00     0.004 C 
ENDBRANCH  18  19
ENDBRANCH  17  18
ENDBRANCH  16  17
ENDBRANCH  15  16
ENDBRANCH  14  15
ENDBRANCH  13  14
ENDBRANCH  12  13
ENDBRANCH   1  12
TORSDOF 16
ENDMDL
