MODEL 1
REMARK VINA RESULT:    -4.973      0.000      0.000
REMARK INTER + INTRA:         -13.782
REMARK INTER:                 -10.788
REMARK INTRA:                  -2.994
REMARK UNBOUND:                -2.994
REMARK SMILES CCCCCCCCCCCCCCCCCCCCCC(=O)[O-]
REMARK SMILES IDX 12 1 11 2 10 3 9 4 8 5 7 6 6 7 5 8 4 9 3 10 2 11 1 12 13 13
REMARK SMILES IDX 14 14 15 15 16 16 17 17 18 18 19 19 20 20 21 21 22 22 23 23
REMARK SMILES IDX 24 24
REMARK H PARENT
REMARK Flexibility Score: inf
ROOT
ATOM      1  C   UNL     1      41.002  40.595  15.809  1.00  0.00     0.000 C 
ENDROOT
BRANCH   1   2
ATOM      2  C   UNL     1      42.444  40.137  16.081  1.00  0.00     0.000 C 
BRANCH   2   3
ATOM      3  C   UNL     1      43.470  40.856  15.187  1.00  0.00     0.000 C 
BRANCH   3   4
ATOM      4  C   UNL     1      44.217  39.889  14.254  1.00  0.00    -0.000 C 
BRANCH   4   5
ATOM      5  C   UNL     1      44.190  38.437  14.764  1.00  0.00    -0.000 C 
BRANCH   5   6
ATOM      6  C   UNL     1      44.315  37.401  13.632  1.00  0.00    -0.000 C 
BRANCH   6   7
ATOM      7  C   UNL     1      42.980  36.837  13.111  1.00  0.00    -0.000 C 
BRANCH   7   8
ATOM      8  C   UNL     1      41.803  37.110  14.060  1.00  0.00    -0.000 C 
BRANCH   8   9
ATOM      9  C   UNL     1      40.489  37.242  13.281  1.00  0.00    -0.000 C 
BRANCH   9  10
ATOM     10  C   UNL     1      40.149  38.717  13.023  1.00  0.00    -0.000 C 
BRANCH  10  11
ATOM     11  C   UNL     1      39.017  38.892  11.998  1.00  0.00    -0.003 C 
ATOM     12  C   UNL     1      38.329  37.573  11.646  1.00  0.00     0.004 C 
ENDBRANCH  10  11
ENDBRANCH   9  10
ENDBRANCH   8   9
ENDBRANCH   7   8
ENDBRANCH   6   7
ENDBRANCH   5   6
ENDBRANCH   4   5
ENDBRANCH   3   4
ENDBRANCH   2   3
ENDBRANCH   1   2
BRANCH   1  13
ATOM     13  C   UNL     1      40.927  42.045  15.294  1.00  0.00     0.000 C 
BRANCH  13  14
ATOM     14  C   UNL     1      40.432  43.030  16.365  1.00  0.00     0.000 C 
BRANCH  14  15
ATOM     15  C   UNL     1      41.022  44.440  16.186  1.00  0.00     0.000 C 
BRANCH  15  16
ATOM     16  C   UNL     1      42.302  44.443  15.334  1.00  0.00     0.000 C 
BRANCH  16  17
ATOM     17  C   UNL     1      43.583  44.471  16.188  1.00  0.00     0.000 C 
BRANCH  17  18
ATOM     18  C   UNL     1      43.288  44.349  17.693  1.00  0.00     0.000 C 
BRANCH  18  19
ATOM     19  C   UNL     1      43.582  42.940  18.237  1.00  0.00     0.000 C 
BRANCH  19  20
ATOM     20  C   UNL     1      43.180  42.769  19.714  1.00  0.00     0.006 C 
BRANCH  20  21
ATOM     21  C   UNL     1      41.794  42.134  19.917  1.00  0.00     0.053 C 
BRANCH  21  22
ATOM     22  C   UNL     1      41.852  40.639  19.991  1.00  0.00     0.041 C 
ATOM     23  O   UNL     1      42.642  40.075  20.795  1.00  0.00    -0.550 OA
ATOM     24  O   UNL     1      41.060  39.865  19.152  1.00  0.00    -0.550 OA
ENDBRANCH  21  22
ENDBRANCH  20  21
ENDBRANCH  19  20
ENDBRANCH  18  19
ENDBRANCH  17  18
ENDBRANCH  16  17
ENDBRANCH  15  16
ENDBRANCH  14  15
ENDBRANCH  13  14
ENDBRANCH   1  13
TORSDOF 20
ENDMDL
MODEL 2
REMARK VINA RESULT:    -4.878      2.284      3.631
REMARK INTER + INTRA:         -13.576
REMARK INTER:                 -11.114
REMARK INTRA:                  -2.462
REMARK UNBOUND:                -2.994
REMARK SMILES CCCCCCCCCCCCCCCCCCCCCC(=O)[O-]
REMARK SMILES IDX 12 1 11 2 10 3 9 4 8 5 7 6 6 7 5 8 4 9 3 10 2 11 1 12 13 13
REMARK SMILES IDX 14 14 15 15 16 16 17 17 18 18 19 19 20 20 21 21 22 22 23 23
REMARK SMILES IDX 24 24
REMARK H PARENT
REMARK Flexibility Score: inf
ROOT
ATOM      1  C   UNL     1      40.523  40.577  16.401  1.00  0.00     0.000 C 
ENDROOT
BRANCH   1   2
ATOM      2  C   UNL     1      41.454  41.097  15.294  1.00  0.00     0.000 C 
BRANCH   2   3
ATOM      3  C   UNL     1      42.935  41.075  15.712  1.00  0.00     0.000 C 
BRANCH   3   4
ATOM      4  C   UNL     1      43.830  40.385  14.670  1.00  0.00    -0.000 C 
BRANCH   4   5
ATOM      5  C   UNL     1      43.852  38.854  14.830  1.00  0.00    -0.000 C 
BRANCH   5   6
ATOM      6  C   UNL     1      44.074  38.114  13.499  1.00  0.00    -0.000 C 
BRANCH   6   7
ATOM      7  C   UNL     1      42.983  37.092  13.128  1.00  0.00    -0.000 C 
BRANCH   7   8
ATOM      8  C   UNL     1      41.847  37.027  14.160  1.00  0.00    -0.000 C 
BRANCH   8   9
ATOM      9  C   UNL     1      40.485  37.252  13.492  1.00  0.00    -0.000 C 
BRANCH   9  10
ATOM     10  C   UNL     1      40.423  38.631  12.821  1.00  0.00    -0.000 C 
BRANCH  10  11
ATOM     11  C   UNL     1      39.072  38.895  12.136  1.00  0.00    -0.003 C 
ATOM     12  C   UNL     1      38.418  37.618  11.607  1.00  0.00     0.004 C 
ENDBRANCH  10  11
ENDBRANCH   9  10
ENDBRANCH   8   9
ENDBRANCH   7   8
ENDBRANCH   6   7
ENDBRANCH   5   6
ENDBRANCH   4   5
ENDBRANCH   3   4
ENDBRANCH   2   3
ENDBRANCH   1   2
BRANCH   1  13
ATOM     13  C   UNL     1      40.864  41.158  17.786  1.00  0.00     0.000 C 
BRANCH  13  14
ATOM     14  C   UNL     1      41.597  40.153  18.687  1.00  0.00     0.000 C 
BRANCH  14  15
ATOM     15  C   UNL     1      41.637  40.601  20.159  1.00  0.00     0.000 C 
BRANCH  15  16
ATOM     16  C   UNL     1      41.766  42.126  20.310  1.00  0.00     0.000 C 
BRANCH  16  17
ATOM     17  C   UNL     1      43.208  42.570  20.620  1.00  0.00     0.000 C 
BRANCH  17  18
ATOM     18  C   UNL     1      43.725  43.623  19.626  1.00  0.00     0.000 C 
BRANCH  18  19
ATOM     19  C   UNL     1      43.325  43.308  18.174  1.00  0.00     0.000 C 
BRANCH  19  20
ATOM     20  C   UNL     1      43.376  44.541  17.253  1.00  0.00     0.006 C 
BRANCH  20  21
ATOM     21  C   UNL     1      42.122  44.726  16.382  1.00  0.00     0.053 C 
BRANCH  21  22
ATOM     22  C   UNL     1      42.453  45.093  14.968  1.00  0.00     0.041 C 
ATOM     23  O   UNL     1      42.077  46.199  14.496  1.00  0.00    -0.550 OA
ATOM     24  O   UNL     1      43.147  44.203  14.158  1.00  0.00    -0.550 OA
ENDBRANCH  21  22
ENDBRANCH  20  21
ENDBRANCH  19  20
ENDBRANCH  18  19
ENDBRANCH  17  18
ENDBRANCH  16  17
ENDBRANCH  15  16
ENDBRANCH  14  15
ENDBRANCH  13  14
ENDBRANCH   1  13
TORSDOF 20
ENDMDL
MODEL 3
REMARK VINA RESULT:    -4.210      2.745      3.973
REMARK INTER + INTRA:         -12.127
REMARK INTER:                 -10.477
REMARK INTRA:                  -1.650
REMARK UNBOUND:                -2.994
REMARK SMILES CCCCCCCCCCCCCCCCCCCCCC(=O)[O-]
REMARK SMILES IDX 12 1 11 2 10 3 9 4 8 5 7 6 6 7 5 8 4 9 3 10 2 11 1 12 13 13
REMARK SMILES IDX 14 14 15 15 16 16 17 17 18 18 19 19 20 20 21 21 22 22 23 23
REMARK SMILES IDX 24 24
REMARK H PARENT
REMARK Flexibility Score: inf
ROOT
ATOM      1  C   UNL     1      40.637  41.276  17.639  1.00  0.00     0.000 C 
ENDROOT
BRANCH   1   2
ATOM      2  C   UNL     1      41.597  40.547  16.685  1.00  0.00     0.000 C 
BRANCH   2   3
ATOM      3  C   UNL     1      42.534  41.514  15.939  1.00  0.00     0.000 C 
BRANCH   3   4
ATOM      4  C   UNL     1      43.211  40.859  14.725  1.00  0.00    -0.000 C 
BRANCH   4   5
ATOM      5  C   UNL     1      43.856  39.505  15.067  1.00  0.00    -0.000 C 
BRANCH   5   6
ATOM      6  C   UNL     1      44.456  38.797  13.839  1.00  0.00    -0.000 C 
BRANCH   6   7
ATOM      7  C   UNL     1      43.701  37.536  13.376  1.00  0.00    -0.000 C 
BRANCH   7   8
ATOM      8  C   UNL     1      42.460  37.234  14.230  1.00  0.00    -0.000 C 
BRANCH   8   9
ATOM      9  C   UNL     1      41.190  37.230  13.371  1.00  0.00    -0.000 C 
BRANCH   9  10
ATOM     10  C   UNL     1      40.411  38.543  13.537  1.00  0.00    -0.000 C 
BRANCH  10  11
ATOM     11  C   UNL     1      39.516  38.856  12.327  1.00  0.00    -0.003 C 
ATOM     12  C   UNL     1      38.602  37.690  11.951  1.00  0.00     0.004 C 
ENDBRANCH  10  11
ENDBRANCH   9  10
ENDBRANCH   8   9
ENDBRANCH   7   8
ENDBRANCH   6   7
ENDBRANCH   5   6
ENDBRANCH   4   5
ENDBRANCH   3   4
ENDBRANCH   2   3
ENDBRANCH   1   2
BRANCH   1  13
ATOM     13  C   UNL     1      41.369  42.226  18.606  1.00  0.00     0.000 C 
BRANCH  13  14
ATOM     14  C   UNL     1      42.450  41.512  19.433  1.00  0.00     0.000 C 
BRANCH  14  15
ATOM     15  C   UNL     1      42.902  42.339  20.649  1.00  0.00     0.000 C 
BRANCH  15  16
ATOM     16  C   UNL     1      43.994  43.363  20.296  1.00  0.00     0.000 C 
BRANCH  16  17
ATOM     17  C   UNL     1      44.385  44.249  21.494  1.00  0.00     0.000 C 
BRANCH  17  18
ATOM     18  C   UNL     1      44.765  45.677  21.069  1.00  0.00     0.000 C 
BRANCH  18  19
ATOM     19  C   UNL     1      44.923  45.815  19.545  1.00  0.00     0.000 C 
BRANCH  19  20
ATOM     20  C   UNL     1      44.757  47.264  19.051  1.00  0.00     0.006 C 
BRANCH  20  21
ATOM     21  C   UNL     1      44.908  47.428  17.529  1.00  0.00     0.053 C 
BRANCH  21  22
ATOM     22  C   UNL     1      44.112  46.418  16.760  1.00  0.00     0.041 C 
ATOM     23  O   UNL     1      44.699  45.541  16.072  1.00  0.00    -0.550 OA
ATOM     24  O   UNL     1      42.724  46.464  16.773  1.00  0.00    -0.550 OA
ENDBRANCH  21  22
ENDBRANCH  20  21
ENDBRANCH  19  20
ENDBRANCH  18  19
ENDBRANCH  17  18
ENDBRANCH  16  17
ENDBRANCH  15  16
ENDBRANCH  14  15
ENDBRANCH  13  14
ENDBRANCH   1  13
TORSDOF 20
ENDMDL
MODEL 4
REMARK VINA RESULT:    -4.134      3.168      6.266
REMARK INTER + INTRA:         -11.962
REMARK INTER:                  -9.912
REMARK INTRA:                  -2.050
REMARK UNBOUND:                -2.994
REMARK SMILES CCCCCCCCCCCCCCCCCCCCCC(=O)[O-]
REMARK SMILES IDX 12 1 11 2 10 3 9 4 8 5 7 6 6 7 5 8 4 9 3 10 2 11 1 12 13 13
REMARK SMILES IDX 14 14 15 15 16 16 17 17 18 18 19 19 20 20 21 21 22 22 23 23
REMARK SMILES IDX 24 24
REMARK H PARENT
REMARK Flexibility Score: inf
ROOT
ATOM      1  C   UNL     1      43.204  38.041  13.225  1.00  0.00     0.000 C 
ENDROOT
BRANCH   1   2
ATOM      2  C   UNL     1      42.176  36.957  13.587  1.00  0.00     0.000 C 
BRANCH   2   3
ATOM      3  C   UNL     1      40.725  37.451  13.450  1.00  0.00     0.000 C 
BRANCH   3   4
ATOM      4  C   UNL     1      40.611  38.980  13.563  1.00  0.00    -0.000 C 
BRANCH   4   5
ATOM      5  C   UNL     1      40.657  39.469  15.022  1.00  0.00    -0.000 C 
BRANCH   5   6
ATOM      6  C   UNL     1      40.590  41.003  15.144  1.00  0.00    -0.000 C 
BRANCH   6   7
ATOM      7  C   UNL     1      40.638  41.547  16.583  1.00  0.00    -0.000 C 
BRANCH   7   8
ATOM      8  C   UNL     1      41.630  40.790  17.479  1.00  0.00    -0.000 C 
BRANCH   8   9
ATOM      9  C   UNL     1      42.843  41.665  17.818  1.00  0.00    -0.000 C 
BRANCH   9  10
ATOM     10  C   UNL     1      42.803  42.115  19.285  1.00  0.00    -0.000 C 
BRANCH  10  11
ATOM     11  C   UNL     1      41.684  41.427  20.084  1.00  0.00    -0.003 C 
ATOM     12  C   UNL     1      42.131  40.103  20.706  1.00  0.00     0.004 C 
ENDBRANCH  10  11
ENDBRANCH   9  10
ENDBRANCH   8   9
ENDBRANCH   7   8
ENDBRANCH   6   7
ENDBRANCH   5   6
ENDBRANCH   4   5
ENDBRANCH   3   4
ENDBRANCH   2   3
ENDBRANCH   1   2
BRANCH   1  13
ATOM     13  C   UNL     1      44.239  38.274  14.341  1.00  0.00     0.000 C 
BRANCH  13  14
ATOM     14  C   UNL     1      44.820  39.696  14.323  1.00  0.00     0.000 C 
BRANCH  14  15
ATOM     15  C   UNL     1      43.761  40.769  14.633  1.00  0.00     0.000 C 
BRANCH  15  16
ATOM     16  C   UNL     1      44.234  42.188  14.278  1.00  0.00     0.000 C 
BRANCH  16  17
ATOM     17  C   UNL     1      43.077  43.203  14.227  1.00  0.00     0.000 C 
BRANCH  17  18
ATOM     18  C   UNL     1      43.391  44.491  15.007  1.00  0.00     0.000 C 
BRANCH  18  19
ATOM     19  C   UNL     1      42.408  44.731  16.166  1.00  0.00     0.000 C 
BRANCH  19  20
ATOM     20  C   UNL     1      41.166  45.539  15.745  1.00  0.00     0.006 C 
BRANCH  20  21
ATOM     21  C   UNL     1      41.401  47.058  15.675  1.00  0.00     0.053 C 
BRANCH  21  22
ATOM     22  C   UNL     1      41.443  47.569  14.267  1.00  0.00     0.041 C 
ATOM     23  O   UNL     1      40.393  47.597  13.573  1.00  0.00    -0.550 OA
ATOM     24  O   UNL     1      42.646  47.982  13.709  1.00  0.00    -0.550 OA
ENDBRANCH  21  22
ENDBRANCH  20  21
ENDBRANCH  19  20
ENDBRANCH  18  19
ENDBRANCH  17  18
ENDBRANCH  16  17
ENDBRANCH  15  16
ENDBRANCH  14  15
ENDBRANCH  13  14
ENDBRANCH   1  13
TORSDOF 20
ENDMDL
MODEL 5
REMARK VINA RESULT:    -4.129      1.719      3.020
REMARK INTER + INTRA:         -11.951
REMARK INTER:                  -9.797
REMARK INTRA:                  -2.154
REMARK UNBOUND:                -2.994
REMARK SMILES CCCCCCCCCCCCCCCCCCCCCC(=O)[O-]
REMARK SMILES IDX 12 1 11 2 10 3 9 4 8 5 7 6 6 7 5 8 4 9 3 10 2 11 1 12 13 13
REMARK SMILES IDX 14 14 15 15 16 16 17 17 18 18 19 19 20 20 21 21 22 22 23 23
REMARK SMILES IDX 24 24
REMARK H PARENT
REMARK Flexibility Score: inf
ROOT
ATOM      1  C   UNL     1      41.592  44.316  15.813  1.00  0.00     0.000 C 
ENDROOT
BRANCH   1   2
ATOM      2  C   UNL     1      40.989  43.370  16.864  1.00  0.00     0.000 C 
BRANCH   2   3
ATOM      3  C   UNL     1      40.985  41.902  16.402  1.00  0.00     0.000 C 
BRANCH   3   4
ATOM      4  C   UNL     1      42.363  41.235  16.547  1.00  0.00    -0.000 C 
BRANCH   4   5
ATOM      5  C   UNL     1      42.872  40.637  15.224  1.00  0.00    -0.000 C 
BRANCH   5   6
ATOM      6  C   UNL     1      43.257  39.152  15.345  1.00  0.00    -0.000 C 
BRANCH   6   7
ATOM      7  C   UNL     1      43.946  38.551  14.105  1.00  0.00    -0.000 C 
BRANCH   7   8
ATOM      8  C   UNL     1      42.948  38.041  13.054  1.00  0.00    -0.000 C 
BRANCH   8   9
ATOM      9  C   UNL     1      42.146  36.849  13.591  1.00  0.00    -0.000 C 
BRANCH   9  10
ATOM     10  C   UNL     1      40.637  37.120  13.510  1.00  0.00    -0.000 C 
BRANCH  10  11
ATOM     11  C   UNL     1      40.318  38.564  13.091  1.00  0.00    -0.003 C 
ATOM     12  C   UNL     1      39.117  38.654  12.150  1.00  0.00     0.004 C 
ENDBRANCH  10  11
ENDBRANCH   9  10
ENDBRANCH   8   9
ENDBRANCH   7   8
ENDBRANCH   6   7
ENDBRANCH   5   6
ENDBRANCH   4   5
ENDBRANCH   3   4
ENDBRANCH   2   3
ENDBRANCH   1   2
BRANCH   1  13
ATOM     13  C   UNL     1      42.242  45.564  16.440  1.00  0.00     0.000 C 
BRANCH  13  14
ATOM     14  C   UNL     1      43.573  45.251  17.141  1.00  0.00     0.000 C 
BRANCH  14  15
ATOM     15  C   UNL     1      44.077  46.425  17.999  1.00  0.00     0.000 C 
BRANCH  15  16
ATOM     16  C   UNL     1      45.125  45.992  19.038  1.00  0.00     0.000 C 
BRANCH  16  17
ATOM     17  C   UNL     1      44.850  46.578  20.435  1.00  0.00     0.000 C 
BRANCH  17  18
ATOM     18  C   UNL     1      45.018  45.535  21.553  1.00  0.00     0.000 C 
BRANCH  18  19
ATOM     19  C   UNL     1      44.909  44.092  21.032  1.00  0.00     0.000 C 
BRANCH  19  20
ATOM     20  C   UNL     1      43.467  43.552  21.049  1.00  0.00     0.006 C 
BRANCH  20  21
ATOM     21  C   UNL     1      43.141  42.599  19.886  1.00  0.00     0.053 C 
BRANCH  21  22
ATOM     22  C   UNL     1      42.164  41.531  20.275  1.00  0.00     0.041 C 
ATOM     23  O   UNL     1      42.387  40.329  19.970  1.00  0.00    -0.550 OA
ATOM     24  O   UNL     1      40.993  41.863  20.943  1.00  0.00    -0.550 OA
ENDBRANCH  21  22
ENDBRANCH  20  21
ENDBRANCH  19  20
ENDBRANCH  18  19
ENDBRANCH  17  18
ENDBRANCH  16  17
ENDBRANCH  15  16
ENDBRANCH  14  15
ENDBRANCH  13  14
ENDBRANCH   1  13
TORSDOF 20
ENDMDL
MODEL 6
REMARK VINA RESULT:    -4.031      1.966      4.982
REMARK INTER + INTRA:         -11.738
REMARK INTER:                  -9.181
REMARK INTRA:                  -2.557
REMARK UNBOUND:                -2.994
REMARK SMILES CCCCCCCCCCCCCCCCCCCCCC(=O)[O-]
REMARK SMILES IDX 12 1 11 2 10 3 9 4 8 5 7 6 6 7 5 8 4 9 3 10 2 11 1 12 13 13
REMARK SMILES IDX 14 14 15 15 16 16 17 17 18 18 19 19 20 20 21 21 22 22 23 23
REMARK SMILES IDX 24 24
REMARK H PARENT
REMARK Flexibility Score: inf
ROOT
ATOM      1  C   UNL     1      41.672  38.293  13.282  1.00  0.00     0.000 C 
ENDROOT
BRANCH   1   2
ATOM      2  C   UNL     1      42.576  37.391  14.137  1.00  0.00     0.000 C 
BRANCH   2   3
ATOM      3  C   UNL     1      43.656  38.186  14.892  1.00  0.00     0.000 C 
BRANCH   3   4
ATOM      4  C   UNL     1      44.729  38.760  13.953  1.00  0.00    -0.000 C 
BRANCH   4   5
ATOM      5  C   UNL     1      44.986  40.258  14.196  1.00  0.00    -0.000 C 
BRANCH   5   6
ATOM      6  C   UNL     1      43.943  40.903  15.126  1.00  0.00    -0.000 C 
BRANCH   6   7
ATOM      7  C   UNL     1      43.114  42.037  14.495  1.00  0.00    -0.000 C 
BRANCH   7   8
ATOM      8  C   UNL     1      43.982  43.184  13.955  1.00  0.00    -0.000 C 
BRANCH   8   9
ATOM      9  C   UNL     1      43.444  44.544  14.417  1.00  0.00    -0.000 C 
BRANCH   9  10
ATOM     10  C   UNL     1      42.121  44.382  15.178  1.00  0.00    -0.000 C 
BRANCH  10  11
ATOM     11  C   UNL     1      42.178  44.972  16.596  1.00  0.00    -0.003 C 
ATOM     12  C   UNL     1      43.579  45.448  16.981  1.00  0.00     0.004 C 
ENDBRANCH  10  11
ENDBRANCH   9  10
ENDBRANCH   8   9
ENDBRANCH   7   8
ENDBRANCH   6   7
ENDBRANCH   5   6
ENDBRANCH   4   5
ENDBRANCH   3   4
ENDBRANCH   2   3
ENDBRANCH   1   2
BRANCH   1  13
ATOM     13  C   UNL     1      40.408  38.750  14.033  1.00  0.00     0.000 C 
BRANCH  13  14
ATOM     14  C   UNL     1      40.531  40.179  14.586  1.00  0.00     0.000 C 
BRANCH  14  15
ATOM     15  C   UNL     1      40.607  40.211  16.123  1.00  0.00     0.000 C 
BRANCH  15  16
ATOM     16  C   UNL     1      40.306  41.603  16.702  1.00  0.00     0.000 C 
BRANCH  16  17
ATOM     17  C   UNL     1      40.899  41.800  18.109  1.00  0.00     0.000 C 
BRANCH  17  18
ATOM     18  C   UNL     1      41.771  40.612  18.550  1.00  0.00     0.000 C 
BRANCH  18  19
ATOM     19  C   UNL     1      42.201  40.714  20.024  1.00  0.00     0.000 C 
BRANCH  19  20
ATOM     20  C   UNL     1      42.416  42.166  20.490  1.00  0.00     0.006 C 
BRANCH  20  21
ATOM     21  C   UNL     1      43.548  42.900  19.752  1.00  0.00     0.053 C 
BRANCH  21  22
ATOM     22  C   UNL     1      44.376  43.749  20.669  1.00  0.00     0.041 C 
ATOM     23  O   UNL     1      44.678  44.927  20.340  1.00  0.00    -0.550 OA
ATOM     24  O   UNL     1      44.843  43.231  21.870  1.00  0.00    -0.550 OA
ENDBRANCH  21  22
ENDBRANCH  20  21
ENDBRANCH  19  20
ENDBRANCH  18  19
ENDBRANCH  17  18
ENDBRANCH  16  17
ENDBRANCH  15  16
ENDBRANCH  14  15
ENDBRANCH  13  14
ENDBRANCH   1  13
TORSDOF 20
ENDMDL
MODEL 7
REMARK VINA RESULT:    -4.026      1.579      3.498
REMARK INTER + INTRA:         -11.727
REMARK INTER:                  -8.977
REMARK INTRA:                  -2.750
REMARK UNBOUND:                -2.994
REMARK SMILES CCCCCCCCCCCCCCCCCCCCCC(=O)[O-]
REMARK SMILES IDX 12 1 11 2 10 3 9 4 8 5 7 6 6 7 5 8 4 9 3 10 2 11 1 12 13 13
REMARK SMILES IDX 14 14 15 15 16 16 17 17 18 18 19 19 20 20 21 21 22 22 23 23
REMARK SMILES IDX 24 24
REMARK H PARENT
REMARK Flexibility Score: inf
ROOT
ATOM      1  C   UNL     1      41.153  45.966  15.835  1.00  0.00     0.000 C 
ENDROOT
BRANCH   1   2
ATOM      2  C   UNL     1      41.710  44.563  15.545  1.00  0.00     0.000 C 
BRANCH   2   3
ATOM      3  C   UNL     1      40.793  43.444  16.071  1.00  0.00     0.000 C 
BRANCH   3   4
ATOM      4  C   UNL     1      40.985  42.121  15.312  1.00  0.00    -0.000 C 
BRANCH   4   5
ATOM      5  C   UNL     1      41.130  40.915  16.257  1.00  0.00    -0.000 C 
BRANCH   5   6
ATOM      6  C   UNL     1      42.557  40.336  16.277  1.00  0.00    -0.000 C 
BRANCH   6   7
ATOM      7  C   UNL     1      43.287  40.348  14.922  1.00  0.00    -0.000 C 
BRANCH   7   8
ATOM      8  C   UNL     1      43.974  39.013  14.599  1.00  0.00    -0.000 C 
BRANCH   8   9
ATOM      9  C   UNL     1      43.271  38.302  13.435  1.00  0.00    -0.000 C 
BRANCH   9  10
ATOM     10  C   UNL     1      42.429  37.122  13.941  1.00  0.00    -0.000 C 
BRANCH  10  11
ATOM     11  C   UNL     1      40.987  37.154  13.408  1.00  0.00    -0.003 C 
ATOM     12  C   UNL     1      40.385  38.560  13.418  1.00  0.00     0.004 C 
ENDBRANCH  10  11
ENDBRANCH   9  10
ENDBRANCH   8   9
ENDBRANCH   7   8
ENDBRANCH   6   7
ENDBRANCH   5   6
ENDBRANCH   4   5
ENDBRANCH   3   4
ENDBRANCH   2   3
ENDBRANCH   1   2
BRANCH   1  13
ATOM     13  C   UNL     1      41.982  47.083  15.175  1.00  0.00     0.000 C 
BRANCH  13  14
ATOM     14  C   UNL     1      43.083  46.537  14.252  1.00  0.00     0.000 C 
BRANCH  14  15
ATOM     15  C   UNL     1      44.496  46.886  14.752  1.00  0.00     0.000 C 
BRANCH  15  16
ATOM     16  C   UNL     1      44.488  47.533  16.148  1.00  0.00     0.000 C 
BRANCH  16  17
ATOM     17  C   UNL     1      45.054  46.602  17.235  1.00  0.00     0.000 C 
BRANCH  17  18
ATOM     18  C   UNL     1      43.958  46.037  18.155  1.00  0.00     0.000 C 
BRANCH  18  19
ATOM     19  C   UNL     1      44.366  44.706  18.808  1.00  0.00     0.000 C 
BRANCH  19  20
ATOM     20  C   UNL     1      43.269  43.629  18.717  1.00  0.00     0.006 C 
BRANCH  20  21
ATOM     21  C   UNL     1      43.344  42.563  19.824  1.00  0.00     0.053 C 
BRANCH  21  22
ATOM     22  C   UNL     1      42.166  41.637  19.811  1.00  0.00     0.041 C 
ATOM     23  O   UNL     1      41.049  42.040  19.389  1.00  0.00    -0.550 OA
ATOM     24  O   UNL     1      42.290  40.341  20.295  1.00  0.00    -0.550 OA
ENDBRANCH  21  22
ENDBRANCH  20  21
ENDBRANCH  19  20
ENDBRANCH  18  19
ENDBRANCH  17  18
ENDBRANCH  16  17
ENDBRANCH  15  16
ENDBRANCH  14  15
ENDBRANCH  13  14
ENDBRANCH   1  13
TORSDOF 20
ENDMDL
MODEL 8
REMARK VINA RESULT:    -4.018      1.728      5.849
REMARK INTER + INTRA:         -11.709
REMARK INTER:                  -9.294
REMARK INTRA:                  -2.415
REMARK UNBOUND:                -2.994
REMARK SMILES CCCCCCCCCCCCCCCCCCCCCC(=O)[O-]
REMARK SMILES IDX 12 1 11 2 10 3 9 4 8 5 7 6 6 7 5 8 4 9 3 10 2 11 1 12 13 13
REMARK SMILES IDX 14 14 15 15 16 16 17 17 18 18 19 19 20 20 21 21 22 22 23 23
REMARK SMILES IDX 24 24
REMARK H PARENT
REMARK Flexibility Score: inf
ROOT
ATOM      1  C   UNL     1      43.488  38.033  13.146  1.00  0.00     0.000 C 
ENDROOT
BRANCH   1   2
ATOM      2  C   UNL     1      44.823  38.192  13.891  1.00  0.00     0.000 C 
BRANCH   2   3
ATOM      3  C   UNL     1      44.906  39.515  14.674  1.00  0.00     0.000 C 
BRANCH   3   4
ATOM      4  C   UNL     1      43.773  40.487  14.310  1.00  0.00    -0.000 C 
BRANCH   4   5
ATOM      5  C   UNL     1      44.053  41.925  14.783  1.00  0.00    -0.000 C 
BRANCH   5   6
ATOM      6  C   UNL     1      42.910  42.901  14.449  1.00  0.00    -0.000 C 
BRANCH   6   7
ATOM      7  C   UNL     1      42.872  44.181  15.303  1.00  0.00    -0.000 C 
BRANCH   7   8
ATOM      8  C   UNL     1      41.450  44.574  15.731  1.00  0.00    -0.000 C 
BRANCH   8   9
ATOM      9  C   UNL     1      41.344  46.086  15.966  1.00  0.00    -0.000 C 
BRANCH   9  10
ATOM     10  C   UNL     1      40.383  46.733  14.959  1.00  0.00    -0.000 C 
BRANCH  10  11
ATOM     11  C   UNL     1      41.073  47.785  14.076  1.00  0.00    -0.003 C 
ATOM     12  C   UNL     1      42.570  47.526  13.907  1.00  0.00     0.004 C 
ENDBRANCH  10  11
ENDBRANCH   9  10
ENDBRANCH   8   9
ENDBRANCH   7   8
ENDBRANCH   6   7
ENDBRANCH   5   6
ENDBRANCH   4   5
ENDBRANCH   3   4
ENDBRANCH   2   3
ENDBRANCH   1   2
BRANCH   1  13
ATOM     13  C   UNL     1      42.673  36.823  13.641  1.00  0.00     0.000 C 
BRANCH  13  14
ATOM     14  C   UNL     1      41.188  37.157  13.857  1.00  0.00     0.000 C 
BRANCH  14  15
ATOM     15  C   UNL     1      40.723  38.351  13.004  1.00  0.00     0.000 C 
BRANCH  15  16
ATOM     16  C   UNL     1      40.136  39.491  13.852  1.00  0.00     0.000 C 
BRANCH  16  17
ATOM     17  C   UNL     1      40.913  39.716  15.162  1.00  0.00     0.000 C 
BRANCH  17  18
ATOM     18  C   UNL     1      40.532  41.036  15.853  1.00  0.00     0.000 C 
BRANCH  18  19
ATOM     19  C   UNL     1      40.599  40.939  17.387  1.00  0.00     0.000 C 
BRANCH  19  20
ATOM     20  C   UNL     1      42.036  40.785  17.918  1.00  0.00     0.006 C 
BRANCH  20  21
ATOM     21  C   UNL     1      42.665  42.098  18.415  1.00  0.00     0.053 C 
BRANCH  21  22
ATOM     22  C   UNL     1      42.591  42.243  19.904  1.00  0.00     0.041 C 
ATOM     23  O   UNL     1      41.597  41.797  20.535  1.00  0.00    -0.550 OA
ATOM     24  O   UNL     1      43.603  42.900  20.594  1.00  0.00    -0.550 OA
ENDBRANCH  21  22
ENDBRANCH  20  21
ENDBRANCH  19  20
ENDBRANCH  18  19
ENDBRANCH  17  18
ENDBRANCH  16  17
ENDBRANCH  15  16
ENDBRANCH  14  15
ENDBRANCH  13  14
ENDBRANCH   1  13
TORSDOF 20
ENDMDL
MODEL 9
REMARK VINA RESULT:    -3.974     11.186     14.720
REMARK INTER + INTRA:         -11.615
REMARK INTER:                 -10.179
REMARK INTRA:                  -1.436
REMARK UNBOUND:                -2.994
REMARK SMILES CCCCCCCCCCCCCCCCCCCCCC(=O)[O-]
REMARK SMILES IDX 12 1 11 2 10 3 9 4 8 5 7 6 6 7 5 8 4 9 3 10 2 11 1 12 13 13
REMARK SMILES IDX 14 14 15 15 16 16 17 17 18 18 19 19 20 20 21 21 22 22 23 23
REMARK SMILES IDX 24 24
REMARK H PARENT
REMARK Flexibility Score: inf
ROOT
ATOM      1  C   UNL     1      35.759  31.893  14.199  1.00  0.00     0.000 C 
ENDROOT
BRANCH   1   2
ATOM      2  C   UNL     1      37.250  31.977  14.562  1.00  0.00     0.000 C 
BRANCH   2   3
ATOM      3  C   UNL     1      37.867  30.596  14.846  1.00  0.00     0.000 C 
BRANCH   3   4
ATOM      4  C   UNL     1      38.758  30.100  13.696  1.00  0.00    -0.000 C 
BRANCH   4   5
ATOM      5  C   UNL     1      39.155  28.622  13.851  1.00  0.00    -0.000 C 
BRANCH   5   6
ATOM      6  C   UNL     1      40.603  28.437  14.343  1.00  0.00    -0.000 C 
BRANCH   6   7
ATOM      7  C   UNL     1      41.549  29.615  14.049  1.00  0.00    -0.000 C 
BRANCH   7   8
ATOM      8  C   UNL     1      42.242  30.157  15.309  1.00  0.00    -0.000 C 
BRANCH   8   9
ATOM      9  C   UNL     1      41.267  30.213  16.491  1.00  0.00    -0.000 C 
BRANCH   9  10
ATOM     10  C   UNL     1      41.958  29.786  17.794  1.00  0.00    -0.000 C 
BRANCH  10  11
ATOM     11  C   UNL     1      43.457  30.126  17.806  1.00  0.00    -0.003 C 
ATOM     12  C   UNL     1      44.056  30.104  19.213  1.00  0.00     0.004 C 
ENDBRANCH  10  11
ENDBRANCH   9  10
ENDBRANCH   8   9
ENDBRANCH   7   8
ENDBRANCH   6   7
ENDBRANCH   5   6
ENDBRANCH   4   5
ENDBRANCH   3   4
ENDBRANCH   2   3
ENDBRANCH   1   2
BRANCH   1  13
ATOM     13  C   UNL     1      35.198  30.464  14.322  1.00  0.00     0.000 C 
BRANCH  13  14
ATOM     14  C   UNL     1      34.311  30.071  13.130  1.00  0.00     0.000 C 
BRANCH  14  15
ATOM     15  C   UNL     1      33.646  31.288  12.463  1.00  0.00     0.000 C 
BRANCH  15  16
ATOM     16  C   UNL     1      32.747  30.897  11.279  1.00  0.00     0.000 C 
BRANCH  16  17
ATOM     17  C   UNL     1      31.737  29.793  11.643  1.00  0.00     0.000 C 
BRANCH  17  18
ATOM     18  C   UNL     1      30.498  29.807  10.730  1.00  0.00     0.000 C 
BRANCH  18  19
ATOM     19  C   UNL     1      29.411  28.825  11.199  1.00  0.00     0.000 C 
BRANCH  19  20
ATOM     20  C   UNL     1      28.221  29.525  11.882  1.00  0.00     0.006 C 
BRANCH  20  21
ATOM     21  C   UNL     1      28.595  30.291  13.162  1.00  0.00     0.053 C 
BRANCH  21  22
ATOM     22  C   UNL     1      27.568  31.315  13.541  1.00  0.00     0.041 C 
ATOM     23  O   UNL     1      26.398  30.956  13.840  1.00  0.00    -0.550 OA
ATOM     24  O   UNL     1      27.890  32.665  13.532  1.00  0.00    -0.550 OA
ENDBRANCH  21  22
ENDBRANCH  20  21
ENDBRANCH  19  20
ENDBRANCH  18  19
ENDBRANCH  17  18
ENDBRANCH  16  17
ENDBRANCH  15  16
ENDBRANCH  14  15
ENDBRANCH  13  14
ENDBRANCH   1  13
TORSDOF 20
ENDMDL
