MODEL 1
REMARK VINA RESULT:    -6.890      0.000      0.000
REMARK INTER + INTRA:         -11.280
REMARK INTER:                 -10.112
REMARK INTRA:                  -1.168
REMARK UNBOUND:                -1.168
REMARK SMILES O=c1c(O[C@H]2O[C@@H](CO)[C@@H](O)[C@@H](O)[C@H]2O)c(-c2ccc(O)c(O)c2)oc2cc(O)cc(O)c12
REMARK SMILES IDX 4 1 3 2 16 3 25 4 2 5 26 6 1 7 33 8 27 9 31 10 28 11 30 12
REMARK SMILES IDX 17 13 18 14 19 15 20 16 24 17 22 18 21 19 23 21 32 23 29 25
REMARK SMILES IDX 5 27 14 28 6 29 12 30 7 31 10 32 15 33 13 35 8 37 9 38 11 40
REMARK H PARENT 21 20 23 22 32 24 29 26 15 34 13 36 9 39 11 41
REMARK Flexibility Score: inf
ROOT
ATOM      1  O   UNL     1       8.539  11.008 -18.076  1.00  0.00    -0.454 OA
ENDROOT
BRANCH   1   2
ATOM      2  C   UNL     1       8.221  10.415 -16.850  1.00  0.00     0.214 A 
ATOM      3  C   UNL     1       8.664  10.997 -15.655  1.00  0.00     0.180 A 
ATOM      4  O   UNL     1       8.386  10.415 -14.495  1.00  0.00    -0.452 OA
ATOM      5  C   UNL     1       7.482   9.226 -16.802  1.00  0.00     0.239 A 
ATOM      6  C   UNL     1       7.700   9.283 -14.394  1.00  0.00     0.146 A 
ATOM      7  O   UNL     1       7.037   8.756 -17.878  1.00  0.00    -0.285 OA
ATOM      8  C   UNL     1       7.230   8.604 -15.552  1.00  0.00     0.111 A 
ATOM      9  C   UNL     1       7.445   8.775 -13.119  1.00  0.00     0.094 A 
ATOM     10  C   UNL     1       6.532   7.369 -15.376  1.00  0.00     0.134 A 
ATOM     11  C   UNL     1       6.724   7.592 -12.958  1.00  0.00     0.123 A 
ATOM     12  C   UNL     1       6.273   6.900 -14.082  1.00  0.00     0.093 A 
BRANCH   3  13
ATOM     13  C   UNL     1       9.474  12.234 -15.648  1.00  0.00     0.025 A 
ATOM     14  C   UNL     1      10.823  12.176 -16.026  1.00  0.00     0.016 A 
ATOM     15  C   UNL     1      11.598  13.337 -16.049  1.00  0.00     0.051 A 
ATOM     16  C   UNL     1      11.045  14.573 -15.691  1.00  0.00     0.157 A 
ATOM     17  C   UNL     1       8.922  13.467 -15.260  1.00  0.00     0.062 A 
ATOM     18  C   UNL     1       9.690  14.637 -15.286  1.00  0.00     0.158 A 
BRANCH  16  19
ATOM     19  O   UNL     1      11.868  15.699 -15.749  1.00  0.00    -0.504 OA
ATOM     20  H   UNL     1      11.924  16.392 -15.018  1.00  0.00     0.293 HD
ENDBRANCH  16  19
BRANCH  18  21
ATOM     21  O   UNL     1       9.076  15.829 -14.898  1.00  0.00    -0.504 OA
ATOM     22  H   UNL     1       8.544  16.421 -15.519  1.00  0.00     0.293 HD
ENDBRANCH  18  21
ENDBRANCH   3  13
BRANCH  10  23
ATOM     23  O   UNL     1       6.093   6.554 -16.427  1.00  0.00    -0.507 OA
ATOM     24  H   UNL     1       6.279   6.707 -17.403  1.00  0.00     0.293 HD
ENDBRANCH  10  23
BRANCH  11  25
ATOM     25  O   UNL     1       6.458   7.092 -11.684  1.00  0.00    -0.508 OA
ATOM     26  H   UNL     1       6.495   7.689 -10.865  1.00  0.00     0.293 HD
ENDBRANCH  11  25
ENDBRANCH   1   2
BRANCH   1  27
ATOM     27  C   UNL     1       8.053  12.297 -18.440  1.00  0.00     0.339 C 
ATOM     28  C   UNL     1       7.082  12.146 -19.628  1.00  0.00     0.214 C 
ATOM     29  O   UNL     1       9.149  13.125 -18.791  1.00  0.00    -0.332 OA
ATOM     30  C   UNL     1       6.608  13.540 -20.093  1.00  0.00     0.180 C 
ATOM     31  C   UNL     1       8.703  14.450 -19.032  1.00  0.00     0.179 C 
ATOM     32  C   UNL     1       7.807  14.490 -20.291  1.00  0.00     0.177 C 
BRANCH  28  33
ATOM     33  O   UNL     1       7.718  11.478 -20.690  1.00  0.00    -0.384 OA
ATOM     34  H   UNL     1       8.605  11.182 -20.356  1.00  0.00     0.211 HD
ENDBRANCH  28  33
BRANCH  30  35
ATOM     35  O   UNL     1       5.875  13.439 -21.287  1.00  0.00    -0.387 OA
ATOM     36  H   UNL     1       5.815  12.472 -21.506  1.00  0.00     0.211 HD
ENDBRANCH  30  35
BRANCH  31  37
ATOM     37  C   UNL     1       9.917  15.372 -19.180  1.00  0.00     0.191 C 
BRANCH  37  38
ATOM     38  O   UNL     1       9.585  16.459 -19.999  1.00  0.00    -0.394 OA
ATOM     39  H   UNL     1       9.211  16.076 -20.833  1.00  0.00     0.210 HD
ENDBRANCH  37  38
ENDBRANCH  31  37
BRANCH  32  40
ATOM     40  O   UNL     1       8.554  14.110 -21.420  1.00  0.00    -0.387 OA
ATOM     41  H   UNL     1       9.155  13.371 -21.139  1.00  0.00     0.211 HD
ENDBRANCH  32  40
ENDBRANCH   1  27
TORSDOF 12
ENDMDL
MODEL 2
REMARK VINA RESULT:    -6.208      3.012      8.106
REMARK INTER + INTRA:         -10.279
REMARK INTER:                  -9.058
REMARK INTRA:                  -1.221
REMARK UNBOUND:                -1.168
REMARK SMILES O=c1c(O[C@H]2O[C@@H](CO)[C@@H](O)[C@@H](O)[C@H]2O)c(-c2ccc(O)c(O)c2)oc2cc(O)cc(O)c12
REMARK SMILES IDX 4 1 3 2 16 3 25 4 2 5 26 6 1 7 33 8 27 9 31 10 28 11 30 12
REMARK SMILES IDX 17 13 18 14 19 15 20 16 24 17 22 18 21 19 23 21 32 23 29 25
REMARK SMILES IDX 5 27 14 28 6 29 12 30 7 31 10 32 15 33 13 35 8 37 9 38 11 40
REMARK H PARENT 21 20 23 22 32 24 29 26 15 34 13 36 9 39 11 41
REMARK Flexibility Score: inf
ROOT
ATOM      1  O   UNL     1       5.911  14.063 -16.541  1.00  0.00    -0.454 OA
ENDROOT
BRANCH   1   2
ATOM      2  C   UNL     1       6.462  15.252 -17.029  1.00  0.00     0.214 A 
ATOM      3  C   UNL     1       7.033  15.285 -18.310  1.00  0.00     0.180 A 
ATOM      4  O   UNL     1       7.582  16.407 -18.757  1.00  0.00    -0.452 OA
ATOM      5  C   UNL     1       6.474  16.410 -16.242  1.00  0.00     0.239 A 
ATOM      6  C   UNL     1       7.631  17.528 -18.048  1.00  0.00     0.146 A 
ATOM      7  O   UNL     1       5.899  16.379 -15.126  1.00  0.00    -0.285 OA
ATOM      8  C   UNL     1       7.101  17.586 -16.730  1.00  0.00     0.111 A 
ATOM      9  C   UNL     1       8.212  18.655 -18.632  1.00  0.00     0.094 A 
ATOM     10  C   UNL     1       7.220  18.812 -16.005  1.00  0.00     0.134 A 
ATOM     11  C   UNL     1       8.283  19.859 -17.931  1.00  0.00     0.123 A 
ATOM     12  C   UNL     1       7.788  19.931 -16.629  1.00  0.00     0.093 A 
BRANCH   3  13
ATOM     13  C   UNL     1       7.076  14.084 -19.171  1.00  0.00     0.025 A 
ATOM     14  C   UNL     1       5.876  13.477 -19.568  1.00  0.00     0.016 A 
ATOM     15  C   UNL     1       5.896  12.356 -20.400  1.00  0.00     0.051 A 
ATOM     16  C   UNL     1       7.110  11.818 -20.845  1.00  0.00     0.157 A 
ATOM     17  C   UNL     1       8.298  13.530 -19.591  1.00  0.00     0.062 A 
ATOM     18  C   UNL     1       8.327  12.410 -20.430  1.00  0.00     0.158 A 
BRANCH  16  19
ATOM     19  O   UNL     1       7.062  10.706 -21.687  1.00  0.00    -0.504 OA
ATOM     20  H   UNL     1       7.528  10.658 -22.581  1.00  0.00     0.293 HD
ENDBRANCH  16  19
BRANCH  18  21
ATOM     21  O   UNL     1       9.574  11.918 -20.818  1.00  0.00    -0.504 OA
ATOM     22  H   UNL     1      10.272  11.574 -20.175  1.00  0.00     0.293 HD
ENDBRANCH  18  21
ENDBRANCH   3  13
BRANCH  10  23
ATOM     23  O   UNL     1       6.824  18.984 -14.673  1.00  0.00    -0.507 OA
ATOM     24  H   UNL     1       7.392  18.799 -13.865  1.00  0.00     0.293 HD
ENDBRANCH  10  23
BRANCH  11  25
ATOM     25  O   UNL     1       8.850  20.989 -18.519  1.00  0.00    -0.508 OA
ATOM     26  H   UNL     1       8.278  21.687 -18.980  1.00  0.00     0.293 HD
ENDBRANCH  11  25
ENDBRANCH   1   2
BRANCH   1  27
ATOM     27  C   UNL     1       6.724  12.979 -16.100  1.00  0.00     0.339 C 
ATOM     28  C   UNL     1       6.191  12.475 -14.744  1.00  0.00     0.214 C 
ATOM     29  O   UNL     1       8.065  13.423 -15.979  1.00  0.00    -0.332 OA
ATOM     30  C   UNL     1       7.108  11.355 -14.208  1.00  0.00     0.180 C 
ATOM     31  C   UNL     1       8.915  12.332 -15.666  1.00  0.00     0.179 C 
ATOM     32  C   UNL     1       8.589  11.787 -14.257  1.00  0.00     0.177 C 
BRANCH  28  33
ATOM     33  O   UNL     1       6.140  13.536 -13.822  1.00  0.00    -0.384 OA
ATOM     34  H   UNL     1       6.621  14.301 -14.234  1.00  0.00     0.211 HD
ENDBRANCH  28  33
BRANCH  30  35
ATOM     35  O   UNL     1       6.753  11.014 -12.893  1.00  0.00    -0.387 OA
ATOM     36  H   UNL     1       6.358  10.104 -12.929  1.00  0.00     0.211 HD
ENDBRANCH  30  35
BRANCH  31  37
ATOM     37  C   UNL     1      10.375  12.784 -15.767  1.00  0.00     0.191 C 
BRANCH  37  38
ATOM     38  O   UNL     1      10.505  14.076 -15.241  1.00  0.00    -0.394 OA
ATOM     39  H   UNL     1      10.988  14.608 -15.925  1.00  0.00     0.210 HD
ENDBRANCH  37  38
ENDBRANCH  31  37
BRANCH  32  40
ATOM     40  O   UNL     1       8.843  12.779 -13.292  1.00  0.00    -0.387 OA
ATOM     41  H   UNL     1       8.160  12.676 -12.579  1.00  0.00     0.211 HD
ENDBRANCH  32  40
ENDBRANCH   1  27
TORSDOF 12
ENDMDL
MODEL 3
REMARK VINA RESULT:    -6.061      1.294      4.566
REMARK INTER + INTRA:         -10.064
REMARK INTER:                  -9.074
REMARK INTRA:                  -0.991
REMARK UNBOUND:                -1.168
REMARK SMILES O=c1c(O[C@H]2O[C@@H](CO)[C@@H](O)[C@@H](O)[C@H]2O)c(-c2ccc(O)c(O)c2)oc2cc(O)cc(O)c12
REMARK SMILES IDX 4 1 3 2 16 3 25 4 2 5 26 6 1 7 33 8 27 9 31 10 28 11 30 12
REMARK SMILES IDX 17 13 18 14 19 15 20 16 24 17 22 18 21 19 23 21 32 23 29 25
REMARK SMILES IDX 5 27 14 28 6 29 12 30 7 31 10 32 15 33 13 35 8 37 9 38 11 40
REMARK H PARENT 21 20 23 22 32 24 29 26 15 34 13 36 9 39 11 41
REMARK Flexibility Score: inf
ROOT
ATOM      1  O   UNL     1       7.926  12.723 -15.636  1.00  0.00    -0.454 OA
ENDROOT
BRANCH   1   2
ATOM      2  C   UNL     1       7.578  11.369 -15.620  1.00  0.00     0.214 A 
ATOM      3  C   UNL     1       7.184  10.734 -16.806  1.00  0.00     0.180 A 
ATOM      4  O   UNL     1       6.825   9.456 -16.781  1.00  0.00    -0.452 OA
ATOM      5  C   UNL     1       7.594  10.640 -14.423  1.00  0.00     0.239 A 
ATOM      6  C   UNL     1       6.811   8.724 -15.674  1.00  0.00     0.146 A 
ATOM      7  O   UNL     1       8.014  11.208 -13.385  1.00  0.00    -0.285 OA
ATOM      8  C   UNL     1       7.171   9.287 -14.418  1.00  0.00     0.111 A 
ATOM      9  C   UNL     1       6.439   7.382 -15.772  1.00  0.00     0.094 A 
ATOM     10  C   UNL     1       7.097   8.455 -13.258  1.00  0.00     0.134 A 
ATOM     11  C   UNL     1       6.414   6.569 -14.639  1.00  0.00     0.123 A 
ATOM     12  C   UNL     1       6.742   7.107 -13.395  1.00  0.00     0.093 A 
BRANCH   3  13
ATOM     13  C   UNL     1       7.118  11.462 -18.091  1.00  0.00     0.025 A 
ATOM     14  C   UNL     1       5.983  12.229 -18.391  1.00  0.00     0.016 A 
ATOM     15  C   UNL     1       5.912  12.942 -19.588  1.00  0.00     0.051 A 
ATOM     16  C   UNL     1       6.967  12.900 -20.509  1.00  0.00     0.157 A 
ATOM     17  C   UNL     1       8.166  11.393 -19.024  1.00  0.00     0.062 A 
ATOM     18  C   UNL     1       8.106  12.110 -20.225  1.00  0.00     0.158 A 
BRANCH  16  19
ATOM     19  O   UNL     1       6.841  13.647 -21.681  1.00  0.00    -0.504 OA
ATOM     20  H   UNL     1       6.220  14.436 -21.781  1.00  0.00     0.293 HD
ENDBRANCH  16  19
BRANCH  18  21
ATOM     21  O   UNL     1       9.187  12.005 -21.102  1.00  0.00    -0.504 OA
ATOM     22  H   UNL     1       9.836  11.231 -21.112  1.00  0.00     0.293 HD
ENDBRANCH  18  21
ENDBRANCH   3  13
BRANCH  10  23
ATOM     23  O   UNL     1       7.336   8.900 -11.951  1.00  0.00    -0.507 OA
ATOM     24  H   UNL     1       7.187   9.836 -11.616  1.00  0.00     0.293 HD
ENDBRANCH  10  23
BRANCH  11  25
ATOM     25  O   UNL     1       6.056   5.225 -14.740  1.00  0.00    -0.508 OA
ATOM     26  H   UNL     1       6.375   4.651 -15.512  1.00  0.00     0.293 HD
ENDBRANCH  11  25
ENDBRANCH   1   2
BRANCH   1  27
ATOM     27  C   UNL     1       9.111  13.191 -16.275  1.00  0.00     0.339 C 
ATOM     28  C   UNL     1       9.993  13.902 -15.230  1.00  0.00     0.214 C 
ATOM     29  O   UNL     1       8.755  14.081 -17.319  1.00  0.00    -0.332 OA
ATOM     30  C   UNL     1      11.244  14.490 -15.918  1.00  0.00     0.180 C 
ATOM     31  C   UNL     1       9.908  14.460 -18.052  1.00  0.00     0.179 C 
ATOM     32  C   UNL     1      10.851  15.306 -17.167  1.00  0.00     0.177 C 
BRANCH  28  33
ATOM     33  O   UNL     1       9.266  14.927 -14.600  1.00  0.00    -0.384 OA
ATOM     34  H   UNL     1       8.811  15.442 -15.317  1.00  0.00     0.211 HD
ENDBRANCH  28  33
BRANCH  30  35
ATOM     35  O   UNL     1      11.964  15.300 -15.024  1.00  0.00    -0.387 OA
ATOM     36  H   UNL     1      11.296  15.826 -14.511  1.00  0.00     0.211 HD
ENDBRANCH  30  35
BRANCH  31  37
ATOM     37  C   UNL     1       9.479  15.229 -19.306  1.00  0.00     0.191 C 
BRANCH  37  38
ATOM     38  O   UNL     1      10.321  16.334 -19.491  1.00  0.00    -0.394 OA
ATOM     39  H   UNL     1      10.394  16.780 -18.608  1.00  0.00     0.210 HD
ENDBRANCH  37  38
ENDBRANCH  31  37
BRANCH  32  40
ATOM     40  O   UNL     1      10.208  16.500 -16.791  1.00  0.00    -0.387 OA
ATOM     41  H   UNL     1       9.465  16.253 -16.181  1.00  0.00     0.211 HD
ENDBRANCH  32  40
ENDBRANCH   1  27
TORSDOF 12
ENDMDL
MODEL 4
REMARK VINA RESULT:    -5.774      2.636      5.538
REMARK INTER + INTRA:          -9.643
REMARK INTER:                  -9.652
REMARK INTRA:                   0.009
REMARK UNBOUND:                -1.168
REMARK SMILES O=c1c(O[C@H]2O[C@@H](CO)[C@@H](O)[C@@H](O)[C@H]2O)c(-c2ccc(O)c(O)c2)oc2cc(O)cc(O)c12
REMARK SMILES IDX 4 1 3 2 16 3 25 4 2 5 26 6 1 7 33 8 27 9 31 10 28 11 30 12
REMARK SMILES IDX 17 13 18 14 19 15 20 16 24 17 22 18 21 19 23 21 32 23 29 25
REMARK SMILES IDX 5 27 14 28 6 29 12 30 7 31 10 32 15 33 13 35 8 37 9 38 11 40
REMARK H PARENT 21 20 23 22 32 24 29 26 15 34 13 36 9 39 11 41
REMARK Flexibility Score: inf
ROOT
ATOM      1  O   UNL     1       6.579   9.497 -15.850  1.00  0.00    -0.454 OA
ENDROOT
BRANCH   1   2
ATOM      2  C   UNL     1       6.585   8.105 -15.985  1.00  0.00     0.214 A 
ATOM      3  C   UNL     1       6.679   7.291 -14.848  1.00  0.00     0.180 A 
ATOM      4  O   UNL     1       6.716   5.971 -14.983  1.00  0.00    -0.452 OA
ATOM      5  C   UNL     1       6.523   7.510 -17.252  1.00  0.00     0.239 A 
ATOM      6  C   UNL     1       6.672   5.358 -16.159  1.00  0.00     0.146 A 
ATOM      7  O   UNL     1       6.371   8.253 -18.253  1.00  0.00    -0.285 OA
ATOM      8  C   UNL     1       6.601   6.099 -17.371  1.00  0.00     0.111 A 
ATOM      9  C   UNL     1       6.691   3.962 -16.178  1.00  0.00     0.094 A 
ATOM     10  C   UNL     1       6.596   5.379 -18.606  1.00  0.00     0.134 A 
ATOM     11  C   UNL     1       6.642   3.269 -17.388  1.00  0.00     0.123 A 
ATOM     12  C   UNL     1       6.593   3.978 -18.588  1.00  0.00     0.093 A 
BRANCH   3  13
ATOM     13  C   UNL     1       6.780   7.866 -13.489  1.00  0.00     0.025 A 
ATOM     14  C   UNL     1       6.474   7.067 -12.378  1.00  0.00     0.016 A 
ATOM     15  C   UNL     1       6.586   7.585 -11.087  1.00  0.00     0.051 A 
ATOM     16  C   UNL     1       6.999   8.908 -10.880  1.00  0.00     0.157 A 
ATOM     17  C   UNL     1       7.167   9.203 -13.288  1.00  0.00     0.062 A 
ATOM     18  C   UNL     1       7.287   9.728 -11.996  1.00  0.00     0.158 A 
BRANCH  16  19
ATOM     19  O   UNL     1       7.105   9.361  -9.564  1.00  0.00    -0.504 OA
ATOM     20  H   UNL     1       6.412   9.185  -8.852  1.00  0.00     0.293 HD
ENDBRANCH  16  19
BRANCH  18  21
ATOM     21  O   UNL     1       7.686  11.060 -11.869  1.00  0.00    -0.504 OA
ATOM     22  H   UNL     1       7.143  11.771 -11.402  1.00  0.00     0.293 HD
ENDBRANCH  18  21
ENDBRANCH   3  13
BRANCH  10  23
ATOM     23  O   UNL     1       6.618   5.980 -19.870  1.00  0.00    -0.507 OA
ATOM     24  H   UNL     1       6.334   6.922 -20.075  1.00  0.00     0.293 HD
ENDBRANCH  10  23
BRANCH  11  25
ATOM     25  O   UNL     1       6.647   1.875 -17.407  1.00  0.00    -0.508 OA
ATOM     26  H   UNL     1       7.398   1.357 -17.849  1.00  0.00     0.293 HD
ENDBRANCH  11  25
ENDBRANCH   1   2
BRANCH   1  27
ATOM     27  C   UNL     1       7.770  10.272 -15.960  1.00  0.00     0.339 C 
ATOM     28  C   UNL     1       7.533  11.409 -16.974  1.00  0.00     0.214 C 
ATOM     29  O   UNL     1       8.831   9.434 -16.386  1.00  0.00    -0.332 OA
ATOM     30  C   UNL     1       8.837  12.210 -17.172  1.00  0.00     0.180 C 
ATOM     31  C   UNL     1      10.054  10.152 -16.380  1.00  0.00     0.179 C 
ATOM     32  C   UNL     1      10.025  11.266 -17.451  1.00  0.00     0.177 C 
BRANCH  28  33
ATOM     33  O   UNL     1       7.105  10.878 -18.204  1.00  0.00    -0.384 OA
ATOM     34  H   UNL     1       7.908  10.806 -18.783  1.00  0.00     0.211 HD
ENDBRANCH  28  33
BRANCH  30  35
ATOM     35  O   UNL     1       8.697  13.128 -18.226  1.00  0.00    -0.387 OA
ATOM     36  H   UNL     1       7.937  12.813 -18.782  1.00  0.00     0.211 HD
ENDBRANCH  30  35
BRANCH  31  37
ATOM     37  C   UNL     1      11.213   9.179 -16.617  1.00  0.00     0.191 C 
BRANCH  37  38
ATOM     38  O   UNL     1      11.269   8.251 -15.569  1.00  0.00    -0.394 OA
ATOM     39  H   UNL     1      12.073   7.693 -15.734  1.00  0.00     0.210 HD
ENDBRANCH  37  38
ENDBRANCH  31  37
BRANCH  32  40
ATOM     40  O   UNL     1       9.907  10.693 -18.731  1.00  0.00    -0.387 OA
ATOM     41  H   UNL     1      10.268   9.770 -18.673  1.00  0.00     0.211 HD
ENDBRANCH  32  40
ENDBRANCH   1  27
TORSDOF 12
ENDMDL
MODEL 5
REMARK VINA RESULT:    -5.687      2.112      4.367
REMARK INTER + INTRA:          -9.515
REMARK INTER:                  -8.269
REMARK INTRA:                  -1.246
REMARK UNBOUND:                -1.168
REMARK SMILES O=c1c(O[C@H]2O[C@@H](CO)[C@@H](O)[C@@H](O)[C@H]2O)c(-c2ccc(O)c(O)c2)oc2cc(O)cc(O)c12
REMARK SMILES IDX 4 1 3 2 16 3 25 4 2 5 26 6 1 7 33 8 27 9 31 10 28 11 30 12
REMARK SMILES IDX 17 13 18 14 19 15 20 16 24 17 22 18 21 19 23 21 32 23 29 25
REMARK SMILES IDX 5 27 14 28 6 29 12 30 7 31 10 32 15 33 13 35 8 37 9 38 11 40
REMARK H PARENT 21 20 23 22 32 24 29 26 15 34 13 36 9 39 11 41
REMARK Flexibility Score: inf
ROOT
ATOM      1  O   UNL     1       5.888  12.892 -15.569  1.00  0.00    -0.454 OA
ENDROOT
BRANCH   1   2
ATOM      2  C   UNL     1       6.409  11.596 -15.510  1.00  0.00     0.214 A 
ATOM      3  C   UNL     1       6.944  11.003 -16.662  1.00  0.00     0.180 A 
ATOM      4  O   UNL     1       7.410   9.761 -16.609  1.00  0.00    -0.452 OA
ATOM      5  C   UNL     1       6.382  10.868 -14.313  1.00  0.00     0.239 A 
ATOM      6  C   UNL     1       7.397   9.025 -15.505  1.00  0.00     0.146 A 
ATOM      7  O   UNL     1       5.962  11.440 -13.277  1.00  0.00    -0.285 OA
ATOM      8  C   UNL     1       6.853   9.530 -14.293  1.00  0.00     0.111 A 
ATOM      9  C   UNL     1       7.938   7.739 -15.561  1.00  0.00     0.094 A 
ATOM     10  C   UNL     1       6.833   8.672 -13.150  1.00  0.00     0.134 A 
ATOM     11  C   UNL     1       7.953   6.927 -14.428  1.00  0.00     0.123 A 
ATOM     12  C   UNL     1       7.405   7.396 -13.234  1.00  0.00     0.093 A 
BRANCH   3  13
ATOM     13  C   UNL     1       6.969  11.713 -17.959  1.00  0.00     0.025 A 
ATOM     14  C   UNL     1       5.880  11.591 -18.833  1.00  0.00     0.016 A 
ATOM     15  C   UNL     1       5.875  12.272 -20.051  1.00  0.00     0.051 A 
ATOM     16  C   UNL     1       6.957  13.081 -20.423  1.00  0.00     0.157 A 
ATOM     17  C   UNL     1       8.070  12.500 -18.340  1.00  0.00     0.062 A 
ATOM     18  C   UNL     1       8.071  13.191 -19.557  1.00  0.00     0.158 A 
BRANCH  16  19
ATOM     19  O   UNL     1       6.885  13.747 -21.647  1.00  0.00    -0.504 OA
ATOM     20  H   UNL     1       7.543  13.612 -22.399  1.00  0.00     0.293 HD
ENDBRANCH  16  19
BRANCH  18  21
ATOM     21  O   UNL     1       9.192  13.964 -19.868  1.00  0.00    -0.504 OA
ATOM     22  H   UNL     1       9.149  14.902 -20.236  1.00  0.00     0.293 HD
ENDBRANCH  18  21
ENDBRANCH   3  13
BRANCH  10  23
ATOM     23  O   UNL     1       6.250   9.006 -11.921  1.00  0.00    -0.507 OA
ATOM     24  H   UNL     1       6.610   9.677 -11.265  1.00  0.00     0.293 HD
ENDBRANCH  10  23
BRANCH  11  25
ATOM     25  O   UNL     1       8.506   5.647 -14.480  1.00  0.00    -0.508 OA
ATOM     26  H   UNL     1       9.504   5.500 -14.377  1.00  0.00     0.293 HD
ENDBRANCH  11  25
ENDBRANCH   1   2
BRANCH   1  27
ATOM     27  C   UNL     1       6.679  14.038 -15.266  1.00  0.00     0.339 C 
ATOM     28  C   UNL     1       6.093  15.258 -16.006  1.00  0.00     0.214 C 
ATOM     29  O   UNL     1       8.016  13.801 -15.670  1.00  0.00    -0.332 OA
ATOM     30  C   UNL     1       6.984  16.494 -15.757  1.00  0.00     0.180 C 
ATOM     31  C   UNL     1       8.848  14.875 -15.263  1.00  0.00     0.179 C 
ATOM     32  C   UNL     1       8.467  16.165 -16.024  1.00  0.00     0.177 C 
BRANCH  28  33
ATOM     33  O   UNL     1       6.014  14.993 -17.385  1.00  0.00    -0.384 OA
ATOM     34  H   UNL     1       5.619  15.798 -17.811  1.00  0.00     0.211 HD
ENDBRANCH  28  33
BRANCH  30  35
ATOM     35  O   UNL     1       6.578  17.566 -16.570  1.00  0.00    -0.387 OA
ATOM     36  H   UNL     1       5.673  17.834 -16.261  1.00  0.00     0.211 HD
ENDBRANCH  30  35
BRANCH  31  37
ATOM     37  C   UNL     1      10.314  14.497 -15.501  1.00  0.00     0.191 C 
BRANCH  37  38
ATOM     38  O   UNL     1      10.487  14.105 -16.834  1.00  0.00    -0.394 OA
ATOM     39  H   UNL     1      10.342  13.124 -16.858  1.00  0.00     0.210 HD
ENDBRANCH  37  38
ENDBRANCH  31  37
BRANCH  32  40
ATOM     40  O   UNL     1       8.692  15.989 -17.401  1.00  0.00    -0.387 OA
ATOM     41  H   UNL     1       9.212  15.150 -17.509  1.00  0.00     0.211 HD
ENDBRANCH  32  40
ENDBRANCH   1  27
TORSDOF 12
ENDMDL
MODEL 6
REMARK VINA RESULT:    -5.637      2.349      5.310
REMARK INTER + INTRA:          -9.442
REMARK INTER:                  -9.544
REMARK INTRA:                   0.101
REMARK UNBOUND:                -1.168
REMARK SMILES O=c1c(O[C@H]2O[C@@H](CO)[C@@H](O)[C@@H](O)[C@H]2O)c(-c2ccc(O)c(O)c2)oc2cc(O)cc(O)c12
REMARK SMILES IDX 4 1 3 2 16 3 25 4 2 5 26 6 1 7 33 8 27 9 31 10 28 11 30 12
REMARK SMILES IDX 17 13 18 14 19 15 20 16 24 17 22 18 21 19 23 21 32 23 29 25
REMARK SMILES IDX 5 27 14 28 6 29 12 30 7 31 10 32 15 33 13 35 8 37 9 38 11 40
REMARK H PARENT 21 20 23 22 32 24 29 26 15 34 13 36 9 39 11 41
REMARK Flexibility Score: inf
ROOT
ATOM      1  O   UNL     1       7.170   9.525 -16.152  1.00  0.00    -0.454 OA
ENDROOT
BRANCH   1   2
ATOM      2  C   UNL     1       6.915   8.158 -16.296  1.00  0.00     0.214 A 
ATOM      3  C   UNL     1       6.751   7.353 -15.160  1.00  0.00     0.180 A 
ATOM      4  O   UNL     1       6.540   6.050 -15.300  1.00  0.00    -0.452 OA
ATOM      5  C   UNL     1       6.845   7.573 -17.567  1.00  0.00     0.239 A 
ATOM      6  C   UNL     1       6.477   5.445 -16.479  1.00  0.00     0.146 A 
ATOM      7  O   UNL     1       6.927   8.321 -18.573  1.00  0.00    -0.285 OA
ATOM      8  C   UNL     1       6.655   6.172 -17.688  1.00  0.00     0.111 A 
ATOM      9  C   UNL     1       6.224   4.072 -16.505  1.00  0.00     0.094 A 
ATOM     10  C   UNL     1       6.614   5.454 -18.923  1.00  0.00     0.134 A 
ATOM     11  C   UNL     1       6.143   3.390 -17.719  1.00  0.00     0.123 A 
ATOM     12  C   UNL     1       6.335   4.081 -18.915  1.00  0.00     0.093 A 
BRANCH   3  13
ATOM     13  C   UNL     1       6.847   7.911 -13.794  1.00  0.00     0.025 A 
ATOM     14  C   UNL     1       6.612   7.078 -12.691  1.00  0.00     0.016 A 
ATOM     15  C   UNL     1       6.721   7.581 -11.393  1.00  0.00     0.051 A 
ATOM     16  C   UNL     1       7.060   8.922 -11.172  1.00  0.00     0.157 A 
ATOM     17  C   UNL     1       7.159   9.265 -13.578  1.00  0.00     0.062 A 
ATOM     18  C   UNL     1       7.276   9.776 -12.280  1.00  0.00     0.158 A 
BRANCH  16  19
ATOM     19  O   UNL     1       7.167   9.360  -9.852  1.00  0.00    -0.504 OA
ATOM     20  H   UNL     1       6.513   9.115  -9.123  1.00  0.00     0.293 HD
ENDBRANCH  16  19
BRANCH  18  21
ATOM     21  O   UNL     1       7.599  11.127 -12.138  1.00  0.00    -0.504 OA
ATOM     22  H   UNL     1       7.241  11.860 -12.732  1.00  0.00     0.293 HD
ENDBRANCH  18  21
ENDBRANCH   3  13
BRANCH  10  23
ATOM     23  O   UNL     1       6.860   6.026 -20.177  1.00  0.00    -0.507 OA
ATOM     24  H   UNL     1       7.150   5.528 -21.001  1.00  0.00     0.293 HD
ENDBRANCH  10  23
BRANCH  11  25
ATOM     25  O   UNL     1       5.877   2.021 -17.746  1.00  0.00    -0.508 OA
ATOM     26  H   UNL     1       5.522   1.537 -16.929  1.00  0.00     0.293 HD
ENDBRANCH  11  25
ENDBRANCH   1   2
BRANCH   1  27
ATOM     27  C   UNL     1       8.219  10.177 -16.864  1.00  0.00     0.339 C 
ATOM     28  C   UNL     1       9.173  10.838 -15.850  1.00  0.00     0.214 C 
ATOM     29  O   UNL     1       7.659  11.147 -17.732  1.00  0.00    -0.332 OA
ATOM     30  C   UNL     1      10.271  11.620 -16.602  1.00  0.00     0.180 C 
ATOM     31  C   UNL     1       8.671  11.719 -18.544  1.00  0.00     0.179 C 
ATOM     32  C   UNL     1       9.653  12.538 -17.676  1.00  0.00     0.177 C 
BRANCH  28  33
ATOM     33  O   UNL     1       8.457  11.707 -15.008  1.00  0.00    -0.384 OA
ATOM     34  H   UNL     1       9.050  12.480 -14.817  1.00  0.00     0.211 HD
ENDBRANCH  28  33
BRANCH  30  35
ATOM     35  O   UNL     1      11.037  12.383 -15.704  1.00  0.00    -0.387 OA
ATOM     36  H   UNL     1      10.425  12.671 -14.977  1.00  0.00     0.211 HD
ENDBRANCH  30  35
BRANCH  31  37
ATOM     37  C   UNL     1       8.021  12.588 -19.625  1.00  0.00     0.191 C 
BRANCH  37  38
ATOM     38  O   UNL     1       8.879  13.644 -19.959  1.00  0.00    -0.394 OA
ATOM     39  H   UNL     1       8.838  13.736 -20.945  1.00  0.00     0.210 HD
ENDBRANCH  37  38
ENDBRANCH  31  37
BRANCH  32  40
ATOM     40  O   UNL     1       8.974  13.612 -17.073  1.00  0.00    -0.387 OA
ATOM     41  H   UNL     1       8.090  13.270 -16.777  1.00  0.00     0.211 HD
ENDBRANCH  32  40
ENDBRANCH   1  27
TORSDOF 12
ENDMDL
MODEL 7
REMARK VINA RESULT:    -5.548      2.056      5.046
REMARK INTER + INTRA:          -9.312
REMARK INTER:                  -9.061
REMARK INTRA:                  -0.251
REMARK UNBOUND:                -1.168
REMARK SMILES O=c1c(O[C@H]2O[C@@H](CO)[C@@H](O)[C@@H](O)[C@H]2O)c(-c2ccc(O)c(O)c2)oc2cc(O)cc(O)c12
REMARK SMILES IDX 4 1 3 2 16 3 25 4 2 5 26 6 1 7 33 8 27 9 31 10 28 11 30 12
REMARK SMILES IDX 17 13 18 14 19 15 20 16 24 17 22 18 21 19 23 21 32 23 29 25
REMARK SMILES IDX 5 27 14 28 6 29 12 30 7 31 10 32 15 33 13 35 8 37 9 38 11 40
REMARK H PARENT 21 20 23 22 32 24 29 26 15 34 13 36 9 39 11 41
REMARK Flexibility Score: inf
ROOT
ATOM      1  O   UNL     1       7.988  10.746 -17.556  1.00  0.00    -0.454 OA
ENDROOT
BRANCH   1   2
ATOM      2  C   UNL     1       7.657  10.044 -16.393  1.00  0.00     0.214 A 
ATOM      3  C   UNL     1       7.070   8.774 -16.485  1.00  0.00     0.180 A 
ATOM      4  O   UNL     1       6.729   8.124 -15.379  1.00  0.00    -0.452 OA
ATOM      5  C   UNL     1       7.881  10.607 -15.130  1.00  0.00     0.239 A 
ATOM      6  C   UNL     1       6.909   8.616 -14.160  1.00  0.00     0.146 A 
ATOM      7  O   UNL     1       8.469  11.715 -15.067  1.00  0.00    -0.285 OA
ATOM      8  C   UNL     1       7.474   9.907 -13.966  1.00  0.00     0.111 A 
ATOM      9  C   UNL     1       6.535   7.831 -13.068  1.00  0.00     0.094 A 
ATOM     10  C   UNL     1       7.605  10.394 -12.628  1.00  0.00     0.134 A 
ATOM     11  C   UNL     1       6.708   8.300 -11.766  1.00  0.00     0.123 A 
ATOM     12  C   UNL     1       7.241   9.572 -11.554  1.00  0.00     0.093 A 
BRANCH   3  13
ATOM     13  C   UNL     1       6.781   8.146 -17.792  1.00  0.00     0.025 A 
ATOM     14  C   UNL     1       6.135   8.893 -18.788  1.00  0.00     0.016 A 
ATOM     15  C   UNL     1       5.875   8.325 -20.036  1.00  0.00     0.051 A 
ATOM     16  C   UNL     1       6.248   7.003 -20.312  1.00  0.00     0.157 A 
ATOM     17  C   UNL     1       7.132   6.811 -18.055  1.00  0.00     0.062 A 
ATOM     18  C   UNL     1       6.880   6.235 -19.306  1.00  0.00     0.158 A 
BRANCH  16  19
ATOM     19  O   UNL     1       5.973   6.499 -21.584  1.00  0.00    -0.504 OA
ATOM     20  H   UNL     1       5.502   5.622 -21.751  1.00  0.00     0.293 HD
ENDBRANCH  16  19
BRANCH  18  21
ATOM     21  O   UNL     1       7.264   4.907 -19.502  1.00  0.00    -0.504 OA
ATOM     22  H   UNL     1       7.158   4.410 -20.374  1.00  0.00     0.293 HD
ENDBRANCH  18  21
ENDBRANCH   3  13
BRANCH  10  23
ATOM     23  O   UNL     1       8.059  11.676 -12.297  1.00  0.00    -0.507 OA
ATOM     24  H   UNL     1       8.563  11.921 -11.462  1.00  0.00     0.293 HD
ENDBRANCH  10  23
BRANCH  11  25
ATOM     25  O   UNL     1       6.347   7.510 -10.674  1.00  0.00    -0.508 OA
ATOM     26  H   UNL     1       6.703   7.702  -9.744  1.00  0.00     0.293 HD
ENDBRANCH  11  25
ENDBRANCH   1   2
BRANCH   1  27
ATOM     27  C   UNL     1       7.454  12.038 -17.837  1.00  0.00     0.339 C 
ATOM     28  C   UNL     1       6.833  12.025 -19.247  1.00  0.00     0.214 C 
ATOM     29  O   UNL     1       8.495  12.998 -17.756  1.00  0.00    -0.332 OA
ATOM     30  C   UNL     1       6.324  13.438 -19.605  1.00  0.00     0.180 C 
ATOM     31  C   UNL     1       7.966  14.305 -17.903  1.00  0.00     0.179 C 
ATOM     32  C   UNL     1       7.411  14.499 -19.332  1.00  0.00     0.177 C 
BRANCH  28  33
ATOM     33  O   UNL     1       7.788  11.607 -20.192  1.00  0.00    -0.384 OA
ATOM     34  H   UNL     1       8.368  12.390 -20.383  1.00  0.00     0.211 HD
ENDBRANCH  28  33
BRANCH  30  35
ATOM     35  O   UNL     1       5.927  13.494 -20.951  1.00  0.00    -0.387 OA
ATOM     36  H   UNL     1       6.703  13.838 -21.465  1.00  0.00     0.211 HD
ENDBRANCH  30  35
BRANCH  31  37
ATOM     37  C   UNL     1       9.058  15.331 -17.584  1.00  0.00     0.191 C 
BRANCH  37  38
ATOM     38  O   UNL     1      10.265  14.931 -18.171  1.00  0.00    -0.394 OA
ATOM     39  H   UNL     1      10.029  14.268 -18.870  1.00  0.00     0.210 HD
ENDBRANCH  37  38
ENDBRANCH  31  37
BRANCH  32  40
ATOM     40  O   UNL     1       8.454  14.384 -20.269  1.00  0.00    -0.387 OA
ATOM     41  H   UNL     1       8.249  13.599 -20.841  1.00  0.00     0.211 HD
ENDBRANCH  32  40
ENDBRANCH   1  27
TORSDOF 12
ENDMDL
MODEL 8
REMARK VINA RESULT:    -5.513      2.496      7.882
REMARK INTER + INTRA:          -9.260
REMARK INTER:                  -8.901
REMARK INTRA:                  -0.359
REMARK UNBOUND:                -1.168
REMARK SMILES O=c1c(O[C@H]2O[C@@H](CO)[C@@H](O)[C@@H](O)[C@H]2O)c(-c2ccc(O)c(O)c2)oc2cc(O)cc(O)c12
REMARK SMILES IDX 4 1 3 2 16 3 25 4 2 5 26 6 1 7 33 8 27 9 31 10 28 11 30 12
REMARK SMILES IDX 17 13 18 14 19 15 20 16 24 17 22 18 21 19 23 21 32 23 29 25
REMARK SMILES IDX 5 27 14 28 6 29 12 30 7 31 10 32 15 33 13 35 8 37 9 38 11 40
REMARK H PARENT 21 20 23 22 32 24 29 26 15 34 13 36 9 39 11 41
REMARK Flexibility Score: inf
ROOT
ATOM      1  O   UNL     1       6.201  12.871 -17.334  1.00  0.00    -0.454 OA
ENDROOT
BRANCH   1   2
ATOM      2  C   UNL     1       6.764  13.395 -18.502  1.00  0.00     0.214 A 
ATOM      3  C   UNL     1       7.046  12.549 -19.584  1.00  0.00     0.180 A 
ATOM      4  O   UNL     1       7.608  13.044 -20.679  1.00  0.00    -0.452 OA
ATOM      5  C   UNL     1       7.074  14.758 -18.598  1.00  0.00     0.239 A 
ATOM      6  C   UNL     1       7.932  14.324 -20.817  1.00  0.00     0.146 A 
ATOM      7  O   UNL     1       6.752  15.511 -17.646  1.00  0.00    -0.285 OA
ATOM      8  C   UNL     1       7.708  15.255 -19.766  1.00  0.00     0.111 A 
ATOM      9  C   UNL     1       8.496  14.737 -22.025  1.00  0.00     0.094 A 
ATOM     10  C   UNL     1       8.116  16.610 -19.963  1.00  0.00     0.134 A 
ATOM     11  C   UNL     1       8.850  16.071 -22.222  1.00  0.00     0.123 A 
ATOM     12  C   UNL     1       8.657  16.996 -21.196  1.00  0.00     0.093 A 
BRANCH   3  13
ATOM     13  C   UNL     1       6.769  11.097 -19.525  1.00  0.00     0.025 A 
ATOM     14  C   UNL     1       6.127  10.474 -20.605  1.00  0.00     0.016 A 
ATOM     15  C   UNL     1       5.879   9.101 -20.578  1.00  0.00     0.051 A 
ATOM     16  C   UNL     1       6.259   8.326 -19.475  1.00  0.00     0.157 A 
ATOM     17  C   UNL     1       7.126  10.330 -18.403  1.00  0.00     0.062 A 
ATOM     18  C   UNL     1       6.886   8.951 -18.371  1.00  0.00     0.158 A 
BRANCH  16  19
ATOM     19  O   UNL     1       5.995   6.957 -19.516  1.00  0.00    -0.504 OA
ATOM     20  H   UNL     1       6.552   6.293 -20.033  1.00  0.00     0.293 HD
ENDBRANCH  16  19
BRANCH  18  21
ATOM     21  O   UNL     1       7.276   8.248 -17.229  1.00  0.00    -0.504 OA
ATOM     22  H   UNL     1       7.236   8.622 -16.292  1.00  0.00     0.293 HD
ENDBRANCH  18  21
ENDBRANCH   3  13
BRANCH  10  23
ATOM     23  O   UNL     1       8.037  17.609 -18.984  1.00  0.00    -0.507 OA
ATOM     24  H   UNL     1       7.298  17.710 -18.310  1.00  0.00     0.293 HD
ENDBRANCH  10  23
BRANCH  11  25
ATOM     25  O   UNL     1       9.400  16.487 -23.434  1.00  0.00    -0.508 OA
ATOM     26  H   UNL     1      10.255  17.032 -23.466  1.00  0.00     0.293 HD
ENDBRANCH  11  25
ENDBRANCH   1   2
BRANCH   1  27
ATOM     27  C   UNL     1       6.998  12.278 -16.312  1.00  0.00     0.339 C 
ATOM     28  C   UNL     1       6.489  12.761 -14.939  1.00  0.00     0.214 C 
ATOM     29  O   UNL     1       8.352  12.651 -16.504  1.00  0.00    -0.332 OA
ATOM     30  C   UNL     1       7.391  12.196 -13.822  1.00  0.00     0.180 C 
ATOM     31  C   UNL     1       9.183  11.971 -15.577  1.00  0.00     0.179 C 
ATOM     32  C   UNL     1       8.880  12.447 -14.139  1.00  0.00     0.177 C 
BRANCH  28  33
ATOM     33  O   UNL     1       6.489  14.166 -14.891  1.00  0.00    -0.384 OA
ATOM     34  H   UNL     1       6.063  14.426 -14.033  1.00  0.00     0.211 HD
ENDBRANCH  28  33
BRANCH  30  35
ATOM     35  O   UNL     1       7.062  12.772 -12.583  1.00  0.00    -0.387 OA
ATOM     36  H   UNL     1       7.916  12.921 -12.100  1.00  0.00     0.211 HD
ENDBRANCH  30  35
BRANCH  31  37
ATOM     37  C   UNL     1      10.651  12.205 -15.947  1.00  0.00     0.191 C 
BRANCH  37  38
ATOM     38  O   UNL     1      10.855  13.564 -16.222  1.00  0.00    -0.394 OA
ATOM     39  H   UNL     1      11.745  13.793 -15.851  1.00  0.00     0.210 HD
ENDBRANCH  37  38
ENDBRANCH  31  37
BRANCH  32  40
ATOM     40  O   UNL     1       9.185  13.815 -14.016  1.00  0.00    -0.387 OA
ATOM     41  H   UNL     1       9.596  14.102 -14.873  1.00  0.00     0.211 HD
ENDBRANCH  32  40
ENDBRANCH   1  27
TORSDOF 12
ENDMDL
MODEL 9
REMARK VINA RESULT:    -5.507      3.441      8.075
REMARK INTER + INTRA:          -9.250
REMARK INTER:                  -9.594
REMARK INTRA:                   0.344
REMARK UNBOUND:                -1.168
REMARK SMILES O=c1c(O[C@H]2O[C@@H](CO)[C@@H](O)[C@@H](O)[C@H]2O)c(-c2ccc(O)c(O)c2)oc2cc(O)cc(O)c12
REMARK SMILES IDX 4 1 3 2 16 3 25 4 2 5 26 6 1 7 33 8 27 9 31 10 28 11 30 12
REMARK SMILES IDX 17 13 18 14 19 15 20 16 24 17 22 18 21 19 23 21 32 23 29 25
REMARK SMILES IDX 5 27 14 28 6 29 12 30 7 31 10 32 15 33 13 35 8 37 9 38 11 40
REMARK H PARENT 21 20 23 22 32 24 29 26 15 34 13 36 9 39 11 41
REMARK Flexibility Score: inf
ROOT
ATOM      1  O   UNL     1       7.435  14.609 -17.357  1.00  0.00    -0.454 OA
ENDROOT
BRANCH   1   2
ATOM      2  C   UNL     1       7.232  15.985 -17.214  1.00  0.00     0.214 A 
ATOM      3  C   UNL     1       7.463  16.843 -18.299  1.00  0.00     0.180 A 
ATOM      4  O   UNL     1       7.299  18.152 -18.150  1.00  0.00    -0.452 OA
ATOM      5  C   UNL     1       6.824  16.524 -15.987  1.00  0.00     0.239 A 
ATOM      6  C   UNL     1       6.925  18.714 -17.008  1.00  0.00     0.146 A 
ATOM      7  O   UNL     1       6.557  15.735 -15.048  1.00  0.00    -0.285 OA
ATOM      8  C   UNL     1       6.692  17.930 -15.845  1.00  0.00     0.111 A 
ATOM      9  C   UNL     1       6.760  20.100 -16.976  1.00  0.00     0.094 A 
ATOM     10  C   UNL     1       6.329  18.601 -14.637  1.00  0.00     0.134 A 
ATOM     11  C   UNL     1       6.364  20.740 -15.802  1.00  0.00     0.123 A 
ATOM     12  C   UNL     1       6.150  19.990 -14.645  1.00  0.00     0.093 A 
BRANCH   3  13
ATOM     13  C   UNL     1       7.926  16.332 -19.607  1.00  0.00     0.025 A 
ATOM     14  C   UNL     1       8.236  17.238 -20.630  1.00  0.00     0.016 A 
ATOM     15  C   UNL     1       8.698  16.776 -21.864  1.00  0.00     0.051 A 
ATOM     16  C   UNL     1       8.852  15.404 -22.101  1.00  0.00     0.157 A 
ATOM     17  C   UNL     1       8.051  14.953 -19.849  1.00  0.00     0.062 A 
ATOM     18  C   UNL     1       8.518  14.481 -21.081  1.00  0.00     0.158 A 
BRANCH  16  19
ATOM     19  O   UNL     1       9.331  15.006 -23.350  1.00  0.00    -0.504 OA
ATOM     20  H   UNL     1       8.757  14.580 -24.062  1.00  0.00     0.293 HD
ENDBRANCH  16  19
BRANCH  18  21
ATOM     21  O   UNL     1       8.628  13.099 -21.251  1.00  0.00    -0.504 OA
ATOM     22  H   UNL     1       8.758  12.444 -20.495  1.00  0.00     0.293 HD
ENDBRANCH  18  21
ENDBRANCH   3  13
BRANCH  10  23
ATOM     23  O   UNL     1       6.157  17.964 -13.401  1.00  0.00    -0.507 OA
ATOM     24  H   UNL     1       6.664  17.156 -13.084  1.00  0.00     0.293 HD
ENDBRANCH  10  23
BRANCH  11  25
ATOM     25  O   UNL     1       6.185  22.123 -15.773  1.00  0.00    -0.508 OA
ATOM     26  H   UNL     1       5.840  22.593 -14.944  1.00  0.00     0.293 HD
ENDBRANCH  11  25
ENDBRANCH   1   2
BRANCH   1  27
ATOM     27  C   UNL     1       8.419  13.908 -16.600  1.00  0.00     0.339 C 
ATOM     28  C   UNL     1       9.174  12.945 -17.537  1.00  0.00     0.214 C 
ATOM     29  O   UNL     1       7.780  13.193 -15.556  1.00  0.00    -0.332 OA
ATOM     30  C   UNL     1      10.188  12.114 -16.722  1.00  0.00     0.180 C 
ATOM     31  C   UNL     1       8.747  12.591 -14.712  1.00  0.00     0.179 C 
ATOM     32  C   UNL     1       9.517  11.493 -15.480  1.00  0.00     0.177 C 
BRANCH  28  33
ATOM     33  O   UNL     1       8.266  12.089 -18.185  1.00  0.00    -0.384 OA
ATOM     34  H   UNL     1       8.478  12.123 -19.155  1.00  0.00     0.211 HD
ENDBRANCH  28  33
BRANCH  30  35
ATOM     35  O   UNL     1      10.752  11.103 -17.518  1.00  0.00    -0.387 OA
ATOM     36  H   UNL     1      10.239  10.273 -17.333  1.00  0.00     0.211 HD
ENDBRANCH  30  35
BRANCH  31  37
ATOM     37  C   UNL     1       8.052  12.024 -13.470  1.00  0.00     0.191 C 
BRANCH  37  38
ATOM     38  O   UNL     1       8.482  12.719 -12.332  1.00  0.00    -0.394 OA
ATOM     39  H   UNL     1       8.855  13.579 -12.655  1.00  0.00     0.210 HD
ENDBRANCH  37  38
ENDBRANCH  31  37
BRANCH  32  40
ATOM     40  O   UNL     1       8.630  10.469 -15.861  1.00  0.00    -0.387 OA
ATOM     41  H   UNL     1       7.934  10.406 -15.156  1.00  0.00     0.211 HD
ENDBRANCH  32  40
ENDBRANCH   1  27
TORSDOF 12
ENDMDL
