MODEL 1
REMARK VINA RESULT:    -3.473      0.000      0.000
REMARK INTER + INTRA:          -8.853
REMARK INTER:                  -6.721
REMARK INTRA:                  -2.132
REMARK UNBOUND:                -2.132
REMARK SMILES CCCCCCCCCCCCCCCCCC(=O)[O-]
REMARK SMILES IDX 10 1 11 2 12 3 13 4 14 5 15 6 16 7 17 8 18 9 19 10 20 11
REMARK SMILES IDX 9 12 8 13 7 14 6 15 5 16 4 17 3 18 2 19 1 20
REMARK H PARENT
REMARK Flexibility Score: inf
ROOT
ATOM      1  C   UNL     1      -6.366  -6.368  -5.582  1.00  0.00     0.000 C 
ENDROOT
BRANCH   1   2
ATOM      2  C   UNL     1      -7.514  -7.371  -5.762  1.00  0.00     0.000 C 
BRANCH   2   3
ATOM      3  C   UNL     1      -8.759  -7.009  -4.935  1.00  0.00     0.000 C 
BRANCH   3   4
ATOM      4  C   UNL     1     -10.030  -6.732  -5.760  1.00  0.00     0.000 C 
BRANCH   4   5
ATOM      5  C   UNL     1     -11.073  -5.865  -5.024  1.00  0.00     0.000 C 
BRANCH   5   6
ATOM      6  C   UNL     1     -10.835  -4.361  -5.232  1.00  0.00     0.000 C 
BRANCH   6   7
ATOM      7  C   UNL     1     -10.947  -3.597  -3.907  1.00  0.00     0.006 C 
BRANCH   7   8
ATOM      8  C   UNL     1     -10.175  -4.313  -2.794  1.00  0.00     0.053 C 
BRANCH   8   9
ATOM      9  C   UNL     1     -10.068  -3.437  -1.585  1.00  0.00     0.041 C 
ATOM     10  O   UNL     1     -10.812  -3.639  -0.589  1.00  0.00    -0.550 OA
ATOM     11  O   UNL     1      -9.180  -2.370  -1.577  1.00  0.00    -0.550 OA
ENDBRANCH   8   9
ENDBRANCH   7   8
ENDBRANCH   6   7
ENDBRANCH   5   6
ENDBRANCH   4   5
ENDBRANCH   3   4
ENDBRANCH   2   3
ENDBRANCH   1   2
BRANCH   1  12
ATOM     12  C   UNL     1      -6.196  -5.498  -6.836  1.00  0.00     0.000 C 
BRANCH  12  13
ATOM     13  C   UNL     1      -7.403  -5.580  -7.784  1.00  0.00    -0.000 C 
BRANCH  13  14
ATOM     14  C   UNL     1      -6.992  -5.626  -9.265  1.00  0.00    -0.000 C 
BRANCH  14  15
ATOM     15  C   UNL     1      -7.983  -6.440 -10.125  1.00  0.00    -0.000 C 
BRANCH  15  16
ATOM     16  C   UNL     1      -8.986  -7.267  -9.299  1.00  0.00    -0.000 C 
BRANCH  16  17
ATOM     17  C   UNL     1     -10.428  -7.269  -9.839  1.00  0.00    -0.000 C 
BRANCH  17  18
ATOM     18  C   UNL     1     -11.048  -5.874 -10.040  1.00  0.00    -0.000 C 
BRANCH  18  19
ATOM     19  C   UNL     1     -11.011  -5.015  -8.769  1.00  0.00    -0.003 C 
ATOM     20  C   UNL     1     -10.701  -3.557  -9.099  1.00  0.00     0.004 C 
ENDBRANCH  18  19
ENDBRANCH  17  18
ENDBRANCH  16  17
ENDBRANCH  15  16
ENDBRANCH  14  15
ENDBRANCH  13  14
ENDBRANCH  12  13
ENDBRANCH   1  12
TORSDOF 16
ENDMDL
MODEL 2
REMARK VINA RESULT:    -3.433      1.841      4.504
REMARK INTER + INTRA:          -8.776
REMARK INTER:                  -7.617
REMARK INTRA:                  -1.159
REMARK UNBOUND:                -2.132
REMARK SMILES CCCCCCCCCCCCCCCCCC(=O)[O-]
REMARK SMILES IDX 10 1 11 2 12 3 13 4 14 5 15 6 16 7 17 8 18 9 19 10 20 11
REMARK SMILES IDX 9 12 8 13 7 14 6 15 5 16 4 17 3 18 2 19 1 20
REMARK H PARENT
REMARK Flexibility Score: inf
ROOT
ATOM      1  C   UNL     1      -9.374  -6.955  -8.725  1.00  0.00     0.000 C 
ENDROOT
BRANCH   1   2
ATOM      2  C   UNL     1     -10.617  -6.060  -8.615  1.00  0.00     0.000 C 
BRANCH   2   3
ATOM      3  C   UNL     1     -10.897  -5.602  -7.174  1.00  0.00     0.000 C 
BRANCH   3   4
ATOM      4  C   UNL     1     -10.479  -6.604  -6.081  1.00  0.00     0.000 C 
BRANCH   4   5
ATOM      5  C   UNL     1     -10.755  -6.110  -4.645  1.00  0.00     0.000 C 
BRANCH   5   6
ATOM      6  C   UNL     1      -9.983  -4.825  -4.310  1.00  0.00     0.000 C 
BRANCH   6   7
ATOM      7  C   UNL     1     -10.900  -3.785  -3.655  1.00  0.00     0.006 C 
BRANCH   7   8
ATOM      8  C   UNL     1     -10.536  -3.584  -2.180  1.00  0.00     0.053 C 
BRANCH   8   9
ATOM      9  C   UNL     1      -9.059  -3.708  -1.984  1.00  0.00     0.041 C 
ATOM     10  O   UNL     1      -8.550  -4.821  -1.685  1.00  0.00    -0.550 OA
ATOM     11  O   UNL     1      -8.248  -2.584  -2.083  1.00  0.00    -0.550 OA
ENDBRANCH   8   9
ENDBRANCH   7   8
ENDBRANCH   6   7
ENDBRANCH   5   6
ENDBRANCH   4   5
ENDBRANCH   3   4
ENDBRANCH   2   3
ENDBRANCH   1   2
BRANCH   1  12
ATOM     12  C   UNL     1      -8.312  -6.310  -9.627  1.00  0.00     0.000 C 
BRANCH  12  13
ATOM     13  C   UNL     1      -6.994  -6.032  -8.889  1.00  0.00    -0.000 C 
BRANCH  13  14
ATOM     14  C   UNL     1      -7.195  -5.208  -7.606  1.00  0.00    -0.000 C 
BRANCH  14  15
ATOM     15  C   UNL     1      -7.104  -6.074  -6.331  1.00  0.00    -0.000 C 
BRANCH  15  16
ATOM     16  C   UNL     1      -5.668  -6.253  -5.803  1.00  0.00    -0.000 C 
BRANCH  16  17
ATOM     17  C   UNL     1      -4.750  -5.031  -5.986  1.00  0.00    -0.000 C 
BRANCH  17  18
ATOM     18  C   UNL     1      -3.270  -5.273  -5.638  1.00  0.00    -0.000 C 
BRANCH  18  19
ATOM     19  C   UNL     1      -2.530  -3.986  -5.246  1.00  0.00    -0.003 C 
ATOM     20  C   UNL     1      -3.395  -2.755  -5.500  1.00  0.00     0.004 C 
ENDBRANCH  18  19
ENDBRANCH  17  18
ENDBRANCH  16  17
ENDBRANCH  15  16
ENDBRANCH  14  15
ENDBRANCH  13  14
ENDBRANCH  12  13
ENDBRANCH   1  12
TORSDOF 16
ENDMDL
MODEL 3
REMARK VINA RESULT:    -2.562      2.802      6.048
REMARK INTER + INTRA:          -7.090
REMARK INTER:                  -6.052
REMARK INTRA:                  -1.038
REMARK UNBOUND:                -2.132
REMARK SMILES CCCCCCCCCCCCCCCCCC(=O)[O-]
REMARK SMILES IDX 10 1 11 2 12 3 13 4 14 5 15 6 16 7 17 8 18 9 19 10 20 11
REMARK SMILES IDX 9 12 8 13 7 14 6 15 5 16 4 17 3 18 2 19 1 20
REMARK H PARENT
REMARK Flexibility Score: inf
ROOT
ATOM      1  C   UNL     1      -8.594  -6.068  -8.065  1.00  0.00     0.000 C 
ENDROOT
BRANCH   1   2
ATOM      2  C   UNL     1      -9.345  -6.937  -7.046  1.00  0.00     0.000 C 
BRANCH   2   3
ATOM      3  C   UNL     1      -8.776  -6.812  -5.623  1.00  0.00     0.000 C 
BRANCH   3   4
ATOM      4  C   UNL     1      -7.597  -7.753  -5.309  1.00  0.00     0.000 C 
BRANCH   4   5
ATOM      5  C   UNL     1      -6.284  -7.016  -4.972  1.00  0.00     0.000 C 
BRANCH   5   6
ATOM      6  C   UNL     1      -6.001  -5.853  -5.935  1.00  0.00     0.000 C 
BRANCH   6   7
ATOM      7  C   UNL     1      -4.517  -5.473  -5.919  1.00  0.00     0.006 C 
BRANCH   7   8
ATOM      8  C   UNL     1      -4.337  -3.957  -6.057  1.00  0.00     0.053 C 
BRANCH   8   9
ATOM      9  C   UNL     1      -3.118  -3.505  -5.316  1.00  0.00     0.041 C 
ATOM     10  O   UNL     1      -2.077  -4.214  -5.317  1.00  0.00    -0.550 OA
ATOM     11  O   UNL     1      -3.146  -2.325  -4.586  1.00  0.00    -0.550 OA
ENDBRANCH   8   9
ENDBRANCH   7   8
ENDBRANCH   6   7
ENDBRANCH   5   6
ENDBRANCH   4   5
ENDBRANCH   3   4
ENDBRANCH   2   3
ENDBRANCH   1   2
BRANCH   1  12
ATOM     12  C   UNL     1      -9.573  -5.409  -9.049  1.00  0.00     0.000 C 
BRANCH  12  13
ATOM     13  C   UNL     1     -10.903  -5.014  -8.390  1.00  0.00    -0.000 C 
BRANCH  13  14
ATOM     14  C   UNL     1     -10.762  -3.807  -7.447  1.00  0.00    -0.000 C 
BRANCH  14  15
ATOM     15  C   UNL     1     -11.050  -4.174  -5.975  1.00  0.00    -0.000 C 
BRANCH  15  16
ATOM     16  C   UNL     1     -10.751  -3.036  -4.981  1.00  0.00    -0.000 C 
BRANCH  16  17
ATOM     17  C   UNL     1     -10.690  -3.461  -3.503  1.00  0.00    -0.000 C 
BRANCH  17  18
ATOM     18  C   UNL     1      -9.340  -4.049  -3.053  1.00  0.00    -0.000 C 
BRANCH  18  19
ATOM     19  C   UNL     1      -9.153  -4.020  -1.530  1.00  0.00    -0.003 C 
ATOM     20  C   UNL     1     -10.460  -3.673  -0.822  1.00  0.00     0.004 C 
ENDBRANCH  18  19
ENDBRANCH  17  18
ENDBRANCH  16  17
ENDBRANCH  15  16
ENDBRANCH  14  15
ENDBRANCH  13  14
ENDBRANCH  12  13
ENDBRANCH   1  12
TORSDOF 16
ENDMDL
MODEL 4
REMARK VINA RESULT:    -2.512      2.239      4.861
REMARK INTER + INTRA:          -6.994
REMARK INTER:                  -5.736
REMARK INTRA:                  -1.258
REMARK UNBOUND:                -2.132
REMARK SMILES CCCCCCCCCCCCCCCCCC(=O)[O-]
REMARK SMILES IDX 10 1 11 2 12 3 13 4 14 5 15 6 16 7 17 8 18 9 19 10 20 11
REMARK SMILES IDX 9 12 8 13 7 14 6 15 5 16 4 17 3 18 2 19 1 20
REMARK H PARENT
REMARK Flexibility Score: inf
ROOT
ATOM      1  C   UNL     1      -9.024  -6.874  -7.558  1.00  0.00     0.000 C 
ENDROOT
BRANCH   1   2
ATOM      2  C   UNL     1      -8.657  -5.400  -7.779  1.00  0.00     0.000 C 
BRANCH   2   3
ATOM      3  C   UNL     1      -9.889  -4.503  -7.988  1.00  0.00     0.000 C 
BRANCH   3   4
ATOM      4  C   UNL     1     -11.124  -4.891  -7.151  1.00  0.00     0.000 C 
BRANCH   4   5
ATOM      5  C   UNL     1     -10.923  -4.726  -5.630  1.00  0.00     0.000 C 
BRANCH   5   6
ATOM      6  C   UNL     1     -10.740  -3.258  -5.220  1.00  0.00     0.000 C 
BRANCH   6   7
ATOM      7  C   UNL     1     -10.940  -3.078  -3.710  1.00  0.00     0.006 C 
BRANCH   7   8
ATOM      8  C   UNL     1     -10.415  -4.293  -2.938  1.00  0.00     0.053 C 
BRANCH   8   9
ATOM      9  C   UNL     1      -9.295  -3.893  -2.031  1.00  0.00     0.041 C 
ATOM     10  O   UNL     1      -9.173  -2.693  -1.665  1.00  0.00    -0.550 OA
ATOM     11  O   UNL     1      -8.356  -4.834  -1.628  1.00  0.00    -0.550 OA
ENDBRANCH   8   9
ENDBRANCH   7   8
ENDBRANCH   6   7
ENDBRANCH   5   6
ENDBRANCH   4   5
ENDBRANCH   3   4
ENDBRANCH   2   3
ENDBRANCH   1   2
BRANCH   1  12
ATOM     12  C   UNL     1      -8.698  -7.310  -6.122  1.00  0.00     0.000 C 
BRANCH  12  13
ATOM     13  C   UNL     1      -8.045  -6.192  -5.295  1.00  0.00    -0.000 C 
BRANCH  13  14
ATOM     14  C   UNL     1      -6.625  -6.552  -4.827  1.00  0.00    -0.000 C 
BRANCH  14  15
ATOM     15  C   UNL     1      -5.591  -6.468  -5.971  1.00  0.00    -0.000 C 
BRANCH  15  16
ATOM     16  C   UNL     1      -4.815  -5.138  -6.010  1.00  0.00    -0.000 C 
BRANCH  16  17
ATOM     17  C   UNL     1      -3.376  -5.208  -5.469  1.00  0.00    -0.000 C 
BRANCH  17  18
ATOM     18  C   UNL     1      -2.625  -3.864  -5.445  1.00  0.00    -0.000 C 
BRANCH  18  19
ATOM     19  C   UNL     1      -3.560  -2.655  -5.590  1.00  0.00    -0.003 C 
ATOM     20  C   UNL     1      -2.766  -1.361  -5.747  1.00  0.00     0.004 C 
ENDBRANCH  18  19
ENDBRANCH  17  18
ENDBRANCH  16  17
ENDBRANCH  15  16
ENDBRANCH  14  15
ENDBRANCH  13  14
ENDBRANCH  12  13
ENDBRANCH   1  12
TORSDOF 16
ENDMDL
MODEL 5
REMARK VINA RESULT:    -2.339      1.315      3.491
REMARK INTER + INTRA:          -6.659
REMARK INTER:                  -5.060
REMARK INTRA:                  -1.599
REMARK UNBOUND:                -2.132
REMARK SMILES CCCCCCCCCCCCCCCCCC(=O)[O-]
REMARK SMILES IDX 10 1 11 2 12 3 13 4 14 5 15 6 16 7 17 8 18 9 19 10 20 11
REMARK SMILES IDX 9 12 8 13 7 14 6 15 5 16 4 17 3 18 2 19 1 20
REMARK H PARENT
REMARK Flexibility Score: inf
ROOT
ATOM      1  C   UNL     1      -9.413  -7.039  -6.259  1.00  0.00     0.000 C 
ENDROOT
BRANCH   1   2
ATOM      2  C   UNL     1      -9.359  -6.010  -5.120  1.00  0.00     0.000 C 
BRANCH   2   3
ATOM      3  C   UNL     1     -10.754  -5.562  -4.654  1.00  0.00     0.000 C 
BRANCH   3   4
ATOM      4  C   UNL     1     -11.057  -4.064  -4.853  1.00  0.00     0.000 C 
BRANCH   4   5
ATOM      5  C   UNL     1     -11.119  -3.261  -3.537  1.00  0.00     0.000 C 
BRANCH   5   6
ATOM      6  C   UNL     1     -11.116  -4.168  -2.297  1.00  0.00     0.000 C 
BRANCH   6   7
ATOM      7  C   UNL     1      -9.915  -3.864  -1.394  1.00  0.00     0.006 C 
BRANCH   7   8
ATOM      8  C   UNL     1      -8.636  -3.694  -2.221  1.00  0.00     0.053 C 
BRANCH   8   9
ATOM      9  C   UNL     1      -8.137  -2.287  -2.130  1.00  0.00     0.041 C 
ATOM     10  O   UNL     1      -7.338  -1.840  -2.995  1.00  0.00    -0.550 OA
ATOM     11  O   UNL     1      -8.516  -1.483  -1.062  1.00  0.00    -0.550 OA
ENDBRANCH   8   9
ENDBRANCH   7   8
ENDBRANCH   6   7
ENDBRANCH   5   6
ENDBRANCH   4   5
ENDBRANCH   3   4
ENDBRANCH   2   3
ENDBRANCH   1   2
BRANCH   1  12
ATOM     12  C   UNL     1     -10.820  -7.106  -6.870  1.00  0.00     0.000 C 
BRANCH  12  13
ATOM     13  C   UNL     1     -10.805  -7.050  -8.405  1.00  0.00    -0.000 C 
BRANCH  13  14
ATOM     14  C   UNL     1     -11.118  -5.646  -8.950  1.00  0.00    -0.000 C 
BRANCH  14  15
ATOM     15  C   UNL     1     -10.142  -4.576  -8.415  1.00  0.00    -0.000 C 
BRANCH  15  16
ATOM     16  C   UNL     1      -9.061  -4.159  -9.430  1.00  0.00    -0.000 C 
BRANCH  16  17
ATOM     17  C   UNL     1      -8.033  -5.252  -9.772  1.00  0.00    -0.000 C 
BRANCH  17  18
ATOM     18  C   UNL     1      -7.444  -5.993  -8.558  1.00  0.00    -0.000 C 
BRANCH  18  19
ATOM     19  C   UNL     1      -6.270  -5.244  -7.913  1.00  0.00    -0.003 C 
ATOM     20  C   UNL     1      -6.119  -5.621  -6.442  1.00  0.00     0.004 C 
ENDBRANCH  18  19
ENDBRANCH  17  18
ENDBRANCH  16  17
ENDBRANCH  15  16
ENDBRANCH  14  15
ENDBRANCH  13  14
ENDBRANCH  12  13
ENDBRANCH   1  12
TORSDOF 16
ENDMDL
MODEL 6
REMARK VINA RESULT:    -2.070      2.535      6.429
REMARK INTER + INTRA:          -6.139
REMARK INTER:                  -5.595
REMARK INTRA:                  -0.544
REMARK UNBOUND:                -2.132
REMARK SMILES CCCCCCCCCCCCCCCCCC(=O)[O-]
REMARK SMILES IDX 10 1 11 2 12 3 13 4 14 5 15 6 16 7 17 8 18 9 19 10 20 11
REMARK SMILES IDX 9 12 8 13 7 14 6 15 5 16 4 17 3 18 2 19 1 20
REMARK H PARENT
REMARK Flexibility Score: inf
ROOT
ATOM      1  C   UNL     1      -8.569  -6.167  -5.071  1.00  0.00     0.000 C 
ENDROOT
BRANCH   1   2
ATOM      2  C   UNL     1      -7.323  -7.001  -5.403  1.00  0.00     0.000 C 
BRANCH   2   3
ATOM      3  C   UNL     1      -6.205  -6.169  -6.052  1.00  0.00     0.000 C 
BRANCH   3   4
ATOM      4  C   UNL     1      -6.661  -5.252  -7.204  1.00  0.00     0.000 C 
BRANCH   4   5
ATOM      5  C   UNL     1      -7.384  -5.999  -8.345  1.00  0.00     0.000 C 
BRANCH   5   6
ATOM      6  C   UNL     1      -8.184  -5.050  -9.250  1.00  0.00     0.000 C 
BRANCH   6   7
ATOM      7  C   UNL     1      -9.342  -5.786  -9.934  1.00  0.00     0.006 C 
BRANCH   7   8
ATOM      8  C   UNL     1     -10.579  -4.887 -10.035  1.00  0.00     0.053 C 
BRANCH   8   9
ATOM      9  C   UNL     1     -10.528  -3.807  -9.001  1.00  0.00     0.041 C 
ATOM     10  O   UNL     1     -10.443  -4.103  -7.779  1.00  0.00    -0.550 OA
ATOM     11  O   UNL     1     -10.623  -2.475  -9.381  1.00  0.00    -0.550 OA
ENDBRANCH   8   9
ENDBRANCH   7   8
ENDBRANCH   6   7
ENDBRANCH   5   6
ENDBRANCH   4   5
ENDBRANCH   3   4
ENDBRANCH   2   3
ENDBRANCH   1   2
BRANCH   1  12
ATOM     12  C   UNL     1      -9.836  -6.829  -5.634  1.00  0.00     0.000 C 
BRANCH  12  13
ATOM     13  C   UNL     1     -11.122  -6.312  -4.970  1.00  0.00    -0.000 C 
BRANCH  13  14
ATOM     14  C   UNL     1     -10.846  -5.252  -3.890  1.00  0.00    -0.000 C 
BRANCH  14  15
ATOM     15  C   UNL     1     -11.125  -3.818  -4.390  1.00  0.00    -0.000 C 
BRANCH  15  16
ATOM     16  C   UNL     1     -10.921  -2.735  -3.313  1.00  0.00    -0.000 C 
BRANCH  16  17
ATOM     17  C   UNL     1     -10.765  -3.266  -1.877  1.00  0.00    -0.000 C 
BRANCH  17  18
ATOM     18  C   UNL     1      -9.438  -3.993  -1.594  1.00  0.00    -0.000 C 
BRANCH  18  19
ATOM     19  C   UNL     1      -8.206  -3.146  -1.944  1.00  0.00    -0.003 C 
ATOM     20  C   UNL     1      -8.109  -1.919  -1.041  1.00  0.00     0.004 C 
ENDBRANCH  18  19
ENDBRANCH  17  18
ENDBRANCH  16  17
ENDBRANCH  15  16
ENDBRANCH  14  15
ENDBRANCH  13  14
ENDBRANCH  12  13
ENDBRANCH   1  12
TORSDOF 16
ENDMDL
MODEL 7
REMARK VINA RESULT:    -2.049     17.731     20.692
REMARK INTER + INTRA:          -6.098
REMARK INTER:                  -5.491
REMARK INTRA:                  -0.607
REMARK UNBOUND:                -2.132
REMARK SMILES CCCCCCCCCCCCCCCCCC(=O)[O-]
REMARK SMILES IDX 10 1 11 2 12 3 13 4 14 5 15 6 16 7 17 8 18 9 19 10 20 11
REMARK SMILES IDX 9 12 8 13 7 14 6 15 5 16 4 17 3 18 2 19 1 20
REMARK H PARENT
REMARK Flexibility Score: inf
ROOT
ATOM      1  C   UNL     1       2.507  -5.228   9.947  1.00  0.00     0.000 C 
ENDROOT
BRANCH   1   2
ATOM      2  C   UNL     1       2.131  -6.684   9.635  1.00  0.00     0.000 C 
BRANCH   2   3
ATOM      3  C   UNL     1       3.191  -7.690  10.114  1.00  0.00     0.000 C 
BRANCH   3   4
ATOM      4  C   UNL     1       3.448  -8.869   9.157  1.00  0.00     0.000 C 
BRANCH   4   5
ATOM      5  C   UNL     1       2.610 -10.125   9.477  1.00  0.00     0.000 C 
BRANCH   5   6
ATOM      6  C   UNL     1       1.102  -9.873   9.335  1.00  0.00     0.000 C 
BRANCH   6   7
ATOM      7  C   UNL     1       0.633 -10.125   7.897  1.00  0.00     0.006 C 
BRANCH   7   8
ATOM      8  C   UNL     1       0.999  -8.947   6.986  1.00  0.00     0.053 C 
BRANCH   8   9
ATOM      9  C   UNL     1       1.725  -9.432   5.771  1.00  0.00     0.041 C 
ATOM     10  O   UNL     1       1.216  -9.286   4.628  1.00  0.00    -0.550 OA
ATOM     11  O   UNL     1       2.943 -10.087   5.904  1.00  0.00    -0.550 OA
ENDBRANCH   8   9
ENDBRANCH   7   8
ENDBRANCH   6   7
ENDBRANCH   5   6
ENDBRANCH   4   5
ENDBRANCH   3   4
ENDBRANCH   2   3
ENDBRANCH   1   2
BRANCH   1  12
ATOM     12  C   UNL     1       3.844  -4.855   9.291  1.00  0.00     0.000 C 
BRANCH  12  13
ATOM     13  C   UNL     1       5.057  -5.411  10.054  1.00  0.00    -0.000 C 
BRANCH  13  14
ATOM     14  C   UNL     1       6.325  -5.475   9.186  1.00  0.00    -0.000 C 
BRANCH  14  15
ATOM     15  C   UNL     1       7.447  -6.305   9.846  1.00  0.00    -0.000 C 
BRANCH  15  16
ATOM     16  C   UNL     1       7.746  -7.631   9.123  1.00  0.00    -0.000 C 
BRANCH  16  17
ATOM     17  C   UNL     1       7.404  -7.645   7.622  1.00  0.00    -0.000 C 
BRANCH  17  18
ATOM     18  C   UNL     1       8.014  -8.815   6.828  1.00  0.00    -0.000 C 
BRANCH  18  19
ATOM     19  C   UNL     1       8.904  -8.350   5.668  1.00  0.00    -0.003 C 
ATOM     20  C   UNL     1       8.399  -8.895   4.335  1.00  0.00     0.004 C 
ENDBRANCH  18  19
ENDBRANCH  17  18
ENDBRANCH  16  17
ENDBRANCH  15  16
ENDBRANCH  14  15
ENDBRANCH  13  14
ENDBRANCH  12  13
ENDBRANCH   1  12
TORSDOF 16
ENDMDL
