MODEL 1
REMARK VINA RESULT:    -4.362      0.000      0.000
REMARK INTER + INTRA:         -10.054
REMARK INTER:                  -8.442
REMARK INTRA:                  -1.612
REMARK UNBOUND:                -1.612
REMARK SMILES CCCCCCCCCCCCCCCCCC(=O)[O-]
REMARK SMILES IDX 10 1 11 2 12 3 13 4 14 5 15 6 16 7 17 8 18 9 19 10 20 11
REMARK SMILES IDX 9 12 8 13 7 14 6 15 5 16 4 17 3 18 2 19 1 20
REMARK H PARENT
REMARK Flexibility Score: inf
ROOT
ATOM      1  C   UNL     1      33.488  47.929  24.885  1.00  0.00     0.000 C 
ENDROOT
BRANCH   1   2
ATOM      2  C   UNL     1      33.071  46.455  25.025  1.00  0.00     0.000 C 
BRANCH   2   3
ATOM      3  C   UNL     1      32.692  46.012  26.453  1.00  0.00     0.000 C 
BRANCH   3   4
ATOM      4  C   UNL     1      33.379  44.726  26.946  1.00  0.00     0.000 C 
BRANCH   4   5
ATOM      5  C   UNL     1      34.414  44.181  25.946  1.00  0.00     0.000 C 
BRANCH   5   6
ATOM      6  C   UNL     1      35.847  44.216  26.505  1.00  0.00     0.000 C 
BRANCH   6   7
ATOM      7  C   UNL     1      36.515  42.830  26.513  1.00  0.00     0.006 C 
BRANCH   7   8
ATOM      8  C   UNL     1      37.445  42.629  25.310  1.00  0.00     0.053 C 
BRANCH   8   9
ATOM      9  C   UNL     1      37.128  41.365  24.570  1.00  0.00     0.041 C 
ATOM     10  O   UNL     1      36.789  40.329  25.202  1.00  0.00    -0.550 OA
ATOM     11  O   UNL     1      37.174  41.340  23.183  1.00  0.00    -0.550 OA
ENDBRANCH   8   9
ENDBRANCH   7   8
ENDBRANCH   6   7
ENDBRANCH   5   6
ENDBRANCH   4   5
ENDBRANCH   3   4
ENDBRANCH   2   3
ENDBRANCH   1   2
BRANCH   1  12
ATOM     12  C   UNL     1      34.955  48.173  25.270  1.00  0.00     0.000 C 
BRANCH  12  13
ATOM     13  C   UNL     1      35.056  48.911  26.610  1.00  0.00    -0.000 C 
BRANCH  13  14
ATOM     14  C   UNL     1      33.790  49.731  26.885  1.00  0.00    -0.000 C 
BRANCH  14  15
ATOM     15  C   UNL     1      34.056  51.230  26.709  1.00  0.00    -0.000 C 
BRANCH  15  16
ATOM     16  C   UNL     1      32.864  51.927  26.044  1.00  0.00    -0.000 C 
BRANCH  16  17
ATOM     17  C   UNL     1      31.693  50.952  25.852  1.00  0.00    -0.000 C 
BRANCH  17  18
ATOM     18  C   UNL     1      31.250  50.839  24.385  1.00  0.00    -0.000 C 
BRANCH  18  19
ATOM     19  C   UNL     1      29.725  50.904  24.221  1.00  0.00    -0.003 C 
ATOM     20  C   UNL     1      29.075  51.617  25.403  1.00  0.00     0.004 C 
ENDBRANCH  18  19
ENDBRANCH  17  18
ENDBRANCH  16  17
ENDBRANCH  15  16
ENDBRANCH  14  15
ENDBRANCH  13  14
ENDBRANCH  12  13
ENDBRANCH   1  12
TORSDOF 16
ENDMDL
MODEL 2
REMARK VINA RESULT:    -4.071      0.946      1.598
REMARK INTER + INTRA:          -9.491
REMARK INTER:                  -8.166
REMARK INTRA:                  -1.324
REMARK UNBOUND:                -1.612
REMARK SMILES CCCCCCCCCCCCCCCCCC(=O)[O-]
REMARK SMILES IDX 10 1 11 2 12 3 13 4 14 5 15 6 16 7 17 8 18 9 19 10 20 11
REMARK SMILES IDX 9 12 8 13 7 14 6 15 5 16 4 17 3 18 2 19 1 20
REMARK H PARENT
REMARK Flexibility Score: inf
ROOT
ATOM      1  C   UNL     1      34.244  48.369  24.880  1.00  0.00     0.000 C 
ENDROOT
BRANCH   1   2
ATOM      2  C   UNL     1      33.139  47.302  24.952  1.00  0.00     0.000 C 
BRANCH   2   3
ATOM      3  C   UNL     1      33.193  46.383  26.189  1.00  0.00     0.000 C 
BRANCH   3   4
ATOM      4  C   UNL     1      33.833  45.002  25.955  1.00  0.00     0.000 C 
BRANCH   4   5
ATOM      5  C   UNL     1      35.256  44.899  26.528  1.00  0.00     0.000 C 
BRANCH   5   6
ATOM      6  C   UNL     1      35.793  43.457  26.514  1.00  0.00     0.000 C 
BRANCH   6   7
ATOM      7  C   UNL     1      36.836  43.222  25.408  1.00  0.00     0.006 C 
BRANCH   7   8
ATOM      8  C   UNL     1      37.754  42.034  25.722  1.00  0.00     0.053 C 
BRANCH   8   9
ATOM      9  C   UNL     1      37.485  40.871  24.817  1.00  0.00     0.041 C 
ATOM     10  O   UNL     1      37.553  41.012  23.568  1.00  0.00    -0.550 OA
ATOM     11  O   UNL     1      37.192  39.625  25.355  1.00  0.00    -0.550 OA
ENDBRANCH   8   9
ENDBRANCH   7   8
ENDBRANCH   6   7
ENDBRANCH   5   6
ENDBRANCH   4   5
ENDBRANCH   3   4
ENDBRANCH   2   3
ENDBRANCH   1   2
BRANCH   1  12
ATOM     12  C   UNL     1      34.508  49.046  26.233  1.00  0.00     0.000 C 
BRANCH  12  13
ATOM     13  C   UNL     1      33.351  49.976  26.618  1.00  0.00    -0.000 C 
BRANCH  13  14
ATOM     14  C   UNL     1      33.806  51.440  26.647  1.00  0.00    -0.000 C 
BRANCH  14  15
ATOM     15  C   UNL     1      32.628  52.377  26.938  1.00  0.00    -0.000 C 
BRANCH  15  16
ATOM     16  C   UNL     1      32.236  53.173  25.688  1.00  0.00    -0.000 C 
BRANCH  16  17
ATOM     17  C   UNL     1      30.721  53.105  25.444  1.00  0.00    -0.000 C 
BRANCH  17  18
ATOM     18  C   UNL     1      30.121  51.740  25.817  1.00  0.00    -0.000 C 
BRANCH  18  19
ATOM     19  C   UNL     1      29.711  50.918  24.587  1.00  0.00    -0.003 C 
ATOM     20  C   UNL     1      30.935  50.359  23.867  1.00  0.00     0.004 C 
ENDBRANCH  18  19
ENDBRANCH  17  18
ENDBRANCH  16  17
ENDBRANCH  15  16
ENDBRANCH  14  15
ENDBRANCH  13  14
ENDBRANCH  12  13
ENDBRANCH   1  12
TORSDOF 16
ENDMDL
MODEL 3
REMARK VINA RESULT:    -4.063      3.809      8.905
REMARK INTER + INTRA:          -9.476
REMARK INTER:                  -8.189
REMARK INTRA:                  -1.287
REMARK UNBOUND:                -1.612
REMARK SMILES CCCCCCCCCCCCCCCCCC(=O)[O-]
REMARK SMILES IDX 10 1 11 2 12 3 13 4 14 5 15 6 16 7 17 8 18 9 19 10 20 11
REMARK SMILES IDX 9 12 8 13 7 14 6 15 5 16 4 17 3 18 2 19 1 20
REMARK H PARENT
REMARK Flexibility Score: inf
ROOT
ATOM      1  C   UNL     1      33.334  47.747  24.951  1.00  0.00     0.000 C 
ENDROOT
BRANCH   1   2
ATOM      2  C   UNL     1      34.779  48.167  25.268  1.00  0.00     0.000 C 
BRANCH   2   3
ATOM      3  C   UNL     1      34.961  48.951  26.584  1.00  0.00     0.000 C 
BRANCH   3   4
ATOM      4  C   UNL     1      33.818  49.923  26.933  1.00  0.00     0.000 C 
BRANCH   4   5
ATOM      5  C   UNL     1      34.141  51.381  26.566  1.00  0.00     0.000 C 
BRANCH   5   6
ATOM      6  C   UNL     1      33.005  52.348  26.942  1.00  0.00     0.000 C 
BRANCH   6   7
ATOM      7  C   UNL     1      32.018  52.583  25.786  1.00  0.00     0.006 C 
BRANCH   7   8
ATOM      8  C   UNL     1      30.676  51.877  26.018  1.00  0.00     0.053 C 
BRANCH   8   9
ATOM      9  C   UNL     1      30.292  51.021  24.850  1.00  0.00     0.041 C 
ATOM     10  O   UNL     1      31.178  50.436  24.174  1.00  0.00    -0.550 OA
ATOM     11  O   UNL     1      28.952  50.843  24.529  1.00  0.00    -0.550 OA
ENDBRANCH   8   9
ENDBRANCH   7   8
ENDBRANCH   6   7
ENDBRANCH   5   6
ENDBRANCH   4   5
ENDBRANCH   3   4
ENDBRANCH   2   3
ENDBRANCH   1   2
BRANCH   1  12
ATOM     12  C   UNL     1      33.100  46.239  25.121  1.00  0.00     0.000 C 
BRANCH  12  13
ATOM     13  C   UNL     1      32.771  45.895  26.579  1.00  0.00    -0.000 C 
BRANCH  13  14
ATOM     14  C   UNL     1      33.583  44.685  27.055  1.00  0.00    -0.000 C 
BRANCH  14  15
ATOM     15  C   UNL     1      34.606  44.256  25.997  1.00  0.00    -0.000 C 
BRANCH  15  16
ATOM     16  C   UNL     1      35.796  43.536  26.640  1.00  0.00    -0.000 C 
BRANCH  16  17
ATOM     17  C   UNL     1      36.837  43.139  25.582  1.00  0.00    -0.000 C 
BRANCH  17  18
ATOM     18  C   UNL     1      36.333  42.035  24.640  1.00  0.00    -0.000 C 
BRANCH  18  19
ATOM     19  C   UNL     1      37.378  40.935  24.406  1.00  0.00    -0.003 C 
ATOM     20  C   UNL     1      37.532  40.053  25.642  1.00  0.00     0.004 C 
ENDBRANCH  18  19
ENDBRANCH  17  18
ENDBRANCH  16  17
ENDBRANCH  15  16
ENDBRANCH  14  15
ENDBRANCH  13  14
ENDBRANCH  12  13
ENDBRANCH   1  12
TORSDOF 16
ENDMDL
MODEL 4
REMARK VINA RESULT:    -4.030      1.527      3.492
REMARK INTER + INTRA:          -9.412
REMARK INTER:                  -7.573
REMARK INTRA:                  -1.839
REMARK UNBOUND:                -1.612
REMARK SMILES CCCCCCCCCCCCCCCCCC(=O)[O-]
REMARK SMILES IDX 10 1 11 2 12 3 13 4 14 5 15 6 16 7 17 8 18 9 19 10 20 11
REMARK SMILES IDX 9 12 8 13 7 14 6 15 5 16 4 17 3 18 2 19 1 20
REMARK H PARENT
REMARK Flexibility Score: inf
ROOT
ATOM      1  C   UNL     1      31.546  49.451  25.957  1.00  0.00     0.000 C 
ENDROOT
BRANCH   1   2
ATOM      2  C   UNL     1      32.840  49.084  26.702  1.00  0.00     0.000 C 
BRANCH   2   3
ATOM      3  C   UNL     1      34.142  49.296  25.902  1.00  0.00     0.000 C 
BRANCH   3   4
ATOM      4  C   UNL     1      34.997  48.033  25.691  1.00  0.00     0.000 C 
BRANCH   4   5
ATOM      5  C   UNL     1      34.914  47.052  26.873  1.00  0.00     0.000 C 
BRANCH   5   6
ATOM      6  C   UNL     1      34.656  45.605  26.419  1.00  0.00     0.000 C 
BRANCH   6   7
ATOM      7  C   UNL     1      35.939  44.756  26.386  1.00  0.00     0.006 C 
BRANCH   7   8
ATOM      8  C   UNL     1      35.709  43.387  25.730  1.00  0.00     0.053 C 
BRANCH   8   9
ATOM      9  C   UNL     1      36.994  42.775  25.263  1.00  0.00     0.041 C 
ATOM     10  O   UNL     1      38.046  42.915  25.940  1.00  0.00    -0.550 OA
ATOM     11  O   UNL     1      37.021  42.022  24.096  1.00  0.00    -0.550 OA
ENDBRANCH   8   9
ENDBRANCH   7   8
ENDBRANCH   6   7
ENDBRANCH   5   6
ENDBRANCH   4   5
ENDBRANCH   3   4
ENDBRANCH   2   3
ENDBRANCH   1   2
BRANCH   1  12
ATOM     12  C   UNL     1      31.791  49.839  24.491  1.00  0.00     0.000 C 
BRANCH  12  13
ATOM     13  C   UNL     1      30.636  50.688  23.947  1.00  0.00    -0.000 C 
BRANCH  13  14
ATOM     14  C   UNL     1      29.474  50.744  24.946  1.00  0.00    -0.000 C 
BRANCH  14  15
ATOM     15  C   UNL     1      29.038  52.191  25.202  1.00  0.00    -0.000 C 
BRANCH  15  16
ATOM     16  C   UNL     1      29.002  52.499  26.703  1.00  0.00    -0.000 C 
BRANCH  16  17
ATOM     17  C   UNL     1      30.203  53.362  27.117  1.00  0.00    -0.000 C 
BRANCH  17  18
ATOM     18  C   UNL     1      30.998  53.889  25.913  1.00  0.00    -0.000 C 
BRANCH  18  19
ATOM     19  C   UNL     1      32.361  53.201  25.758  1.00  0.00    -0.003 C 
ATOM     20  C   UNL     1      32.903  52.743  27.108  1.00  0.00     0.004 C 
ENDBRANCH  18  19
ENDBRANCH  17  18
ENDBRANCH  16  17
ENDBRANCH  15  16
ENDBRANCH  14  15
ENDBRANCH  13  14
ENDBRANCH  12  13
ENDBRANCH   1  12
TORSDOF 16
ENDMDL
MODEL 5
REMARK VINA RESULT:    -4.021      3.740      8.660
REMARK INTER + INTRA:          -9.395
REMARK INTER:                  -7.845
REMARK INTRA:                  -1.550
REMARK UNBOUND:                -1.612
REMARK SMILES CCCCCCCCCCCCCCCCCC(=O)[O-]
REMARK SMILES IDX 10 1 11 2 12 3 13 4 14 5 15 6 16 7 17 8 18 9 19 10 20 11
REMARK SMILES IDX 9 12 8 13 7 14 6 15 5 16 4 17 3 18 2 19 1 20
REMARK H PARENT
REMARK Flexibility Score: inf
ROOT
ATOM      1  C   UNL     1      32.800  46.507  24.507  1.00  0.00     0.000 C 
ENDROOT
BRANCH   1   2
ATOM      2  C   UNL     1      33.184  47.574  25.546  1.00  0.00     0.000 C 
BRANCH   2   3
ATOM      3  C   UNL     1      34.498  48.329  25.257  1.00  0.00     0.000 C 
BRANCH   3   4
ATOM      4  C   UNL     1      34.971  49.277  26.375  1.00  0.00     0.000 C 
BRANCH   4   5
ATOM      5  C   UNL     1      33.813  50.047  27.032  1.00  0.00     0.000 C 
BRANCH   5   6
ATOM      6  C   UNL     1      33.789  51.531  26.629  1.00  0.00     0.000 C 
BRANCH   6   7
ATOM      7  C   UNL     1      32.510  51.920  25.868  1.00  0.00     0.006 C 
BRANCH   7   8
ATOM      8  C   UNL     1      31.353  50.952  26.149  1.00  0.00     0.053 C 
BRANCH   8   9
ATOM      9  C   UNL     1      30.579  50.639  24.906  1.00  0.00     0.041 C 
ATOM     10  O   UNL     1      29.329  50.793  24.882  1.00  0.00    -0.550 OA
ATOM     11  O   UNL     1      31.241  50.209  23.763  1.00  0.00    -0.550 OA
ENDBRANCH   8   9
ENDBRANCH   7   8
ENDBRANCH   6   7
ENDBRANCH   5   6
ENDBRANCH   4   5
ENDBRANCH   3   4
ENDBRANCH   2   3
ENDBRANCH   1   2
BRANCH   1  12
ATOM     12  C   UNL     1      32.760  45.089  25.095  1.00  0.00     0.000 C 
BRANCH  12  13
ATOM     13  C   UNL     1      33.333  45.068  26.518  1.00  0.00    -0.000 C 
BRANCH  13  14
ATOM     14  C   UNL     1      34.554  44.145  26.606  1.00  0.00    -0.000 C 
BRANCH  14  15
ATOM     15  C   UNL     1      35.853  44.928  26.377  1.00  0.00    -0.000 C 
BRANCH  15  16
ATOM     16  C   UNL     1      37.079  44.075  26.723  1.00  0.00    -0.000 C 
BRANCH  16  17
ATOM     17  C   UNL     1      37.327  43.005  25.650  1.00  0.00    -0.000 C 
BRANCH  17  18
ATOM     18  C   UNL     1      37.210  41.575  26.200  1.00  0.00    -0.000 C 
BRANCH  18  19
ATOM     19  C   UNL     1      37.090  40.522  25.089  1.00  0.00    -0.003 C 
ATOM     20  C   UNL     1      37.501  41.099  23.738  1.00  0.00     0.004 C 
ENDBRANCH  18  19
ENDBRANCH  17  18
ENDBRANCH  16  17
ENDBRANCH  15  16
ENDBRANCH  14  15
ENDBRANCH  13  14
ENDBRANCH  12  13
ENDBRANCH   1  12
TORSDOF 16
ENDMDL
MODEL 6
REMARK VINA RESULT:    -3.649      4.615      9.724
REMARK INTER + INTRA:          -8.673
REMARK INTER:                  -7.676
REMARK INTRA:                  -0.997
REMARK UNBOUND:                -1.612
REMARK SMILES CCCCCCCCCCCCCCCCCC(=O)[O-]
REMARK SMILES IDX 10 1 11 2 12 3 13 4 14 5 15 6 16 7 17 8 18 9 19 10 20 11
REMARK SMILES IDX 9 12 8 13 7 14 6 15 5 16 4 17 3 18 2 19 1 20
REMARK H PARENT
REMARK Flexibility Score: inf
ROOT
ATOM      1  C   UNL     1      33.226  46.158  25.713  1.00  0.00     0.000 C 
ENDROOT
BRANCH   1   2
ATOM      2  C   UNL     1      33.539  47.426  26.525  1.00  0.00     0.000 C 
BRANCH   2   3
ATOM      3  C   UNL     1      33.941  48.659  25.690  1.00  0.00     0.000 C 
BRANCH   3   4
ATOM      4  C   UNL     1      33.150  49.945  25.993  1.00  0.00     0.000 C 
BRANCH   4   5
ATOM      5  C   UNL     1      31.648  49.807  25.689  1.00  0.00     0.000 C 
BRANCH   5   6
ATOM      6  C   UNL     1      31.294  50.248  24.260  1.00  0.00     0.000 C 
BRANCH   6   7
ATOM      7  C   UNL     1      30.015  51.102  24.201  1.00  0.00     0.006 C 
BRANCH   7   8
ATOM      8  C   UNL     1      29.886  52.035  25.412  1.00  0.00     0.053 C 
BRANCH   8   9
ATOM      9  C   UNL     1      30.710  53.274  25.247  1.00  0.00     0.041 C 
ATOM     10  O   UNL     1      30.170  54.350  24.878  1.00  0.00    -0.550 OA
ATOM     11  O   UNL     1      32.069  53.250  25.533  1.00  0.00    -0.550 OA
ENDBRANCH   8   9
ENDBRANCH   7   8
ENDBRANCH   6   7
ENDBRANCH   5   6
ENDBRANCH   4   5
ENDBRANCH   3   4
ENDBRANCH   2   3
ENDBRANCH   1   2
BRANCH   1  12
ATOM     12  C   UNL     1      32.868  44.956  26.598  1.00  0.00     0.000 C 
BRANCH  12  13
ATOM     13  C   UNL     1      34.132  44.255  27.111  1.00  0.00    -0.000 C 
BRANCH  13  14
ATOM     14  C   UNL     1      35.192  44.153  26.009  1.00  0.00    -0.000 C 
BRANCH  14  15
ATOM     15  C   UNL     1      36.606  44.213  26.598  1.00  0.00    -0.000 C 
BRANCH  15  16
ATOM     16  C   UNL     1      37.369  42.910  26.335  1.00  0.00    -0.000 C 
BRANCH  16  17
ATOM     17  C   UNL     1      37.088  42.383  24.920  1.00  0.00    -0.000 C 
BRANCH  17  18
ATOM     18  C   UNL     1      37.012  40.849  24.863  1.00  0.00    -0.000 C 
BRANCH  18  19
ATOM     19  C   UNL     1      38.004  40.171  25.818  1.00  0.00    -0.003 C 
ATOM     20  C   UNL     1      37.415  38.892  26.405  1.00  0.00     0.004 C 
ENDBRANCH  18  19
ENDBRANCH  17  18
ENDBRANCH  16  17
ENDBRANCH  15  16
ENDBRANCH  14  15
ENDBRANCH  13  14
ENDBRANCH  12  13
ENDBRANCH   1  12
TORSDOF 16
ENDMDL
MODEL 7
REMARK VINA RESULT:    -3.510      1.521      2.609
REMARK INTER + INTRA:          -8.405
REMARK INTER:                  -7.382
REMARK INTRA:                  -1.023
REMARK UNBOUND:                -1.612
REMARK SMILES CCCCCCCCCCCCCCCCCC(=O)[O-]
REMARK SMILES IDX 10 1 11 2 12 3 13 4 14 5 15 6 16 7 17 8 18 9 19 10 20 11
REMARK SMILES IDX 9 12 8 13 7 14 6 15 5 16 4 17 3 18 2 19 1 20
REMARK H PARENT
REMARK Flexibility Score: inf
ROOT
ATOM      1  C   UNL     1      32.821  45.386  25.705  1.00  0.00     0.000 C 
ENDROOT
BRANCH   1   2
ATOM      2  C   UNL     1      33.806  44.288  26.140  1.00  0.00     0.000 C 
BRANCH   2   3
ATOM      3  C   UNL     1      35.255  44.763  26.377  1.00  0.00     0.000 C 
BRANCH   3   4
ATOM      4  C   UNL     1      36.159  43.766  27.125  1.00  0.00     0.000 C 
BRANCH   4   5
ATOM      5  C   UNL     1      37.645  43.919  26.761  1.00  0.00     0.000 C 
BRANCH   5   6
ATOM      6  C   UNL     1      38.392  42.575  26.757  1.00  0.00     0.000 C 
BRANCH   6   7
ATOM      7  C   UNL     1      37.468  41.381  27.054  1.00  0.00     0.006 C 
BRANCH   7   8
ATOM      8  C   UNL     1      37.545  40.304  25.964  1.00  0.00     0.053 C 
BRANCH   8   9
ATOM      9  C   UNL     1      37.211  40.859  24.613  1.00  0.00     0.041 C 
ATOM     10  O   UNL     1      37.958  40.621  23.628  1.00  0.00    -0.550 OA
ATOM     11  O   UNL     1      36.058  41.613  24.436  1.00  0.00    -0.550 OA
ENDBRANCH   8   9
ENDBRANCH   7   8
ENDBRANCH   6   7
ENDBRANCH   5   6
ENDBRANCH   4   5
ENDBRANCH   3   4
ENDBRANCH   2   3
ENDBRANCH   1   2
BRANCH   1  12
ATOM     12  C   UNL     1      32.034  45.983  26.881  1.00  0.00     0.000 C 
BRANCH  12  13
ATOM     13  C   UNL     1      32.170  47.510  26.914  1.00  0.00    -0.000 C 
BRANCH  13  14
ATOM     14  C   UNL     1      33.211  47.993  25.898  1.00  0.00    -0.000 C 
BRANCH  14  15
ATOM     15  C   UNL     1      32.546  48.777  24.760  1.00  0.00    -0.000 C 
BRANCH  15  16
ATOM     16  C   UNL     1      32.111  50.169  25.230  1.00  0.00    -0.000 C 
BRANCH  16  17
ATOM     17  C   UNL     1      31.004  50.735  24.328  1.00  0.00    -0.000 C 
BRANCH  17  18
ATOM     18  C   UNL     1      31.090  52.260  24.168  1.00  0.00    -0.000 C 
BRANCH  18  19
ATOM     19  C   UNL     1      30.862  53.008  25.489  1.00  0.00    -0.003 C 
ATOM     20  C   UNL     1      30.298  54.403  25.241  1.00  0.00     0.004 C 
ENDBRANCH  18  19
ENDBRANCH  17  18
ENDBRANCH  16  17
ENDBRANCH  15  16
ENDBRANCH  14  15
ENDBRANCH  13  14
ENDBRANCH  12  13
ENDBRANCH   1  12
TORSDOF 16
ENDMDL
MODEL 8
REMARK VINA RESULT:    -3.489     18.342     19.966
REMARK INTER + INTRA:          -8.364
REMARK INTER:                  -6.331
REMARK INTRA:                  -2.033
REMARK UNBOUND:                -1.612
REMARK SMILES CCCCCCCCCCCCCCCCCC(=O)[O-]
REMARK SMILES IDX 10 1 11 2 12 3 13 4 14 5 15 6 16 7 17 8 18 9 19 10 20 11
REMARK SMILES IDX 9 12 8 13 7 14 6 15 5 16 4 17 3 18 2 19 1 20
REMARK H PARENT
REMARK Flexibility Score: inf
ROOT
ATOM      1  C   UNL     1      30.714  47.155   8.316  1.00  0.00     0.000 C 
ENDROOT
BRANCH   1   2
ATOM      2  C   UNL     1      31.268  48.187   7.319  1.00  0.00     0.000 C 
BRANCH   2   3
ATOM      3  C   UNL     1      31.729  49.520   7.942  1.00  0.00     0.000 C 
BRANCH   3   4
ATOM      4  C   UNL     1      31.157  50.787   7.279  1.00  0.00     0.000 C 
BRANCH   4   5
ATOM      5  C   UNL     1      29.630  50.901   7.427  1.00  0.00     0.000 C 
BRANCH   5   6
ATOM      6  C   UNL     1      29.209  51.376   8.828  1.00  0.00     0.000 C 
BRANCH   6   7
ATOM      7  C   UNL     1      28.177  52.516   8.784  1.00  0.00     0.006 C 
BRANCH   7   8
ATOM      8  C   UNL     1      27.196  52.363   7.613  1.00  0.00     0.053 C 
BRANCH   8   9
ATOM      9  C   UNL     1      25.792  52.154   8.091  1.00  0.00     0.041 C 
ATOM     10  O   UNL     1      25.331  50.989   8.213  1.00  0.00    -0.550 OA
ATOM     11  O   UNL     1      25.003  53.245   8.432  1.00  0.00    -0.550 OA
ENDBRANCH   8   9
ENDBRANCH   7   8
ENDBRANCH   6   7
ENDBRANCH   5   6
ENDBRANCH   4   5
ENDBRANCH   3   4
ENDBRANCH   2   3
ENDBRANCH   1   2
BRANCH   1  12
ATOM     12  C   UNL     1      29.426  46.480   7.824  1.00  0.00     0.000 C 
BRANCH  12  13
ATOM     13  C   UNL     1      28.268  47.484   7.764  1.00  0.00    -0.000 C 
BRANCH  13  14
ATOM     14  C   UNL     1      27.924  48.013   9.162  1.00  0.00    -0.000 C 
BRANCH  14  15
ATOM     15  C   UNL     1      26.423  47.887   9.445  1.00  0.00    -0.000 C 
BRANCH  15  16
ATOM     16  C   UNL     1      26.006  46.417   9.566  1.00  0.00    -0.000 C 
BRANCH  16  17
ATOM     17  C   UNL     1      25.021  46.031   8.452  1.00  0.00    -0.000 C 
BRANCH  17  18
ATOM     18  C   UNL     1      25.350  44.672   7.814  1.00  0.00    -0.000 C 
BRANCH  18  19
ATOM     19  C   UNL     1      26.671  44.082   8.328  1.00  0.00    -0.003 C 
ATOM     20  C   UNL     1      26.671  42.560   8.222  1.00  0.00     0.004 C 
ENDBRANCH  18  19
ENDBRANCH  17  18
ENDBRANCH  16  17
ENDBRANCH  15  16
ENDBRANCH  14  15
ENDBRANCH  13  14
ENDBRANCH  12  13
ENDBRANCH   1  12
TORSDOF 16
ENDMDL
MODEL 9
REMARK VINA RESULT:    -3.432      1.813      3.085
REMARK INTER + INTRA:          -8.255
REMARK INTER:                  -7.193
REMARK INTRA:                  -1.061
REMARK UNBOUND:                -1.612
REMARK SMILES CCCCCCCCCCCCCCCCCC(=O)[O-]
REMARK SMILES IDX 10 1 11 2 12 3 13 4 14 5 15 6 16 7 17 8 18 9 19 10 20 11
REMARK SMILES IDX 9 12 8 13 7 14 6 15 5 16 4 17 3 18 2 19 1 20
REMARK H PARENT
REMARK Flexibility Score: inf
ROOT
ATOM      1  C   UNL     1      33.059  45.010  25.641  1.00  0.00     0.000 C 
ENDROOT
BRANCH   1   2
ATOM      2  C   UNL     1      34.297  44.260  26.161  1.00  0.00     0.000 C 
BRANCH   2   3
ATOM      3  C   UNL     1      35.589  45.099  26.237  1.00  0.00     0.000 C 
BRANCH   3   4
ATOM      4  C   UNL     1      36.872  44.303  26.542  1.00  0.00     0.000 C 
BRANCH   4   5
ATOM      5  C   UNL     1      36.659  42.781  26.480  1.00  0.00     0.000 C 
BRANCH   5   6
ATOM      6  C   UNL     1      37.268  42.152  25.217  1.00  0.00     0.000 C 
BRANCH   6   7
ATOM      7  C   UNL     1      37.340  40.617  25.292  1.00  0.00     0.006 C 
BRANCH   7   8
ATOM      8  C   UNL     1      38.304  40.136  26.385  1.00  0.00     0.053 C 
BRANCH   8   9
ATOM      9  C   UNL     1      38.067  38.701  26.741  1.00  0.00     0.041 C 
ATOM     10  O   UNL     1      36.895  38.242  26.777  1.00  0.00    -0.550 OA
ATOM     11  O   UNL     1      39.142  37.861  27.000  1.00  0.00    -0.550 OA
ENDBRANCH   8   9
ENDBRANCH   7   8
ENDBRANCH   6   7
ENDBRANCH   5   6
ENDBRANCH   4   5
ENDBRANCH   3   4
ENDBRANCH   2   3
ENDBRANCH   1   2
BRANCH   1  12
ATOM     12  C   UNL     1      32.220  45.629  26.768  1.00  0.00     0.000 C 
BRANCH  12  13
ATOM     13  C   UNL     1      32.360  47.156  26.783  1.00  0.00    -0.000 C 
BRANCH  13  14
ATOM     14  C   UNL     1      33.038  47.660  25.504  1.00  0.00    -0.000 C 
BRANCH  14  15
ATOM     15  C   UNL     1      33.043  49.192  25.450  1.00  0.00    -0.000 C 
BRANCH  15  16
ATOM     16  C   UNL     1      31.955  49.713  24.504  1.00  0.00    -0.000 C 
BRANCH  16  17
ATOM     17  C   UNL     1      30.904  50.530  25.270  1.00  0.00    -0.000 C 
BRANCH  17  18
ATOM     18  C   UNL     1      31.530  51.519  26.265  1.00  0.00    -0.000 C 
BRANCH  18  19
ATOM     19  C   UNL     1      32.002  52.816  25.592  1.00  0.00    -0.003 C 
ATOM     20  C   UNL     1      30.900  53.417  24.724  1.00  0.00     0.004 C 
ENDBRANCH  18  19
ENDBRANCH  17  18
ENDBRANCH  16  17
ENDBRANCH  15  16
ENDBRANCH  14  15
ENDBRANCH  13  14
ENDBRANCH  12  13
ENDBRANCH   1  12
TORSDOF 16
ENDMDL
