MODEL 1
REMARK VINA RESULT:    -4.530      0.000      0.000
REMARK INTER + INTRA:          -8.006
REMARK INTER:                  -7.179
REMARK INTRA:                  -0.828
REMARK UNBOUND:                -0.828
REMARK SMILES CCCCCCCCCCCC(=O)[O-]
REMARK SMILES IDX 7 1 8 2 9 3 10 4 11 5 12 6 13 7 14 8 6 9 5 10 4 11 3 12 2 13
REMARK SMILES IDX 1 14
REMARK H PARENT
REMARK Flexibility Score: inf
ROOT
ATOM      1  C   UNL     1      -1.254 -37.442  21.139  1.00  0.00     0.000 C 
ENDROOT
BRANCH   1   2
ATOM      2  C   UNL     1      -1.923 -36.056  21.172  1.00  0.00     0.000 C 
BRANCH   2   3
ATOM      3  C   UNL     1      -3.246 -35.988  21.958  1.00  0.00     0.000 C 
BRANCH   3   4
ATOM      4  C   UNL     1      -3.264 -34.862  23.006  1.00  0.00     0.006 C 
BRANCH   4   5
ATOM      5  C   UNL     1      -1.966 -34.045  23.000  1.00  0.00     0.053 C 
BRANCH   5   6
ATOM      6  C   UNL     1      -2.104 -32.774  23.782  1.00  0.00     0.041 C 
ATOM      7  O   UNL     1      -1.100 -32.264  24.346  1.00  0.00    -0.550 OA
ATOM      8  O   UNL     1      -3.336 -32.138  23.863  1.00  0.00    -0.550 OA
ENDBRANCH   5   6
ENDBRANCH   4   5
ENDBRANCH   3   4
ENDBRANCH   2   3
ENDBRANCH   1   2
BRANCH   1   9
ATOM      9  C   UNL     1       0.241 -37.395  21.484  1.00  0.00     0.000 C 
BRANCH   9  10
ATOM     10  C   UNL     1       0.790 -35.967  21.359  1.00  0.00    -0.000 C 
BRANCH  10  11
ATOM     11  C   UNL     1       2.317 -35.904  21.522  1.00  0.00    -0.000 C 
BRANCH  11  12
ATOM     12  C   UNL     1       3.066 -36.567  20.352  1.00  0.00    -0.000 C 
BRANCH  12  13
ATOM     13  C   UNL     1       2.666 -35.981  18.989  1.00  0.00    -0.003 C 
ATOM     14  C   UNL     1       2.416 -37.058  17.934  1.00  0.00     0.004 C 
ENDBRANCH  12  13
ENDBRANCH  11  12
ENDBRANCH  10  11
ENDBRANCH   9  10
ENDBRANCH   1   9
TORSDOF 10
ENDMDL
MODEL 2
REMARK VINA RESULT:    -4.504     19.781     21.124
REMARK INTER + INTRA:          -7.965
REMARK INTER:                  -7.260
REMARK INTRA:                  -0.705
REMARK UNBOUND:                -0.828
REMARK SMILES CCCCCCCCCCCC(=O)[O-]
REMARK SMILES IDX 7 1 8 2 9 3 10 4 11 5 12 6 13 7 14 8 6 9 5 10 4 11 3 12 2 13
REMARK SMILES IDX 1 14
REMARK H PARENT
REMARK Flexibility Score: inf
ROOT
ATOM      1  C   UNL     1      -9.534 -20.747  32.643  1.00  0.00     0.000 C 
ENDROOT
BRANCH   1   2
ATOM      2  C   UNL     1      -8.342 -20.139  33.404  1.00  0.00     0.000 C 
BRANCH   2   3
ATOM      3  C   UNL     1      -7.735 -18.876  32.767  1.00  0.00     0.000 C 
BRANCH   3   4
ATOM      4  C   UNL     1      -6.314 -18.572  33.272  1.00  0.00     0.006 C 
BRANCH   4   5
ATOM      5  C   UNL     1      -5.415 -19.814  33.251  1.00  0.00     0.053 C 
BRANCH   5   6
ATOM      6  C   UNL     1      -4.163 -19.609  34.049  1.00  0.00     0.041 C 
ATOM      7  O   UNL     1      -3.684 -20.552  34.732  1.00  0.00    -0.550 OA
ATOM      8  O   UNL     1      -3.510 -18.383  34.015  1.00  0.00    -0.550 OA
ENDBRANCH   5   6
ENDBRANCH   4   5
ENDBRANCH   3   4
ENDBRANCH   2   3
ENDBRANCH   1   2
BRANCH   1   9
ATOM      9  C   UNL     1     -10.860 -20.026  32.929  1.00  0.00     0.000 C 
BRANCH   9  10
ATOM     10  C   UNL     1     -11.506 -19.526  31.629  1.00  0.00    -0.000 C 
BRANCH  10  11
ATOM     11  C   UNL     1     -10.834 -18.256  31.085  1.00  0.00    -0.000 C 
BRANCH  11  12
ATOM     12  C   UNL     1     -10.778 -18.227  29.547  1.00  0.00    -0.000 C 
BRANCH  12  13
ATOM     13  C   UNL     1      -9.530 -18.929  28.991  1.00  0.00    -0.003 C 
ATOM     14  C   UNL     1      -9.600 -19.148  27.480  1.00  0.00     0.004 C 
ENDBRANCH  12  13
ENDBRANCH  11  12
ENDBRANCH  10  11
ENDBRANCH   9  10
ENDBRANCH   1   9
TORSDOF 10
ENDMDL
MODEL 3
REMARK VINA RESULT:    -4.501      1.889      3.472
REMARK INTER + INTRA:          -7.960
REMARK INTER:                  -6.900
REMARK INTRA:                  -1.060
REMARK UNBOUND:                -0.828
REMARK SMILES CCCCCCCCCCCC(=O)[O-]
REMARK SMILES IDX 7 1 8 2 9 3 10 4 11 5 12 6 13 7 14 8 6 9 5 10 4 11 3 12 2 13
REMARK SMILES IDX 1 14
REMARK H PARENT
REMARK Flexibility Score: inf
ROOT
ATOM      1  C   UNL     1       1.884 -35.916  19.746  1.00  0.00     0.000 C 
ENDROOT
BRANCH   1   2
ATOM      2  C   UNL     1       1.249 -36.141  21.131  1.00  0.00     0.000 C 
BRANCH   2   3
ATOM      3  C   UNL     1       0.420 -37.432  21.267  1.00  0.00     0.000 C 
BRANCH   3   4
ATOM      4  C   UNL     1      -1.083 -37.162  21.456  1.00  0.00     0.006 C 
BRANCH   4   5
ATOM      5  C   UNL     1      -1.428 -35.675  21.302  1.00  0.00     0.053 C 
BRANCH   5   6
ATOM      6  C   UNL     1      -2.487 -35.246  22.271  1.00  0.00     0.041 C 
ATOM      7  O   UNL     1      -2.291 -34.262  23.031  1.00  0.00    -0.550 OA
ATOM      8  O   UNL     1      -3.703 -35.917  22.314  1.00  0.00    -0.550 OA
ENDBRANCH   5   6
ENDBRANCH   4   5
ENDBRANCH   3   4
ENDBRANCH   2   3
ENDBRANCH   1   2
BRANCH   1   9
ATOM      9  C   UNL     1       1.835 -37.164  18.853  1.00  0.00     0.000 C 
BRANCH   9  10
ATOM     10  C   UNL     1       3.093 -37.265  17.979  1.00  0.00    -0.000 C 
BRANCH  10  11
ATOM     11  C   UNL     1       4.241 -36.380  18.491  1.00  0.00    -0.000 C 
BRANCH  11  12
ATOM     12  C   UNL     1       5.388 -37.197  19.113  1.00  0.00    -0.000 C 
BRANCH  12  13
ATOM     13  C   UNL     1       5.503 -36.989  20.630  1.00  0.00    -0.003 C 
ATOM     14  C   UNL     1       4.595 -37.926  21.425  1.00  0.00     0.004 C 
ENDBRANCH  12  13
ENDBRANCH  11  12
ENDBRANCH  10  11
ENDBRANCH   9  10
ENDBRANCH   1   9
TORSDOF 10
ENDMDL
MODEL 4
REMARK VINA RESULT:    -4.469      2.155      4.145
REMARK INTER + INTRA:          -7.909
REMARK INTER:                  -6.566
REMARK INTRA:                  -1.344
REMARK UNBOUND:                -0.828
REMARK SMILES CCCCCCCCCCCC(=O)[O-]
REMARK SMILES IDX 7 1 8 2 9 3 10 4 11 5 12 6 13 7 14 8 6 9 5 10 4 11 3 12 2 13
REMARK SMILES IDX 1 14
REMARK H PARENT
REMARK Flexibility Score: inf
ROOT
ATOM      1  C   UNL     1       2.323 -36.956  18.095  1.00  0.00     0.000 C 
ENDROOT
BRANCH   1   2
ATOM      2  C   UNL     1       1.614 -36.566  19.405  1.00  0.00     0.000 C 
BRANCH   2   3
ATOM      3  C   UNL     1       0.855 -37.711  20.103  1.00  0.00     0.000 C 
BRANCH   3   4
ATOM      4  C   UNL     1       0.144 -37.261  21.391  1.00  0.00     0.006 C 
BRANCH   4   5
ATOM      5  C   UNL     1      -0.090 -35.745  21.425  1.00  0.00     0.053 C 
BRANCH   5   6
ATOM      6  C   UNL     1      -1.545 -35.409  21.542  1.00  0.00     0.041 C 
ATOM      7  O   UNL     1      -2.382 -35.928  20.757  1.00  0.00    -0.550 OA
ATOM      8  O   UNL     1      -1.981 -34.544  22.537  1.00  0.00    -0.550 OA
ENDBRANCH   5   6
ENDBRANCH   4   5
ENDBRANCH   3   4
ENDBRANCH   2   3
ENDBRANCH   1   2
BRANCH   1   9
ATOM      9  C   UNL     1       3.827 -36.648  18.112  1.00  0.00     0.000 C 
BRANCH   9  10
ATOM     10  C   UNL     1       4.583 -37.649  18.997  1.00  0.00    -0.000 C 
BRANCH  10  11
ATOM     11  C   UNL     1       5.229 -36.984  20.223  1.00  0.00    -0.000 C 
BRANCH  11  12
ATOM     12  C   UNL     1       4.893 -37.711  21.538  1.00  0.00    -0.000 C 
BRANCH  12  13
ATOM     13  C   UNL     1       3.786 -37.005  22.334  1.00  0.00    -0.003 C 
ATOM     14  C   UNL     1       3.807 -35.487  22.156  1.00  0.00     0.004 C 
ENDBRANCH  12  13
ENDBRANCH  11  12
ENDBRANCH  10  11
ENDBRANCH   9  10
ENDBRANCH   1   9
TORSDOF 10
ENDMDL
MODEL 5
REMARK VINA RESULT:    -4.439      1.220      2.129
REMARK INTER + INTRA:          -7.861
REMARK INTER:                  -6.974
REMARK INTRA:                  -0.887
REMARK UNBOUND:                -0.828
REMARK SMILES CCCCCCCCCCCC(=O)[O-]
REMARK SMILES IDX 7 1 8 2 9 3 10 4 11 5 12 6 13 7 14 8 6 9 5 10 4 11 3 12 2 13
REMARK SMILES IDX 1 14
REMARK H PARENT
REMARK Flexibility Score: inf
ROOT
ATOM      1  C   UNL     1      -1.554 -37.662  21.284  1.00  0.00     0.000 C 
ENDROOT
BRANCH   1   2
ATOM      2  C   UNL     1      -2.004 -36.210  21.043  1.00  0.00     0.000 C 
BRANCH   2   3
ATOM      3  C   UNL     1      -2.602 -35.499  22.271  1.00  0.00     0.000 C 
BRANCH   3   4
ATOM      4  C   UNL     1      -1.762 -34.298  22.737  1.00  0.00     0.006 C 
BRANCH   4   5
ATOM      5  C   UNL     1      -2.600 -33.267  23.502  1.00  0.00     0.053 C 
BRANCH   5   6
ATOM      6  C   UNL     1      -1.742 -32.237  24.172  1.00  0.00     0.041 C 
ATOM      7  O   UNL     1      -2.227 -31.122  24.499  1.00  0.00    -0.550 OA
ATOM      8  O   UNL     1      -0.413 -32.521  24.460  1.00  0.00    -0.550 OA
ENDBRANCH   5   6
ENDBRANCH   4   5
ENDBRANCH   3   4
ENDBRANCH   2   3
ENDBRANCH   1   2
BRANCH   1   9
ATOM      9  C   UNL     1      -0.049 -37.786  21.564  1.00  0.00     0.000 C 
BRANCH   9  10
ATOM     10  C   UNL     1       0.770 -37.527  20.291  1.00  0.00    -0.000 C 
BRANCH  10  11
ATOM     11  C   UNL     1       1.599 -36.236  20.373  1.00  0.00    -0.000 C 
BRANCH  11  12
ATOM     12  C   UNL     1       1.561 -35.595  21.772  1.00  0.00    -0.000 C 
BRANCH  12  13
ATOM     13  C   UNL     1       2.956 -35.475  22.402  1.00  0.00    -0.003 C 
ATOM     14  C   UNL     1       3.627 -36.832  22.614  1.00  0.00     0.004 C 
ENDBRANCH  12  13
ENDBRANCH  11  12
ENDBRANCH  10  11
ENDBRANCH   9  10
ENDBRANCH   1   9
TORSDOF 10
ENDMDL
MODEL 6
REMARK VINA RESULT:    -4.426      1.662      3.042
REMARK INTER + INTRA:          -7.841
REMARK INTER:                  -6.766
REMARK INTRA:                  -1.075
REMARK UNBOUND:                -0.828
REMARK SMILES CCCCCCCCCCCC(=O)[O-]
REMARK SMILES IDX 7 1 8 2 9 3 10 4 11 5 12 6 13 7 14 8 6 9 5 10 4 11 3 12 2 13
REMARK SMILES IDX 1 14
REMARK H PARENT
REMARK Flexibility Score: inf
ROOT
ATOM      1  C   UNL     1       1.871 -35.375  22.253  1.00  0.00     0.000 C 
ENDROOT
BRANCH   1   2
ATOM      2  C   UNL     1       1.109 -35.891  21.019  1.00  0.00     0.000 C 
BRANCH   2   3
ATOM      3  C   UNL     1       0.459 -37.277  21.186  1.00  0.00     0.000 C 
BRANCH   3   4
ATOM      4  C   UNL     1      -1.053 -37.201  21.459  1.00  0.00     0.006 C 
BRANCH   4   5
ATOM      5  C   UNL     1      -1.635 -35.823  21.118  1.00  0.00     0.053 C 
BRANCH   5   6
ATOM      6  C   UNL     1      -2.516 -35.304  22.212  1.00  0.00     0.041 C 
ATOM      7  O   UNL     1      -2.131 -34.350  22.938  1.00  0.00    -0.550 OA
ATOM      8  O   UNL     1      -3.776 -35.855  22.411  1.00  0.00    -0.550 OA
ENDBRANCH   5   6
ENDBRANCH   4   5
ENDBRANCH   3   4
ENDBRANCH   2   3
ENDBRANCH   1   2
BRANCH   1   9
ATOM      9  C   UNL     1       3.303 -35.923  22.348  1.00  0.00     0.000 C 
BRANCH   9  10
ATOM     10  C   UNL     1       3.974 -35.951  20.968  1.00  0.00    -0.000 C 
BRANCH  10  11
ATOM     11  C   UNL     1       4.602 -37.315  20.644  1.00  0.00    -0.000 C 
BRANCH  11  12
ATOM     12  C   UNL     1       4.258 -37.805  19.225  1.00  0.00    -0.000 C 
BRANCH  12  13
ATOM     13  C   UNL     1       3.730 -36.678  18.326  1.00  0.00    -0.003 C 
ATOM     14  C   UNL     1       2.351 -36.985  17.743  1.00  0.00     0.004 C 
ENDBRANCH  12  13
ENDBRANCH  11  12
ENDBRANCH  10  11
ENDBRANCH   9  10
ENDBRANCH   1   9
TORSDOF 10
ENDMDL
MODEL 7
REMARK VINA RESULT:    -4.388     20.325     21.782
REMARK INTER + INTRA:          -7.781
REMARK INTER:                  -6.414
REMARK INTRA:                  -1.367
REMARK UNBOUND:                -0.828
REMARK SMILES CCCCCCCCCCCC(=O)[O-]
REMARK SMILES IDX 7 1 8 2 9 3 10 4 11 5 12 6 13 7 14 8 6 9 5 10 4 11 3 12 2 13
REMARK SMILES IDX 1 14
REMARK H PARENT
REMARK Flexibility Score: inf
ROOT
ATOM      1  C   UNL     1      -9.320 -18.879  29.597  1.00  0.00     0.000 C 
ENDROOT
BRANCH   1   2
ATOM      2  C   UNL     1      -8.160 -18.644  30.581  1.00  0.00     0.000 C 
BRANCH   2   3
ATOM      3  C   UNL     1      -8.557 -17.982  31.914  1.00  0.00     0.000 C 
BRANCH   3   4
ATOM      4  C   UNL     1      -7.601 -18.333  33.067  1.00  0.00     0.006 C 
BRANCH   4   5
ATOM      5  C   UNL     1      -7.654 -19.823  33.429  1.00  0.00     0.053 C 
BRANCH   5   6
ATOM      6  C   UNL     1      -6.313 -20.341  33.851  1.00  0.00     0.041 C 
ATOM      7  O   UNL     1      -6.192 -20.987  34.926  1.00  0.00    -0.550 OA
ATOM      8  O   UNL     1      -5.202 -20.135  33.044  1.00  0.00    -0.550 OA
ENDBRANCH   5   6
ENDBRANCH   4   5
ENDBRANCH   3   4
ENDBRANCH   2   3
ENDBRANCH   1   2
BRANCH   1   9
ATOM      9  C   UNL     1     -10.701 -18.782  30.262  1.00  0.00     0.000 C 
BRANCH   9  10
ATOM     10  C   UNL     1     -11.138 -20.143  30.822  1.00  0.00    -0.000 C 
BRANCH  10  11
ATOM     11  C   UNL     1     -12.061 -20.010  32.044  1.00  0.00    -0.000 C 
BRANCH  11  12
ATOM     12  C   UNL     1     -11.342 -20.328  33.367  1.00  0.00    -0.000 C 
BRANCH  12  13
ATOM     13  C   UNL     1     -11.243 -19.105  34.291  1.00  0.00    -0.003 C 
ATOM     14  C   UNL     1     -11.948 -17.875  33.720  1.00  0.00     0.004 C 
ENDBRANCH  12  13
ENDBRANCH  11  12
ENDBRANCH  10  11
ENDBRANCH   9  10
ENDBRANCH   1   9
TORSDOF 10
ENDMDL
MODEL 8
REMARK VINA RESULT:    -4.379     20.144     21.353
REMARK INTER + INTRA:          -7.767
REMARK INTER:                  -6.838
REMARK INTRA:                  -0.929
REMARK UNBOUND:                -0.828
REMARK SMILES CCCCCCCCCCCC(=O)[O-]
REMARK SMILES IDX 7 1 8 2 9 3 10 4 11 5 12 6 13 7 14 8 6 9 5 10 4 11 3 12 2 13
REMARK SMILES IDX 1 14
REMARK H PARENT
REMARK Flexibility Score: inf
ROOT
ATOM      1  C   UNL     1      -8.268 -18.635  30.168  1.00  0.00     0.000 C 
ENDROOT
BRANCH   1   2
ATOM      2  C   UNL     1      -8.373 -18.160  31.628  1.00  0.00     0.000 C 
BRANCH   2   3
ATOM      3  C   UNL     1      -7.029 -18.016  32.366  1.00  0.00     0.000 C 
BRANCH   3   4
ATOM      4  C   UNL     1      -6.605 -19.302  33.097  1.00  0.00     0.006 C 
BRANCH   4   5
ATOM      5  C   UNL     1      -5.100 -19.569  32.973  1.00  0.00     0.053 C 
BRANCH   5   6
ATOM      6  C   UNL     1      -4.576 -20.353  34.138  1.00  0.00     0.041 C 
ATOM      7  O   UNL     1      -5.325 -21.161  34.747  1.00  0.00    -0.550 OA
ATOM      8  O   UNL     1      -3.251 -20.213  34.531  1.00  0.00    -0.550 OA
ENDBRANCH   5   6
ENDBRANCH   4   5
ENDBRANCH   3   4
ENDBRANCH   2   3
ENDBRANCH   1   2
BRANCH   1   9
ATOM      9  C   UNL     1      -9.636 -18.898  29.522  1.00  0.00     0.000 C 
BRANCH   9  10
ATOM     10  C   UNL     1     -10.767 -18.751  30.551  1.00  0.00    -0.000 C 
BRANCH  10  11
ATOM     11  C   UNL     1     -11.428 -20.093  30.899  1.00  0.00    -0.000 C 
BRANCH  11  12
ATOM     12  C   UNL     1     -12.159 -20.061  32.253  1.00  0.00    -0.000 C 
BRANCH  12  13
ATOM     13  C   UNL     1     -11.239 -19.639  33.409  1.00  0.00    -0.003 C 
ATOM     14  C   UNL     1     -10.150 -20.670  33.703  1.00  0.00     0.004 C 
ENDBRANCH  12  13
ENDBRANCH  11  12
ENDBRANCH  10  11
ENDBRANCH   9  10
ENDBRANCH   1   9
TORSDOF 10
ENDMDL
MODEL 9
REMARK VINA RESULT:    -4.348     19.954     21.093
REMARK INTER + INTRA:          -7.717
REMARK INTER:                  -6.630
REMARK INTRA:                  -1.087
REMARK UNBOUND:                -0.828
REMARK SMILES CCCCCCCCCCCC(=O)[O-]
REMARK SMILES IDX 7 1 8 2 9 3 10 4 11 5 12 6 13 7 14 8 6 9 5 10 4 11 3 12 2 13
REMARK SMILES IDX 1 14
REMARK H PARENT
REMARK Flexibility Score: inf
ROOT
ATOM      1  C   UNL     1      -8.064 -17.916  31.942  1.00  0.00     0.000 C 
ENDROOT
BRANCH   1   2
ATOM      2  C   UNL     1      -7.610 -18.380  33.338  1.00  0.00     0.000 C 
BRANCH   2   3
ATOM      3  C   UNL     1      -7.797 -19.882  33.620  1.00  0.00     0.000 C 
BRANCH   3   4
ATOM      4  C   UNL     1      -6.514 -20.560  34.133  1.00  0.00     0.006 C 
BRANCH   4   5
ATOM      5  C   UNL     1      -5.277 -20.142  33.328  1.00  0.00     0.053 C 
BRANCH   5   6
ATOM      6  C   UNL     1      -4.080 -19.950  34.208  1.00  0.00     0.041 C 
ATOM      7  O   UNL     1      -3.468 -18.849  34.215  1.00  0.00    -0.550 OA
ATOM      8  O   UNL     1      -3.657 -20.978  35.041  1.00  0.00    -0.550 OA
ENDBRANCH   5   6
ENDBRANCH   4   5
ENDBRANCH   3   4
ENDBRANCH   2   3
ENDBRANCH   1   2
BRANCH   1   9
ATOM      9  C   UNL     1      -7.967 -19.022  30.881  1.00  0.00     0.000 C 
BRANCH   9  10
ATOM     10  C   UNL     1      -8.651 -18.592  29.574  1.00  0.00    -0.000 C 
BRANCH  10  11
ATOM     11  C   UNL     1     -10.135 -18.984  29.528  1.00  0.00    -0.000 C 
BRANCH  11  12
ATOM     12  C   UNL     1     -10.429 -20.288  30.292  1.00  0.00    -0.000 C 
BRANCH  12  13
ATOM     13  C   UNL     1     -11.689 -20.188  31.164  1.00  0.00    -0.003 C 
ATOM     14  C   UNL     1     -11.403 -19.612  32.551  1.00  0.00     0.004 C 
ENDBRANCH  12  13
ENDBRANCH  11  12
ENDBRANCH  10  11
ENDBRANCH   9  10
ENDBRANCH   1   9
TORSDOF 10
ENDMDL
