MODEL 1
REMARK VINA RESULT:    -7.028      0.000      0.000
REMARK INTER + INTRA:          -7.182
REMARK INTER:                  -7.644
REMARK INTRA:                   0.462
REMARK UNBOUND:                 0.462
REMARK SMILES C[C@H]1[C@H]2C3=CC[C@@H]4[C@@]5(C)CC[C@H](O)C(C)(C)[C@@H]5CC[C@@]4(C)[C@@]3(C)CC[C@]2(C(=O)[O-])CC[C@@H]1C
REMARK SMILES IDX 26 1 30 2 25 3 3 4 31 5 24 6 4 7 2 8 32 9 22 10 5 11 1 12
REMARK SMILES IDX 33 13 23 14 20 15 6 16 7 17 19 18 21 19 8 20 18 21 17 22
REMARK SMILES IDX 10 23 9 24 14 25 11 26 12 27 15 28 16 29 27 30 28 31 29 32
REMARK SMILES IDX 13 33
REMARK H PARENT 13 34
REMARK Flexibility Score: inf
ROOT
ATOM      1  C   UNL     1      -3.321  17.760  20.181  1.00  0.00     0.017 C 
ATOM      2  C   UNL     1      -2.047  18.209  19.391  1.00  0.00     0.014 C 
ATOM      3  C   UNL     1      -3.106  18.169  21.685  1.00  0.00     0.014 C 
ATOM      4  C   UNL     1      -4.559  18.528  19.634  1.00  0.00     0.030 C 
ATOM      5  C   UNL     1      -2.217  18.216  17.860  1.00  0.00     0.004 C 
ATOM      6  C   UNL     1      -4.379  18.181  22.588  1.00  0.00     0.013 C 
ATOM      7  C   UNL     1      -5.776  18.315  20.545  1.00  0.00    -0.063 C 
ATOM      8  C   UNL     1      -4.745  18.574  18.070  1.00  0.00    -0.003 C 
ATOM      9  C   UNL     1      -3.426  19.043  17.383  1.00  0.00    -0.011 C 
ATOM     10  C   UNL     1      -5.645  18.894  21.979  1.00  0.00    -0.006 C 
ATOM     11  C   UNL     1      -6.622  17.290  20.299  1.00  0.00    -0.027 C 
ATOM     12  C   UNL     1      -5.258  17.292  17.374  1.00  0.00     0.008 C 
ATOM     13  C   UNL     1      -3.188  20.559  17.519  1.00  0.00     0.008 C 
ATOM     14  C   UNL     1      -5.331  20.429  21.923  1.00  0.00     0.017 C 
ATOM     15  C   UNL     1      -6.993  18.653  22.856  1.00  0.00    -0.020 C 
ATOM     16  C   UNL     1      -7.812  16.954  21.137  1.00  0.00     0.032 C 
ATOM     17  C   UNL     1      -7.519  17.179  22.631  1.00  0.00     0.006 C 
ATOM     18  C   UNL     1      -6.717  18.870  24.381  1.00  0.00     0.008 C 
ATOM     19  C   UNL     1      -8.066  19.705  22.414  1.00  0.00     0.012 C 
ATOM     20  C   UNL     1      -8.658  16.640  23.621  1.00  0.00    -0.025 C 
ATOM     21  C   UNL     1      -7.872  18.439  25.290  1.00  0.00     0.005 C 
ATOM     22  C   UNL     1      -8.170  16.932  25.089  1.00  0.00     0.003 C 
ATOM     23  C   UNL     1      -8.766  15.087  23.456  1.00  0.00     0.010 C 
ATOM     24  C   UNL     1     -10.061  17.263  23.304  1.00  0.00     0.012 C 
ATOM     25  C   UNL     1      -8.998  16.253  26.253  1.00  0.00    -0.006 C 
ATOM     26  C   UNL     1      -9.607  14.396  24.545  1.00  0.00     0.033 C 
ATOM     27  C   UNL     1      -9.095  14.718  25.957  1.00  0.00     0.120 C 
ATOM     28  C   UNL     1      -8.232  16.408  27.599  1.00  0.00     0.014 C 
ATOM     29  C   UNL     1     -10.400  16.885  26.453  1.00  0.00     0.014 C 
ENDROOT
BRANCH   1  30
ATOM     30  C   UNL     1      -3.490  16.240  20.105  1.00  0.00     0.048 C 
ATOM     31  O   UNL     1      -3.805  15.578  21.130  1.00  0.00    -0.550 OA
ATOM     32  O   UNL     1      -3.266  15.546  18.923  1.00  0.00    -0.550 OA
ENDBRANCH   1  30
BRANCH  27  33
ATOM     33  O   UNL     1      -9.864  14.043  26.929  1.00  0.00    -0.393 OA
ATOM     34  H   UNL     1     -10.465  13.407  26.459  1.00  0.00     0.210 HD
ENDBRANCH  27  33
TORSDOF 2
ENDMDL
MODEL 2
REMARK VINA RESULT:    -6.459      3.982      6.072
REMARK INTER + INTRA:          -6.564
REMARK INTER:                  -7.044
REMARK INTRA:                   0.480
REMARK UNBOUND:                 0.462
REMARK SMILES C[C@H]1[C@H]2C3=CC[C@@H]4[C@@]5(C)CC[C@H](O)C(C)(C)[C@@H]5CC[C@@]4(C)[C@@]3(C)CC[C@]2(C(=O)[O-])CC[C@@H]1C
REMARK SMILES IDX 26 1 30 2 25 3 3 4 31 5 24 6 4 7 2 8 32 9 22 10 5 11 1 12
REMARK SMILES IDX 33 13 23 14 20 15 6 16 7 17 19 18 21 19 8 20 18 21 17 22
REMARK SMILES IDX 10 23 9 24 14 25 11 26 12 27 15 28 16 29 27 30 28 31 29 32
REMARK SMILES IDX 13 33
REMARK H PARENT 13 34
REMARK Flexibility Score: inf
ROOT
ATOM      1  C   UNL     1      -5.933  14.637  17.216  1.00  0.00     0.017 C 
ATOM      2  C   UNL     1      -5.513  13.169  16.875  1.00  0.00     0.014 C 
ATOM      3  C   UNL     1      -6.819  14.580  18.514  1.00  0.00     0.014 C 
ATOM      4  C   UNL     1      -4.657  15.474  17.526  1.00  0.00     0.030 C 
ATOM      5  C   UNL     1      -4.364  13.055  15.856  1.00  0.00     0.004 C 
ATOM      6  C   UNL     1      -7.033  15.930  19.267  1.00  0.00     0.013 C 
ATOM      7  C   UNL     1      -5.034  16.840  18.116  1.00  0.00    -0.063 C 
ATOM      8  C   UNL     1      -3.455  15.358  16.515  1.00  0.00    -0.003 C 
ATOM      9  C   UNL     1      -3.112  13.860  16.254  1.00  0.00    -0.011 C 
ATOM     10  C   UNL     1      -5.738  16.798  19.499  1.00  0.00    -0.006 C 
ATOM     11  C   UNL     1      -5.215  17.895  17.291  1.00  0.00    -0.027 C 
ATOM     12  C   UNL     1      -3.585  16.097  15.163  1.00  0.00     0.008 C 
ATOM     13  C   UNL     1      -2.347  13.209  17.422  1.00  0.00     0.008 C 
ATOM     14  C   UNL     1      -4.850  16.038  20.543  1.00  0.00     0.017 C 
ATOM     15  C   UNL     1      -6.066  18.290  20.058  1.00  0.00    -0.020 C 
ATOM     16  C   UNL     1      -5.626  19.260  17.739  1.00  0.00     0.032 C 
ATOM     17  C   UNL     1      -6.646  19.182  18.888  1.00  0.00     0.006 C 
ATOM     18  C   UNL     1      -7.107  18.237  21.224  1.00  0.00     0.008 C 
ATOM     19  C   UNL     1      -4.744  18.905  20.629  1.00  0.00     0.012 C 
ATOM     20  C   UNL     1      -7.307  20.586  19.287  1.00  0.00    -0.025 C 
ATOM     21  C   UNL     1      -7.639  19.609  21.648  1.00  0.00     0.005 C 
ATOM     22  C   UNL     1      -8.332  20.302  20.448  1.00  0.00     0.003 C 
ATOM     23  C   UNL     1      -8.118  21.121  18.058  1.00  0.00     0.010 C 
ATOM     24  C   UNL     1      -6.232  21.661  19.666  1.00  0.00     0.012 C 
ATOM     25  C   UNL     1      -9.307  21.486  20.831  1.00  0.00    -0.006 C 
ATOM     26  C   UNL     1      -9.043  22.307  18.384  1.00  0.00     0.033 C 
ATOM     27  C   UNL     1     -10.017  21.981  19.526  1.00  0.00     0.120 C 
ATOM     28  C   UNL     1     -10.422  20.960  21.781  1.00  0.00     0.014 C 
ATOM     29  C   UNL     1      -8.593  22.649  21.568  1.00  0.00     0.014 C 
ENDROOT
BRANCH   1  30
ATOM     30  C   UNL     1      -6.765  15.234  16.078  1.00  0.00     0.048 C 
ATOM     31  O   UNL     1      -6.455  15.021  14.876  1.00  0.00    -0.550 OA
ATOM     32  O   UNL     1      -7.856  16.054  16.335  1.00  0.00    -0.550 OA
ENDBRANCH   1  30
BRANCH  27  33
ATOM     33  O   UNL     1     -10.873  23.075  19.775  1.00  0.00    -0.393 OA
ATOM     34  H   UNL     1     -11.327  23.310  18.924  1.00  0.00     0.210 HD
ENDBRANCH  27  33
TORSDOF 2
ENDMDL
MODEL 3
REMARK VINA RESULT:    -6.438      1.751      8.291
REMARK INTER + INTRA:          -6.541
REMARK INTER:                  -7.843
REMARK INTRA:                   1.303
REMARK UNBOUND:                 0.462
REMARK SMILES C[C@H]1[C@H]2C3=CC[C@@H]4[C@@]5(C)CC[C@H](O)C(C)(C)[C@@H]5CC[C@@]4(C)[C@@]3(C)CC[C@]2(C(=O)[O-])CC[C@@H]1C
REMARK SMILES IDX 26 1 30 2 25 3 3 4 31 5 24 6 4 7 2 8 32 9 22 10 5 11 1 12
REMARK SMILES IDX 33 13 23 14 20 15 6 16 7 17 19 18 21 19 8 20 18 21 17 22
REMARK SMILES IDX 10 23 9 24 14 25 11 26 12 27 15 28 16 29 27 30 28 31 29 32
REMARK SMILES IDX 13 33
REMARK H PARENT 13 34
REMARK Flexibility Score: inf
ROOT
ATOM      1  C   UNL     1      -9.684  14.584  25.883  1.00  0.00     0.017 C 
ATOM      2  C   UNL     1     -10.656  13.573  26.576  1.00  0.00     0.014 C 
ATOM      3  C   UNL     1      -9.700  14.265  24.342  1.00  0.00     0.014 C 
ATOM      4  C   UNL     1     -10.219  16.031  26.091  1.00  0.00     0.030 C 
ATOM      5  C   UNL     1     -11.044  13.949  28.019  1.00  0.00     0.004 C 
ATOM      6  C   UNL     1      -9.124  15.368  23.400  1.00  0.00     0.013 C 
ATOM      7  C   UNL     1      -9.448  17.026  25.214  1.00  0.00    -0.063 C 
ATOM      8  C   UNL     1     -10.649  16.437  27.552  1.00  0.00    -0.003 C 
ATOM      9  C   UNL     1     -11.621  15.372  28.144  1.00  0.00    -0.011 C 
ATOM     10  C   UNL     1      -9.618  16.837  23.683  1.00  0.00    -0.006 C 
ATOM     11  C   UNL     1      -8.347  17.636  25.707  1.00  0.00    -0.027 C 
ATOM     12  C   UNL     1      -9.524  16.728  28.572  1.00  0.00     0.008 C 
ATOM     13  C   UNL     1     -13.046  15.477  27.568  1.00  0.00     0.008 C 
ATOM     14  C   UNL     1     -11.134  16.901  23.287  1.00  0.00     0.017 C 
ATOM     15  C   UNL     1      -8.796  17.957  22.838  1.00  0.00    -0.020 C 
ATOM     16  C   UNL     1      -7.490  18.587  24.938  1.00  0.00     0.032 C 
ATOM     17  C   UNL     1      -7.358  18.151  23.469  1.00  0.00     0.006 C 
ATOM     18  C   UNL     1      -8.643  17.531  21.340  1.00  0.00     0.008 C 
ATOM     19  C   UNL     1      -9.607  19.296  22.871  1.00  0.00     0.012 C 
ATOM     20  C   UNL     1      -6.284  18.984  22.621  1.00  0.00    -0.025 C 
ATOM     21  C   UNL     1      -7.687  18.417  20.535  1.00  0.00     0.005 C 
ATOM     22  C   UNL     1      -6.273  18.380  21.166  1.00  0.00     0.003 C 
ATOM     23  C   UNL     1      -4.867  18.749  23.244  1.00  0.00     0.010 C 
ATOM     24  C   UNL     1      -6.578  20.524  22.643  1.00  0.00     0.012 C 
ATOM     25  C   UNL     1      -5.103  18.858  20.215  1.00  0.00    -0.006 C 
ATOM     26  C   UNL     1      -3.704  19.247  22.367  1.00  0.00     0.033 C 
ATOM     27  C   UNL     1      -3.743  18.634  20.958  1.00  0.00     0.120 C 
ATOM     28  C   UNL     1      -5.073  17.970  18.937  1.00  0.00     0.014 C 
ATOM     29  C   UNL     1      -5.261  20.327  19.745  1.00  0.00     0.014 C 
ENDROOT
BRANCH   1  30
ATOM     30  C   UNL     1      -8.258  14.403  26.407  1.00  0.00     0.048 C 
ATOM     31  O   UNL     1      -7.736  13.257  26.466  1.00  0.00    -0.550 OA
ATOM     32  O   UNL     1      -7.514  15.482  26.866  1.00  0.00    -0.550 OA
ENDBRANCH   1  30
BRANCH  27  33
ATOM     33  O   UNL     1      -2.645  19.082  20.192  1.00  0.00    -0.393 OA
ATOM     34  H   UNL     1      -2.542  20.058  20.345  1.00  0.00     0.210 HD
ENDBRANCH  27  33
TORSDOF 2
ENDMDL
MODEL 4
REMARK VINA RESULT:    -6.312      4.004      9.045
REMARK INTER + INTRA:          -6.403
REMARK INTER:                  -6.997
REMARK INTRA:                   0.594
REMARK UNBOUND:                 0.462
REMARK SMILES C[C@H]1[C@H]2C3=CC[C@@H]4[C@@]5(C)CC[C@H](O)C(C)(C)[C@@H]5CC[C@@]4(C)[C@@]3(C)CC[C@]2(C(=O)[O-])CC[C@@H]1C
REMARK SMILES IDX 26 1 30 2 25 3 3 4 31 5 24 6 4 7 2 8 32 9 22 10 5 11 1 12
REMARK SMILES IDX 33 13 23 14 20 15 6 16 7 17 19 18 21 19 8 20 18 21 17 22
REMARK SMILES IDX 10 23 9 24 14 25 11 26 12 27 15 28 16 29 27 30 28 31 29 32
REMARK SMILES IDX 13 33
REMARK H PARENT 13 34
REMARK Flexibility Score: inf
ROOT
ATOM      1  C   UNL     1      -7.587  19.746  22.295  1.00  0.00     0.017 C 
ATOM      2  C   UNL     1      -7.870  18.918  23.592  1.00  0.00     0.014 C 
ATOM      3  C   UNL     1      -6.137  20.340  22.426  1.00  0.00     0.014 C 
ATOM      4  C   UNL     1      -7.619  18.793  21.064  1.00  0.00     0.030 C 
ATOM      5  C   UNL     1      -9.085  17.977  23.496  1.00  0.00     0.004 C 
ATOM      6  C   UNL     1      -5.483  20.871  21.112  1.00  0.00     0.013 C 
ATOM      7  C   UNL     1      -7.093  19.507  19.811  1.00  0.00    -0.063 C 
ATOM      8  C   UNL     1      -8.838  17.801  20.951  1.00  0.00    -0.003 C 
ATOM      9  C   UNL     1      -9.024  17.022  22.289  1.00  0.00    -0.011 C 
ATOM     10  C   UNL     1      -5.599  19.924  19.858  1.00  0.00    -0.006 C 
ATOM     11  C   UNL     1      -7.958  20.162  19.004  1.00  0.00    -0.027 C 
ATOM     12  C   UNL     1     -10.197  18.387  20.506  1.00  0.00     0.008 C 
ATOM     13  C   UNL     1      -7.980  15.905  22.481  1.00  0.00     0.008 C 
ATOM     14  C   UNL     1      -4.690  18.677  20.134  1.00  0.00     0.017 C 
ATOM     15  C   UNL     1      -5.124  20.639  18.477  1.00  0.00    -0.020 C 
ATOM     16  C   UNL     1      -7.563  20.929  17.785  1.00  0.00     0.032 C 
ATOM     17  C   UNL     1      -6.229  21.665  18.001  1.00  0.00     0.006 C 
ATOM     18  C   UNL     1      -3.771  21.400  18.674  1.00  0.00     0.008 C 
ATOM     19  C   UNL     1      -4.891  19.527  17.399  1.00  0.00     0.012 C 
ATOM     20  C   UNL     1      -5.836  22.686  16.831  1.00  0.00    -0.025 C 
ATOM     21  C   UNL     1      -3.377  22.286  17.489  1.00  0.00     0.005 C 
ATOM     22  C   UNL     1      -4.470  23.355  17.240  1.00  0.00     0.003 C 
ATOM     23  C   UNL     1      -6.919  23.816  16.771  1.00  0.00     0.010 C 
ATOM     24  C   UNL     1      -5.781  21.988  15.428  1.00  0.00     0.012 C 
ATOM     25  C   UNL     1      -4.008  24.596  16.375  1.00  0.00    -0.006 C 
ATOM     26  C   UNL     1      -6.523  25.020  15.897  1.00  0.00     0.033 C 
ATOM     27  C   UNL     1      -5.182  25.631  16.333  1.00  0.00     0.120 C 
ATOM     28  C   UNL     1      -2.808  25.301  17.072  1.00  0.00     0.014 C 
ATOM     29  C   UNL     1      -3.540  24.205  14.949  1.00  0.00     0.014 C 
ENDROOT
BRANCH   1  30
ATOM     30  C   UNL     1      -8.583  20.902  22.169  1.00  0.00     0.048 C 
ATOM     31  O   UNL     1      -9.822  20.680  22.121  1.00  0.00    -0.550 OA
ATOM     32  O   UNL     1      -8.152  22.219  22.066  1.00  0.00    -0.550 OA
ENDBRANCH   1  30
BRANCH  27  33
ATOM     33  O   UNL     1      -4.866  26.752  15.537  1.00  0.00    -0.393 OA
ATOM     34  H   UNL     1      -4.067  26.528  14.992  1.00  0.00     0.210 HD
ENDBRANCH  27  33
TORSDOF 2
ENDMDL
MODEL 5
REMARK VINA RESULT:    -6.260      3.015      4.873
REMARK INTER + INTRA:          -6.347
REMARK INTER:                  -6.830
REMARK INTRA:                   0.483
REMARK UNBOUND:                 0.462
REMARK SMILES C[C@H]1[C@H]2C3=CC[C@@H]4[C@@]5(C)CC[C@H](O)C(C)(C)[C@@H]5CC[C@@]4(C)[C@@]3(C)CC[C@]2(C(=O)[O-])CC[C@@H]1C
REMARK SMILES IDX 26 1 30 2 25 3 3 4 31 5 24 6 4 7 2 8 32 9 22 10 5 11 1 12
REMARK SMILES IDX 33 13 23 14 20 15 6 16 7 17 19 18 21 19 8 20 18 21 17 22
REMARK SMILES IDX 10 23 9 24 14 25 11 26 12 27 15 28 16 29 27 30 28 31 29 32
REMARK SMILES IDX 13 33
REMARK H PARENT 13 34
REMARK Flexibility Score: inf
ROOT
ATOM      1  C   UNL     1      -5.091  21.250  16.440  1.00  0.00     0.017 C 
ATOM      2  C   UNL     1      -4.292  21.626  15.149  1.00  0.00     0.014 C 
ATOM      3  C   UNL     1      -4.775  19.743  16.763  1.00  0.00     0.014 C 
ATOM      4  C   UNL     1      -4.586  22.124  17.626  1.00  0.00     0.030 C 
ATOM      5  C   UNL     1      -4.191  23.139  14.879  1.00  0.00     0.004 C 
ATOM      6  C   UNL     1      -5.137  19.252  18.200  1.00  0.00     0.013 C 
ATOM      7  C   UNL     1      -5.152  21.612  18.958  1.00  0.00    -0.063 C 
ATOM      8  C   UNL     1      -4.448  23.673  17.372  1.00  0.00    -0.003 C 
ATOM      9  C   UNL     1      -3.629  23.936  16.072  1.00  0.00    -0.011 C 
ATOM     10  C   UNL     1      -4.685  20.194  19.380  1.00  0.00    -0.006 C 
ATOM     11  C   UNL     1      -6.319  22.112  19.421  1.00  0.00    -0.027 C 
ATOM     12  C   UNL     1      -5.747  24.509  17.338  1.00  0.00     0.008 C 
ATOM     13  C   UNL     1      -2.116  23.712  16.262  1.00  0.00     0.008 C 
ATOM     14  C   UNL     1      -3.120  20.130  19.451  1.00  0.00     0.017 C 
ATOM     15  C   UNL     1      -5.306  19.753  20.817  1.00  0.00    -0.020 C 
ATOM     16  C   UNL     1      -6.992  21.664  20.678  1.00  0.00     0.032 C 
ATOM     17  C   UNL     1      -6.837  20.146  20.878  1.00  0.00     0.006 C 
ATOM     18  C   UNL     1      -5.166  18.211  21.041  1.00  0.00     0.008 C 
ATOM     19  C   UNL     1      -4.497  20.473  21.947  1.00  0.00     0.012 C 
ATOM     20  C   UNL     1      -7.708  19.542  22.079  1.00  0.00    -0.025 C 
ATOM     21  C   UNL     1      -5.929  17.687  22.261  1.00  0.00     0.005 C 
ATOM     22  C   UNL     1      -7.440  17.990  22.110  1.00  0.00     0.003 C 
ATOM     23  C   UNL     1      -9.224  19.756  21.752  1.00  0.00     0.010 C 
ATOM     24  C   UNL     1      -7.401  20.245  23.446  1.00  0.00     0.012 C 
ATOM     25  C   UNL     1      -8.392  17.131  23.037  1.00  0.00    -0.006 C 
ATOM     26  C   UNL     1     -10.182  18.972  22.666  1.00  0.00     0.033 C 
ATOM     27  C   UNL     1      -9.875  17.466  22.666  1.00  0.00     0.120 C 
ATOM     28  C   UNL     1      -8.182  15.617  22.741  1.00  0.00     0.014 C 
ATOM     29  C   UNL     1      -8.120  17.340  24.549  1.00  0.00     0.014 C 
ENDROOT
BRANCH   1  30
ATOM     30  C   UNL     1      -6.596  21.397  16.202  1.00  0.00     0.048 C 
ATOM     31  O   UNL     1      -7.413  20.615  16.757  1.00  0.00    -0.550 OA
ATOM     32  O   UNL     1      -7.101  22.364  15.343  1.00  0.00    -0.550 OA
ENDBRANCH   1  30
BRANCH  27  33
ATOM     33  O   UNL     1     -10.792  16.773  23.484  1.00  0.00    -0.393 OA
ATOM     34  H   UNL     1     -11.700  16.897  23.102  1.00  0.00     0.210 HD
ENDBRANCH  27  33
TORSDOF 2
ENDMDL
MODEL 6
REMARK VINA RESULT:    -6.220      3.829      6.028
REMARK INTER + INTRA:          -6.303
REMARK INTER:                  -6.808
REMARK INTRA:                   0.505
REMARK UNBOUND:                 0.462
REMARK SMILES C[C@H]1[C@H]2C3=CC[C@@H]4[C@@]5(C)CC[C@H](O)C(C)(C)[C@@H]5CC[C@@]4(C)[C@@]3(C)CC[C@]2(C(=O)[O-])CC[C@@H]1C
REMARK SMILES IDX 26 1 30 2 25 3 3 4 31 5 24 6 4 7 2 8 32 9 22 10 5 11 1 12
REMARK SMILES IDX 33 13 23 14 20 15 6 16 7 17 19 18 21 19 8 20 18 21 17 22
REMARK SMILES IDX 10 23 9 24 14 25 11 26 12 27 15 28 16 29 27 30 28 31 29 32
REMARK SMILES IDX 13 33
REMARK H PARENT 13 34
REMARK Flexibility Score: inf
ROOT
ATOM      1  C   UNL     1      -5.445  12.150  20.083  1.00  0.00     0.017 C 
ATOM      2  C   UNL     1      -4.835  10.710  20.127  1.00  0.00     0.014 C 
ATOM      3  C   UNL     1      -4.794  12.969  21.257  1.00  0.00     0.014 C 
ATOM      4  C   UNL     1      -5.058  12.828  18.736  1.00  0.00     0.030 C 
ATOM      5  C   UNL     1      -5.077   9.875  18.855  1.00  0.00     0.004 C 
ATOM      6  C   UNL     1      -4.944  14.521  21.185  1.00  0.00     0.013 C 
ATOM      7  C   UNL     1      -5.410  14.321  18.759  1.00  0.00    -0.063 C 
ATOM      8  C   UNL     1      -5.271  11.989  17.419  1.00  0.00    -0.003 C 
ATOM      9  C   UNL     1      -4.617  10.581  17.565  1.00  0.00    -0.011 C 
ATOM     10  C   UNL     1      -4.625  15.176  19.789  1.00  0.00    -0.006 C 
ATOM     11  C   UNL     1      -6.623  14.727  18.320  1.00  0.00    -0.027 C 
ATOM     12  C   UNL     1      -6.718  11.831  16.899  1.00  0.00     0.008 C 
ATOM     13  C   UNL     1      -3.083  10.618  17.435  1.00  0.00     0.008 C 
ATOM     14  C   UNL     1      -3.081  15.037  19.553  1.00  0.00     0.017 C 
ATOM     15  C   UNL     1      -5.038  16.747  19.715  1.00  0.00    -0.020 C 
ATOM     16  C   UNL     1      -7.098  16.143  18.335  1.00  0.00     0.032 C 
ATOM     17  C   UNL     1      -6.610  16.879  19.595  1.00  0.00     0.006 C 
ATOM     18  C   UNL     1      -4.558  17.516  20.990  1.00  0.00     0.008 C 
ATOM     19  C   UNL     1      -4.326  17.389  18.476  1.00  0.00     0.012 C 
ATOM     20  C   UNL     1      -7.248  18.333  19.805  1.00  0.00    -0.025 C 
ATOM     21  C   UNL     1      -5.107  18.941  21.102  1.00  0.00     0.005 C 
ATOM     22  C   UNL     1      -6.655  18.910  21.145  1.00  0.00     0.003 C 
ATOM     23  C   UNL     1      -8.794  18.175  20.000  1.00  0.00     0.010 C 
ATOM     24  C   UNL     1      -7.006  19.271  18.573  1.00  0.00     0.012 C 
ATOM     25  C   UNL     1      -7.336  20.222  21.709  1.00  0.00    -0.006 C 
ATOM     26  C   UNL     1      -9.499  19.448  20.501  1.00  0.00     0.033 C 
ATOM     27  C   UNL     1      -8.878  19.973  21.806  1.00  0.00     0.120 C 
ATOM     28  C   UNL     1      -6.828  20.494  23.155  1.00  0.00     0.014 C 
ATOM     29  C   UNL     1      -7.013  21.485  20.868  1.00  0.00     0.014 C 
ENDROOT
BRANCH   1  30
ATOM     30  C   UNL     1      -6.960  12.097  20.301  1.00  0.00     0.048 C 
ATOM     31  O   UNL     1      -7.507  12.813  21.181  1.00  0.00    -0.550 OA
ATOM     32  O   UNL     1      -7.766  11.236  19.567  1.00  0.00    -0.550 OA
ENDBRANCH   1  30
BRANCH  27  33
ATOM     33  O   UNL     1      -9.568  21.118  22.257  1.00  0.00    -0.393 OA
ATOM     34  H   UNL     1     -10.328  20.817  22.822  1.00  0.00     0.210 HD
ENDBRANCH  27  33
TORSDOF 2
ENDMDL
MODEL 7
REMARK VINA RESULT:    -6.144      3.167      7.649
REMARK INTER + INTRA:          -6.220
REMARK INTER:                  -6.689
REMARK INTRA:                   0.469
REMARK UNBOUND:                 0.462
REMARK SMILES C[C@H]1[C@H]2C3=CC[C@@H]4[C@@]5(C)CC[C@H](O)C(C)(C)[C@@H]5CC[C@@]4(C)[C@@]3(C)CC[C@]2(C(=O)[O-])CC[C@@H]1C
REMARK SMILES IDX 26 1 30 2 25 3 3 4 31 5 24 6 4 7 2 8 32 9 22 10 5 11 1 12
REMARK SMILES IDX 33 13 23 14 20 15 6 16 7 17 19 18 21 19 8 20 18 21 17 22
REMARK SMILES IDX 10 23 9 24 14 25 11 26 12 27 15 28 16 29 27 30 28 31 29 32
REMARK SMILES IDX 13 33
REMARK H PARENT 13 34
REMARK Flexibility Score: inf
ROOT
ATOM      1  C   UNL     1      -7.835  18.599  20.842  1.00  0.00     0.017 C 
ATOM      2  C   UNL     1      -8.754  19.675  21.509  1.00  0.00     0.014 C 
ATOM      3  C   UNL     1      -8.691  17.872  19.740  1.00  0.00     0.014 C 
ATOM      4  C   UNL     1      -6.638  19.311  20.145  1.00  0.00     0.030 C 
ATOM      5  C   UNL     1      -8.002  20.720  22.355  1.00  0.00     0.004 C 
ATOM      6  C   UNL     1      -7.898  17.039  18.685  1.00  0.00     0.013 C 
ATOM      7  C   UNL     1      -5.859  18.325  19.263  1.00  0.00    -0.063 C 
ATOM      8  C   UNL     1      -5.865  20.403  20.978  1.00  0.00    -0.003 C 
ATOM      9  C   UNL     1      -6.870  21.427  21.587  1.00  0.00    -0.011 C 
ATOM     10  C   UNL     1      -6.642  17.751  18.053  1.00  0.00    -0.006 C 
ATOM     11  C   UNL     1      -4.817  17.641  19.787  1.00  0.00    -0.027 C 
ATOM     12  C   UNL     1      -4.902  19.909  22.082  1.00  0.00     0.008 C 
ATOM     13  C   UNL     1      -7.407  22.429  20.547  1.00  0.00     0.008 C 
ATOM     14  C   UNL     1      -7.176  18.912  17.144  1.00  0.00     0.017 C 
ATOM     15  C   UNL     1      -5.727  16.747  17.159  1.00  0.00    -0.020 C 
ATOM     16  C   UNL     1      -4.012  16.625  19.045  1.00  0.00     0.032 C 
ATOM     17  C   UNL     1      -4.903  15.789  18.110  1.00  0.00     0.006 C 
ATOM     18  C   UNL     1      -6.612  15.880  16.203  1.00  0.00     0.008 C 
ATOM     19  C   UNL     1      -4.771  17.611  16.268  1.00  0.00     0.012 C 
ATOM     20  C   UNL     1      -4.168  14.534  17.438  1.00  0.00    -0.025 C 
ATOM     21  C   UNL     1      -5.850  14.754  15.499  1.00  0.00     0.005 C 
ATOM     22  C   UNL     1      -5.235  13.794  16.547  1.00  0.00     0.003 C 
ATOM     23  C   UNL     1      -3.730  13.547  18.572  1.00  0.00     0.010 C 
ATOM     24  C   UNL     1      -2.887  14.956  16.638  1.00  0.00     0.012 C 
ATOM     25  C   UNL     1      -4.824  12.371  15.992  1.00  0.00    -0.006 C 
ATOM     26  C   UNL     1      -3.276  12.167  18.065  1.00  0.00     0.033 C 
ATOM     27  C   UNL     1      -4.349  11.492  17.197  1.00  0.00     0.120 C 
ATOM     28  C   UNL     1      -6.071  11.668  15.381  1.00  0.00     0.014 C 
ATOM     29  C   UNL     1      -3.748  12.440  14.877  1.00  0.00     0.014 C 
ENDROOT
BRANCH   1  30
ATOM     30  C   UNL     1      -7.383  17.564  21.876  1.00  0.00     0.048 C 
ATOM     31  O   UNL     1      -7.284  16.348  21.565  1.00  0.00    -0.550 OA
ATOM     32  O   UNL     1      -7.109  17.927  23.188  1.00  0.00    -0.550 OA
ENDBRANCH   1  30
BRANCH  27  33
ATOM     33  O   UNL     1      -3.916  10.215  16.778  1.00  0.00    -0.393 OA
ATOM     34  H   UNL     1      -4.530   9.902  16.063  1.00  0.00     0.210 HD
ENDBRANCH  27  33
TORSDOF 2
ENDMDL
MODEL 8
REMARK VINA RESULT:    -6.119      3.655      5.775
REMARK INTER + INTRA:          -6.194
REMARK INTER:                  -6.660
REMARK INTRA:                   0.466
REMARK UNBOUND:                 0.462
REMARK SMILES C[C@H]1[C@H]2C3=CC[C@@H]4[C@@]5(C)CC[C@H](O)C(C)(C)[C@@H]5CC[C@@]4(C)[C@@]3(C)CC[C@]2(C(=O)[O-])CC[C@@H]1C
REMARK SMILES IDX 26 1 30 2 25 3 3 4 31 5 24 6 4 7 2 8 32 9 22 10 5 11 1 12
REMARK SMILES IDX 33 13 23 14 20 15 6 16 7 17 19 18 21 19 8 20 18 21 17 22
REMARK SMILES IDX 10 23 9 24 14 25 11 26 12 27 15 28 16 29 27 30 28 31 29 32
REMARK SMILES IDX 13 33
REMARK H PARENT 13 34
REMARK Flexibility Score: inf
ROOT
ATOM      1  C   UNL     1      -6.859  19.034  19.720  1.00  0.00     0.017 C 
ATOM      2  C   UNL     1      -6.958  20.529  19.270  1.00  0.00     0.014 C 
ATOM      3  C   UNL     1      -7.874  18.213  18.842  1.00  0.00     0.014 C 
ATOM      4  C   UNL     1      -5.422  18.509  19.431  1.00  0.00     0.030 C 
ATOM      5  C   UNL     1      -5.801  21.420  19.759  1.00  0.00     0.004 C 
ATOM      6  C   UNL     1      -7.684  16.664  18.828  1.00  0.00     0.013 C 
ATOM      7  C   UNL     1      -5.354  16.986  19.612  1.00  0.00    -0.063 C 
ATOM      8  C   UNL     1      -4.217  19.411  19.897  1.00  0.00    -0.003 C 
ATOM      9  C   UNL     1      -4.410  20.872  19.389  1.00  0.00    -0.011 C 
ATOM     10  C   UNL     1      -6.207  16.157  18.615  1.00  0.00    -0.006 C 
ATOM     11  C   UNL     1      -5.024  16.472  20.818  1.00  0.00    -0.027 C 
ATOM     12  C   UNL     1      -3.884  19.433  21.406  1.00  0.00     0.008 C 
ATOM     13  C   UNL     1      -4.101  21.028  17.887  1.00  0.00     0.008 C 
ATOM     14  C   UNL     1      -5.809  16.497  17.138  1.00  0.00     0.017 C 
ATOM     15  C   UNL     1      -6.044  14.558  18.860  1.00  0.00    -0.020 C 
ATOM     16  C   UNL     1      -4.969  15.012  21.130  1.00  0.00     0.032 C 
ATOM     17  C   UNL     1      -6.095  14.248  20.411  1.00  0.00     0.006 C 
ATOM     18  C   UNL     1      -7.183  13.760  18.143  1.00  0.00     0.008 C 
ATOM     19  C   UNL     1      -4.681  14.099  18.241  1.00  0.00     0.012 C 
ATOM     20  C   UNL     1      -6.249  12.717  20.855  1.00  0.00    -0.025 C 
ATOM     21  C   UNL     1      -7.232  12.275  18.515  1.00  0.00     0.005 C 
ATOM     22  C   UNL     1      -7.455  12.118  20.040  1.00  0.00     0.003 C 
ATOM     23  C   UNL     1      -6.633  12.675  22.372  1.00  0.00     0.010 C 
ATOM     24  C   UNL     1      -4.919  11.909  20.666  1.00  0.00     0.012 C 
ATOM     25  C   UNL     1      -7.976  10.696  20.497  1.00  0.00    -0.006 C 
ATOM     26  C   UNL     1      -7.098  11.293  22.865  1.00  0.00     0.033 C 
ATOM     27  C   UNL     1      -8.271  10.751  22.033  1.00  0.00     0.120 C 
ATOM     28  C   UNL     1      -9.325  10.380  19.787  1.00  0.00     0.014 C 
ATOM     29  C   UNL     1      -6.997   9.546  20.145  1.00  0.00     0.014 C 
ENDROOT
BRANCH   1  30
ATOM     30  C   UNL     1      -7.253  18.890  21.192  1.00  0.00     0.048 C 
ATOM     31  O   UNL     1      -7.955  17.916  21.576  1.00  0.00    -0.550 OA
ATOM     32  O   UNL     1      -6.885  19.840  22.135  1.00  0.00    -0.550 OA
ENDBRANCH   1  30
BRANCH  27  33
ATOM     33  O   UNL     1      -8.697   9.501  22.532  1.00  0.00    -0.393 OA
ATOM     34  H   UNL     1      -7.959   9.120  23.077  1.00  0.00     0.210 HD
ENDBRANCH  27  33
TORSDOF 2
ENDMDL
MODEL 9
REMARK VINA RESULT:    -6.062      3.279      6.770
REMARK INTER + INTRA:          -6.131
REMARK INTER:                  -6.607
REMARK INTRA:                   0.476
REMARK UNBOUND:                 0.462
REMARK SMILES C[C@H]1[C@H]2C3=CC[C@@H]4[C@@]5(C)CC[C@H](O)C(C)(C)[C@@H]5CC[C@@]4(C)[C@@]3(C)CC[C@]2(C(=O)[O-])CC[C@@H]1C
REMARK SMILES IDX 26 1 30 2 25 3 3 4 31 5 24 6 4 7 2 8 32 9 22 10 5 11 1 12
REMARK SMILES IDX 33 13 23 14 20 15 6 16 7 17 19 18 21 19 8 20 18 21 17 22
REMARK SMILES IDX 10 23 9 24 14 25 11 26 12 27 15 28 16 29 27 30 28 31 29 32
REMARK SMILES IDX 13 33
REMARK H PARENT 13 34
REMARK Flexibility Score: inf
ROOT
ATOM      1  C   UNL     1      -8.440  19.149  20.756  1.00  0.00     0.017 C 
ATOM      2  C   UNL     1      -9.352  20.420  20.801  1.00  0.00     0.014 C 
ATOM      3  C   UNL     1      -8.955  18.246  19.575  1.00  0.00     0.014 C 
ATOM      4  C   UNL     1      -6.977  19.581  20.444  1.00  0.00     0.030 C 
ATOM      5  C   UNL     1      -8.792  21.577  21.650  1.00  0.00     0.004 C 
ATOM      6  C   UNL     1      -7.984  17.128  19.084  1.00  0.00     0.013 C 
ATOM      7  C   UNL     1      -6.105  18.357  20.134  1.00  0.00    -0.063 C 
ATOM      8  C   UNL     1      -6.386  20.779  21.279  1.00  0.00    -0.003 C 
ATOM      9  C   UNL     1      -7.364  21.992  21.249  1.00  0.00    -0.011 C 
ATOM     10  C   UNL     1      -6.489  17.570  18.852  1.00  0.00    -0.006 C 
ATOM     11  C   UNL     1      -5.439  17.742  21.137  1.00  0.00    -0.027 C 
ATOM     12  C   UNL     1      -5.967  20.493  22.740  1.00  0.00     0.008 C 
ATOM     13  C   UNL     1      -7.331  22.754  19.911  1.00  0.00     0.008 C 
ATOM     14  C   UNL     1      -6.475  18.517  17.603  1.00  0.00     0.017 C 
ATOM     15  C   UNL     1      -5.490  16.316  18.587  1.00  0.00    -0.020 C 
ATOM     16  C   UNL     1      -4.596  16.520  20.969  1.00  0.00     0.032 C 
ATOM     17  C   UNL     1      -5.219  15.553  19.946  1.00  0.00     0.006 C 
ATOM     18  C   UNL     1      -6.105  15.315  17.554  1.00  0.00     0.008 C 
ATOM     19  C   UNL     1      -4.156  16.867  17.978  1.00  0.00     0.012 C 
ATOM     20  C   UNL     1      -4.503  14.123  19.861  1.00  0.00    -0.025 C 
ATOM     21  C   UNL     1      -5.333  13.999  17.425  1.00  0.00     0.005 C 
ATOM     22  C   UNL     1      -5.290  13.274  18.793  1.00  0.00     0.003 C 
ATOM     23  C   UNL     1      -4.659  13.406  21.245  1.00  0.00     0.010 C 
ATOM     24  C   UNL     1      -2.973  14.243  19.544  1.00  0.00     0.012 C 
ATOM     25  C   UNL     1      -4.941  11.733  18.724  1.00  0.00    -0.006 C 
ATOM     26  C   UNL     1      -4.280  11.914  21.227  1.00  0.00     0.033 C 
ATOM     27  C   UNL     1      -5.070  11.134  20.164  1.00  0.00     0.120 C 
ATOM     28  C   UNL     1      -5.986  11.000  17.833  1.00  0.00     0.014 C 
ATOM     29  C   UNL     1      -3.544  11.451  18.111  1.00  0.00     0.014 C 
ENDROOT
BRANCH   1  30
ATOM     30  C   UNL     1      -8.555  18.361  22.063  1.00  0.00     0.048 C 
ATOM     31  O   UNL     1      -8.607  18.959  23.171  1.00  0.00    -0.550 OA
ATOM     32  O   UNL     1      -8.567  16.972  22.071  1.00  0.00    -0.550 OA
ENDBRANCH   1  30
BRANCH  27  33
ATOM     33  O   UNL     1      -4.727   9.765  20.197  1.00  0.00    -0.393 OA
ATOM     34  H   UNL     1      -5.017   9.396  21.073  1.00  0.00     0.210 HD
ENDBRANCH  27  33
TORSDOF 2
ENDMDL
