MODEL 1
REMARK VINA RESULT:    -2.816      0.000      0.000
REMARK INTER + INTRA:         -10.361
REMARK INTER:                  -6.109
REMARK INTRA:                  -4.252
REMARK UNBOUND:                -4.252
REMARK SMILES CCCCCCCCCCCCCCCCCCCCCC(=O)[O-]
REMARK SMILES IDX 12 1 11 2 10 3 9 4 8 5 7 6 6 7 5 8 4 9 3 10 2 11 1 12 13 13
REMARK SMILES IDX 14 14 15 15 16 16 17 17 18 18 19 19 20 20 21 21 22 22 23 23
REMARK SMILES IDX 24 24
REMARK H PARENT
REMARK Flexibility Score: inf
ROOT
ATOM      1  C   UNL     1      29.330  33.993  53.925  1.00  0.00     0.000 C 
ENDROOT
BRANCH   1   2
ATOM      2  C   UNL     1      30.836  33.818  54.194  1.00  0.00     0.000 C 
BRANCH   2   3
ATOM      3  C   UNL     1      31.181  32.943  55.417  1.00  0.00     0.000 C 
BRANCH   3   4
ATOM      4  C   UNL     1      31.894  31.614  55.094  1.00  0.00    -0.000 C 
BRANCH   4   5
ATOM      5  C   UNL     1      32.603  31.565  53.727  1.00  0.00    -0.000 C 
BRANCH   5   6
ATOM      6  C   UNL     1      32.343  30.255  52.965  1.00  0.00    -0.000 C 
BRANCH   6   7
ATOM      7  C   UNL     1      31.056  29.545  53.421  1.00  0.00    -0.000 C 
BRANCH   7   8
ATOM      8  C   UNL     1      29.867  29.654  52.444  1.00  0.00    -0.000 C 
BRANCH   8   9
ATOM      9  C   UNL     1      28.523  30.048  53.089  1.00  0.00    -0.000 C 
BRANCH   9  10
ATOM     10  C   UNL     1      28.409  29.742  54.592  1.00  0.00    -0.000 C 
BRANCH  10  11
ATOM     11  C   UNL     1      27.997  30.968  55.420  1.00  0.00    -0.003 C 
ATOM     12  C   UNL     1      28.568  30.894  56.833  1.00  0.00     0.004 C 
ENDBRANCH  10  11
ENDBRANCH   9  10
ENDBRANCH   8   9
ENDBRANCH   7   8
ENDBRANCH   6   7
ENDBRANCH   5   6
ENDBRANCH   4   5
ENDBRANCH   3   4
ENDBRANCH   2   3
ENDBRANCH   1   2
BRANCH   1  13
ATOM     13  C   UNL     1      28.894  33.708  52.475  1.00  0.00     0.000 C 
BRANCH  13  14
ATOM     14  C   UNL     1      30.048  33.250  51.558  1.00  0.00     0.000 C 
BRANCH  14  15
ATOM     15  C   UNL     1      29.591  33.011  50.111  1.00  0.00     0.000 C 
BRANCH  15  16
ATOM     16  C   UNL     1      28.318  32.158  50.070  1.00  0.00     0.000 C 
BRANCH  16  17
ATOM     17  C   UNL     1      27.136  32.959  49.512  1.00  0.00     0.000 C 
BRANCH  17  18
ATOM     18  C   UNL     1      25.840  32.628  50.263  1.00  0.00     0.000 C 
BRANCH  18  19
ATOM     19  C   UNL     1      25.715  33.471  51.540  1.00  0.00     0.000 C 
BRANCH  19  20
ATOM     20  C   UNL     1      25.298  32.636  52.762  1.00  0.00     0.006 C 
BRANCH  20  21
ATOM     21  C   UNL     1      25.079  31.157  52.418  1.00  0.00     0.053 C 
BRANCH  21  22
ATOM     22  C   UNL     1      24.780  30.372  53.655  1.00  0.00     0.041 C 
ATOM     23  O   UNL     1      24.855  29.115  53.643  1.00  0.00    -0.550 OA
ATOM     24  O   UNL     1      24.367  31.025  54.810  1.00  0.00    -0.550 OA
ENDBRANCH  21  22
ENDBRANCH  20  21
ENDBRANCH  19  20
ENDBRANCH  18  19
ENDBRANCH  17  18
ENDBRANCH  16  17
ENDBRANCH  15  16
ENDBRANCH  14  15
ENDBRANCH  13  14
ENDBRANCH   1  13
TORSDOF 20
ENDMDL
MODEL 2
REMARK VINA RESULT:    -2.809      1.907      2.885
REMARK INTER + INTRA:         -10.346
REMARK INTER:                  -6.380
REMARK INTRA:                  -3.966
REMARK UNBOUND:                -4.252
REMARK SMILES CCCCCCCCCCCCCCCCCCCCCC(=O)[O-]
REMARK SMILES IDX 12 1 11 2 10 3 9 4 8 5 7 6 6 7 5 8 4 9 3 10 2 11 1 12 13 13
REMARK SMILES IDX 14 14 15 15 16 16 17 17 18 18 19 19 20 20 21 21 22 22 23 23
REMARK SMILES IDX 24 24
REMARK H PARENT
REMARK Flexibility Score: inf
ROOT
ATOM      1  C   UNL     1      29.430  34.254  53.303  1.00  0.00     0.000 C 
ENDROOT
BRANCH   1   2
ATOM      2  C   UNL     1      30.789  33.877  53.923  1.00  0.00     0.000 C 
BRANCH   2   3
ATOM      3  C   UNL     1      31.619  32.867  53.104  1.00  0.00     0.000 C 
BRANCH   3   4
ATOM      4  C   UNL     1      32.252  31.721  53.921  1.00  0.00    -0.000 C 
BRANCH   4   5
ATOM      5  C   UNL     1      32.277  30.351  53.218  1.00  0.00    -0.000 C 
BRANCH   5   6
ATOM      6  C   UNL     1      31.109  30.161  52.236  1.00  0.00    -0.000 C 
BRANCH   6   7
ATOM      7  C   UNL     1      29.972  29.303  52.819  1.00  0.00    -0.000 C 
BRANCH   7   8
ATOM      8  C   UNL     1      28.650  30.054  53.076  1.00  0.00    -0.000 C 
BRANCH   8   9
ATOM      9  C   UNL     1      28.157  30.034  54.537  1.00  0.00    -0.000 C 
BRANCH   9  10
ATOM     10  C   UNL     1      28.275  31.376  55.281  1.00  0.00    -0.000 C 
BRANCH  10  11
ATOM     11  C   UNL     1      29.449  31.406  56.271  1.00  0.00    -0.003 C 
ATOM     12  C   UNL     1      29.852  29.995  56.688  1.00  0.00     0.004 C 
ENDBRANCH  10  11
ENDBRANCH   9  10
ENDBRANCH   8   9
ENDBRANCH   7   8
ENDBRANCH   6   7
ENDBRANCH   5   6
ENDBRANCH   4   5
ENDBRANCH   3   4
ENDBRANCH   2   3
ENDBRANCH   1   2
BRANCH   1  13
ATOM     13  C   UNL     1      29.132  33.592  51.944  1.00  0.00     0.000 C 
BRANCH  13  14
ATOM     14  C   UNL     1      27.642  33.247  51.734  1.00  0.00     0.000 C 
BRANCH  14  15
ATOM     15  C   UNL     1      26.731  33.919  52.772  1.00  0.00     0.000 C 
BRANCH  15  16
ATOM     16  C   UNL     1      25.607  32.973  53.212  1.00  0.00     0.000 C 
BRANCH  16  17
ATOM     17  C   UNL     1      25.410  31.842  52.195  1.00  0.00     0.000 C 
BRANCH  17  18
ATOM     18  C   UNL     1      24.785  30.608  52.857  1.00  0.00     0.000 C 
BRANCH  18  19
ATOM     19  C   UNL     1      24.612  30.823  54.367  1.00  0.00     0.000 C 
BRANCH  19  20
ATOM     20  C   UNL     1      23.645  29.810  55.002  1.00  0.00     0.006 C 
BRANCH  20  21
ATOM     21  C   UNL     1      22.770  30.437  56.095  1.00  0.00     0.053 C 
BRANCH  21  22
ATOM     22  C   UNL     1      21.884  29.401  56.712  1.00  0.00     0.041 C 
ATOM     23  O   UNL     1      21.059  28.768  56.002  1.00  0.00    -0.550 OA
ATOM     24  O   UNL     1      21.933  29.170  58.081  1.00  0.00    -0.550 OA
ENDBRANCH  21  22
ENDBRANCH  20  21
ENDBRANCH  19  20
ENDBRANCH  18  19
ENDBRANCH  17  18
ENDBRANCH  16  17
ENDBRANCH  15  16
ENDBRANCH  14  15
ENDBRANCH  13  14
ENDBRANCH   1  13
TORSDOF 20
ENDMDL
MODEL 3
REMARK VINA RESULT:    -2.778     14.996     17.364
REMARK INTER + INTRA:         -10.278
REMARK INTER:                  -6.711
REMARK INTRA:                  -3.567
REMARK UNBOUND:                -4.252
REMARK SMILES CCCCCCCCCCCCCCCCCCCCCC(=O)[O-]
REMARK SMILES IDX 12 1 11 2 10 3 9 4 8 5 7 6 6 7 5 8 4 9 3 10 2 11 1 12 13 13
REMARK SMILES IDX 14 14 15 15 16 16 17 17 18 18 19 19 20 20 21 21 22 22 23 23
REMARK SMILES IDX 24 24
REMARK H PARENT
REMARK Flexibility Score: inf
ROOT
ATOM      1  C   UNL     1      19.552  20.105  53.397  1.00  0.00     0.000 C 
ENDROOT
BRANCH   1   2
ATOM      2  C   UNL     1      20.962  19.577  53.721  1.00  0.00     0.000 C 
BRANCH   2   3
ATOM      3  C   UNL     1      21.233  19.325  55.218  1.00  0.00     0.000 C 
BRANCH   3   4
ATOM      4  C   UNL     1      20.034  19.578  56.155  1.00  0.00    -0.000 C 
BRANCH   4   5
ATOM      5  C   UNL     1      19.842  18.535  57.272  1.00  0.00    -0.000 C 
BRANCH   5   6
ATOM      6  C   UNL     1      18.481  17.822  57.194  1.00  0.00    -0.000 C 
BRANCH   6   7
ATOM      7  C   UNL     1      17.721  18.125  55.891  1.00  0.00    -0.000 C 
BRANCH   7   8
ATOM      8  C   UNL     1      16.199  17.885  55.949  1.00  0.00    -0.000 C 
BRANCH   8   9
ATOM      9  C   UNL     1      15.345  18.892  55.153  1.00  0.00    -0.000 C 
BRANCH   9  10
ATOM     10  C   UNL     1      16.126  20.074  54.554  1.00  0.00    -0.000 C 
BRANCH  10  11
ATOM     11  C   UNL     1      15.894  21.388  55.314  1.00  0.00    -0.003 C 
ATOM     12  C   UNL     1      17.147  21.811  56.076  1.00  0.00     0.004 C 
ENDBRANCH  10  11
ENDBRANCH   9  10
ENDBRANCH   8   9
ENDBRANCH   7   8
ENDBRANCH   6   7
ENDBRANCH   5   6
ENDBRANCH   4   5
ENDBRANCH   3   4
ENDBRANCH   2   3
ENDBRANCH   1   2
BRANCH   1  13
ATOM     13  C   UNL     1      18.938  19.556  52.095  1.00  0.00     0.000 C 
BRANCH  13  14
ATOM     14  C   UNL     1      19.549  18.213  51.638  1.00  0.00     0.000 C 
BRANCH  14  15
ATOM     15  C   UNL     1      18.486  17.127  51.420  1.00  0.00     0.000 C 
BRANCH  15  16
ATOM     16  C   UNL     1      17.289  17.332  52.356  1.00  0.00     0.000 C 
BRANCH  16  17
ATOM     17  C   UNL     1      15.964  17.184  51.597  1.00  0.00     0.000 C 
BRANCH  17  18
ATOM     18  C   UNL     1      15.501  18.530  51.028  1.00  0.00     0.000 C 
BRANCH  18  19
ATOM     19  C   UNL     1      15.513  18.511  49.493  1.00  0.00     0.000 C 
BRANCH  19  20
ATOM     20  C   UNL     1      16.832  19.037  48.904  1.00  0.00     0.006 C 
BRANCH  20  21
ATOM     21  C   UNL     1      17.481  18.044  47.932  1.00  0.00     0.053 C 
BRANCH  21  22
ATOM     22  C   UNL     1      16.859  18.159  46.577  1.00  0.00     0.041 C 
ATOM     23  O   UNL     1      17.256  19.041  45.769  1.00  0.00    -0.550 OA
ATOM     24  O   UNL     1      15.805  17.327  46.222  1.00  0.00    -0.550 OA
ENDBRANCH  21  22
ENDBRANCH  20  21
ENDBRANCH  19  20
ENDBRANCH  18  19
ENDBRANCH  17  18
ENDBRANCH  16  17
ENDBRANCH  15  16
ENDBRANCH  14  15
ENDBRANCH  13  14
ENDBRANCH   1  13
TORSDOF 20
ENDMDL
MODEL 4
REMARK VINA RESULT:    -2.769      7.579     10.979
REMARK INTER + INTRA:         -10.259
REMARK INTER:                  -6.177
REMARK INTRA:                  -4.082
REMARK UNBOUND:                -4.252
REMARK SMILES CCCCCCCCCCCCCCCCCCCCCC(=O)[O-]
REMARK SMILES IDX 12 1 11 2 10 3 9 4 8 5 7 6 6 7 5 8 4 9 3 10 2 11 1 12 13 13
REMARK SMILES IDX 14 14 15 15 16 16 17 17 18 18 19 19 20 20 21 21 22 22 23 23
REMARK SMILES IDX 24 24
REMARK H PARENT
REMARK Flexibility Score: inf
ROOT
ATOM      1  C   UNL     1      19.525  28.707  53.862  1.00  0.00     0.000 C 
ENDROOT
BRANCH   1   2
ATOM      2  C   UNL     1      19.516  27.416  54.704  1.00  0.00     0.000 C 
BRANCH   2   3
ATOM      3  C   UNL     1      19.002  27.586  56.148  1.00  0.00     0.000 C 
BRANCH   3   4
ATOM      4  C   UNL     1      19.750  26.758  57.213  1.00  0.00    -0.000 C 
BRANCH   4   5
ATOM      5  C   UNL     1      20.174  27.538  58.472  1.00  0.00    -0.000 C 
BRANCH   5   6
ATOM      6  C   UNL     1      20.017  29.060  58.314  1.00  0.00    -0.000 C 
BRANCH   6   7
ATOM      7  C   UNL     1      21.365  29.788  58.172  1.00  0.00    -0.000 C 
BRANCH   7   8
ATOM      8  C   UNL     1      21.678  30.318  56.758  1.00  0.00    -0.000 C 
BRANCH   8   9
ATOM      9  C   UNL     1      22.521  29.375  55.876  1.00  0.00    -0.000 C 
BRANCH   9  10
ATOM     10  C   UNL     1      23.702  28.697  56.593  1.00  0.00    -0.000 C 
BRANCH  10  11
ATOM     11  C   UNL     1      23.473  27.197  56.831  1.00  0.00    -0.003 C 
ATOM     12  C   UNL     1      23.103  26.486  55.532  1.00  0.00     0.004 C 
ENDBRANCH  10  11
ENDBRANCH   9  10
ENDBRANCH   8   9
ENDBRANCH   7   8
ENDBRANCH   6   7
ENDBRANCH   5   6
ENDBRANCH   4   5
ENDBRANCH   3   4
ENDBRANCH   2   3
ENDBRANCH   1   2
BRANCH   1  13
ATOM     13  C   UNL     1      18.754  29.889  54.481  1.00  0.00     0.000 C 
BRANCH  13  14
ATOM     14  C   UNL     1      17.318  30.046  53.937  1.00  0.00     0.000 C 
BRANCH  14  15
ATOM     15  C   UNL     1      16.254  29.577  54.940  1.00  0.00     0.000 C 
BRANCH  15  16
ATOM     16  C   UNL     1      15.654  28.231  54.515  1.00  0.00     0.000 C 
BRANCH  16  17
ATOM     17  C   UNL     1      14.575  28.423  53.442  1.00  0.00     0.000 C 
BRANCH  17  18
ATOM     18  C   UNL     1      14.999  27.786  52.113  1.00  0.00     0.000 C 
BRANCH  18  19
ATOM     19  C   UNL     1      16.237  26.898  52.300  1.00  0.00     0.000 C 
BRANCH  19  20
ATOM     20  C   UNL     1      17.367  27.241  51.316  1.00  0.00     0.006 C 
BRANCH  20  21
ATOM     21  C   UNL     1      17.067  28.499  50.491  1.00  0.00     0.053 C 
BRANCH  21  22
ATOM     22  C   UNL     1      18.283  29.364  50.398  1.00  0.00     0.041 C 
ATOM     23  O   UNL     1      18.180  30.616  50.490  1.00  0.00    -0.550 OA
ATOM     24  O   UNL     1      19.526  28.793  50.156  1.00  0.00    -0.550 OA
ENDBRANCH  21  22
ENDBRANCH  20  21
ENDBRANCH  19  20
ENDBRANCH  18  19
ENDBRANCH  17  18
ENDBRANCH  16  17
ENDBRANCH  15  16
ENDBRANCH  14  15
ENDBRANCH  13  14
ENDBRANCH   1  13
TORSDOF 20
ENDMDL
MODEL 5
REMARK VINA RESULT:    -2.758      1.668      3.487
REMARK INTER + INTRA:         -10.235
REMARK INTER:                  -6.348
REMARK INTRA:                  -3.886
REMARK UNBOUND:                -4.252
REMARK SMILES CCCCCCCCCCCCCCCCCCCCCC(=O)[O-]
REMARK SMILES IDX 12 1 11 2 10 3 9 4 8 5 7 6 6 7 5 8 4 9 3 10 2 11 1 12 13 13
REMARK SMILES IDX 14 14 15 15 16 16 17 17 18 18 19 19 20 20 21 21 22 22 23 23
REMARK SMILES IDX 24 24
REMARK H PARENT
REMARK Flexibility Score: inf
ROOT
ATOM      1  C   UNL     1      31.938  29.843  54.061  1.00  0.00     0.000 C 
ENDROOT
BRANCH   1   2
ATOM      2  C   UNL     1      32.040  30.408  55.490  1.00  0.00     0.000 C 
BRANCH   2   3
ATOM      3  C   UNL     1      32.057  31.948  55.579  1.00  0.00     0.000 C 
BRANCH   3   4
ATOM      4  C   UNL     1      30.761  32.589  56.116  1.00  0.00    -0.000 C 
BRANCH   4   5
ATOM      5  C   UNL     1      29.618  31.603  56.422  1.00  0.00    -0.000 C 
BRANCH   5   6
ATOM      6  C   UNL     1      28.568  31.539  55.300  1.00  0.00    -0.000 C 
BRANCH   6   7
ATOM      7  C   UNL     1      28.101  30.104  55.001  1.00  0.00    -0.000 C 
BRANCH   7   8
ATOM      8  C   UNL     1      27.700  29.274  56.237  1.00  0.00    -0.000 C 
BRANCH   8   9
ATOM      9  C   UNL     1      26.209  29.348  56.622  1.00  0.00    -0.000 C 
BRANCH   9  10
ATOM     10  C   UNL     1      25.234  29.427  55.434  1.00  0.00    -0.000 C 
BRANCH  10  11
ATOM     11  C   UNL     1      24.306  30.648  55.505  1.00  0.00    -0.003 C 
ATOM     12  C   UNL     1      22.855  30.223  55.714  1.00  0.00     0.004 C 
ENDBRANCH  10  11
ENDBRANCH   9  10
ENDBRANCH   8   9
ENDBRANCH   7   8
ENDBRANCH   6   7
ENDBRANCH   5   6
ENDBRANCH   4   5
ENDBRANCH   3   4
ENDBRANCH   2   3
ENDBRANCH   1   2
BRANCH   1  13
ATOM     13  C   UNL     1      31.811  30.904  52.951  1.00  0.00     0.000 C 
BRANCH  13  14
ATOM     14  C   UNL     1      30.463  30.859  52.200  1.00  0.00     0.000 C 
BRANCH  14  15
ATOM     15  C   UNL     1      30.103  32.206  51.555  1.00  0.00     0.000 C 
BRANCH  15  16
ATOM     16  C   UNL     1      30.500  33.375  52.465  1.00  0.00     0.000 C 
BRANCH  16  17
ATOM     17  C   UNL     1      29.261  34.110  52.990  1.00  0.00     0.000 C 
BRANCH  17  18
ATOM     18  C   UNL     1      27.989  33.617  52.289  1.00  0.00     0.000 C 
BRANCH  18  19
ATOM     19  C   UNL     1      26.745  33.906  53.142  1.00  0.00     0.000 C 
BRANCH  19  20
ATOM     20  C   UNL     1      25.580  32.951  52.832  1.00  0.00     0.006 C 
BRANCH  20  21
ATOM     21  C   UNL     1      26.048  31.642  52.185  1.00  0.00     0.053 C 
BRANCH  21  22
ATOM     22  C   UNL     1      24.914  30.980  51.468  1.00  0.00     0.041 C 
ATOM     23  O   UNL     1      24.142  30.200  52.086  1.00  0.00    -0.550 OA
ATOM     24  O   UNL     1      24.740  31.182  50.105  1.00  0.00    -0.550 OA
ENDBRANCH  21  22
ENDBRANCH  20  21
ENDBRANCH  19  20
ENDBRANCH  18  19
ENDBRANCH  17  18
ENDBRANCH  16  17
ENDBRANCH  15  16
ENDBRANCH  14  15
ENDBRANCH  13  14
ENDBRANCH   1  13
TORSDOF 20
ENDMDL
MODEL 6
REMARK VINA RESULT:    -2.701      2.628      4.046
REMARK INTER + INTRA:         -10.111
REMARK INTER:                  -6.088
REMARK INTRA:                  -4.023
REMARK UNBOUND:                -4.252
REMARK SMILES CCCCCCCCCCCCCCCCCCCCCC(=O)[O-]
REMARK SMILES IDX 12 1 11 2 10 3 9 4 8 5 7 6 6 7 5 8 4 9 3 10 2 11 1 12 13 13
REMARK SMILES IDX 14 14 15 15 16 16 17 17 18 18 19 19 20 20 21 21 22 22 23 23
REMARK SMILES IDX 24 24
REMARK H PARENT
REMARK Flexibility Score: inf
ROOT
ATOM      1  C   UNL     1      29.586  31.444  52.217  1.00  0.00     0.000 C 
ENDROOT
BRANCH   1   2
ATOM      2  C   UNL     1      30.732  30.490  52.603  1.00  0.00     0.000 C 
BRANCH   2   3
ATOM      3  C   UNL     1      31.877  31.141  53.406  1.00  0.00     0.000 C 
BRANCH   3   4
ATOM      4  C   UNL     1      31.738  31.051  54.940  1.00  0.00    -0.000 C 
BRANCH   4   5
ATOM      5  C   UNL     1      31.102  32.281  55.615  1.00  0.00    -0.000 C 
BRANCH   5   6
ATOM      6  C   UNL     1      29.770  31.958  56.313  1.00  0.00    -0.000 C 
BRANCH   6   7
ATOM      7  C   UNL     1      29.384  30.472  56.204  1.00  0.00    -0.000 C 
BRANCH   7   8
ATOM      8  C   UNL     1      27.880  30.199  56.007  1.00  0.00    -0.000 C 
BRANCH   8   9
ATOM      9  C   UNL     1      27.386  30.263  54.548  1.00  0.00    -0.000 C 
BRANCH   9  10
ATOM     10  C   UNL     1      25.914  29.864  54.342  1.00  0.00    -0.000 C 
BRANCH  10  11
ATOM     11  C   UNL     1      24.950  30.666  55.229  1.00  0.00    -0.003 C 
ATOM     12  C   UNL     1      23.973  29.744  55.951  1.00  0.00     0.004 C 
ENDBRANCH  10  11
ENDBRANCH   9  10
ENDBRANCH   8   9
ENDBRANCH   7   8
ENDBRANCH   6   7
ENDBRANCH   5   6
ENDBRANCH   4   5
ENDBRANCH   3   4
ENDBRANCH   2   3
ENDBRANCH   1   2
BRANCH   1  13
ATOM     13  C   UNL     1      30.039  32.814  51.676  1.00  0.00     0.000 C 
BRANCH  13  14
ATOM     14  C   UNL     1      29.473  34.012  52.468  1.00  0.00     0.000 C 
BRANCH  14  15
ATOM     15  C   UNL     1      28.363  33.600  53.446  1.00  0.00     0.000 C 
BRANCH  15  16
ATOM     16  C   UNL     1      27.093  34.427  53.215  1.00  0.00     0.000 C 
BRANCH  16  17
ATOM     17  C   UNL     1      25.876  33.519  52.999  1.00  0.00     0.000 C 
BRANCH  17  18
ATOM     18  C   UNL     1      25.625  33.278  51.505  1.00  0.00     0.000 C 
BRANCH  18  19
ATOM     19  C   UNL     1      25.873  31.809  51.136  1.00  0.00     0.000 C 
BRANCH  19  20
ATOM     20  C   UNL     1      26.773  31.654  49.899  1.00  0.00     0.006 C 
BRANCH  20  21
ATOM     21  C   UNL     1      27.144  33.001  49.268  1.00  0.00     0.053 C 
BRANCH  21  22
ATOM     22  C   UNL     1      28.077  32.799  48.116  1.00  0.00     0.041 C 
ATOM     23  O   UNL     1      27.669  32.251  47.058  1.00  0.00    -0.550 OA
ATOM     24  O   UNL     1      29.411  33.168  48.229  1.00  0.00    -0.550 OA
ENDBRANCH  21  22
ENDBRANCH  20  21
ENDBRANCH  19  20
ENDBRANCH  18  19
ENDBRANCH  17  18
ENDBRANCH  16  17
ENDBRANCH  15  16
ENDBRANCH  14  15
ENDBRANCH  13  14
ENDBRANCH   1  13
TORSDOF 20
ENDMDL
MODEL 7
REMARK VINA RESULT:    -2.687      2.101      3.978
REMARK INTER + INTRA:         -10.082
REMARK INTER:                  -6.144
REMARK INTRA:                  -3.937
REMARK UNBOUND:                -4.252
REMARK SMILES CCCCCCCCCCCCCCCCCCCCCC(=O)[O-]
REMARK SMILES IDX 12 1 11 2 10 3 9 4 8 5 7 6 6 7 5 8 4 9 3 10 2 11 1 12 13 13
REMARK SMILES IDX 14 14 15 15 16 16 17 17 18 18 19 19 20 20 21 21 22 22 23 23
REMARK SMILES IDX 24 24
REMARK H PARENT
REMARK Flexibility Score: inf
ROOT
ATOM      1  C   UNL     1      28.331  34.455  53.492  1.00  0.00     0.000 C 
ENDROOT
BRANCH   1   2
ATOM      2  C   UNL     1      29.466  33.828  52.661  1.00  0.00     0.000 C 
BRANCH   2   3
ATOM      3  C   UNL     1      30.778  33.582  53.435  1.00  0.00     0.000 C 
BRANCH   3   4
ATOM      4  C   UNL     1      30.844  34.222  54.837  1.00  0.00    -0.000 C 
BRANCH   4   5
ATOM      5  C   UNL     1      31.203  33.256  55.982  1.00  0.00    -0.000 C 
BRANCH   5   6
ATOM      6  C   UNL     1      31.289  31.791  55.523  1.00  0.00    -0.000 C 
BRANCH   6   7
ATOM      7  C   UNL     1      30.468  30.838  56.410  1.00  0.00    -0.000 C 
BRANCH   7   8
ATOM      8  C   UNL     1      28.968  31.179  56.524  1.00  0.00    -0.000 C 
BRANCH   8   9
ATOM      9  C   UNL     1      28.214  31.282  55.183  1.00  0.00    -0.000 C 
BRANCH   9  10
ATOM     10  C   UNL     1      28.278  30.021  54.304  1.00  0.00    -0.000 C 
BRANCH  10  11
ATOM     11  C   UNL     1      28.902  30.285  52.926  1.00  0.00    -0.003 C 
ATOM     12  C   UNL     1      28.477  29.222  51.918  1.00  0.00     0.004 C 
ENDBRANCH  10  11
ENDBRANCH   9  10
ENDBRANCH   8   9
ENDBRANCH   7   8
ENDBRANCH   6   7
ENDBRANCH   5   6
ENDBRANCH   4   5
ENDBRANCH   3   4
ENDBRANCH   2   3
ENDBRANCH   1   2
BRANCH   1  13
ATOM     13  C   UNL     1      26.910  34.164  52.972  1.00  0.00     0.000 C 
BRANCH  13  14
ATOM     14  C   UNL     1      26.879  33.243  51.733  1.00  0.00     0.000 C 
BRANCH  14  15
ATOM     15  C   UNL     1      25.885  32.083  51.887  1.00  0.00     0.000 C 
BRANCH  15  16
ATOM     16  C   UNL     1      25.227  32.102  53.272  1.00  0.00     0.000 C 
BRANCH  16  17
ATOM     17  C   UNL     1      24.669  30.721  53.636  1.00  0.00     0.000 C 
BRANCH  17  18
ATOM     18  C   UNL     1      24.270  30.658  55.115  1.00  0.00     0.000 C 
BRANCH  18  19
ATOM     19  C   UNL     1      23.545  29.343  55.433  1.00  0.00     0.000 C 
BRANCH  19  20
ATOM     20  C   UNL     1      24.426  28.355  56.215  1.00  0.00     0.006 C 
BRANCH  20  21
ATOM     21  C   UNL     1      25.692  29.013  56.778  1.00  0.00     0.053 C 
BRANCH  21  22
ATOM     22  C   UNL     1      26.707  27.974  57.133  1.00  0.00     0.041 C 
ATOM     23  O   UNL     1      27.236  27.270  56.232  1.00  0.00    -0.550 OA
ATOM     24  O   UNL     1      27.031  27.744  58.464  1.00  0.00    -0.550 OA
ENDBRANCH  21  22
ENDBRANCH  20  21
ENDBRANCH  19  20
ENDBRANCH  18  19
ENDBRANCH  17  18
ENDBRANCH  16  17
ENDBRANCH  15  16
ENDBRANCH  14  15
ENDBRANCH  13  14
ENDBRANCH   1  13
TORSDOF 20
ENDMDL
MODEL 8
REMARK VINA RESULT:    -2.679      2.260      4.922
REMARK INTER + INTRA:         -10.064
REMARK INTER:                  -5.836
REMARK INTRA:                  -4.228
REMARK UNBOUND:                -4.252
REMARK SMILES CCCCCCCCCCCCCCCCCCCCCC(=O)[O-]
REMARK SMILES IDX 12 1 11 2 10 3 9 4 8 5 7 6 6 7 5 8 4 9 3 10 2 11 1 12 13 13
REMARK SMILES IDX 14 14 15 15 16 16 17 17 18 18 19 19 20 20 21 21 22 22 23 23
REMARK SMILES IDX 24 24
REMARK H PARENT
REMARK Flexibility Score: inf
ROOT
ATOM      1  C   UNL     1      27.206  33.642  52.396  1.00  0.00     0.000 C 
ENDROOT
BRANCH   1   2
ATOM      2  C   UNL     1      28.021  34.346  53.497  1.00  0.00     0.000 C 
BRANCH   2   3
ATOM      3  C   UNL     1      29.518  34.537  53.175  1.00  0.00     0.000 C 
BRANCH   3   4
ATOM      4  C   UNL     1      30.492  33.816  54.129  1.00  0.00    -0.000 C 
BRANCH   4   5
ATOM      5  C   UNL     1      31.324  32.689  53.488  1.00  0.00    -0.000 C 
BRANCH   5   6
ATOM      6  C   UNL     1      30.760  32.225  52.135  1.00  0.00    -0.000 C 
BRANCH   6   7
ATOM      7  C   UNL     1      30.884  30.706  51.925  1.00  0.00    -0.000 C 
BRANCH   7   8
ATOM      8  C   UNL     1      29.941  30.112  50.859  1.00  0.00    -0.000 C 
BRANCH   8   9
ATOM      9  C   UNL     1      28.491  30.634  50.901  1.00  0.00    -0.000 C 
BRANCH   9  10
ATOM     10  C   UNL     1      27.908  31.039  49.536  1.00  0.00    -0.000 C 
BRANCH  10  11
ATOM     11  C   UNL     1      28.231  32.491  49.156  1.00  0.00    -0.003 C 
ATOM     12  C   UNL     1      26.971  33.244  48.742  1.00  0.00     0.004 C 
ENDBRANCH  10  11
ENDBRANCH   9  10
ENDBRANCH   8   9
ENDBRANCH   7   8
ENDBRANCH   6   7
ENDBRANCH   5   6
ENDBRANCH   4   5
ENDBRANCH   3   4
ENDBRANCH   2   3
ENDBRANCH   1   2
BRANCH   1  13
ATOM     13  C   UNL     1      25.789  33.208  52.816  1.00  0.00     0.000 C 
BRANCH  13  14
ATOM     14  C   UNL     1      25.225  32.038  51.982  1.00  0.00     0.000 C 
BRANCH  14  15
ATOM     15  C   UNL     1      24.951  30.788  52.831  1.00  0.00     0.000 C 
BRANCH  15  16
ATOM     16  C   UNL     1      25.075  31.101  54.327  1.00  0.00     0.000 C 
BRANCH  16  17
ATOM     17  C   UNL     1      25.889  30.021  55.050  1.00  0.00     0.000 C 
BRANCH  17  18
ATOM     18  C   UNL     1      27.232  29.780  54.351  1.00  0.00     0.000 C 
BRANCH  18  19
ATOM     19  C   UNL     1      28.213  30.926  54.637  1.00  0.00     0.000 C 
BRANCH  19  20
ATOM     20  C   UNL     1      28.456  31.136  56.141  1.00  0.00     0.006 C 
BRANCH  20  21
ATOM     21  C   UNL     1      29.943  31.070  56.512  1.00  0.00     0.053 C 
BRANCH  21  22
ATOM     22  C   UNL     1      30.492  29.709  56.227  1.00  0.00     0.041 C 
ATOM     23  O   UNL     1      30.106  28.715  56.897  1.00  0.00    -0.550 OA
ATOM     24  O   UNL     1      31.471  29.544  55.254  1.00  0.00    -0.550 OA
ENDBRANCH  21  22
ENDBRANCH  20  21
ENDBRANCH  19  20
ENDBRANCH  18  19
ENDBRANCH  17  18
ENDBRANCH  16  17
ENDBRANCH  15  16
ENDBRANCH  14  15
ENDBRANCH  13  14
ENDBRANCH   1  13
TORSDOF 20
ENDMDL
MODEL 9
REMARK VINA RESULT:    -2.678      1.433      5.085
REMARK INTER + INTRA:         -10.062
REMARK INTER:                  -6.016
REMARK INTRA:                  -4.046
REMARK UNBOUND:                -4.252
REMARK SMILES CCCCCCCCCCCCCCCCCCCCCC(=O)[O-]
REMARK SMILES IDX 12 1 11 2 10 3 9 4 8 5 7 6 6 7 5 8 4 9 3 10 2 11 1 12 13 13
REMARK SMILES IDX 14 14 15 15 16 16 17 17 18 18 19 19 20 20 21 21 22 22 23 23
REMARK SMILES IDX 24 24
REMARK H PARENT
REMARK Flexibility Score: inf
ROOT
ATOM      1  C   UNL     1      28.851  29.979  51.361  1.00  0.00     0.000 C 
ENDROOT
BRANCH   1   2
ATOM      2  C   UNL     1      29.996  30.747  50.674  1.00  0.00     0.000 C 
BRANCH   2   3
ATOM      3  C   UNL     1      29.559  32.001  49.889  1.00  0.00     0.000 C 
BRANCH   3   4
ATOM      4  C   UNL     1      29.858  33.347  50.580  1.00  0.00    -0.000 C 
BRANCH   4   5
ATOM      5  C   UNL     1      30.309  33.244  52.049  1.00  0.00    -0.000 C 
BRANCH   5   6
ATOM      6  C   UNL     1      29.423  34.061  53.005  1.00  0.00    -0.000 C 
BRANCH   6   7
ATOM      7  C   UNL     1      28.077  33.376  53.303  1.00  0.00    -0.000 C 
BRANCH   7   8
ATOM      8  C   UNL     1      26.838  34.285  53.181  1.00  0.00    -0.000 C 
BRANCH   8   9
ATOM      9  C   UNL     1      25.699  33.728  52.304  1.00  0.00    -0.000 C 
BRANCH   9  10
ATOM     10  C   UNL     1      26.119  32.622  51.319  1.00  0.00    -0.000 C 
BRANCH  10  11
ATOM     11  C   UNL     1      25.172  31.414  51.340  1.00  0.00    -0.003 C 
ATOM     12  C   UNL     1      25.293  30.644  52.652  1.00  0.00     0.004 C 
ENDBRANCH  10  11
ENDBRANCH   9  10
ENDBRANCH   8   9
ENDBRANCH   7   8
ENDBRANCH   6   7
ENDBRANCH   5   6
ENDBRANCH   4   5
ENDBRANCH   3   4
ENDBRANCH   2   3
ENDBRANCH   1   2
BRANCH   1  13
ATOM     13  C   UNL     1      29.015  29.796  52.881  1.00  0.00     0.000 C 
BRANCH  13  14
ATOM     14  C   UNL     1      30.484  29.817  53.355  1.00  0.00     0.000 C 
BRANCH  14  15
ATOM     15  C   UNL     1      30.611  30.021  54.872  1.00  0.00     0.000 C 
BRANCH  15  16
ATOM     16  C   UNL     1      31.073  31.446  55.198  1.00  0.00     0.000 C 
BRANCH  16  17
ATOM     17  C   UNL     1      30.147  32.102  56.230  1.00  0.00     0.000 C 
BRANCH  17  18
ATOM     18  C   UNL     1      28.781  31.406  56.267  1.00  0.00     0.000 C 
BRANCH  18  19
ATOM     19  C   UNL     1      28.500  30.820  57.658  1.00  0.00     0.000 C 
BRANCH  19  20
ATOM     20  C   UNL     1      27.460  29.688  57.625  1.00  0.00     0.006 C 
BRANCH  20  21
ATOM     21  C   UNL     1      27.075  29.284  56.196  1.00  0.00     0.053 C 
BRANCH  21  22
ATOM     22  C   UNL     1      25.587  29.229  56.054  1.00  0.00     0.041 C 
ATOM     23  O   UNL     1      25.032  28.200  55.585  1.00  0.00    -0.550 OA
ATOM     24  O   UNL     1      24.814  30.333  56.389  1.00  0.00    -0.550 OA
ENDBRANCH  21  22
ENDBRANCH  20  21
ENDBRANCH  19  20
ENDBRANCH  18  19
ENDBRANCH  17  18
ENDBRANCH  16  17
ENDBRANCH  15  16
ENDBRANCH  14  15
ENDBRANCH  13  14
ENDBRANCH   1  13
TORSDOF 20
ENDMDL
