MODEL 1
REMARK VINA RESULT:     9.977      0.000      0.000
REMARK INTER + INTRA:          27.414
REMARK INTER:                  26.307
REMARK INTRA:                   1.107
REMARK UNBOUND:                 1.107
REMARK SMILES CCCCCCCCCCCCCCCCCCCCCCCCCCCCCC(=O)[O-]
REMARK SMILES IDX 16 1 17 2 18 3 19 4 20 5 21 6 22 7 23 8 24 9 25 10 26 11
REMARK SMILES IDX 27 12 28 13 29 14 30 15 31 16 32 17 15 18 14 19 13 20 12 21
REMARK SMILES IDX 11 22 10 23 9 24 8 25 7 26 6 27 5 28 4 29 3 30 2 31 1 32
REMARK H PARENT
REMARK Flexibility Score: inf
ROOT
ATOM      1  C   UNL     1       1.055   2.389  -0.446  1.00  0.00     0.000 C 
ENDROOT
BRANCH   1   2
ATOM      2  C   UNL     1       0.543   3.806  -0.757  1.00  0.00     0.000 C 
BRANCH   2   3
ATOM      3  C   UNL     1       1.359   4.898  -0.046  1.00  0.00     0.000 C 
BRANCH   3   4
ATOM      4  C   UNL     1       2.883   4.813  -0.262  1.00  0.00     0.000 C 
BRANCH   4   5
ATOM      5  C   UNL     1       3.726   4.823   1.028  1.00  0.00     0.000 C 
BRANCH   5   6
ATOM      6  C   UNL     1       3.581   3.573   1.921  1.00  0.00     0.000 C 
BRANCH   6   7
ATOM      7  C   UNL     1       3.839   3.807   3.420  1.00  0.00     0.000 C 
BRANCH   7   8
ATOM      8  C   UNL     1       5.331   3.909   3.765  1.00  0.00     0.000 C 
BRANCH   8   9
ATOM      9  C   UNL     1       5.536   3.828   5.282  1.00  0.00     0.000 C 
BRANCH   9  10
ATOM     10  C   UNL     1       7.024   3.729   5.641  1.00  0.00     0.000 C 
BRANCH  10  11
ATOM     11  C   UNL     1       7.221   3.792   7.161  1.00  0.00     0.000 C 
BRANCH  11  12
ATOM     12  C   UNL     1       8.634   3.351   7.558  1.00  0.00     0.000 C 
BRANCH  12  13
ATOM     13  C   UNL     1       9.510   4.568   7.892  1.00  0.00     0.006 C 
BRANCH  13  14
ATOM     14  C   UNL     1       9.348   5.018   9.349  1.00  0.00     0.053 C 
BRANCH  14  15
ATOM     15  C   UNL     1       8.912   6.450   9.443  1.00  0.00     0.041 C 
ATOM     16  O   UNL     1       7.816   6.740   9.993  1.00  0.00    -0.550 OA
ATOM     17  O   UNL     1       9.722   7.460   8.944  1.00  0.00    -0.550 OA
ENDBRANCH  14  15
ENDBRANCH  13  14
ENDBRANCH  12  13
ENDBRANCH  11  12
ENDBRANCH  10  11
ENDBRANCH   9  10
ENDBRANCH   8   9
ENDBRANCH   7   8
ENDBRANCH   6   7
ENDBRANCH   5   6
ENDBRANCH   4   5
ENDBRANCH   3   4
ENDBRANCH   2   3
ENDBRANCH   1   2
BRANCH   1  18
ATOM     18  C   UNL     1       2.532   2.191  -0.825  1.00  0.00     0.000 C 
BRANCH  18  19
ATOM     19  C   UNL     1       2.813   1.035  -1.808  1.00  0.00     0.000 C 
BRANCH  19  20
ATOM     20  C   UNL     1       1.545   0.340  -2.355  1.00  0.00     0.000 C 
BRANCH  20  21
ATOM     21  C   UNL     1       1.180  -0.994  -1.665  1.00  0.00     0.000 C 
BRANCH  21  22
ATOM     22  C   UNL     1       0.031  -0.930  -0.637  1.00  0.00     0.000 C 
BRANCH  22  23
ATOM     23  C   UNL     1      -0.835   0.339  -0.695  1.00  0.00     0.000 C 
BRANCH  23  24
ATOM     24  C   UNL     1      -2.263   0.061  -1.186  1.00  0.00    -0.000 C 
BRANCH  24  25
ATOM     25  C   UNL     1      -2.278  -1.118  -2.171  1.00  0.00    -0.000 C 
BRANCH  25  26
ATOM     26  C   UNL     1      -2.490  -2.470  -1.473  1.00  0.00    -0.000 C 
BRANCH  26  27
ATOM     27  C   UNL     1      -3.636  -2.436  -0.452  1.00  0.00    -0.000 C 
BRANCH  27  28
ATOM     28  C   UNL     1      -3.609  -3.682   0.440  1.00  0.00    -0.000 C 
BRANCH  28  29
ATOM     29  C   UNL     1      -3.599  -4.965  -0.406  1.00  0.00    -0.000 C 
BRANCH  29  30
ATOM     30  C   UNL     1      -2.265  -5.179  -1.139  1.00  0.00    -0.000 C 
BRANCH  30  31
ATOM     31  C   UNL     1      -1.074  -5.294  -0.178  1.00  0.00    -0.003 C 
ATOM     32  C   UNL     1       0.104  -4.456  -0.663  1.00  0.00     0.004 C 
ENDBRANCH  30  31
ENDBRANCH  29  30
ENDBRANCH  28  29
ENDBRANCH  27  28
ENDBRANCH  26  27
ENDBRANCH  25  26
ENDBRANCH  24  25
ENDBRANCH  23  24
ENDBRANCH  22  23
ENDBRANCH  21  22
ENDBRANCH  20  21
ENDBRANCH  19  20
ENDBRANCH  18  19
ENDBRANCH   1  18
TORSDOF 28
ENDMDL
MODEL 2
REMARK VINA RESULT:    10.720      6.029      9.852
REMARK INTER + INTRA:          29.374
REMARK INTER:                  26.146
REMARK INTRA:                   3.229
REMARK UNBOUND:                 1.107
REMARK SMILES CCCCCCCCCCCCCCCCCCCCCCCCCCCCCC(=O)[O-]
REMARK SMILES IDX 16 1 17 2 18 3 19 4 20 5 21 6 22 7 23 8 24 9 25 10 26 11
REMARK SMILES IDX 27 12 28 13 29 14 30 15 31 16 32 17 15 18 14 19 13 20 12 21
REMARK SMILES IDX 11 22 10 23 9 24 8 25 7 26 6 27 5 28 4 29 3 30 2 31 1 32
REMARK H PARENT
REMARK Flexibility Score: inf
ROOT
ATOM      1  C   UNL     1      -1.984  -3.296  -0.401  1.00  0.00     0.000 C 
ENDROOT
BRANCH   1   2
ATOM      2  C   UNL     1      -2.855  -2.031  -0.472  1.00  0.00     0.000 C 
BRANCH   2   3
ATOM      3  C   UNL     1      -2.824  -1.370  -1.860  1.00  0.00     0.000 C 
BRANCH   3   4
ATOM      4  C   UNL     1      -1.477  -0.727  -2.241  1.00  0.00     0.000 C 
BRANCH   4   5
ATOM      5  C   UNL     1      -1.456   0.814  -2.205  1.00  0.00     0.000 C 
BRANCH   5   6
ATOM      6  C   UNL     1      -0.742   1.435  -0.986  1.00  0.00     0.000 C 
BRANCH   6   7
ATOM      7  C   UNL     1      -0.472   0.464   0.177  1.00  0.00     0.000 C 
BRANCH   7   8
ATOM      8  C   UNL     1       0.754  -0.429  -0.057  1.00  0.00     0.000 C 
BRANCH   8   9
ATOM      9  C   UNL     1       1.077  -0.513  -1.554  1.00  0.00     0.000 C 
BRANCH   9  10
ATOM     10  C   UNL     1       1.951   0.663  -2.004  1.00  0.00     0.000 C 
BRANCH  10  11
ATOM     11  C   UNL     1       2.264   1.591  -0.824  1.00  0.00     0.000 C 
BRANCH  11  12
ATOM     12  C   UNL     1       2.402   3.048  -1.281  1.00  0.00     0.000 C 
BRANCH  12  13
ATOM     13  C   UNL     1       1.487   3.966  -0.456  1.00  0.00     0.006 C 
BRANCH  13  14
ATOM     14  C   UNL     1       2.007   5.409  -0.405  1.00  0.00     0.053 C 
BRANCH  14  15
ATOM     15  C   UNL     1       3.484   5.458  -0.154  1.00  0.00     0.041 C 
ATOM     16  O   UNL     1       4.113   6.540  -0.304  1.00  0.00    -0.550 OA
ATOM     17  O   UNL     1       4.159   4.320   0.264  1.00  0.00    -0.550 OA
ENDBRANCH  14  15
ENDBRANCH  13  14
ENDBRANCH  12  13
ENDBRANCH  11  12
ENDBRANCH  10  11
ENDBRANCH   9  10
ENDBRANCH   8   9
ENDBRANCH   7   8
ENDBRANCH   6   7
ENDBRANCH   5   6
ENDBRANCH   4   5
ENDBRANCH   3   4
ENDBRANCH   2   3
ENDBRANCH   1   2
BRANCH   1  18
ATOM     18  C   UNL     1      -2.812  -4.590  -0.344  1.00  0.00     0.000 C 
BRANCH  18  19
ATOM     19  C   UNL     1      -3.309  -4.997   1.059  1.00  0.00     0.000 C 
BRANCH  19  20
ATOM     20  C   UNL     1      -4.057  -3.879   1.820  1.00  0.00     0.000 C 
BRANCH  20  21
ATOM     21  C   UNL     1      -4.155  -4.079   3.349  1.00  0.00     0.000 C 
BRANCH  21  22
ATOM     22  C   UNL     1      -5.533  -4.520   3.885  1.00  0.00     0.000 C 
BRANCH  22  23
ATOM     23  C   UNL     1      -5.958  -3.877   5.216  1.00  0.00     0.000 C 
BRANCH  23  24
ATOM     24  C   UNL     1      -7.269  -4.460   5.763  1.00  0.00    -0.000 C 
BRANCH  24  25
ATOM     25  C   UNL     1      -7.327  -4.325   7.292  1.00  0.00    -0.000 C 
BRANCH  25  26
ATOM     26  C   UNL     1      -8.082  -5.484   7.961  1.00  0.00    -0.000 C 
BRANCH  26  27
ATOM     27  C   UNL     1      -9.604  -5.375   7.790  1.00  0.00    -0.000 C 
BRANCH  27  28
ATOM     28  C   UNL     1     -10.114  -4.023   8.300  1.00  0.00    -0.000 C 
BRANCH  28  29
ATOM     29  C   UNL     1      -9.157  -3.431   9.347  1.00  0.00    -0.000 C 
BRANCH  29  30
ATOM     30  C   UNL     1      -8.731  -1.993   9.011  1.00  0.00    -0.000 C 
BRANCH  30  31
ATOM     31  C   UNL     1      -9.926  -1.040   8.867  1.00  0.00    -0.003 C 
ATOM     32  C   UNL     1     -10.072  -0.156  10.101  1.00  0.00     0.004 C 
ENDBRANCH  30  31
ENDBRANCH  29  30
ENDBRANCH  28  29
ENDBRANCH  27  28
ENDBRANCH  26  27
ENDBRANCH  25  26
ENDBRANCH  24  25
ENDBRANCH  23  24
ENDBRANCH  22  23
ENDBRANCH  21  22
ENDBRANCH  20  21
ENDBRANCH  19  20
ENDBRANCH  18  19
ENDBRANCH   1  18
TORSDOF 28
ENDMDL
MODEL 3
REMARK VINA RESULT:    10.996      2.881      5.573
REMARK INTER + INTRA:          30.101
REMARK INTER:                  30.747
REMARK INTRA:                  -0.645
REMARK UNBOUND:                 1.107
REMARK SMILES CCCCCCCCCCCCCCCCCCCCCCCCCCCCCC(=O)[O-]
REMARK SMILES IDX 16 1 17 2 18 3 19 4 20 5 21 6 22 7 23 8 24 9 25 10 26 11
REMARK SMILES IDX 27 12 28 13 29 14 30 15 31 16 32 17 15 18 14 19 13 20 12 21
REMARK SMILES IDX 11 22 10 23 9 24 8 25 7 26 6 27 5 28 4 29 3 30 2 31 1 32
REMARK H PARENT
REMARK Flexibility Score: inf
ROOT
ATOM      1  C   UNL     1       3.958   3.982   3.419  1.00  0.00     0.000 C 
ENDROOT
BRANCH   1   2
ATOM      2  C   UNL     1       5.211   3.380   4.077  1.00  0.00     0.000 C 
BRANCH   2   3
ATOM      3  C   UNL     1       5.369   3.805   5.546  1.00  0.00     0.000 C 
BRANCH   3   4
ATOM      4  C   UNL     1       6.677   3.343   6.217  1.00  0.00     0.000 C 
BRANCH   4   5
ATOM      5  C   UNL     1       7.893   4.259   5.975  1.00  0.00     0.000 C 
BRANCH   5   6
ATOM      6  C   UNL     1       8.863   4.396   7.168  1.00  0.00     0.000 C 
BRANCH   6   7
ATOM      7  C   UNL     1       8.461   5.446   8.219  1.00  0.00     0.000 C 
BRANCH   7   8
ATOM      8  C   UNL     1       9.206   5.280   9.550  1.00  0.00     0.000 C 
BRANCH   8   9
ATOM      9  C   UNL     1      10.125   4.053   9.501  1.00  0.00     0.000 C 
BRANCH   9  10
ATOM     10  C   UNL     1       9.317   2.751   9.458  1.00  0.00     0.000 C 
BRANCH  10  11
ATOM     11  C   UNL     1       9.957   1.746   8.492  1.00  0.00     0.000 C 
BRANCH  11  12
ATOM     12  C   UNL     1       9.660   0.302   8.912  1.00  0.00     0.000 C 
BRANCH  12  13
ATOM     13  C   UNL     1       8.158   0.109   9.173  1.00  0.00     0.006 C 
BRANCH  13  14
ATOM     14  C   UNL     1       7.811  -1.344   9.520  1.00  0.00     0.053 C 
BRANCH  14  15
ATOM     15  C   UNL     1       6.357  -1.505   9.845  1.00  0.00     0.041 C 
ATOM     16  O   UNL     1       5.895  -2.644  10.125  1.00  0.00    -0.550 OA
ATOM     17  O   UNL     1       5.518  -0.398   9.860  1.00  0.00    -0.550 OA
ENDBRANCH  14  15
ENDBRANCH  13  14
ENDBRANCH  12  13
ENDBRANCH  11  12
ENDBRANCH  10  11
ENDBRANCH   9  10
ENDBRANCH   8   9
ENDBRANCH   7   8
ENDBRANCH   6   7
ENDBRANCH   5   6
ENDBRANCH   4   5
ENDBRANCH   3   4
ENDBRANCH   2   3
ENDBRANCH   1   2
BRANCH   1  18
ATOM     18  C   UNL     1       4.267   4.723   2.109  1.00  0.00     0.000 C 
BRANCH  18  19
ATOM     19  C   UNL     1       3.083   4.859   1.129  1.00  0.00     0.000 C 
BRANCH  19  20
ATOM     20  C   UNL     1       3.326   4.219  -0.257  1.00  0.00     0.000 C 
BRANCH  20  21
ATOM     21  C   UNL     1       2.109   4.240  -1.211  1.00  0.00     0.000 C 
BRANCH  21  22
ATOM     22  C   UNL     1       1.348   2.907  -1.363  1.00  0.00     0.000 C 
BRANCH  22  23
ATOM     23  C   UNL     1       1.634   1.858  -0.277  1.00  0.00     0.000 C 
BRANCH  23  24
ATOM     24  C   UNL     1       2.112   0.519  -0.857  1.00  0.00    -0.000 C 
BRANCH  24  25
ATOM     25  C   UNL     1       0.946  -0.476  -0.960  1.00  0.00    -0.000 C 
BRANCH  25  26
ATOM     26  C   UNL     1      -0.426   0.206  -0.843  1.00  0.00    -0.000 C 
BRANCH  26  27
ATOM     27  C   UNL     1      -1.293   0.009  -2.094  1.00  0.00    -0.000 C 
BRANCH  27  28
ATOM     28  C   UNL     1      -2.112  -1.283  -1.993  1.00  0.00    -0.000 C 
BRANCH  28  29
ATOM     29  C   UNL     1      -2.843  -1.368  -0.644  1.00  0.00    -0.000 C 
BRANCH  29  30
ATOM     30  C   UNL     1      -3.510  -2.733  -0.419  1.00  0.00    -0.000 C 
BRANCH  30  31
ATOM     31  C   UNL     1      -2.495  -3.881  -0.330  1.00  0.00    -0.003 C 
ATOM     32  C   UNL     1      -3.120  -5.201  -0.772  1.00  0.00     0.004 C 
ENDBRANCH  30  31
ENDBRANCH  29  30
ENDBRANCH  28  29
ENDBRANCH  27  28
ENDBRANCH  26  27
ENDBRANCH  25  26
ENDBRANCH  24  25
ENDBRANCH  23  24
ENDBRANCH  22  23
ENDBRANCH  21  22
ENDBRANCH  20  21
ENDBRANCH  19  20
ENDBRANCH  18  19
ENDBRANCH   1  18
TORSDOF 28
ENDMDL
MODEL 4
REMARK VINA RESULT:    11.180      1.709      2.067
REMARK INTER + INTRA:          30.587
REMARK INTER:                  29.147
REMARK INTRA:                   1.440
REMARK UNBOUND:                 1.107
REMARK SMILES CCCCCCCCCCCCCCCCCCCCCCCCCCCCCC(=O)[O-]
REMARK SMILES IDX 16 1 17 2 18 3 19 4 20 5 21 6 22 7 23 8 24 9 25 10 26 11
REMARK SMILES IDX 27 12 28 13 29 14 30 15 31 16 32 17 15 18 14 19 13 20 12 21
REMARK SMILES IDX 11 22 10 23 9 24 8 25 7 26 6 27 5 28 4 29 3 30 2 31 1 32
REMARK H PARENT
REMARK Flexibility Score: inf
ROOT
ATOM      1  C   UNL     1       0.782   2.588  -0.804  1.00  0.00     0.000 C 
ENDROOT
BRANCH   1   2
ATOM      2  C   UNL     1       0.546   4.108  -0.816  1.00  0.00     0.000 C 
BRANCH   2   3
ATOM      3  C   UNL     1       1.431   4.850   0.200  1.00  0.00     0.000 C 
BRANCH   3   4
ATOM      4  C   UNL     1       2.947   4.653   0.005  1.00  0.00     0.000 C 
BRANCH   4   5
ATOM      5  C   UNL     1       3.790   4.772   1.290  1.00  0.00     0.000 C 
BRANCH   5   6
ATOM      6  C   UNL     1       3.811   3.514   2.184  1.00  0.00     0.000 C 
BRANCH   6   7
ATOM      7  C   UNL     1       4.101   3.775   3.673  1.00  0.00     0.000 C 
BRANCH   7   8
ATOM      8  C   UNL     1       5.600   3.806   3.998  1.00  0.00     0.000 C 
BRANCH   8   9
ATOM      9  C   UNL     1       5.824   3.673   5.509  1.00  0.00     0.000 C 
BRANCH   9  10
ATOM     10  C   UNL     1       7.312   3.773   5.865  1.00  0.00     0.000 C 
BRANCH  10  11
ATOM     11  C   UNL     1       7.492   4.148   7.341  1.00  0.00     0.000 C 
BRANCH  11  12
ATOM     12  C   UNL     1       8.935   4.573   7.636  1.00  0.00     0.000 C 
BRANCH  12  13
ATOM     13  C   UNL     1       9.347   4.151   9.055  1.00  0.00     0.006 C 
BRANCH  13  14
ATOM     14  C   UNL     1      10.125   2.829   9.065  1.00  0.00     0.053 C 
BRANCH  14  15
ATOM     15  C   UNL     1       9.337   1.717   8.441  1.00  0.00     0.041 C 
ATOM     16  O   UNL     1       8.595   0.991   9.156  1.00  0.00    -0.550 OA
ATOM     17  O   UNL     1       9.407   1.495   7.072  1.00  0.00    -0.550 OA
ENDBRANCH  14  15
ENDBRANCH  13  14
ENDBRANCH  12  13
ENDBRANCH  11  12
ENDBRANCH  10  11
ENDBRANCH   9  10
ENDBRANCH   8   9
ENDBRANCH   7   8
ENDBRANCH   6   7
ENDBRANCH   5   6
ENDBRANCH   4   5
ENDBRANCH   3   4
ENDBRANCH   2   3
ENDBRANCH   1   2
BRANCH   1  18
ATOM     18  C   UNL     1       2.266   2.214  -0.658  1.00  0.00     0.000 C 
BRANCH  18  19
ATOM     19  C   UNL     1       2.751   1.064  -1.564  1.00  0.00     0.000 C 
BRANCH  19  20
ATOM     20  C   UNL     1       1.616   0.278  -2.260  1.00  0.00     0.000 C 
BRANCH  20  21
ATOM     21  C   UNL     1       1.393  -1.157  -1.731  1.00  0.00     0.000 C 
BRANCH  21  22
ATOM     22  C   UNL     1       0.388  -1.298  -0.569  1.00  0.00     0.000 C 
BRANCH  22  23
ATOM     23  C   UNL     1      -0.014   0.017   0.118  1.00  0.00     0.000 C 
BRANCH  23  24
ATOM     24  C   UNL     1      -1.383   0.535  -0.346  1.00  0.00    -0.000 C 
BRANCH  24  25
ATOM     25  C   UNL     1      -1.487   0.496  -1.878  1.00  0.00    -0.000 C 
BRANCH  25  26
ATOM     26  C   UNL     1      -2.239  -0.742  -2.390  1.00  0.00    -0.000 C 
BRANCH  26  27
ATOM     27  C   UNL     1      -3.486  -1.065  -1.554  1.00  0.00    -0.000 C 
BRANCH  27  28
ATOM     28  C   UNL     1      -3.659  -2.579  -1.394  1.00  0.00    -0.000 C 
BRANCH  28  29
ATOM     29  C   UNL     1      -2.754  -3.122  -0.277  1.00  0.00    -0.000 C 
BRANCH  29  30
ATOM     30  C   UNL     1      -3.040  -4.596   0.051  1.00  0.00    -0.000 C 
BRANCH  30  31
ATOM     31  C   UNL     1      -2.297  -5.565  -0.880  1.00  0.00    -0.003 C 
ATOM     32  C   UNL     1      -0.828  -5.682  -0.487  1.00  0.00     0.004 C 
ENDBRANCH  30  31
ENDBRANCH  29  30
ENDBRANCH  28  29
ENDBRANCH  27  28
ENDBRANCH  26  27
ENDBRANCH  25  26
ENDBRANCH  24  25
ENDBRANCH  23  24
ENDBRANCH  22  23
ENDBRANCH  21  22
ENDBRANCH  20  21
ENDBRANCH  19  20
ENDBRANCH  18  19
ENDBRANCH   1  18
TORSDOF 28
ENDMDL
MODEL 5
REMARK VINA RESULT:    11.219      5.273     12.948
REMARK INTER + INTRA:          30.690
REMARK INTER:                  29.667
REMARK INTRA:                   1.023
REMARK UNBOUND:                 1.107
REMARK SMILES CCCCCCCCCCCCCCCCCCCCCCCCCCCCCC(=O)[O-]
REMARK SMILES IDX 16 1 17 2 18 3 19 4 20 5 21 6 22 7 23 8 24 9 25 10 26 11
REMARK SMILES IDX 27 12 28 13 29 14 30 15 31 16 32 17 15 18 14 19 13 20 12 21
REMARK SMILES IDX 11 22 10 23 9 24 8 25 7 26 6 27 5 28 4 29 3 30 2 31 1 32
REMARK H PARENT
REMARK Flexibility Score: inf
ROOT
ATOM      1  C   UNL     1       3.183   3.760   0.505  1.00  0.00     0.000 C 
ENDROOT
BRANCH   1   2
ATOM      2  C   UNL     1       3.529   2.297   0.184  1.00  0.00     0.000 C 
BRANCH   2   3
ATOM      3  C   UNL     1       3.334   1.956  -1.303  1.00  0.00     0.000 C 
BRANCH   3   4
ATOM      4  C   UNL     1       2.106   1.077  -1.611  1.00  0.00     0.000 C 
BRANCH   4   5
ATOM      5  C   UNL     1       1.170   0.821  -0.412  1.00  0.00     0.000 C 
BRANCH   5   6
ATOM      6  C   UNL     1      -0.026   1.787  -0.292  1.00  0.00     0.000 C 
BRANCH   6   7
ATOM      7  C   UNL     1      -1.072   1.675  -1.415  1.00  0.00     0.000 C 
BRANCH   7   8
ATOM      8  C   UNL     1      -2.123   0.587  -1.152  1.00  0.00     0.000 C 
BRANCH   8   9
ATOM      9  C   UNL     1      -2.028  -0.517  -2.212  1.00  0.00     0.000 C 
BRANCH   9  10
ATOM     10  C   UNL     1      -2.548  -1.855  -1.674  1.00  0.00     0.000 C 
BRANCH  10  11
ATOM     11  C   UNL     1      -1.910  -2.180  -0.318  1.00  0.00     0.000 C 
BRANCH  11  12
ATOM     12  C   UNL     1      -0.461  -2.650  -0.482  1.00  0.00     0.000 C 
BRANCH  12  13
ATOM     13  C   UNL     1      -0.413  -4.102  -0.983  1.00  0.00     0.006 C 
BRANCH  13  14
ATOM     14  C   UNL     1      -1.308  -5.032  -0.155  1.00  0.00     0.053 C 
BRANCH  14  15
ATOM     15  C   UNL     1      -2.709  -5.075  -0.689  1.00  0.00     0.041 C 
ATOM     16  O   UNL     1      -3.356  -4.005  -0.847  1.00  0.00    -0.550 OA
ATOM     17  O   UNL     1      -3.290  -6.289  -1.029  1.00  0.00    -0.550 OA
ENDBRANCH  14  15
ENDBRANCH  13  14
ENDBRANCH  12  13
ENDBRANCH  11  12
ENDBRANCH  10  11
ENDBRANCH   9  10
ENDBRANCH   8   9
ENDBRANCH   7   8
ENDBRANCH   6   7
ENDBRANCH   5   6
ENDBRANCH   4   5
ENDBRANCH   3   4
ENDBRANCH   2   3
ENDBRANCH   1   2
BRANCH   1  18
ATOM     18  C   UNL     1       3.975   4.313   1.701  1.00  0.00     0.000 C 
BRANCH  18  19
ATOM     19  C   UNL     1       3.980   3.423   2.961  1.00  0.00     0.000 C 
BRANCH  19  20
ATOM     20  C   UNL     1       4.569   4.102   4.219  1.00  0.00     0.000 C 
BRANCH  20  21
ATOM     21  C   UNL     1       5.642   3.277   4.965  1.00  0.00     0.000 C 
BRANCH  21  22
ATOM     22  C   UNL     1       6.938   4.030   5.331  1.00  0.00     0.000 C 
BRANCH  22  23
ATOM     23  C   UNL     1       7.519   3.708   6.717  1.00  0.00     0.000 C 
BRANCH  23  24
ATOM     24  C   UNL     1       7.844   4.968   7.532  1.00  0.00    -0.000 C 
BRANCH  24  25
ATOM     25  C   UNL     1       8.572   4.601   8.833  1.00  0.00    -0.000 C 
BRANCH  25  26
ATOM     26  C   UNL     1       9.843   3.773   8.587  1.00  0.00    -0.000 C 
BRANCH  26  27
ATOM     27  C   UNL     1      10.018   2.640   9.610  1.00  0.00    -0.000 C 
BRANCH  27  28
ATOM     28  C   UNL     1       9.962   1.272   8.922  1.00  0.00    -0.000 C 
BRANCH  28  29
ATOM     29  C   UNL     1       9.983   0.135   9.956  1.00  0.00    -0.000 C 
BRANCH  29  30
ATOM     30  C   UNL     1       8.609  -0.534  10.125  1.00  0.00    -0.000 C 
BRANCH  30  31
ATOM     31  C   UNL     1       7.764  -0.483   8.844  1.00  0.00    -0.003 C 
ATOM     32  C   UNL     1       6.299  -0.208   9.166  1.00  0.00     0.004 C 
ENDBRANCH  30  31
ENDBRANCH  29  30
ENDBRANCH  28  29
ENDBRANCH  27  28
ENDBRANCH  26  27
ENDBRANCH  25  26
ENDBRANCH  24  25
ENDBRANCH  23  24
ENDBRANCH  22  23
ENDBRANCH  21  22
ENDBRANCH  20  21
ENDBRANCH  19  20
ENDBRANCH  18  19
ENDBRANCH   1  18
TORSDOF 28
ENDMDL
MODEL 6
REMARK VINA RESULT:    11.249      2.469      3.332
REMARK INTER + INTRA:          30.769
REMARK INTER:                  29.984
REMARK INTRA:                   0.785
REMARK UNBOUND:                 1.107
REMARK SMILES CCCCCCCCCCCCCCCCCCCCCCCCCCCCCC(=O)[O-]
REMARK SMILES IDX 16 1 17 2 18 3 19 4 20 5 21 6 22 7 23 8 24 9 25 10 26 11
REMARK SMILES IDX 27 12 28 13 29 14 30 15 31 16 32 17 15 18 14 19 13 20 12 21
REMARK SMILES IDX 11 22 10 23 9 24 8 25 7 26 6 27 5 28 4 29 3 30 2 31 1 32
REMARK H PARENT
REMARK Flexibility Score: inf
ROOT
ATOM      1  C   UNL     1       1.815   3.002  -0.363  1.00  0.00     0.000 C 
ENDROOT
BRANCH   1   2
ATOM      2  C   UNL     1       2.120   4.271   0.449  1.00  0.00     0.000 C 
BRANCH   2   3
ATOM      3  C   UNL     1       2.695   3.957   1.841  1.00  0.00     0.000 C 
BRANCH   3   4
ATOM      4  C   UNL     1       4.228   4.076   1.950  1.00  0.00     0.000 C 
BRANCH   4   5
ATOM      5  C   UNL     1       4.745   4.628   3.293  1.00  0.00     0.000 C 
BRANCH   5   6
ATOM      6  C   UNL     1       5.704   3.696   4.064  1.00  0.00     0.000 C 
BRANCH   6   7
ATOM      7  C   UNL     1       5.990   4.111   5.518  1.00  0.00     0.000 C 
BRANCH   7   8
ATOM      8  C   UNL     1       7.352   3.621   6.027  1.00  0.00     0.000 C 
BRANCH   8   9
ATOM      9  C   UNL     1       7.627   4.166   7.433  1.00  0.00     0.000 C 
BRANCH   9  10
ATOM     10  C   UNL     1       9.013   3.745   7.936  1.00  0.00     0.000 C 
BRANCH  10  11
ATOM     11  C   UNL     1       9.124   2.217   8.005  1.00  0.00     0.000 C 
BRANCH  11  12
ATOM     12  C   UNL     1       9.582   1.754   9.393  1.00  0.00     0.000 C 
BRANCH  12  13
ATOM     13  C   UNL     1      10.040   0.288   9.353  1.00  0.00     0.006 C 
BRANCH  13  14
ATOM     14  C   UNL     1       9.090  -0.638  10.123  1.00  0.00     0.053 C 
BRANCH  14  15
ATOM     15  C   UNL     1       7.698  -0.591   9.569  1.00  0.00     0.041 C 
ATOM     16  O   UNL     1       7.436   0.151   8.585  1.00  0.00    -0.550 OA
ATOM     17  O   UNL     1       6.699  -1.379  10.124  1.00  0.00    -0.550 OA
ENDBRANCH  14  15
ENDBRANCH  13  14
ENDBRANCH  12  13
ENDBRANCH  11  12
ENDBRANCH  10  11
ENDBRANCH   9  10
ENDBRANCH   8   9
ENDBRANCH   7   8
ENDBRANCH   6   7
ENDBRANCH   5   6
ENDBRANCH   4   5
ENDBRANCH   3   4
ENDBRANCH   2   3
ENDBRANCH   1   2
BRANCH   1  18
ATOM     18  C   UNL     1       2.988   2.010  -0.386  1.00  0.00     0.000 C 
BRANCH  18  19
ATOM     19  C   UNL     1       3.110   1.157  -1.667  1.00  0.00     0.000 C 
BRANCH  19  20
ATOM     20  C   UNL     1       1.763   0.627  -2.210  1.00  0.00     0.000 C 
BRANCH  20  21
ATOM     21  C   UNL     1       1.564  -0.901  -2.089  1.00  0.00     0.000 C 
BRANCH  21  22
ATOM     22  C   UNL     1       0.517  -1.365  -1.056  1.00  0.00     0.000 C 
BRANCH  22  23
ATOM     23  C   UNL     1       0.445  -0.527   0.231  1.00  0.00     0.000 C 
BRANCH  23  24
ATOM     24  C   UNL     1      -0.693   0.503   0.204  1.00  0.00    -0.000 C 
BRANCH  24  25
ATOM     25  C   UNL     1      -1.105   0.819  -1.241  1.00  0.00    -0.000 C 
BRANCH  25  26
ATOM     26  C   UNL     1      -2.240  -0.085  -1.745  1.00  0.00    -0.000 C 
BRANCH  26  27
ATOM     27  C   UNL     1      -2.607  -1.189  -0.742  1.00  0.00    -0.000 C 
BRANCH  27  28
ATOM     28  C   UNL     1      -3.317  -2.351  -1.446  1.00  0.00    -0.000 C 
BRANCH  28  29
ATOM     29  C   UNL     1      -3.190  -3.648  -0.632  1.00  0.00    -0.000 C 
BRANCH  29  30
ATOM     30  C   UNL     1      -2.204  -4.645  -1.261  1.00  0.00    -0.000 C 
BRANCH  30  31
ATOM     31  C   UNL     1      -1.272  -5.290  -0.224  1.00  0.00    -0.003 C 
ATOM     32  C   UNL     1      -0.110  -4.363   0.119  1.00  0.00     0.004 C 
ENDBRANCH  30  31
ENDBRANCH  29  30
ENDBRANCH  28  29
ENDBRANCH  27  28
ENDBRANCH  26  27
ENDBRANCH  25  26
ENDBRANCH  24  25
ENDBRANCH  23  24
ENDBRANCH  22  23
ENDBRANCH  21  22
ENDBRANCH  20  21
ENDBRANCH  19  20
ENDBRANCH  18  19
ENDBRANCH   1  18
TORSDOF 28
ENDMDL
