MODEL 1
REMARK VINA RESULT:    -7.202      0.000      0.000
REMARK INTER + INTRA:         -12.103
REMARK INTER:                 -11.413
REMARK INTRA:                  -0.691
REMARK UNBOUND:                -0.691
REMARK SMILES CCCCCCCCCCCC(=O)[O-]
REMARK SMILES IDX 7 1 8 2 9 3 10 4 11 5 12 6 13 7 14 8 6 9 5 10 4 11 3 12 2 13
REMARK SMILES IDX 1 14
REMARK H PARENT
REMARK Flexibility Score: inf
ROOT
ATOM      1  C   UNL     1       7.235  -3.480  20.525  1.00  0.00     0.000 C 
ENDROOT
BRANCH   1   2
ATOM      2  C   UNL     1       7.015  -4.920  20.041  1.00  0.00     0.000 C 
BRANCH   2   3
ATOM      3  C   UNL     1       6.568  -5.826  21.195  1.00  0.00     0.000 C 
BRANCH   3   4
ATOM      4  C   UNL     1       7.696  -6.780  21.616  1.00  0.00     0.006 C 
BRANCH   4   5
ATOM      5  C   UNL     1       7.379  -8.241  21.273  1.00  0.00     0.053 C 
BRANCH   5   6
ATOM      6  C   UNL     1       6.942  -9.013  22.480  1.00  0.00     0.041 C 
ATOM      7  O   UNL     1       6.298 -10.086  22.345  1.00  0.00    -0.550 OA
ATOM      8  O   UNL     1       7.217  -8.530  23.753  1.00  0.00    -0.550 OA
ENDBRANCH   5   6
ENDBRANCH   4   5
ENDBRANCH   3   4
ENDBRANCH   2   3
ENDBRANCH   1   2
BRANCH   1   9
ATOM      9  C   UNL     1       6.496  -3.171  21.838  1.00  0.00     0.000 C 
BRANCH   9  10
ATOM     10  C   UNL     1       5.707  -1.845  21.849  1.00  0.00    -0.000 C 
BRANCH  10  11
ATOM     11  C   UNL     1       6.040  -0.880  20.697  1.00  0.00    -0.000 C 
BRANCH  11  12
ATOM     12  C   UNL     1       4.858  -0.673  19.735  1.00  0.00    -0.000 C 
BRANCH  12  13
ATOM     13  C   UNL     1       3.908  -1.879  19.703  1.00  0.00    -0.003 C 
ATOM     14  C   UNL     1       2.439  -1.469  19.607  1.00  0.00     0.004 C 
ENDBRANCH  12  13
ENDBRANCH  11  12
ENDBRANCH  10  11
ENDBRANCH   9  10
ENDBRANCH   1   9
TORSDOF 10
ENDMDL
MODEL 2
REMARK VINA RESULT:    -7.196      3.917      7.072
REMARK INTER + INTRA:         -12.094
REMARK INTER:                 -11.414
REMARK INTRA:                  -0.680
REMARK UNBOUND:                -0.691
REMARK SMILES CCCCCCCCCCCC(=O)[O-]
REMARK SMILES IDX 7 1 8 2 9 3 10 4 11 5 12 6 13 7 14 8 6 9 5 10 4 11 3 12 2 13
REMARK SMILES IDX 1 14
REMARK H PARENT
REMARK Flexibility Score: inf
ROOT
ATOM      1  C   UNL     1       6.847  -3.159  20.718  1.00  0.00     0.000 C 
ENDROOT
BRANCH   1   2
ATOM      2  C   UNL     1       6.341  -2.810  22.124  1.00  0.00     0.000 C 
BRANCH   2   3
ATOM      3  C   UNL     1       4.814  -2.665  22.138  1.00  0.00     0.000 C 
BRANCH   3   4
ATOM      4  C   UNL     1       4.236  -2.779  20.719  1.00  0.00     0.006 C 
BRANCH   4   5
ATOM      5  C   UNL     1       3.187  -1.699  20.430  1.00  0.00     0.053 C 
BRANCH   5   6
ATOM      6  C   UNL     1       3.693  -0.676  19.460  1.00  0.00     0.041 C 
ATOM      7  O   UNL     1       2.969  -0.303  18.500  1.00  0.00    -0.550 OA
ATOM      8  O   UNL     1       4.976  -0.162  19.597  1.00  0.00    -0.550 OA
ENDBRANCH   5   6
ENDBRANCH   4   5
ENDBRANCH   3   4
ENDBRANCH   2   3
ENDBRANCH   1   2
BRANCH   1   9
ATOM      9  C   UNL     1       7.630  -4.483  20.675  1.00  0.00     0.000 C 
BRANCH   9  10
ATOM     10  C   UNL     1       6.830  -5.731  21.103  1.00  0.00    -0.000 C 
BRANCH  10  11
ATOM     11  C   UNL     1       7.676  -6.879  21.682  1.00  0.00    -0.000 C 
BRANCH  11  12
ATOM     12  C   UNL     1       7.298  -8.250  21.098  1.00  0.00    -0.000 C 
BRANCH  12  13
ATOM     13  C   UNL     1       6.930  -9.271  22.184  1.00  0.00    -0.003 C 
ATOM     14  C   UNL     1       6.920  -8.663  23.586  1.00  0.00     0.004 C 
ENDBRANCH  12  13
ENDBRANCH  11  12
ENDBRANCH  10  11
ENDBRANCH   9  10
ENDBRANCH   1   9
TORSDOF 10
ENDMDL
MODEL 3
REMARK VINA RESULT:    -7.188      4.098      7.088
REMARK INTER + INTRA:         -12.080
REMARK INTER:                 -11.402
REMARK INTRA:                  -0.679
REMARK UNBOUND:                -0.691
REMARK SMILES CCCCCCCCCCCC(=O)[O-]
REMARK SMILES IDX 7 1 8 2 9 3 10 4 11 5 12 6 13 7 14 8 6 9 5 10 4 11 3 12 2 13
REMARK SMILES IDX 1 14
REMARK H PARENT
REMARK Flexibility Score: inf
ROOT
ATOM      1  C   UNL     1       6.768  -2.291  20.761  1.00  0.00     0.000 C 
ENDROOT
BRANCH   1   2
ATOM      2  C   UNL     1       5.924  -2.333  22.043  1.00  0.00     0.000 C 
BRANCH   2   3
ATOM      3  C   UNL     1       4.569  -3.002  21.788  1.00  0.00     0.000 C 
BRANCH   3   4
ATOM      4  C   UNL     1       3.473  -1.954  21.544  1.00  0.00     0.006 C 
BRANCH   4   5
ATOM      5  C   UNL     1       3.085  -1.852  20.064  1.00  0.00     0.053 C 
BRANCH   5   6
ATOM      6  C   UNL     1       3.336  -0.481  19.515  1.00  0.00     0.041 C 
ATOM      7  O   UNL     1       4.515  -0.073  19.350  1.00  0.00    -0.550 OA
ATOM      8  O   UNL     1       2.268   0.357  19.219  1.00  0.00    -0.550 OA
ENDBRANCH   5   6
ENDBRANCH   4   5
ENDBRANCH   3   4
ENDBRANCH   2   3
ENDBRANCH   1   2
BRANCH   1   9
ATOM      9  C   UNL     1       6.879  -3.663  20.073  1.00  0.00     0.000 C 
BRANCH   9  10
ATOM     10  C   UNL     1       7.657  -4.733  20.868  1.00  0.00    -0.000 C 
BRANCH  10  11
ATOM     11  C   UNL     1       6.878  -6.031  21.145  1.00  0.00    -0.000 C 
BRANCH  11  12
ATOM     12  C   UNL     1       7.751  -7.122  21.787  1.00  0.00    -0.000 C 
BRANCH  12  13
ATOM     13  C   UNL     1       7.293  -8.539  21.412  1.00  0.00    -0.003 C 
ATOM     14  C   UNL     1       6.654  -9.282  22.585  1.00  0.00     0.004 C 
ENDBRANCH  12  13
ENDBRANCH  11  12
ENDBRANCH  10  11
ENDBRANCH   9  10
ENDBRANCH   1   9
TORSDOF 10
ENDMDL
MODEL 4
REMARK VINA RESULT:    -7.141      0.782      1.425
REMARK INTER + INTRA:         -12.007
REMARK INTER:                 -11.496
REMARK INTRA:                  -0.511
REMARK UNBOUND:                -0.691
REMARK SMILES CCCCCCCCCCCC(=O)[O-]
REMARK SMILES IDX 7 1 8 2 9 3 10 4 11 5 12 6 13 7 14 8 6 9 5 10 4 11 3 12 2 13
REMARK SMILES IDX 1 14
REMARK H PARENT
REMARK Flexibility Score: inf
ROOT
ATOM      1  C   UNL     1       6.507  -3.343  21.951  1.00  0.00     0.000 C 
ENDROOT
BRANCH   1   2
ATOM      2  C   UNL     1       7.324  -4.165  20.943  1.00  0.00     0.000 C 
BRANCH   2   3
ATOM      3  C   UNL     1       6.767  -5.588  20.816  1.00  0.00     0.000 C 
BRANCH   3   4
ATOM      4  C   UNL     1       7.621  -6.588  21.609  1.00  0.00     0.006 C 
BRANCH   4   5
ATOM      5  C   UNL     1       7.287  -8.044  21.260  1.00  0.00     0.053 C 
BRANCH   5   6
ATOM      6  C   UNL     1       6.983  -8.854  22.482  1.00  0.00     0.041 C 
ATOM      7  O   UNL     1       6.346  -9.935  22.382  1.00  0.00    -0.550 OA
ATOM      8  O   UNL     1       7.372  -8.397  23.735  1.00  0.00    -0.550 OA
ENDBRANCH   5   6
ENDBRANCH   4   5
ENDBRANCH   3   4
ENDBRANCH   2   3
ENDBRANCH   1   2
BRANCH   1   9
ATOM      9  C   UNL     1       6.234  -1.908  21.470  1.00  0.00     0.000 C 
BRANCH   9  10
ATOM     10  C   UNL     1       5.524  -1.799  20.105  1.00  0.00    -0.000 C 
BRANCH  10  11
ATOM     11  C   UNL     1       4.181  -2.544  20.008  1.00  0.00    -0.000 C 
BRANCH  11  12
ATOM     12  C   UNL     1       2.987  -1.678  20.443  1.00  0.00    -0.000 C 
BRANCH  12  13
ATOM     13  C   UNL     1       2.167  -1.164  19.250  1.00  0.00    -0.003 C 
ATOM     14  C   UNL     1       2.366   0.330  18.998  1.00  0.00     0.004 C 
ENDBRANCH  12  13
ENDBRANCH  11  12
ENDBRANCH  10  11
ENDBRANCH   9  10
ENDBRANCH   1   9
TORSDOF 10
ENDMDL
MODEL 5
REMARK VINA RESULT:    -6.871      4.438      7.389
REMARK INTER + INTRA:         -11.579
REMARK INTER:                 -11.026
REMARK INTRA:                  -0.552
REMARK UNBOUND:                -0.691
REMARK SMILES CCCCCCCCCCCC(=O)[O-]
REMARK SMILES IDX 7 1 8 2 9 3 10 4 11 5 12 6 13 7 14 8 6 9 5 10 4 11 3 12 2 13
REMARK SMILES IDX 1 14
REMARK H PARENT
REMARK Flexibility Score: inf
ROOT
ATOM      1  C   UNL     1       5.560  -2.404  20.846  1.00  0.00     0.000 C 
ENDROOT
BRANCH   1   2
ATOM      2  C   UNL     1       4.617  -3.473  20.275  1.00  0.00     0.000 C 
BRANCH   2   3
ATOM      3  C   UNL     1       3.567  -2.842  19.352  1.00  0.00     0.000 C 
BRANCH   3   4
ATOM      4  C   UNL     1       2.736  -1.790  20.101  1.00  0.00     0.006 C 
BRANCH   4   5
ATOM      5  C   UNL     1       1.973  -0.864  19.146  1.00  0.00     0.053 C 
BRANCH   5   6
ATOM      6  C   UNL     1       2.854   0.214  18.592  1.00  0.00     0.041 C 
ATOM      7  O   UNL     1       2.557   0.777  17.506  1.00  0.00    -0.550 OA
ATOM      8  O   UNL     1       4.020   0.570  19.257  1.00  0.00    -0.550 OA
ENDBRANCH   5   6
ENDBRANCH   4   5
ENDBRANCH   3   4
ENDBRANCH   2   3
ENDBRANCH   1   2
BRANCH   1   9
ATOM      9  C   UNL     1       6.898  -2.986  21.334  1.00  0.00     0.000 C 
BRANCH   9  10
ATOM     10  C   UNL     1       7.506  -4.079  20.430  1.00  0.00    -0.000 C 
BRANCH  10  11
ATOM     11  C   UNL     1       7.999  -5.336  21.169  1.00  0.00    -0.000 C 
BRANCH  11  12
ATOM     12  C   UNL     1       6.943  -6.454  21.210  1.00  0.00    -0.000 C 
BRANCH  12  13
ATOM     13  C   UNL     1       7.569  -7.847  21.370  1.00  0.00    -0.003 C 
ATOM     14  C   UNL     1       6.791  -8.735  22.341  1.00  0.00     0.004 C 
ENDBRANCH  12  13
ENDBRANCH  11  12
ENDBRANCH  10  11
ENDBRANCH   9  10
ENDBRANCH   1   9
TORSDOF 10
ENDMDL
MODEL 6
REMARK VINA RESULT:    -6.727      3.121      6.634
REMARK INTER + INTRA:         -11.351
REMARK INTER:                 -10.806
REMARK INTRA:                  -0.545
REMARK UNBOUND:                -0.691
REMARK SMILES CCCCCCCCCCCC(=O)[O-]
REMARK SMILES IDX 7 1 8 2 9 3 10 4 11 5 12 6 13 7 14 8 6 9 5 10 4 11 3 12 2 13
REMARK SMILES IDX 1 14
REMARK H PARENT
REMARK Flexibility Score: inf
ROOT
ATOM      1  C   UNL     1       6.502  -3.012  21.771  1.00  0.00     0.000 C 
ENDROOT
BRANCH   1   2
ATOM      2  C   UNL     1       6.004  -1.560  21.733  1.00  0.00     0.000 C 
BRANCH   2   3
ATOM      3  C   UNL     1       6.211  -0.944  20.344  1.00  0.00     0.000 C 
BRANCH   3   4
ATOM      4  C   UNL     1       5.000  -0.096  19.931  1.00  0.00     0.006 C 
BRANCH   4   5
ATOM      5  C   UNL     1       4.060  -0.849  18.981  1.00  0.00     0.053 C 
BRANCH   5   6
ATOM      6  C   UNL     1       3.491  -2.078  19.620  1.00  0.00     0.041 C 
ATOM      7  O   UNL     1       2.660  -1.976  20.560  1.00  0.00    -0.550 OA
ATOM      8  O   UNL     1       3.905  -3.336  19.200  1.00  0.00    -0.550 OA
ENDBRANCH   5   6
ENDBRANCH   4   5
ENDBRANCH   3   4
ENDBRANCH   2   3
ENDBRANCH   1   2
BRANCH   1   9
ATOM      9  C   UNL     1       7.212  -3.435  20.473  1.00  0.00     0.000 C 
BRANCH   9  10
ATOM     10  C   UNL     1       7.860  -4.835  20.508  1.00  0.00    -0.000 C 
BRANCH  10  11
ATOM     11  C   UNL     1       6.989  -5.939  21.132  1.00  0.00    -0.000 C 
BRANCH  11  12
ATOM     12  C   UNL     1       7.822  -7.064  21.770  1.00  0.00    -0.000 C 
BRANCH  12  13
ATOM     13  C   UNL     1       7.279  -8.461  21.434  1.00  0.00    -0.003 C 
ATOM     14  C   UNL     1       6.493  -9.081  22.588  1.00  0.00     0.004 C 
ENDBRANCH  12  13
ENDBRANCH  11  12
ENDBRANCH  10  11
ENDBRANCH   9  10
ENDBRANCH   1   9
TORSDOF 10
ENDMDL
MODEL 7
REMARK VINA RESULT:    -6.692      1.310      2.186
REMARK INTER + INTRA:         -11.295
REMARK INTER:                 -10.623
REMARK INTRA:                  -0.672
REMARK UNBOUND:                -0.691
REMARK SMILES CCCCCCCCCCCC(=O)[O-]
REMARK SMILES IDX 7 1 8 2 9 3 10 4 11 5 12 6 13 7 14 8 6 9 5 10 4 11 3 12 2 13
REMARK SMILES IDX 1 14
REMARK H PARENT
REMARK Flexibility Score: inf
ROOT
ATOM      1  C   UNL     1       6.127  -2.894  21.788  1.00  0.00     0.000 C 
ENDROOT
BRANCH   1   2
ATOM      2  C   UNL     1       6.882  -3.050  20.460  1.00  0.00     0.000 C 
BRANCH   2   3
ATOM      3  C   UNL     1       7.686  -4.356  20.435  1.00  0.00     0.000 C 
BRANCH   3   4
ATOM      4  C   UNL     1       6.894  -5.503  21.079  1.00  0.00     0.006 C 
BRANCH   4   5
ATOM      5  C   UNL     1       7.810  -6.579  21.676  1.00  0.00     0.053 C 
BRANCH   5   6
ATOM      6  C   UNL     1       7.183  -7.938  21.620  1.00  0.00     0.041 C 
ATOM      7  O   UNL     1       6.325  -8.274  22.478  1.00  0.00    -0.550 OA
ATOM      8  O   UNL     1       7.572  -8.844  20.642  1.00  0.00    -0.550 OA
ENDBRANCH   5   6
ENDBRANCH   4   5
ENDBRANCH   3   4
ENDBRANCH   2   3
ENDBRANCH   1   2
BRANCH   1   9
ATOM      9  C   UNL     1       4.637  -2.565  21.594  1.00  0.00     0.000 C 
BRANCH   9  10
ATOM     10  C   UNL     1       4.054  -2.954  20.220  1.00  0.00    -0.000 C 
BRANCH  10  11
ATOM     11  C   UNL     1       3.026  -1.963  19.645  1.00  0.00    -0.000 C 
BRANCH  11  12
ATOM     12  C   UNL     1       3.639  -0.589  19.324  1.00  0.00    -0.000 C 
BRANCH  12  13
ATOM     13  C   UNL     1       2.573   0.478  19.034  1.00  0.00    -0.003 C 
ATOM     14  C   UNL     1       1.163  -0.106  18.951  1.00  0.00     0.004 C 
ENDBRANCH  12  13
ENDBRANCH  11  12
ENDBRANCH  10  11
ENDBRANCH   9  10
ENDBRANCH   1   9
TORSDOF 10
ENDMDL
MODEL 8
REMARK VINA RESULT:    -6.513      2.777      4.461
REMARK INTER + INTRA:         -11.012
REMARK INTER:                 -10.450
REMARK INTRA:                  -0.562
REMARK UNBOUND:                -0.691
REMARK SMILES CCCCCCCCCCCC(=O)[O-]
REMARK SMILES IDX 7 1 8 2 9 3 10 4 11 5 12 6 13 7 14 8 6 9 5 10 4 11 3 12 2 13
REMARK SMILES IDX 1 14
REMARK H PARENT
REMARK Flexibility Score: inf
ROOT
ATOM      1  C   UNL     1       4.684  -0.630  19.780  1.00  0.00     0.000 C 
ENDROOT
BRANCH   1   2
ATOM      2  C   UNL     1       5.989  -1.251  20.297  1.00  0.00     0.000 C 
BRANCH   2   3
ATOM      3  C   UNL     1       5.834  -1.730  21.746  1.00  0.00     0.000 C 
BRANCH   3   4
ATOM      4  C   UNL     1       6.524  -3.086  21.955  1.00  0.00     0.006 C 
BRANCH   4   5
ATOM      5  C   UNL     1       5.726  -4.245  21.345  1.00  0.00     0.053 C 
BRANCH   5   6
ATOM      6  C   UNL     1       6.574  -5.097  20.452  1.00  0.00     0.041 C 
ATOM      7  O   UNL     1       6.935  -4.667  19.324  1.00  0.00    -0.550 OA
ATOM      8  O   UNL     1       6.938  -6.377  20.850  1.00  0.00    -0.550 OA
ENDBRANCH   5   6
ENDBRANCH   4   5
ENDBRANCH   3   4
ENDBRANCH   2   3
ENDBRANCH   1   2
BRANCH   1   9
ATOM      9  C   UNL     1       3.431  -1.380  20.266  1.00  0.00     0.000 C 
BRANCH   9  10
ATOM     10  C   UNL     1       2.223  -1.328  19.308  1.00  0.00    -0.000 C 
BRANCH  10  11
ATOM     11  C   UNL     1       1.567   0.057  19.163  1.00  0.00    -0.000 C 
BRANCH  11  12
ATOM     12  C   UNL     1       1.995   0.787  17.879  1.00  0.00    -0.000 C 
BRANCH  12  13
ATOM     13  C   UNL     1       0.875   1.663  17.299  1.00  0.00    -0.003 C 
ATOM     14  C   UNL     1       1.095   3.152  17.565  1.00  0.00     0.004 C 
ENDBRANCH  12  13
ENDBRANCH  11  12
ENDBRANCH  10  11
ENDBRANCH   9  10
ENDBRANCH   1   9
TORSDOF 10
ENDMDL
MODEL 9
REMARK VINA RESULT:    -5.754      3.707      7.007
REMARK INTER + INTRA:          -9.809
REMARK INTER:                  -9.149
REMARK INTRA:                  -0.660
REMARK UNBOUND:                -0.691
REMARK SMILES CCCCCCCCCCCC(=O)[O-]
REMARK SMILES IDX 7 1 8 2 9 3 10 4 11 5 12 6 13 7 14 8 6 9 5 10 4 11 3 12 2 13
REMARK SMILES IDX 1 14
REMARK H PARENT
REMARK Flexibility Score: inf
ROOT
ATOM      1  C   UNL     1       3.929  -3.036  19.385  1.00  0.00     0.000 C 
ENDROOT
BRANCH   1   2
ATOM      2  C   UNL     1       2.686  -2.377  20.000  1.00  0.00     0.000 C 
BRANCH   2   3
ATOM      3  C   UNL     1       2.604  -0.895  19.617  1.00  0.00     0.000 C 
BRANCH   3   4
ATOM      4  C   UNL     1       3.818  -0.474  18.776  1.00  0.00     0.006 C 
BRANCH   4   5
ATOM      5  C   UNL     1       4.579   0.701  19.401  1.00  0.00     0.053 C 
BRANCH   5   6
ATOM      6  C   UNL     1       5.863   0.261  20.034  1.00  0.00     0.041 C 
ATOM      7  O   UNL     1       6.960   0.725  19.628  1.00  0.00    -0.550 OA
ATOM      8  O   UNL     1       5.849  -0.689  21.048  1.00  0.00    -0.550 OA
ENDBRANCH   5   6
ENDBRANCH   4   5
ENDBRANCH   3   4
ENDBRANCH   2   3
ENDBRANCH   1   2
BRANCH   1   9
ATOM      9  C   UNL     1       4.799  -3.761  20.426  1.00  0.00     0.000 C 
BRANCH   9  10
ATOM     10  C   UNL     1       6.275  -3.961  20.021  1.00  0.00    -0.000 C 
BRANCH  10  11
ATOM     11  C   UNL     1       7.254  -4.137  21.195  1.00  0.00    -0.000 C 
BRANCH  11  12
ATOM     12  C   UNL     1       7.887  -5.538  21.236  1.00  0.00    -0.000 C 
BRANCH  12  13
ATOM     13  C   UNL     1       6.839  -6.659  21.183  1.00  0.00    -0.003 C 
ATOM     14  C   UNL     1       7.260  -7.897  21.975  1.00  0.00     0.004 C 
ENDBRANCH  12  13
ENDBRANCH  11  12
ENDBRANCH  10  11
ENDBRANCH   9  10
ENDBRANCH   1   9
TORSDOF 10
ENDMDL
