MODEL 1
REMARK VINA RESULT:    -3.290      0.000      0.000
REMARK INTER + INTRA:         -12.125
REMARK INTER:                  -8.291
REMARK INTRA:                  -3.834
REMARK UNBOUND:                -3.834
REMARK SMILES CCCCCCCCCCCCCCCCCCCCCCCCCCCC(=O)[O-]
REMARK SMILES IDX 15 1 16 2 17 3 18 4 19 5 20 6 21 7 22 8 23 9 24 10 25 11
REMARK SMILES IDX 26 12 27 13 28 14 29 15 30 16 14 17 13 18 12 19 11 20 10 21
REMARK SMILES IDX 9 22 8 23 7 24 6 25 5 26 4 27 3 28 2 29 1 30
REMARK H PARENT
REMARK Flexibility Score: inf
ROOT
ATOM      1  C   UNL     1      -4.319  -3.936   5.374  1.00  0.00     0.000 C 
ENDROOT
BRANCH   1   2
ATOM      2  C   UNL     1      -5.066  -2.744   6.006  1.00  0.00     0.000 C 
BRANCH   2   3
ATOM      3  C   UNL     1      -6.048  -3.182   7.104  1.00  0.00     0.000 C 
BRANCH   3   4
ATOM      4  C   UNL     1      -5.634  -2.658   8.494  1.00  0.00     0.000 C 
BRANCH   4   5
ATOM      5  C   UNL     1      -5.931  -3.667   9.624  1.00  0.00     0.000 C 
BRANCH   5   6
ATOM      6  C   UNL     1      -6.904  -4.801   9.211  1.00  0.00     0.000 C 
BRANCH   6   7
ATOM      7  C   UNL     1      -8.330  -4.612   9.755  1.00  0.00     0.000 C 
BRANCH   7   8
ATOM      8  C   UNL     1      -9.169  -3.647   8.885  1.00  0.00     0.000 C 
BRANCH   8   9
ATOM      9  C   UNL     1      -9.720  -2.454   9.690  1.00  0.00     0.000 C 
BRANCH   9  10
ATOM     10  C   UNL     1      -8.701  -1.310   9.870  1.00  0.00     0.000 C 
BRANCH  10  11
ATOM     11  C   UNL     1      -9.380   0.070   9.954  1.00  0.00     0.000 C 
BRANCH  11  12
ATOM     12  C   UNL     1      -9.109   0.948   8.720  1.00  0.00     0.006 C 
BRANCH  12  13
ATOM     13  C   UNL     1      -9.843   2.301   8.776  1.00  0.00     0.053 C 
BRANCH  13  14
ATOM     14  C   UNL     1      -9.093   3.359   8.024  1.00  0.00     0.041 C 
ATOM     15  O   UNL     1      -7.864   3.555   8.242  1.00  0.00    -0.550 OA
ATOM     16  O   UNL     1      -9.750   4.128   7.074  1.00  0.00    -0.550 OA
ENDBRANCH  13  14
ENDBRANCH  12  13
ENDBRANCH  11  12
ENDBRANCH  10  11
ENDBRANCH   9  10
ENDBRANCH   8   9
ENDBRANCH   7   8
ENDBRANCH   6   7
ENDBRANCH   5   6
ENDBRANCH   4   5
ENDBRANCH   3   4
ENDBRANCH   2   3
ENDBRANCH   1   2
BRANCH   1  17
ATOM     17  C   UNL     1      -4.147  -5.120   6.345  1.00  0.00     0.000 C 
BRANCH  17  18
ATOM     18  C   UNL     1      -4.798  -6.442   5.888  1.00  0.00     0.000 C 
BRANCH  18  19
ATOM     19  C   UNL     1      -6.245  -6.317   5.367  1.00  0.00     0.000 C 
BRANCH  19  20
ATOM     20  C   UNL     1      -7.300  -6.650   6.434  1.00  0.00     0.000 C 
BRANCH  20  21
ATOM     21  C   UNL     1      -8.693  -6.173   6.002  1.00  0.00     0.000 C 
BRANCH  21  22
ATOM     22  C   UNL     1      -9.356  -7.188   5.063  1.00  0.00    -0.000 C 
BRANCH  22  23
ATOM     23  C   UNL     1     -10.069  -8.290   5.859  1.00  0.00    -0.000 C 
BRANCH  23  24
ATOM     24  C   UNL     1      -9.128  -9.431   6.283  1.00  0.00    -0.000 C 
BRANCH  24  25
ATOM     25  C   UNL     1      -9.475 -10.093   7.635  1.00  0.00    -0.000 C 
BRANCH  25  26
ATOM     26  C   UNL     1      -9.951  -9.120   8.731  1.00  0.00    -0.000 C 
BRANCH  26  27
ATOM     27  C   UNL     1      -8.840  -8.251   9.355  1.00  0.00    -0.000 C 
BRANCH  27  28
ATOM     28  C   UNL     1      -7.613  -9.025   9.876  1.00  0.00    -0.000 C 
BRANCH  28  29
ATOM     29  C   UNL     1      -6.314  -8.787   9.084  1.00  0.00    -0.003 C 
ATOM     30  C   UNL     1      -5.053  -8.943   9.937  1.00  0.00     0.004 C 
ENDBRANCH  28  29
ENDBRANCH  27  28
ENDBRANCH  26  27
ENDBRANCH  25  26
ENDBRANCH  24  25
ENDBRANCH  23  24
ENDBRANCH  22  23
ENDBRANCH  21  22
ENDBRANCH  20  21
ENDBRANCH  19  20
ENDBRANCH  18  19
ENDBRANCH  17  18
ENDBRANCH   1  17
TORSDOF 26
ENDMDL
MODEL 2
REMARK VINA RESULT:    -2.895      1.311      2.120
REMARK INTER + INTRA:         -11.128
REMARK INTER:                  -8.206
REMARK INTRA:                  -2.923
REMARK UNBOUND:                -3.834
REMARK SMILES CCCCCCCCCCCCCCCCCCCCCCCCCCCC(=O)[O-]
REMARK SMILES IDX 15 1 16 2 17 3 18 4 19 5 20 6 21 7 22 8 23 9 24 10 25 11
REMARK SMILES IDX 26 12 27 13 28 14 29 15 30 16 14 17 13 18 12 19 11 20 10 21
REMARK SMILES IDX 9 22 8 23 7 24 6 25 5 26 4 27 3 28 2 29 1 30
REMARK H PARENT
REMARK Flexibility Score: inf
ROOT
ATOM      1  C   UNL     1      -4.114  -3.494   5.075  1.00  0.00     0.000 C 
ENDROOT
BRANCH   1   2
ATOM      2  C   UNL     1      -4.913  -2.328   5.691  1.00  0.00     0.000 C 
BRANCH   2   3
ATOM      3  C   UNL     1      -6.041  -2.814   6.615  1.00  0.00     0.000 C 
BRANCH   3   4
ATOM      4  C   UNL     1      -5.800  -2.414   8.084  1.00  0.00     0.000 C 
BRANCH   4   5
ATOM      5  C   UNL     1      -6.863  -2.996   9.042  1.00  0.00     0.000 C 
BRANCH   5   6
ATOM      6  C   UNL     1      -8.051  -3.680   8.320  1.00  0.00     0.000 C 
BRANCH   6   7
ATOM      7  C   UNL     1      -9.391  -2.952   8.524  1.00  0.00     0.000 C 
BRANCH   7   8
ATOM      8  C   UNL     1      -9.485  -1.648   7.698  1.00  0.00     0.000 C 
BRANCH   8   9
ATOM      9  C   UNL     1      -9.826  -0.422   8.568  1.00  0.00     0.000 C 
BRANCH   9  10
ATOM     10  C   UNL     1      -8.732  -0.076   9.599  1.00  0.00     0.000 C 
BRANCH  10  11
ATOM     11  C   UNL     1      -8.856   1.370  10.118  1.00  0.00     0.000 C 
BRANCH  11  12
ATOM     12  C   UNL     1     -10.105   2.094   9.586  1.00  0.00     0.006 C 
BRANCH  12  13
ATOM     13  C   UNL     1      -9.821   3.549   9.171  1.00  0.00     0.053 C 
BRANCH  13  14
ATOM     14  C   UNL     1      -8.777   3.617   8.097  1.00  0.00     0.041 C 
ATOM     15  O   UNL     1      -9.095   3.484   6.881  1.00  0.00    -0.550 OA
ATOM     16  O   UNL     1      -7.450   3.835   8.437  1.00  0.00    -0.550 OA
ENDBRANCH  13  14
ENDBRANCH  12  13
ENDBRANCH  11  12
ENDBRANCH  10  11
ENDBRANCH   9  10
ENDBRANCH   8   9
ENDBRANCH   7   8
ENDBRANCH   6   7
ENDBRANCH   5   6
ENDBRANCH   4   5
ENDBRANCH   3   4
ENDBRANCH   2   3
ENDBRANCH   1   2
BRANCH   1  17
ATOM     17  C   UNL     1      -3.958  -4.689   6.035  1.00  0.00     0.000 C 
BRANCH  17  18
ATOM     18  C   UNL     1      -4.548  -6.020   5.526  1.00  0.00     0.000 C 
BRANCH  18  19
ATOM     19  C   UNL     1      -6.032  -5.963   5.104  1.00  0.00     0.000 C 
BRANCH  19  20
ATOM     20  C   UNL     1      -6.999  -6.226   6.269  1.00  0.00     0.000 C 
BRANCH  20  21
ATOM     21  C   UNL     1      -8.366  -6.701   5.757  1.00  0.00     0.000 C 
BRANCH  21  22
ATOM     22  C   UNL     1      -8.550  -8.204   5.995  1.00  0.00    -0.000 C 
BRANCH  22  23
ATOM     23  C   UNL     1      -7.791  -8.659   7.249  1.00  0.00    -0.000 C 
BRANCH  23  24
ATOM     24  C   UNL     1      -6.359  -9.135   6.947  1.00  0.00    -0.000 C 
BRANCH  24  25
ATOM     25  C   UNL     1      -5.644  -9.832   8.125  1.00  0.00    -0.000 C 
BRANCH  25  26
ATOM     26  C   UNL     1      -6.222  -9.512   9.518  1.00  0.00    -0.000 C 
BRANCH  26  27
ATOM     27  C   UNL     1      -6.230  -8.015   9.888  1.00  0.00    -0.000 C 
BRANCH  27  28
ATOM     28  C   UNL     1      -4.841  -7.387  10.124  1.00  0.00    -0.000 C 
BRANCH  28  29
ATOM     29  C   UNL     1      -4.435  -6.312   9.099  1.00  0.00    -0.003 C 
ATOM     30  C   UNL     1      -3.822  -5.068   9.744  1.00  0.00     0.004 C 
ENDBRANCH  28  29
ENDBRANCH  27  28
ENDBRANCH  26  27
ENDBRANCH  25  26
ENDBRANCH  24  25
ENDBRANCH  23  24
ENDBRANCH  22  23
ENDBRANCH  21  22
ENDBRANCH  20  21
ENDBRANCH  19  20
ENDBRANCH  18  19
ENDBRANCH  17  18
ENDBRANCH   1  17
TORSDOF 26
ENDMDL
MODEL 3
REMARK VINA RESULT:    -2.563      2.757      8.632
REMARK INTER + INTRA:         -10.293
REMARK INTER:                  -7.784
REMARK INTRA:                  -2.509
REMARK UNBOUND:                -3.834
REMARK SMILES CCCCCCCCCCCCCCCCCCCCCCCCCCCC(=O)[O-]
REMARK SMILES IDX 15 1 16 2 17 3 18 4 19 5 20 6 21 7 22 8 23 9 24 10 25 11
REMARK SMILES IDX 26 12 27 13 28 14 29 15 30 16 14 17 13 18 12 19 11 20 10 21
REMARK SMILES IDX 9 22 8 23 7 24 6 25 5 26 4 27 3 28 2 29 1 30
REMARK H PARENT
REMARK Flexibility Score: inf
ROOT
ATOM      1  C   UNL     1      -5.503  -6.163   9.207  1.00  0.00     0.000 C 
ENDROOT
BRANCH   1   2
ATOM      2  C   UNL     1      -5.683  -7.390  10.123  1.00  0.00     0.000 C 
BRANCH   2   3
ATOM      3  C   UNL     1      -4.937  -8.628   9.600  1.00  0.00     0.000 C 
BRANCH   3   4
ATOM      4  C   UNL     1      -5.064  -8.778   8.070  1.00  0.00     0.000 C 
BRANCH   4   5
ATOM      5  C   UNL     1      -6.054  -9.891   7.662  1.00  0.00     0.000 C 
BRANCH   5   6
ATOM      6  C   UNL     1      -6.643  -9.716   6.240  1.00  0.00     0.000 C 
BRANCH   6   7
ATOM      7  C   UNL     1      -8.177  -9.601   6.223  1.00  0.00     0.000 C 
BRANCH   7   8
ATOM      8  C   UNL     1      -8.658  -8.142   6.051  1.00  0.00     0.000 C 
BRANCH   8   9
ATOM      9  C   UNL     1      -7.669  -7.121   6.646  1.00  0.00     0.000 C 
BRANCH   9  10
ATOM     10  C   UNL     1      -7.349  -5.948   5.697  1.00  0.00     0.000 C 
BRANCH  10  11
ATOM     11  C   UNL     1      -6.040  -6.170   4.914  1.00  0.00     0.000 C 
BRANCH  11  12
ATOM     12  C   UNL     1      -4.788  -6.094   5.805  1.00  0.00     0.006 C 
BRANCH  12  13
ATOM     13  C   UNL     1      -4.579  -4.700   6.424  1.00  0.00     0.053 C 
BRANCH  13  14
ATOM     14  C   UNL     1      -4.249  -3.681   5.374  1.00  0.00     0.041 C 
ATOM     15  O   UNL     1      -4.869  -2.580   5.329  1.00  0.00    -0.550 OA
ATOM     16  O   UNL     1      -3.250  -3.941   4.447  1.00  0.00    -0.550 OA
ENDBRANCH  13  14
ENDBRANCH  12  13
ENDBRANCH  11  12
ENDBRANCH  10  11
ENDBRANCH   9  10
ENDBRANCH   8   9
ENDBRANCH   7   8
ENDBRANCH   6   7
ENDBRANCH   5   6
ENDBRANCH   4   5
ENDBRANCH   3   4
ENDBRANCH   2   3
ENDBRANCH   1   2
BRANCH   1  17
ATOM     17  C   UNL     1      -6.743  -5.248   9.178  1.00  0.00     0.000 C 
BRANCH  17  18
ATOM     18  C   UNL     1      -6.464  -3.758   9.466  1.00  0.00     0.000 C 
BRANCH  18  19
ATOM     19  C   UNL     1      -7.670  -2.815   9.277  1.00  0.00     0.000 C 
BRANCH  19  20
ATOM     20  C   UNL     1      -8.244  -2.850   7.851  1.00  0.00     0.000 C 
BRANCH  20  21
ATOM     21  C   UNL     1      -8.721  -1.459   7.413  1.00  0.00     0.000 C 
BRANCH  21  22
ATOM     22  C   UNL     1      -9.919  -0.998   8.253  1.00  0.00    -0.000 C 
BRANCH  22  23
ATOM     23  C   UNL     1      -9.846   0.509   8.532  1.00  0.00    -0.000 C 
BRANCH  23  24
ATOM     24  C   UNL     1      -9.294   1.316   7.344  1.00  0.00    -0.000 C 
BRANCH  24  25
ATOM     25  C   UNL     1      -9.526   2.841   7.428  1.00  0.00    -0.000 C 
BRANCH  25  26
ATOM     26  C   UNL     1     -10.111   3.335   8.766  1.00  0.00    -0.000 C 
BRANCH  26  27
ATOM     27  C   UNL     1      -9.423   4.583   9.355  1.00  0.00    -0.000 C 
BRANCH  27  28
ATOM     28  C   UNL     1      -8.101   4.315  10.102  1.00  0.00    -0.000 C 
BRANCH  28  29
ATOM     29  C   UNL     1      -6.912   5.181   9.646  1.00  0.00    -0.003 C 
ATOM     30  C   UNL     1      -5.612   4.388   9.498  1.00  0.00     0.004 C 
ENDBRANCH  28  29
ENDBRANCH  27  28
ENDBRANCH  26  27
ENDBRANCH  25  26
ENDBRANCH  24  25
ENDBRANCH  23  24
ENDBRANCH  22  23
ENDBRANCH  21  22
ENDBRANCH  20  21
ENDBRANCH  19  20
ENDBRANCH  18  19
ENDBRANCH  17  18
ENDBRANCH   1  17
TORSDOF 26
ENDMDL
MODEL 4
REMARK VINA RESULT:    -2.455      1.278      2.924
REMARK INTER + INTRA:         -10.021
REMARK INTER:                  -6.484
REMARK INTRA:                  -3.537
REMARK UNBOUND:                -3.834
REMARK SMILES CCCCCCCCCCCCCCCCCCCCCCCCCCCC(=O)[O-]
REMARK SMILES IDX 15 1 16 2 17 3 18 4 19 5 20 6 21 7 22 8 23 9 24 10 25 11
REMARK SMILES IDX 26 12 27 13 28 14 29 15 30 16 14 17 13 18 12 19 11 20 10 21
REMARK SMILES IDX 9 22 8 23 7 24 6 25 5 26 4 27 3 28 2 29 1 30
REMARK H PARENT
REMARK Flexibility Score: inf
ROOT
ATOM      1  C   UNL     1      -3.818  -4.515   5.631  1.00  0.00     0.000 C 
ENDROOT
BRANCH   1   2
ATOM      2  C   UNL     1      -5.057  -3.599   5.678  1.00  0.00     0.000 C 
BRANCH   2   3
ATOM      3  C   UNL     1      -5.045  -2.657   6.893  1.00  0.00     0.000 C 
BRANCH   3   4
ATOM      4  C   UNL     1      -6.389  -2.670   7.650  1.00  0.00     0.000 C 
BRANCH   4   5
ATOM      5  C   UNL     1      -6.208  -2.631   9.183  1.00  0.00     0.000 C 
BRANCH   5   6
ATOM      6  C   UNL     1      -6.823  -3.849   9.917  1.00  0.00     0.000 C 
BRANCH   6   7
ATOM      7  C   UNL     1      -8.354  -3.772  10.055  1.00  0.00     0.000 C 
BRANCH   7   8
ATOM      8  C   UNL     1      -8.971  -2.670   9.162  1.00  0.00     0.000 C 
BRANCH   8   9
ATOM      9  C   UNL     1     -10.125  -1.924   9.859  1.00  0.00     0.000 C 
BRANCH   9  10
ATOM     10  C   UNL     1      -9.828  -0.433  10.115  1.00  0.00     0.000 C 
BRANCH  10  11
ATOM     11  C   UNL     1      -8.333  -0.096   9.942  1.00  0.00     0.000 C 
BRANCH  11  12
ATOM     12  C   UNL     1      -8.093   1.095   8.999  1.00  0.00     0.006 C 
BRANCH  12  13
ATOM     13  C   UNL     1      -7.329   2.248   9.675  1.00  0.00     0.053 C 
BRANCH  13  14
ATOM     14  C   UNL     1      -7.647   3.564   9.033  1.00  0.00     0.041 C 
ATOM     15  O   UNL     1      -8.842   3.875   8.760  1.00  0.00    -0.550 OA
ATOM     16  O   UNL     1      -6.626   4.456   8.740  1.00  0.00    -0.550 OA
ENDBRANCH  13  14
ENDBRANCH  12  13
ENDBRANCH  11  12
ENDBRANCH  10  11
ENDBRANCH   9  10
ENDBRANCH   8   9
ENDBRANCH   7   8
ENDBRANCH   6   7
ENDBRANCH   5   6
ENDBRANCH   4   5
ENDBRANCH   3   4
ENDBRANCH   2   3
ENDBRANCH   1   2
BRANCH   1  17
ATOM     17  C   UNL     1      -4.160  -6.000   5.859  1.00  0.00     0.000 C 
BRANCH  17  18
ATOM     18  C   UNL     1      -5.663  -6.342   5.806  1.00  0.00     0.000 C 
BRANCH  18  19
ATOM     19  C   UNL     1      -6.347  -6.514   7.178  1.00  0.00     0.000 C 
BRANCH  19  20
ATOM     20  C   UNL     1      -5.355  -6.507   8.351  1.00  0.00     0.000 C 
BRANCH  20  21
ATOM     21  C   UNL     1      -5.830  -7.427   9.484  1.00  0.00     0.000 C 
BRANCH  21  22
ATOM     22  C   UNL     1      -5.202  -8.820   9.361  1.00  0.00    -0.000 C 
BRANCH  22  23
ATOM     23  C   UNL     1      -6.282  -9.910   9.332  1.00  0.00    -0.000 C 
BRANCH  23  24
ATOM     24  C   UNL     1      -6.910 -10.098   7.939  1.00  0.00    -0.000 C 
BRANCH  24  25
ATOM     25  C   UNL     1      -8.343  -9.541   7.790  1.00  0.00    -0.000 C 
BRANCH  25  26
ATOM     26  C   UNL     1      -8.736  -9.138   6.355  1.00  0.00    -0.000 C 
BRANCH  26  27
ATOM     27  C   UNL     1      -9.898  -8.128   6.259  1.00  0.00    -0.000 C 
BRANCH  27  28
ATOM     28  C   UNL     1     -10.122  -7.260   7.514  1.00  0.00    -0.000 C 
BRANCH  28  29
ATOM     29  C   UNL     1     -10.071  -5.741   7.267  1.00  0.00    -0.003 C 
ATOM     30  C   UNL     1      -9.396  -5.369   5.945  1.00  0.00     0.004 C 
ENDBRANCH  28  29
ENDBRANCH  27  28
ENDBRANCH  26  27
ENDBRANCH  25  26
ENDBRANCH  24  25
ENDBRANCH  23  24
ENDBRANCH  22  23
ENDBRANCH  21  22
ENDBRANCH  20  21
ENDBRANCH  19  20
ENDBRANCH  18  19
ENDBRANCH  17  18
ENDBRANCH   1  17
TORSDOF 26
ENDMDL
MODEL 5
REMARK VINA RESULT:    -2.452      1.518      3.690
REMARK INTER + INTRA:         -10.012
REMARK INTER:                  -6.743
REMARK INTRA:                  -3.268
REMARK UNBOUND:                -3.834
REMARK SMILES CCCCCCCCCCCCCCCCCCCCCCCCCCCC(=O)[O-]
REMARK SMILES IDX 15 1 16 2 17 3 18 4 19 5 20 6 21 7 22 8 23 9 24 10 25 11
REMARK SMILES IDX 26 12 27 13 28 14 29 15 30 16 14 17 13 18 12 19 11 20 10 21
REMARK SMILES IDX 9 22 8 23 7 24 6 25 5 26 4 27 3 28 2 29 1 30
REMARK H PARENT
REMARK Flexibility Score: inf
ROOT
ATOM      1  C   UNL     1      -6.315  -7.718   8.860  1.00  0.00     0.000 C 
ENDROOT
BRANCH   1   2
ATOM      2  C   UNL     1      -5.862  -6.274   8.566  1.00  0.00     0.000 C 
BRANCH   2   3
ATOM      3  C   UNL     1      -4.808  -5.775   9.569  1.00  0.00     0.000 C 
BRANCH   3   4
ATOM      4  C   UNL     1      -5.064  -4.317  10.000  1.00  0.00     0.000 C 
BRANCH   4   5
ATOM      5  C   UNL     1      -5.006  -3.326   8.817  1.00  0.00     0.000 C 
BRANCH   5   6
ATOM      6  C   UNL     1      -5.794  -2.014   9.058  1.00  0.00     0.000 C 
BRANCH   6   7
ATOM      7  C   UNL     1      -6.921  -2.159  10.095  1.00  0.00     0.000 C 
BRANCH   7   8
ATOM      8  C   UNL     1      -8.223  -2.719   9.477  1.00  0.00     0.000 C 
BRANCH   8   9
ATOM      9  C   UNL     1      -9.301  -1.634   9.289  1.00  0.00     0.000 C 
BRANCH   9  10
ATOM     10  C   UNL     1      -9.032  -0.699   8.093  1.00  0.00     0.000 C 
BRANCH  10  11
ATOM     11  C   UNL     1      -9.466   0.753   8.376  1.00  0.00     0.000 C 
BRANCH  11  12
ATOM     12  C   UNL     1      -9.193   1.187   9.827  1.00  0.00     0.006 C 
BRANCH  12  13
ATOM     13  C   UNL     1      -8.940   2.700   9.960  1.00  0.00     0.053 C 
BRANCH  13  14
ATOM     14  C   UNL     1      -7.580   3.073   9.452  1.00  0.00     0.041 C 
ATOM     15  O   UNL     1      -6.667   2.203   9.358  1.00  0.00    -0.550 OA
ATOM     16  O   UNL     1      -7.319   4.382   9.073  1.00  0.00    -0.550 OA
ENDBRANCH  13  14
ENDBRANCH  12  13
ENDBRANCH  11  12
ENDBRANCH  10  11
ENDBRANCH   9  10
ENDBRANCH   8   9
ENDBRANCH   7   8
ENDBRANCH   6   7
ENDBRANCH   5   6
ENDBRANCH   4   5
ENDBRANCH   3   4
ENDBRANCH   2   3
ENDBRANCH   1   2
BRANCH   1  17
ATOM     17  C   UNL     1      -5.391  -8.778   8.228  1.00  0.00     0.000 C 
BRANCH  17  18
ATOM     18  C   UNL     1      -6.114  -9.897   7.451  1.00  0.00     0.000 C 
BRANCH  18  19
ATOM     19  C   UNL     1      -7.431  -9.477   6.765  1.00  0.00     0.000 C 
BRANCH  19  20
ATOM     20  C   UNL     1      -8.673 -10.125   7.399  1.00  0.00     0.000 C 
BRANCH  20  21
ATOM     21  C   UNL     1      -9.959  -9.439   6.920  1.00  0.00     0.000 C 
BRANCH  21  22
ATOM     22  C   UNL     1      -9.676  -8.498   5.743  1.00  0.00    -0.000 C 
BRANCH  22  23
ATOM     23  C   UNL     1     -10.125  -7.066   6.063  1.00  0.00    -0.000 C 
BRANCH  23  24
ATOM     24  C   UNL     1      -9.265  -6.393   7.147  1.00  0.00    -0.000 C 
BRANCH  24  25
ATOM     25  C   UNL     1      -8.865  -4.932   6.846  1.00  0.00    -0.000 C 
BRANCH  25  26
ATOM     26  C   UNL     1      -7.573  -4.769   6.021  1.00  0.00    -0.000 C 
BRANCH  26  27
ATOM     27  C   UNL     1      -6.890  -6.091   5.616  1.00  0.00    -0.000 C 
BRANCH  27  28
ATOM     28  C   UNL     1      -5.520  -5.941   4.925  1.00  0.00    -0.000 C 
BRANCH  28  29
ATOM     29  C   UNL     1      -4.455  -5.201   5.754  1.00  0.00    -0.003 C 
ATOM     30  C   UNL     1      -3.927  -3.940   5.067  1.00  0.00     0.004 C 
ENDBRANCH  28  29
ENDBRANCH  27  28
ENDBRANCH  26  27
ENDBRANCH  25  26
ENDBRANCH  24  25
ENDBRANCH  23  24
ENDBRANCH  22  23
ENDBRANCH  21  22
ENDBRANCH  20  21
ENDBRANCH  19  20
ENDBRANCH  18  19
ENDBRANCH  17  18
ENDBRANCH   1  17
TORSDOF 26
ENDMDL
MODEL 6
REMARK VINA RESULT:    -2.437      3.076      7.198
REMARK INTER + INTRA:          -9.974
REMARK INTER:                  -6.433
REMARK INTRA:                  -3.542
REMARK UNBOUND:                -3.834
REMARK SMILES CCCCCCCCCCCCCCCCCCCCCCCCCCCC(=O)[O-]
REMARK SMILES IDX 15 1 16 2 17 3 18 4 19 5 20 6 21 7 22 8 23 9 24 10 25 11
REMARK SMILES IDX 26 12 27 13 28 14 29 15 30 16 14 17 13 18 12 19 11 20 10 21
REMARK SMILES IDX 9 22 8 23 7 24 6 25 5 26 4 27 3 28 2 29 1 30
REMARK H PARENT
REMARK Flexibility Score: inf
ROOT
ATOM      1  C   UNL     1      -4.655  -5.987   5.628  1.00  0.00     0.000 C 
ENDROOT
BRANCH   1   2
ATOM      2  C   UNL     1      -5.919  -6.870   5.650  1.00  0.00     0.000 C 
BRANCH   2   3
ATOM      3  C   UNL     1      -5.596  -8.351   5.903  1.00  0.00     0.000 C 
BRANCH   3   4
ATOM      4  C   UNL     1      -6.867  -9.187   6.155  1.00  0.00     0.000 C 
BRANCH   4   5
ATOM      5  C   UNL     1      -6.731 -10.125   7.375  1.00  0.00     0.000 C 
BRANCH   5   6
ATOM      6  C   UNL     1      -5.796  -9.580   8.484  1.00  0.00     0.000 C 
BRANCH   6   7
ATOM      7  C   UNL     1      -6.186  -8.176   8.977  1.00  0.00     0.000 C 
BRANCH   7   8
ATOM      8  C   UNL     1      -7.259  -8.219  10.090  1.00  0.00     0.000 C 
BRANCH   8   9
ATOM      9  C   UNL     1      -8.022  -9.557  10.122  1.00  0.00     0.000 C 
BRANCH   9  10
ATOM     10  C   UNL     1      -9.555  -9.393  10.082  1.00  0.00     0.000 C 
BRANCH  10  11
ATOM     11  C   UNL     1      -9.981  -8.020   9.526  1.00  0.00     0.000 C 
BRANCH  11  12
ATOM     12  C   UNL     1     -10.123  -8.011   7.994  1.00  0.00     0.006 C 
BRANCH  12  13
ATOM     13  C   UNL     1     -10.050  -6.595   7.396  1.00  0.00     0.053 C 
BRANCH  13  14
ATOM     14  C   UNL     1      -9.799  -6.639   5.918  1.00  0.00     0.041 C 
ATOM     15  O   UNL     1      -9.823  -5.579   5.229  1.00  0.00    -0.550 OA
ATOM     16  O   UNL     1      -9.531  -7.851   5.298  1.00  0.00    -0.550 OA
ENDBRANCH  13  14
ENDBRANCH  12  13
ENDBRANCH  11  12
ENDBRANCH  10  11
ENDBRANCH   9  10
ENDBRANCH   8   9
ENDBRANCH   7   8
ENDBRANCH   6   7
ENDBRANCH   5   6
ENDBRANCH   4   5
ENDBRANCH   3   4
ENDBRANCH   2   3
ENDBRANCH   1   2
BRANCH   1  17
ATOM     17  C   UNL     1      -4.874  -4.641   4.910  1.00  0.00     0.000 C 
BRANCH  17  18
ATOM     18  C   UNL     1      -4.194  -3.427   5.574  1.00  0.00     0.000 C 
BRANCH  18  19
ATOM     19  C   UNL     1      -5.149  -2.300   6.020  1.00  0.00     0.000 C 
BRANCH  19  20
ATOM     20  C   UNL     1      -6.067  -2.713   7.182  1.00  0.00     0.000 C 
BRANCH  20  21
ATOM     21  C   UNL     1      -5.266  -3.378   8.309  1.00  0.00     0.000 C 
BRANCH  21  22
ATOM     22  C   UNL     1      -6.011  -4.596   8.868  1.00  0.00    -0.000 C 
BRANCH  22  23
ATOM     23  C   UNL     1      -7.509  -4.519   8.547  1.00  0.00    -0.000 C 
BRANCH  23  24
ATOM     24  C   UNL     1      -8.386  -4.350   9.800  1.00  0.00    -0.000 C 
BRANCH  24  25
ATOM     25  C   UNL     1      -9.642  -3.473   9.601  1.00  0.00    -0.000 C 
BRANCH  25  26
ATOM     26  C   UNL     1      -9.413  -2.187   8.783  1.00  0.00    -0.000 C 
BRANCH  26  27
ATOM     27  C   UNL     1      -9.234  -0.906   9.623  1.00  0.00    -0.000 C 
BRANCH  27  28
ATOM     28  C   UNL     1      -7.994  -0.058   9.275  1.00  0.00    -0.000 C 
BRANCH  28  29
ATOM     29  C   UNL     1      -8.236   1.463   9.250  1.00  0.00    -0.003 C 
ATOM     30  C   UNL     1      -7.233   2.245  10.100  1.00  0.00     0.004 C 
ENDBRANCH  28  29
ENDBRANCH  27  28
ENDBRANCH  26  27
ENDBRANCH  25  26
ENDBRANCH  24  25
ENDBRANCH  23  24
ENDBRANCH  22  23
ENDBRANCH  21  22
ENDBRANCH  20  21
ENDBRANCH  19  20
ENDBRANCH  18  19
ENDBRANCH  17  18
ENDBRANCH   1  17
TORSDOF 26
ENDMDL
MODEL 7
REMARK VINA RESULT:    -2.105      1.532      3.022
REMARK INTER + INTRA:          -9.138
REMARK INTER:                  -6.380
REMARK INTRA:                  -2.758
REMARK UNBOUND:                -3.834
REMARK SMILES CCCCCCCCCCCCCCCCCCCCCCCCCCCC(=O)[O-]
REMARK SMILES IDX 15 1 16 2 17 3 18 4 19 5 20 6 21 7 22 8 23 9 24 10 25 11
REMARK SMILES IDX 26 12 27 13 28 14 29 15 30 16 14 17 13 18 12 19 11 20 10 21
REMARK SMILES IDX 9 22 8 23 7 24 6 25 5 26 4 27 3 28 2 29 1 30
REMARK H PARENT
REMARK Flexibility Score: inf
ROOT
ATOM      1  C   UNL     1      -3.995  -4.921   7.279  1.00  0.00     0.000 C 
ENDROOT
BRANCH   1   2
ATOM      2  C   UNL     1      -4.503  -6.024   6.328  1.00  0.00     0.000 C 
BRANCH   2   3
ATOM      3  C   UNL     1      -5.715  -5.571   5.499  1.00  0.00     0.000 C 
BRANCH   3   4
ATOM      4  C   UNL     1      -6.748  -4.806   6.351  1.00  0.00     0.000 C 
BRANCH   4   5
ATOM      5  C   UNL     1      -6.264  -3.392   6.744  1.00  0.00     0.000 C 
BRANCH   5   6
ATOM      6  C   UNL     1      -6.910  -2.847   8.042  1.00  0.00     0.000 C 
BRANCH   6   7
ATOM      7  C   UNL     1      -8.275  -3.482   8.360  1.00  0.00     0.000 C 
BRANCH   7   8
ATOM      8  C   UNL     1      -9.372  -2.422   8.619  1.00  0.00     0.000 C 
BRANCH   8   9
ATOM      9  C   UNL     1      -9.073  -1.554   9.857  1.00  0.00     0.000 C 
BRANCH   9  10
ATOM     10  C   UNL     1     -10.101  -0.426  10.080  1.00  0.00     0.000 C 
BRANCH  10  11
ATOM     11  C   UNL     1      -9.520   0.965   9.762  1.00  0.00     0.000 C 
BRANCH  11  12
ATOM     12  C   UNL     1      -7.987   1.015   9.877  1.00  0.00     0.006 C 
BRANCH  12  13
ATOM     13  C   UNL     1      -7.452   2.437  10.125  1.00  0.00     0.053 C 
BRANCH  13  14
ATOM     14  C   UNL     1      -8.064   3.424   9.177  1.00  0.00     0.041 C 
ATOM     15  O   UNL     1      -7.900   3.304   7.929  1.00  0.00    -0.550 OA
ATOM     16  O   UNL     1      -8.824   4.475   9.669  1.00  0.00    -0.550 OA
ENDBRANCH  13  14
ENDBRANCH  12  13
ENDBRANCH  11  12
ENDBRANCH  10  11
ENDBRANCH   9  10
ENDBRANCH   8   9
ENDBRANCH   7   8
ENDBRANCH   6   7
ENDBRANCH   5   6
ENDBRANCH   4   5
ENDBRANCH   3   4
ENDBRANCH   2   3
ENDBRANCH   1   2
BRANCH   1  17
ATOM     17  C   UNL     1      -3.332  -5.484   8.552  1.00  0.00     0.000 C 
BRANCH  17  18
ATOM     18  C   UNL     1      -4.308  -5.876   9.680  1.00  0.00     0.000 C 
BRANCH  18  19
ATOM     19  C   UNL     1      -5.712  -6.315   9.212  1.00  0.00     0.000 C 
BRANCH  19  20
ATOM     20  C   UNL     1      -6.345  -7.378  10.125  1.00  0.00     0.000 C 
BRANCH  20  21
ATOM     21  C   UNL     1      -6.169  -8.785   9.539  1.00  0.00     0.000 C 
BRANCH  21  22
ATOM     22  C   UNL     1      -5.678  -8.719   8.088  1.00  0.00    -0.000 C 
BRANCH  22  23
ATOM     23  C   UNL     1      -6.106  -9.968   7.305  1.00  0.00    -0.000 C 
BRANCH  23  24
ATOM     24  C   UNL     1      -6.896  -9.636   6.027  1.00  0.00    -0.000 C 
BRANCH  24  25
ATOM     25  C   UNL     1      -7.982  -8.550   6.197  1.00  0.00    -0.000 C 
BRANCH  25  26
ATOM     26  C   UNL     1      -9.365  -9.078   6.626  1.00  0.00    -0.000 C 
BRANCH  26  27
ATOM     27  C   UNL     1      -9.423  -9.664   8.051  1.00  0.00    -0.000 C 
BRANCH  27  28
ATOM     28  C   UNL     1      -9.788  -8.660   9.163  1.00  0.00    -0.000 C 
BRANCH  28  29
ATOM     29  C   UNL     1      -9.730  -7.180   8.742  1.00  0.00    -0.003 C 
ATOM     30  C   UNL     1     -10.114  -6.219   9.869  1.00  0.00     0.004 C 
ENDBRANCH  28  29
ENDBRANCH  27  28
ENDBRANCH  26  27
ENDBRANCH  25  26
ENDBRANCH  24  25
ENDBRANCH  23  24
ENDBRANCH  22  23
ENDBRANCH  21  22
ENDBRANCH  20  21
ENDBRANCH  19  20
ENDBRANCH  18  19
ENDBRANCH  17  18
ENDBRANCH   1  17
TORSDOF 26
ENDMDL
MODEL 8
REMARK VINA RESULT:    -2.067      1.343      2.739
REMARK INTER + INTRA:          -9.043
REMARK INTER:                  -5.805
REMARK INTRA:                  -3.238
REMARK UNBOUND:                -3.834
REMARK SMILES CCCCCCCCCCCCCCCCCCCCCCCCCCCC(=O)[O-]
REMARK SMILES IDX 15 1 16 2 17 3 18 4 19 5 20 6 21 7 22 8 23 9 24 10 25 11
REMARK SMILES IDX 26 12 27 13 28 14 29 15 30 16 14 17 13 18 12 19 11 20 10 21
REMARK SMILES IDX 9 22 8 23 7 24 6 25 5 26 4 27 3 28 2 29 1 30
REMARK H PARENT
REMARK Flexibility Score: inf
ROOT
ATOM      1  C   UNL     1      -4.640  -3.689   5.037  1.00  0.00     0.000 C 
ENDROOT
BRANCH   1   2
ATOM      2  C   UNL     1      -4.585  -2.659   6.184  1.00  0.00     0.000 C 
BRANCH   2   3
ATOM      3  C   UNL     1      -5.756  -2.813   7.167  1.00  0.00     0.000 C 
BRANCH   3   4
ATOM      4  C   UNL     1      -5.307  -2.645   8.633  1.00  0.00     0.000 C 
BRANCH   4   5
ATOM      5  C   UNL     1      -6.183  -3.448   9.619  1.00  0.00     0.000 C 
BRANCH   5   6
ATOM      6  C   UNL     1      -6.402  -4.925   9.204  1.00  0.00     0.000 C 
BRANCH   6   7
ATOM      7  C   UNL     1      -7.884  -5.298   9.027  1.00  0.00     0.000 C 
BRANCH   7   8
ATOM      8  C   UNL     1      -8.527  -4.593   7.810  1.00  0.00     0.000 C 
BRANCH   8   9
ATOM      9  C   UNL     1      -9.879  -3.938   8.154  1.00  0.00     0.000 C 
BRANCH   9  10
ATOM     10  C   UNL     1      -9.868  -3.167   9.490  1.00  0.00     0.000 C 
BRANCH  10  11
ATOM     11  C   UNL     1     -10.124  -1.659   9.296  1.00  0.00     0.000 C 
BRANCH  11  12
ATOM     12  C   UNL     1      -8.949  -0.933   8.618  1.00  0.00     0.006 C 
BRANCH  12  13
ATOM     13  C   UNL     1      -7.990  -0.277   9.628  1.00  0.00     0.053 C 
BRANCH  13  14
ATOM     14  C   UNL     1      -7.871   1.198   9.389  1.00  0.00     0.041 C 
ATOM     15  O   UNL     1      -7.132   1.912  10.125  1.00  0.00    -0.550 OA
ATOM     16  O   UNL     1      -8.570   1.788   8.345  1.00  0.00    -0.550 OA
ENDBRANCH  13  14
ENDBRANCH  12  13
ENDBRANCH  11  12
ENDBRANCH  10  11
ENDBRANCH   9  10
ENDBRANCH   8   9
ENDBRANCH   7   8
ENDBRANCH   6   7
ENDBRANCH   5   6
ENDBRANCH   4   5
ENDBRANCH   3   4
ENDBRANCH   2   3
ENDBRANCH   1   2
BRANCH   1  17
ATOM     17  C   UNL     1      -4.765  -5.141   5.539  1.00  0.00     0.000 C 
BRANCH  17  18
ATOM     18  C   UNL     1      -5.813  -6.000   4.803  1.00  0.00     0.000 C 
BRANCH  18  19
ATOM     19  C   UNL     1      -6.804  -6.754   5.715  1.00  0.00     0.000 C 
BRANCH  19  20
ATOM     20  C   UNL     1      -6.108  -7.695   6.711  1.00  0.00     0.000 C 
BRANCH  20  21
ATOM     21  C   UNL     1      -5.288  -8.766   5.980  1.00  0.00     0.000 C 
BRANCH  21  22
ATOM     22  C   UNL     1      -5.379 -10.116   6.701  1.00  0.00    -0.000 C 
BRANCH  22  23
ATOM     23  C   UNL     1      -6.539 -10.125   7.707  1.00  0.00    -0.000 C 
BRANCH  23  24
ATOM     24  C   UNL     1      -6.104  -9.732   9.130  1.00  0.00    -0.000 C 
BRANCH  24  25
ATOM     25  C   UNL     1      -7.249  -9.255  10.051  1.00  0.00    -0.000 C 
BRANCH  25  26
ATOM     26  C   UNL     1      -8.285  -8.335   9.375  1.00  0.00    -0.000 C 
BRANCH  26  27
ATOM     27  C   UNL     1      -9.738  -8.851   9.420  1.00  0.00    -0.000 C 
BRANCH  27  28
ATOM     28  C   UNL     1     -10.098  -9.902   8.350  1.00  0.00    -0.000 C 
BRANCH  28  29
ATOM     29  C   UNL     1      -9.315  -9.776   7.031  1.00  0.00    -0.003 C 
ATOM     30  C   UNL     1     -10.025  -8.905   5.991  1.00  0.00     0.004 C 
ENDBRANCH  28  29
ENDBRANCH  27  28
ENDBRANCH  26  27
ENDBRANCH  25  26
ENDBRANCH  24  25
ENDBRANCH  23  24
ENDBRANCH  22  23
ENDBRANCH  21  22
ENDBRANCH  20  21
ENDBRANCH  19  20
ENDBRANCH  18  19
ENDBRANCH  17  18
ENDBRANCH   1  17
TORSDOF 26
ENDMDL
MODEL 9
REMARK VINA RESULT:    -1.930      3.148      8.569
REMARK INTER + INTRA:          -8.698
REMARK INTER:                  -6.321
REMARK INTRA:                  -2.377
REMARK UNBOUND:                -3.834
REMARK SMILES CCCCCCCCCCCCCCCCCCCCCCCCCCCC(=O)[O-]
REMARK SMILES IDX 15 1 16 2 17 3 18 4 19 5 20 6 21 7 22 8 23 9 24 10 25 11
REMARK SMILES IDX 26 12 27 13 28 14 29 15 30 16 14 17 13 18 12 19 11 20 10 21
REMARK SMILES IDX 9 22 8 23 7 24 6 25 5 26 4 27 3 28 2 29 1 30
REMARK H PARENT
REMARK Flexibility Score: inf
ROOT
ATOM      1  C   UNL     1      -4.194  -4.926   6.453  1.00  0.00     0.000 C 
ENDROOT
BRANCH   1   2
ATOM      2  C   UNL     1      -4.016  -5.843   7.680  1.00  0.00     0.000 C 
BRANCH   2   3
ATOM      3  C   UNL     1      -4.586  -5.221   8.965  1.00  0.00     0.000 C 
BRANCH   3   4
ATOM      4  C   UNL     1      -4.782  -6.270  10.079  1.00  0.00     0.000 C 
BRANCH   4   5
ATOM      5  C   UNL     1      -5.702  -7.432   9.646  1.00  0.00     0.000 C 
BRANCH   5   6
ATOM      6  C   UNL     1      -4.938  -8.703   9.195  1.00  0.00     0.000 C 
BRANCH   6   7
ATOM      7  C   UNL     1      -5.841  -9.758   8.534  1.00  0.00     0.000 C 
BRANCH   7   8
ATOM      8  C   UNL     1      -7.335  -9.360   8.570  1.00  0.00     0.000 C 
BRANCH   8   9
ATOM      9  C   UNL     1      -8.117  -9.893   7.353  1.00  0.00     0.000 C 
BRANCH   9  10
ATOM     10  C   UNL     1      -8.067  -8.954   6.130  1.00  0.00     0.000 C 
BRANCH  10  11
ATOM     11  C   UNL     1      -7.706  -7.507   6.519  1.00  0.00     0.000 C 
BRANCH  11  12
ATOM     12  C   UNL     1      -8.808  -6.497   6.156  1.00  0.00     0.006 C 
BRANCH  12  13
ATOM     13  C   UNL     1     -10.125  -6.751   6.911  1.00  0.00     0.053 C 
BRANCH  13  14
ATOM     14  C   UNL     1      -9.930  -6.660   8.395  1.00  0.00     0.041 C 
ATOM     15  O   UNL     1      -9.728  -5.542   8.950  1.00  0.00    -0.550 OA
ATOM     16  O   UNL     1      -9.978  -7.809   9.170  1.00  0.00    -0.550 OA
ENDBRANCH  13  14
ENDBRANCH  12  13
ENDBRANCH  11  12
ENDBRANCH  10  11
ENDBRANCH   9  10
ENDBRANCH   8   9
ENDBRANCH   7   8
ENDBRANCH   6   7
ENDBRANCH   5   6
ENDBRANCH   4   5
ENDBRANCH   3   4
ENDBRANCH   2   3
ENDBRANCH   1   2
BRANCH   1  17
ATOM     17  C   UNL     1      -5.649  -4.453   6.264  1.00  0.00     0.000 C 
BRANCH  17  18
ATOM     18  C   UNL     1      -6.097  -3.318   7.207  1.00  0.00     0.000 C 
BRANCH  18  19
ATOM     19  C   UNL     1      -7.605  -3.289   7.532  1.00  0.00     0.000 C 
BRANCH  19  20
ATOM     20  C   UNL     1      -7.959  -2.305   8.659  1.00  0.00     0.000 C 
BRANCH  20  21
ATOM     21  C   UNL     1      -9.459  -1.977   8.655  1.00  0.00     0.000 C 
BRANCH  21  22
ATOM     22  C   UNL     1      -9.746  -0.729   7.813  1.00  0.00    -0.000 C 
BRANCH  22  23
ATOM     23  C   UNL     1      -9.351   0.547   8.569  1.00  0.00    -0.000 C 
BRANCH  23  24
ATOM     24  C   UNL     1      -8.986   1.713   7.634  1.00  0.00    -0.000 C 
BRANCH  24  25
ATOM     25  C   UNL     1     -10.121   2.731   7.389  1.00  0.00    -0.000 C 
BRANCH  25  26
ATOM     26  C   UNL     1      -9.791   4.182   7.793  1.00  0.00    -0.000 C 
BRANCH  26  27
ATOM     27  C   UNL     1      -9.942   4.487   9.297  1.00  0.00    -0.000 C 
BRANCH  27  28
ATOM     28  C   UNL     1      -8.630   4.477  10.107  1.00  0.00    -0.000 C 
BRANCH  28  29
ATOM     29  C   UNL     1      -7.348   4.597   9.264  1.00  0.00    -0.003 C 
ATOM     30  C   UNL     1      -6.404   3.405   9.433  1.00  0.00     0.004 C 
ENDBRANCH  28  29
ENDBRANCH  27  28
ENDBRANCH  26  27
ENDBRANCH  25  26
ENDBRANCH  24  25
ENDBRANCH  23  24
ENDBRANCH  22  23
ENDBRANCH  21  22
ENDBRANCH  20  21
ENDBRANCH  19  20
ENDBRANCH  18  19
ENDBRANCH  17  18
ENDBRANCH   1  17
TORSDOF 26
ENDMDL
