MODEL 1
REMARK VINA RESULT:    41.513      0.000      0.000
REMARK INTER + INTRA:          70.251
REMARK INTER:                  68.208
REMARK INTRA:                   2.043
REMARK UNBOUND:                 2.043
REMARK SMILES C[C@@H]1O[C@@H](OC[C@H]2O[C@@H](Oc3c(-c4ccc(O)c(O)c4)oc4cc(O)cc(O)c4c3=O)[C@H](O)[C@@H](O)[C@H]2O)[C@H](O)[C@@H](O)[C@@H]1O
REMARK SMILES IDX 7 1 36 2 34 3 32 4 9 5 8 6 6 7 5 8 4 9 1 10 2 11 42 12 3 13
REMARK SMILES IDX 40 14 38 15 43 16 41 18 39 20 37 22 35 24 10 26 11 27 12 28
REMARK SMILES IDX 30 29 21 30 29 31 31 32 22 33 27 34 23 35 26 36 24 37 13 38
REMARK SMILES IDX 20 39 14 40 18 41 15 42 16 43 19 44 17 46 28 48 25 50 33 52
REMARK H PARENT 43 17 41 19 39 21 37 23 35 25 19 45 17 47 28 49 25 51 33 53
REMARK Flexibility Score: inf
ROOT
ATOM      1  C   UNL     1     139.111 129.311 129.748  1.00  0.00     0.180 C 
ATOM      2  C   UNL     1     138.347 129.366 131.147  1.00  0.00     0.177 C 
ATOM      3  C   UNL     1     138.277 127.788 131.534  1.00  0.00     0.180 C 
ATOM      4  C   UNL     1     137.574 127.013 130.107  1.00  0.00     0.214 C 
ATOM      5  C   UNL     1     137.007 128.193 129.216  1.00  0.00     0.339 C 
ATOM      6  O   UNL     1     138.096 129.051 128.746  1.00  0.00    -0.332 OA
ENDROOT
BRANCH   1   7
ATOM      7  C   UNL     1     140.335 128.280 129.901  1.00  0.00     0.198 C 
BRANCH   7   8
ATOM      8  O   UNL     1     140.874 127.546 128.785  1.00  0.00    -0.347 OA
BRANCH   8   9
ATOM      9  C   UNL     1     141.754 128.364 127.904  1.00  0.00     0.281 C 
ATOM     10  C   UNL     1     141.014 129.988 125.050  1.00  0.00     0.041 C 
ATOM     11  C   UNL     1     141.899 128.894 125.520  1.00  0.00     0.150 C 
ATOM     12  C   UNL     1     143.423 129.193 125.802  1.00  0.00     0.174 C 
ATOM     13  O   UNL     1     141.258 128.123 126.616  1.00  0.00    -0.344 OA
ATOM     14  C   UNL     1     144.021 128.138 126.773  1.00  0.00     0.179 C 
ATOM     15  C   UNL     1     143.288 127.998 128.133  1.00  0.00     0.202 C 
BRANCH  12  16
ATOM     16  O   UNL     1     144.125 130.501 125.789  1.00  0.00    -0.388 OA
ATOM     17  H   UNL     1     143.576 131.412 125.984  1.00  0.00     0.211 HD
ENDBRANCH  12  16
BRANCH  14  18
ATOM     18  O   UNL     1     144.121 126.866 126.086  1.00  0.00    -0.387 OA
ATOM     19  H   UNL     1     143.865 127.045 125.121  1.00  0.00     0.211 HD
ENDBRANCH  14  18
BRANCH  15  20
ATOM     20  O   UNL     1     143.913 128.907 128.999  1.00  0.00    -0.385 OA
ATOM     21  H   UNL     1     144.237 128.462 129.887  1.00  0.00     0.211 HD
ENDBRANCH  15  20
ENDBRANCH   8   9
ENDBRANCH   7   8
ENDBRANCH   1   7
BRANCH   2  22
ATOM     22  O   UNL     1     139.149 130.238 131.913  1.00  0.00    -0.387 OA
ATOM     23  H   UNL     1     139.320 131.072 131.217  1.00  0.00     0.211 HD
ENDBRANCH   2  22
BRANCH   3  24
ATOM     24  O   UNL     1     139.453 127.315 132.350  1.00  0.00    -0.387 OA
ATOM     25  H   UNL     1     139.799 126.544 131.814  1.00  0.00     0.211 HD
ENDBRANCH   3  24
BRANCH   5  26
ATOM     26  O   UNL     1     136.292 127.809 127.979  1.00  0.00    -0.454 OA
BRANCH  26  27
ATOM     27  C   UNL     1     135.190 128.501 127.576  1.00  0.00     0.214 A 
ATOM     28  C   UNL     1     135.217 129.724 126.807  1.00  0.00     0.180 A 
ATOM     29  C   UNL     1     133.942 127.958 127.870  1.00  0.00     0.239 A 
ATOM     30  O   UNL     1     134.080 130.235 126.370  1.00  0.00    -0.452 OA
ATOM     31  C   UNL     1     132.797 128.552 127.423  1.00  0.00     0.111 A 
ATOM     32  O   UNL     1     133.955 126.834 128.481  1.00  0.00    -0.285 OA
ATOM     33  C   UNL     1     132.880 129.715 126.655  1.00  0.00     0.146 A 
ATOM     34  C   UNL     1     131.537 128.036 127.803  1.00  0.00     0.134 A 
ATOM     35  C   UNL     1     131.714 130.346 126.191  1.00  0.00     0.094 A 
ATOM     36  C   UNL     1     130.358 128.676 127.331  1.00  0.00     0.093 A 
ATOM     37  C   UNL     1     130.472 129.808 126.531  1.00  0.00     0.123 A 
BRANCH  28  38
ATOM     38  C   UNL     1     136.470 130.358 126.363  1.00  0.00     0.025 A 
ATOM     39  C   UNL     1     136.427 131.812 126.140  1.00  0.00     0.062 A 
ATOM     40  C   UNL     1     137.597 129.676 125.970  1.00  0.00     0.016 A 
ATOM     41  C   UNL     1     137.557 132.454 125.501  1.00  0.00     0.158 A 
ATOM     42  C   UNL     1     138.800 130.354 125.711  1.00  0.00     0.051 A 
ATOM     43  C   UNL     1     138.782 131.793 125.445  1.00  0.00     0.157 A 
BRANCH  41  44
ATOM     44  O   UNL     1     137.403 133.778 125.078  1.00  0.00    -0.504 OA
ATOM     45  H   UNL     1     138.155 134.439 125.158  1.00  0.00     0.293 HD
ENDBRANCH  41  44
BRANCH  43  46
ATOM     46  O   UNL     1     140.021 132.376 124.880  1.00  0.00    -0.504 OA
ATOM     47  H   UNL     1     140.585 133.166 125.346  1.00  0.00     0.293 HD
ENDBRANCH  43  46
ENDBRANCH  28  38
BRANCH  34  48
ATOM     48  O   UNL     1     131.446 126.966 128.688  1.00  0.00    -0.507 OA
ATOM     49  H   UNL     1     132.167 126.729 129.339  1.00  0.00     0.293 HD
ENDBRANCH  34  48
BRANCH  37  50
ATOM     50  O   UNL     1     129.309 130.381 126.007  1.00  0.00    -0.508 OA
ATOM     51  H   UNL     1     128.795 131.110 126.496  1.00  0.00     0.293 HD
ENDBRANCH  37  50
ENDBRANCH  26  27
ENDBRANCH   5  26
BRANCH   4  52
ATOM     52  O   UNL     1     136.527 126.182 130.603  1.00  0.00    -0.384 OA
ATOM     53  H   UNL     1     136.868 125.288 130.502  1.00  0.00     0.211 HD
ENDBRANCH   4  52
TORSDOF 16
ENDMDL
MODEL 2
REMARK VINA RESULT:    41.706      1.814      5.060
REMARK INTER + INTRA:          70.568
REMARK INTER:                  71.833
REMARK INTRA:                  -1.266
REMARK UNBOUND:                 2.043
REMARK SMILES C[C@@H]1O[C@@H](OC[C@H]2O[C@@H](Oc3c(-c4ccc(O)c(O)c4)oc4cc(O)cc(O)c4c3=O)[C@H](O)[C@@H](O)[C@H]2O)[C@H](O)[C@@H](O)[C@@H]1O
REMARK SMILES IDX 7 1 36 2 34 3 32 4 9 5 8 6 6 7 5 8 4 9 1 10 2 11 42 12 3 13
REMARK SMILES IDX 40 14 38 15 43 16 41 18 39 20 37 22 35 24 10 26 11 27 12 28
REMARK SMILES IDX 30 29 21 30 29 31 31 32 22 33 27 34 23 35 26 36 24 37 13 38
REMARK SMILES IDX 20 39 14 40 18 41 15 42 16 43 19 44 17 46 28 48 25 50 33 52
REMARK H PARENT 43 17 41 19 39 21 37 23 35 25 19 45 17 47 28 49 25 51 33 53
REMARK Flexibility Score: inf
ROOT
ATOM      1  C   UNL     1     138.280 129.015 126.926  1.00  0.00     0.180 C 
ATOM      2  C   UNL     1     138.266 129.236 125.346  1.00  0.00     0.177 C 
ATOM      3  C   UNL     1     138.549 130.835 125.247  1.00  0.00     0.180 C 
ATOM      4  C   UNL     1     137.339 131.566 126.312  1.00  0.00     0.214 C 
ATOM      5  C   UNL     1     136.301 130.413 126.634  1.00  0.00     0.339 C 
ATOM      6  O   UNL     1     136.945 129.338 127.389  1.00  0.00    -0.332 OA
ENDROOT
BRANCH   1   7
ATOM      7  C   UNL     1     139.530 129.831 127.521  1.00  0.00     0.198 C 
BRANCH   7   8
ATOM      8  O   UNL     1     139.607 130.233 128.903  1.00  0.00    -0.347 OA
BRANCH   8   9
ATOM      9  C   UNL     1     140.742 129.612 129.641  1.00  0.00     0.281 C 
ATOM     10  C   UNL     1     143.692 128.482 128.479  1.00  0.00     0.041 C 
ATOM     11  C   UNL     1     142.489 127.964 129.175  1.00  0.00     0.150 C 
ATOM     12  C   UNL     1     142.528 127.742 130.737  1.00  0.00     0.174 C 
ATOM     13  O   UNL     1     141.266 128.682 128.734  1.00  0.00    -0.344 OA
ATOM     14  C   UNL     1     141.092 127.744 131.331  1.00  0.00     0.179 C 
ATOM     15  C   UNL     1     140.255 129.016 131.037  1.00  0.00     0.202 C 
BRANCH  12  16
ATOM     16  O   UNL     1     143.602 128.108 131.695  1.00  0.00    -0.388 OA
ATOM     17  H   UNL     1     143.348 128.531 132.657  1.00  0.00     0.211 HD
ENDBRANCH  12  16
BRANCH  14  18
ATOM     18  O   UNL     1     140.404 126.540 130.908  1.00  0.00    -0.387 OA
ATOM     19  H   UNL     1     139.981 126.757 130.012  1.00  0.00     0.211 HD
ENDBRANCH  14  18
BRANCH  15  20
ATOM     20  O   UNL     1     140.516 129.898 132.095  1.00  0.00    -0.385 OA
ATOM     21  H   UNL     1     140.530 130.898 131.794  1.00  0.00     0.211 HD
ENDBRANCH  15  20
ENDBRANCH   8   9
ENDBRANCH   7   8
ENDBRANCH   1   7
BRANCH   2  22
ATOM     22  O   UNL     1     139.240 128.325 124.888  1.00  0.00    -0.387 OA
ATOM     23  H   UNL     1     138.816 127.356 125.191  1.00  0.00     0.211 HD
ENDBRANCH   2  22
BRANCH   3  24
ATOM     24  O   UNL     1     140.011 131.182 125.145  1.00  0.00    -0.387 OA
ATOM     25  H   UNL     1     140.002 132.031 124.615  1.00  0.00     0.211 HD
ENDBRANCH   3  24
BRANCH   5  26
ATOM     26  O   UNL     1     135.131 130.783 127.460  1.00  0.00    -0.454 OA
BRANCH  26  27
ATOM     27  C   UNL     1     134.017 130.001 127.466  1.00  0.00     0.214 A 
ATOM     28  C   UNL     1     133.834 128.825 128.287  1.00  0.00     0.180 A 
ATOM     29  C   UNL     1     132.944 130.395 126.670  1.00  0.00     0.239 A 
ATOM     30  O   UNL     1     132.660 128.221 128.296  1.00  0.00    -0.452 OA
ATOM     31  C   UNL     1     131.765 129.708 126.692  1.00  0.00     0.111 A 
ATOM     32  O   UNL     1     133.109 131.484 126.018  1.00  0.00    -0.285 OA
ATOM     33  C   UNL     1     131.631 128.599 127.528  1.00  0.00     0.146 A 
ATOM     34  C   UNL     1     130.717 130.071 125.814  1.00  0.00     0.134 A 
ATOM     35  C   UNL     1     130.428 127.873 127.561  1.00  0.00     0.094 A 
ATOM     36  C   UNL     1     129.501 129.336 125.850  1.00  0.00     0.093 A 
ATOM     37  C   UNL     1     129.381 128.262 126.726  1.00  0.00     0.123 A 
BRANCH  28  38
ATOM     38  C   UNL     1     134.859 128.348 129.230  1.00  0.00     0.025 A 
ATOM     39  C   UNL     1     135.790 127.324 128.727  1.00  0.00     0.062 A 
ATOM     40  C   UNL     1     134.889 128.643 130.573  1.00  0.00     0.016 A 
ATOM     41  C   UNL     1     136.675 126.663 129.663  1.00  0.00     0.158 A 
ATOM     42  C   UNL     1     135.985 128.278 131.371  1.00  0.00     0.051 A 
ATOM     43  C   UNL     1     136.904 127.235 130.913  1.00  0.00     0.157 A 
BRANCH  41  44
ATOM     44  O   UNL     1     137.372 125.535 129.218  1.00  0.00    -0.504 OA
ATOM     45  H   UNL     1     137.046 124.609 129.429  1.00  0.00     0.293 HD
ENDBRANCH  41  44
BRANCH  43  46
ATOM     46  O   UNL     1     137.838 126.687 131.924  1.00  0.00    -0.504 OA
ATOM     47  H   UNL     1     137.784 125.685 132.318  1.00  0.00     0.293 HD
ENDBRANCH  43  46
ENDBRANCH  28  38
BRANCH  34  48
ATOM     48  O   UNL     1     130.897 131.082 124.875  1.00  0.00    -0.507 OA
ATOM     49  H   UNL     1     130.760 130.951 123.893  1.00  0.00     0.293 HD
ENDBRANCH  34  48
BRANCH  37  50
ATOM     50  O   UNL     1     128.153 127.598 126.809  1.00  0.00    -0.508 OA
ATOM     51  H   UNL     1     128.033 126.745 127.351  1.00  0.00     0.293 HD
ENDBRANCH  37  50
ENDBRANCH  26  27
ENDBRANCH   5  26
BRANCH   4  52
ATOM     52  O   UNL     1     136.741 132.609 125.547  1.00  0.00    -0.384 OA
ATOM     53  H   UNL     1     136.570 132.206 124.691  1.00  0.00     0.211 HD
ENDBRANCH   4  52
TORSDOF 16
ENDMDL
MODEL 3
REMARK VINA RESULT:    44.414      1.825      4.967
REMARK INTER + INTRA:          75.018
REMARK INTER:                  75.792
REMARK INTRA:                  -0.774
REMARK UNBOUND:                 2.043
REMARK SMILES C[C@@H]1O[C@@H](OC[C@H]2O[C@@H](Oc3c(-c4ccc(O)c(O)c4)oc4cc(O)cc(O)c4c3=O)[C@H](O)[C@@H](O)[C@H]2O)[C@H](O)[C@@H](O)[C@@H]1O
REMARK SMILES IDX 7 1 36 2 34 3 32 4 9 5 8 6 6 7 5 8 4 9 1 10 2 11 42 12 3 13
REMARK SMILES IDX 40 14 38 15 43 16 41 18 39 20 37 22 35 24 10 26 11 27 12 28
REMARK SMILES IDX 30 29 21 30 29 31 31 32 22 33 27 34 23 35 26 36 24 37 13 38
REMARK SMILES IDX 20 39 14 40 18 41 15 42 16 43 19 44 17 46 28 48 25 50 33 52
REMARK H PARENT 43 17 41 19 39 21 37 23 35 25 19 45 17 47 28 49 25 51 33 53
REMARK Flexibility Score: inf
ROOT
ATOM      1  C   UNL     1     138.264 128.932 126.891  1.00  0.00     0.180 C 
ATOM      2  C   UNL     1     138.346 129.246 125.330  1.00  0.00     0.177 C 
ATOM      3  C   UNL     1     138.661 130.842 125.343  1.00  0.00     0.180 C 
ATOM      4  C   UNL     1     137.403 131.533 126.379  1.00  0.00     0.214 C 
ATOM      5  C   UNL     1     136.329 130.384 126.570  1.00  0.00     0.339 C 
ATOM      6  O   UNL     1     136.909 129.253 127.295  1.00  0.00    -0.332 OA
ENDROOT
BRANCH   1   7
ATOM      7  C   UNL     1     139.490 129.686 127.606  1.00  0.00     0.198 C 
BRANCH   7   8
ATOM      8  O   UNL     1     139.491 130.004 129.012  1.00  0.00    -0.347 OA
BRANCH   8   9
ATOM      9  C   UNL     1     140.690 129.496 129.735  1.00  0.00     0.281 C 
ATOM     10  C   UNL     1     143.657 128.475 128.514  1.00  0.00     0.041 C 
ATOM     11  C   UNL     1     142.516 127.929 129.290  1.00  0.00     0.150 C 
ATOM     12  C   UNL     1     142.630 127.803 130.859  1.00  0.00     0.174 C 
ATOM     13  O   UNL     1     141.235 128.546 128.860  1.00  0.00    -0.344 OA
ATOM     14  C   UNL     1     141.221 127.755 131.512  1.00  0.00     0.179 C 
ATOM     15  C   UNL     1     140.297 128.956 131.182  1.00  0.00     0.202 C 
BRANCH  12  16
ATOM     16  O   UNL     1     143.716 128.288 131.747  1.00  0.00    -0.388 OA
ATOM     17  H   UNL     1     144.637 127.728 131.833  1.00  0.00     0.211 HD
ENDBRANCH  12  16
BRANCH  14  18
ATOM     18  O   UNL     1     140.592 126.490 131.188  1.00  0.00    -0.387 OA
ATOM     19  H   UNL     1     139.844 126.705 130.538  1.00  0.00     0.211 HD
ENDBRANCH  14  18
BRANCH  15  20
ATOM     20  O   UNL     1     140.544 129.914 132.176  1.00  0.00    -0.385 OA
ATOM     21  H   UNL     1     140.970 129.503 133.036  1.00  0.00     0.211 HD
ENDBRANCH  15  20
ENDBRANCH   8   9
ENDBRANCH   7   8
ENDBRANCH   1   7
BRANCH   2  22
ATOM     22  O   UNL     1     139.330 128.344 124.875  1.00  0.00    -0.387 OA
ATOM     23  H   UNL     1     139.537 127.748 125.776  1.00  0.00     0.211 HD
ENDBRANCH   2  22
BRANCH   3  24
ATOM     24  O   UNL     1     140.133 131.165 125.347  1.00  0.00    -0.387 OA
ATOM     25  H   UNL     1     140.284 131.499 126.278  1.00  0.00     0.211 HD
ENDBRANCH   3  24
BRANCH   5  26
ATOM     26  O   UNL     1     135.118 130.728 127.348  1.00  0.00    -0.454 OA
BRANCH  26  27
ATOM     27  C   UNL     1     133.986 129.982 127.227  1.00  0.00     0.214 A 
ATOM     28  C   UNL     1     133.778 128.688 127.837  1.00  0.00     0.180 A 
ATOM     29  C   UNL     1     132.921 130.530 126.516  1.00  0.00     0.239 A 
ATOM     30  O   UNL     1     132.590 128.118 127.749  1.00  0.00    -0.452 OA
ATOM     31  C   UNL     1     131.727 129.876 126.426  1.00  0.00     0.111 A 
ATOM     32  O   UNL     1     133.110 131.711 126.057  1.00  0.00    -0.285 OA
ATOM     33  C   UNL     1     131.568 128.644 127.063  1.00  0.00     0.146 A 
ATOM     34  C   UNL     1     130.687 130.407 125.629  1.00  0.00     0.134 A 
ATOM     35  C   UNL     1     130.350 127.951 126.978  1.00  0.00     0.094 A 
ATOM     36  C   UNL     1     129.454 129.705 125.546  1.00  0.00     0.093 A 
ATOM     37  C   UNL     1     129.310 128.500 126.227  1.00  0.00     0.123 A 
BRANCH  28  38
ATOM     38  C   UNL     1     134.793 128.034 128.680  1.00  0.00     0.025 A 
ATOM     39  C   UNL     1     134.942 128.552 130.049  1.00  0.00     0.062 A 
ATOM     40  C   UNL     1     135.719 127.123 128.228  1.00  0.00     0.016 A 
ATOM     41  C   UNL     1     136.061 128.099 130.850  1.00  0.00     0.158 A 
ATOM     42  C   UNL     1     136.549 126.430 129.125  1.00  0.00     0.051 A 
ATOM     43  C   UNL     1     136.747 126.944 130.480  1.00  0.00     0.157 A 
BRANCH  41  44
ATOM     44  O   UNL     1     136.326 128.775 132.045  1.00  0.00    -0.504 OA
ATOM     45  H   UNL     1     136.629 128.281 132.864  1.00  0.00     0.293 HD
ENDBRANCH  41  44
BRANCH  43  46
ATOM     46  O   UNL     1     137.860 126.349 131.256  1.00  0.00    -0.504 OA
ATOM     47  H   UNL     1     137.726 125.703 132.109  1.00  0.00     0.293 HD
ENDBRANCH  43  46
ENDBRANCH  28  38
BRANCH  34  48
ATOM     48  O   UNL     1     130.889 131.559 124.875  1.00  0.00    -0.507 OA
ATOM     49  H   UNL     1     131.779 131.825 124.507  1.00  0.00     0.293 HD
ENDBRANCH  34  48
BRANCH  37  50
ATOM     50  O   UNL     1     128.067 127.859 126.203  1.00  0.00    -0.508 OA
ATOM     51  H   UNL     1     127.257 128.227 126.697  1.00  0.00     0.293 HD
ENDBRANCH  37  50
ENDBRANCH  26  27
ENDBRANCH   5  26
BRANCH   4  52
ATOM     52  O   UNL     1     136.868 132.632 125.645  1.00  0.00    -0.384 OA
ATOM     53  H   UNL     1     135.915 132.540 125.743  1.00  0.00     0.211 HD
ENDBRANCH   4  52
TORSDOF 16
ENDMDL
