MODEL 1
REMARK VINA RESULT:    23.198      0.000      0.000
REMARK INTER + INTRA:          59.290
REMARK INTER:                  61.171
REMARK INTRA:                  -1.881
REMARK UNBOUND:                -1.881
REMARK SMILES CCCCCCCCCCCCCCCCCCCCCCCCCCCCCC(=O)[O-]
REMARK SMILES IDX 16 1 17 2 18 3 19 4 20 5 21 6 22 7 23 8 24 9 25 10 26 11
REMARK SMILES IDX 27 12 28 13 29 14 30 15 31 16 32 17 15 18 14 19 13 20 12 21
REMARK SMILES IDX 11 22 10 23 9 24 8 25 7 26 6 27 5 28 4 29 3 30 2 31 1 32
REMARK H PARENT
REMARK Flexibility Score: inf
ROOT
ATOM      1  C   UNL     1      14.063  13.634  17.872  1.00  0.00     0.000 C 
ENDROOT
BRANCH   1   2
ATOM      2  C   UNL     1      14.584  14.653  16.836  1.00  0.00     0.000 C 
BRANCH   2   3
ATOM      3  C   UNL     1      13.884  16.024  16.908  1.00  0.00     0.000 C 
BRANCH   3   4
ATOM      4  C   UNL     1      14.593  17.069  17.783  1.00  0.00     0.000 C 
BRANCH   4   5
ATOM      5  C   UNL     1      16.078  16.743  18.011  1.00  0.00     0.000 C 
BRANCH   5   6
ATOM      6  C   UNL     1      16.839  17.885  18.711  1.00  0.00     0.000 C 
BRANCH   6   7
ATOM      7  C   UNL     1      15.949  18.990  19.317  1.00  0.00     0.000 C 
BRANCH   7   8
ATOM      8  C   UNL     1      16.678  19.827  20.383  1.00  0.00     0.000 C 
BRANCH   8   9
ATOM      9  C   UNL     1      17.144  21.191  19.852  1.00  0.00     0.000 C 
BRANCH   9  10
ATOM     10  C   UNL     1      16.921  21.349  18.340  1.00  0.00     0.000 C 
BRANCH  10  11
ATOM     11  C   UNL     1      18.103  22.073  17.687  1.00  0.00     0.000 C 
BRANCH  11  12
ATOM     12  C   UNL     1      17.981  22.066  16.155  1.00  0.00     0.000 C 
BRANCH  12  13
ATOM     13  C   UNL     1      16.554  22.385  15.680  1.00  0.00     0.006 C 
BRANCH  13  14
ATOM     14  C   UNL     1      15.916  21.223  14.908  1.00  0.00     0.053 C 
BRANCH  14  15
ATOM     15  C   UNL     1      14.651  20.780  15.572  1.00  0.00     0.041 C 
ATOM     16  O   UNL     1      14.053  21.546  16.374  1.00  0.00    -0.550 OA
ATOM     17  O   UNL     1      14.153  19.505  15.338  1.00  0.00    -0.550 OA
ENDBRANCH  14  15
ENDBRANCH  13  14
ENDBRANCH  12  13
ENDBRANCH  11  12
ENDBRANCH  10  11
ENDBRANCH   9  10
ENDBRANCH   8   9
ENDBRANCH   7   8
ENDBRANCH   6   7
ENDBRANCH   5   6
ENDBRANCH   4   5
ENDBRANCH   3   4
ENDBRANCH   2   3
ENDBRANCH   1   2
BRANCH   1  18
ATOM     18  C   UNL     1      12.971  12.720  17.291  1.00  0.00     0.000 C 
BRANCH  18  19
ATOM     19  C   UNL     1      13.440  11.267  17.131  1.00  0.00     0.000 C 
BRANCH  19  20
ATOM     20  C   UNL     1      14.958  11.153  16.938  1.00  0.00     0.000 C 
BRANCH  20  21
ATOM     21  C   UNL     1      15.330  11.287  15.456  1.00  0.00     0.000 C 
BRANCH  21  22
ATOM     22  C   UNL     1      16.492  10.351  15.092  1.00  0.00     0.000 C 
BRANCH  22  23
ATOM     23  C   UNL     1      16.009   8.949  14.686  1.00  0.00     0.000 C 
BRANCH  23  24
ATOM     24  C   UNL     1      15.861   8.795  13.162  1.00  0.00    -0.000 C 
BRANCH  24  25
ATOM     25  C   UNL     1      16.793   9.732  12.371  1.00  0.00    -0.000 C 
BRANCH  25  26
ATOM     26  C   UNL     1      17.051   9.276  10.918  1.00  0.00    -0.000 C 
BRANCH  26  27
ATOM     27  C   UNL     1      16.213  10.061   9.893  1.00  0.00    -0.000 C 
BRANCH  27  28
ATOM     28  C   UNL     1      16.726  11.497   9.678  1.00  0.00    -0.000 C 
BRANCH  28  29
ATOM     29  C   UNL     1      15.635  12.524   9.312  1.00  0.00    -0.000 C 
BRANCH  29  30
ATOM     30  C   UNL     1      16.168  13.967   9.267  1.00  0.00    -0.000 C 
BRANCH  30  31
ATOM     31  C   UNL     1      17.311  14.209  10.266  1.00  0.00    -0.003 C 
ATOM     32  C   UNL     1      16.804  14.539  11.668  1.00  0.00     0.004 C 
ENDBRANCH  30  31
ENDBRANCH  29  30
ENDBRANCH  28  29
ENDBRANCH  27  28
ENDBRANCH  26  27
ENDBRANCH  25  26
ENDBRANCH  24  25
ENDBRANCH  23  24
ENDBRANCH  22  23
ENDBRANCH  21  22
ENDBRANCH  20  21
ENDBRANCH  19  20
ENDBRANCH  18  19
ENDBRANCH   1  18
TORSDOF 28
ENDMDL
MODEL 2
REMARK VINA RESULT:    24.108      2.210     10.091
REMARK INTER + INTRA:          61.689
REMARK INTER:                  61.873
REMARK INTRA:                  -0.185
REMARK UNBOUND:                -1.881
REMARK SMILES CCCCCCCCCCCCCCCCCCCCCCCCCCCCCC(=O)[O-]
REMARK SMILES IDX 16 1 17 2 18 3 19 4 20 5 21 6 22 7 23 8 24 9 25 10 26 11
REMARK SMILES IDX 27 12 28 13 29 14 30 15 31 16 32 17 15 18 14 19 13 20 12 21
REMARK SMILES IDX 11 22 10 23 9 24 8 25 7 26 6 27 5 28 4 29 3 30 2 31 1 32
REMARK H PARENT
REMARK Flexibility Score: inf
ROOT
ATOM      1  C   UNL     1      13.869  13.860  16.908  1.00  0.00     0.000 C 
ENDROOT
BRANCH   1   2
ATOM      2  C   UNL     1      13.443  12.474  17.439  1.00  0.00     0.000 C 
BRANCH   2   3
ATOM      3  C   UNL     1      14.186  11.300  16.774  1.00  0.00     0.000 C 
BRANCH   3   4
ATOM      4  C   UNL     1      15.577  11.645  16.217  1.00  0.00     0.000 C 
BRANCH   4   5
ATOM      5  C   UNL     1      15.941  10.814  14.977  1.00  0.00     0.000 C 
BRANCH   5   6
ATOM      6  C   UNL     1      16.274   9.349  15.318  1.00  0.00     0.000 C 
BRANCH   6   7
ATOM      7  C   UNL     1      16.199   8.366  14.131  1.00  0.00     0.000 C 
BRANCH   7   8
ATOM      8  C   UNL     1      15.789   9.048  12.814  1.00  0.00     0.000 C 
BRANCH   8   9
ATOM      9  C   UNL     1      16.951   9.800  12.148  1.00  0.00     0.000 C 
BRANCH   9  10
ATOM     10  C   UNL     1      17.138   9.419  10.671  1.00  0.00     0.000 C 
BRANCH  10  11
ATOM     11  C   UNL     1      16.123  10.150   9.786  1.00  0.00     0.000 C 
BRANCH  11  12
ATOM     12  C   UNL     1      16.589  11.580   9.471  1.00  0.00     0.000 C 
BRANCH  12  13
ATOM     13  C   UNL     1      15.412  12.557   9.314  1.00  0.00     0.006 C 
BRANCH  13  14
ATOM     14  C   UNL     1      15.858  14.025   9.346  1.00  0.00     0.053 C 
BRANCH  14  15
ATOM     15  C   UNL     1      17.070  14.190  10.207  1.00  0.00     0.041 C 
ATOM     16  O   UNL     1      16.952  14.271  11.459  1.00  0.00    -0.550 OA
ATOM     17  O   UNL     1      18.326  14.298   9.626  1.00  0.00    -0.550 OA
ENDBRANCH  14  15
ENDBRANCH  13  14
ENDBRANCH  12  13
ENDBRANCH  11  12
ENDBRANCH  10  11
ENDBRANCH   9  10
ENDBRANCH   8   9
ENDBRANCH   7   8
ENDBRANCH   6   7
ENDBRANCH   5   6
ENDBRANCH   4   5
ENDBRANCH   3   4
ENDBRANCH   2   3
ENDBRANCH   1   2
BRANCH   1  18
ATOM     18  C   UNL     1      14.259  14.823  18.041  1.00  0.00     0.000 C 
BRANCH  18  19
ATOM     19  C   UNL     1      14.523  16.251  17.541  1.00  0.00     0.000 C 
BRANCH  19  20
ATOM     20  C   UNL     1      15.886  16.793  17.995  1.00  0.00     0.000 C 
BRANCH  20  21
ATOM     21  C   UNL     1      15.717  18.097  18.784  1.00  0.00     0.000 C 
BRANCH  21  22
ATOM     22  C   UNL     1      17.078  18.658  19.220  1.00  0.00     0.000 C 
BRANCH  22  23
ATOM     23  C   UNL     1      16.951  19.684  20.359  1.00  0.00     0.000 C 
BRANCH  23  24
ATOM     24  C   UNL     1      16.167  20.938  19.936  1.00  0.00    -0.000 C 
BRANCH  24  25
ATOM     25  C   UNL     1      16.783  21.648  18.716  1.00  0.00    -0.000 C 
BRANCH  25  26
ATOM     26  C   UNL     1      15.781  21.900  17.568  1.00  0.00    -0.000 C 
BRANCH  26  27
ATOM     27  C   UNL     1      16.476  22.271  16.245  1.00  0.00    -0.000 C 
BRANCH  27  28
ATOM     28  C   UNL     1      16.409  21.142  15.200  1.00  0.00    -0.000 C 
BRANCH  28  29
ATOM     29  C   UNL     1      14.983  20.737  14.777  1.00  0.00    -0.000 C 
BRANCH  29  30
ATOM     30  C   UNL     1      14.269  19.881  15.838  1.00  0.00    -0.000 C 
BRANCH  30  31
ATOM     31  C   UNL     1      13.185  18.971  15.235  1.00  0.00    -0.003 C 
ATOM     32  C   UNL     1      13.254  17.543  15.771  1.00  0.00     0.004 C 
ENDBRANCH  30  31
ENDBRANCH  29  30
ENDBRANCH  28  29
ENDBRANCH  27  28
ENDBRANCH  26  27
ENDBRANCH  25  26
ENDBRANCH  24  25
ENDBRANCH  23  24
ENDBRANCH  22  23
ENDBRANCH  21  22
ENDBRANCH  20  21
ENDBRANCH  19  20
ENDBRANCH  18  19
ENDBRANCH   1  18
TORSDOF 28
ENDMDL
MODEL 3
REMARK VINA RESULT:    24.533      2.351     10.116
REMARK INTER + INTRA:          62.810
REMARK INTER:                  63.994
REMARK INTRA:                  -1.184
REMARK UNBOUND:                -1.881
REMARK SMILES CCCCCCCCCCCCCCCCCCCCCCCCCCCCCC(=O)[O-]
REMARK SMILES IDX 16 1 17 2 18 3 19 4 20 5 21 6 22 7 23 8 24 9 25 10 26 11
REMARK SMILES IDX 27 12 28 13 29 14 30 15 31 16 32 17 15 18 14 19 13 20 12 21
REMARK SMILES IDX 11 22 10 23 9 24 8 25 7 26 6 27 5 28 4 29 3 30 2 31 1 32
REMARK H PARENT
REMARK Flexibility Score: inf
ROOT
ATOM      1  C   UNL     1      14.080  16.364  17.033  1.00  0.00     0.000 C 
ENDROOT
BRANCH   1   2
ATOM      2  C   UNL     1      13.766  14.910  16.621  1.00  0.00     0.000 C 
BRANCH   2   3
ATOM      3  C   UNL     1      14.303  13.856  17.609  1.00  0.00     0.000 C 
BRANCH   3   4
ATOM      4  C   UNL     1      13.363  12.667  17.864  1.00  0.00     0.000 C 
BRANCH   4   5
ATOM      5  C   UNL     1      13.706  11.444  16.998  1.00  0.00     0.000 C 
BRANCH   5   6
ATOM      6  C   UNL     1      14.983  11.646  16.161  1.00  0.00     0.000 C 
BRANCH   6   7
ATOM      7  C   UNL     1      15.962  10.454  16.162  1.00  0.00     0.000 C 
BRANCH   7   8
ATOM      8  C   UNL     1      16.555  10.167  14.771  1.00  0.00     0.000 C 
BRANCH   8   9
ATOM      9  C   UNL     1      16.005   8.875  14.146  1.00  0.00     0.000 C 
BRANCH   9  10
ATOM     10  C   UNL     1      15.748   9.008  12.637  1.00  0.00     0.000 C 
BRANCH  10  11
ATOM     11  C   UNL     1      16.973   9.589  11.923  1.00  0.00     0.000 C 
BRANCH  11  12
ATOM     12  C   UNL     1      16.643   9.965  10.470  1.00  0.00     0.000 C 
BRANCH  12  13
ATOM     13  C   UNL     1      17.158  11.364  10.097  1.00  0.00     0.006 C 
BRANCH  13  14
ATOM     14  C   UNL     1      16.064  12.251   9.488  1.00  0.00     0.053 C 
BRANCH  14  15
ATOM     15  C   UNL     1      16.297  13.688   9.833  1.00  0.00     0.041 C 
ATOM     16  O   UNL     1      15.405  14.548   9.604  1.00  0.00    -0.550 OA
ATOM     17  O   UNL     1      17.514  14.086  10.368  1.00  0.00    -0.550 OA
ENDBRANCH  14  15
ENDBRANCH  13  14
ENDBRANCH  12  13
ENDBRANCH  11  12
ENDBRANCH  10  11
ENDBRANCH   9  10
ENDBRANCH   8   9
ENDBRANCH   7   8
ENDBRANCH   6   7
ENDBRANCH   5   6
ENDBRANCH   4   5
ENDBRANCH   3   4
ENDBRANCH   2   3
ENDBRANCH   1   2
BRANCH   1  18
ATOM     18  C   UNL     1      14.730  16.448  18.424  1.00  0.00     0.000 C 
BRANCH  18  19
ATOM     19  C   UNL     1      16.171  16.975  18.374  1.00  0.00     0.000 C 
BRANCH  19  20
ATOM     20  C   UNL     1      16.238  18.508  18.314  1.00  0.00     0.000 C 
BRANCH  20  21
ATOM     21  C   UNL     1      16.958  19.070  19.546  1.00  0.00     0.000 C 
BRANCH  21  22
ATOM     22  C   UNL     1      16.247  20.322  20.077  1.00  0.00     0.000 C 
BRANCH  22  23
ATOM     23  C   UNL     1      16.589  21.580  19.261  1.00  0.00     0.000 C 
BRANCH  23  24
ATOM     24  C   UNL     1      18.105  21.799  19.124  1.00  0.00    -0.000 C 
BRANCH  24  25
ATOM     25  C   UNL     1      18.620  21.553  17.693  1.00  0.00    -0.000 C 
BRANCH  25  26
ATOM     26  C   UNL     1      18.008  22.498  16.637  1.00  0.00    -0.000 C 
BRANCH  26  27
ATOM     27  C   UNL     1      16.595  22.066  16.202  1.00  0.00    -0.000 C 
BRANCH  27  28
ATOM     28  C   UNL     1      16.352  22.254  14.693  1.00  0.00    -0.000 C 
BRANCH  28  29
ATOM     29  C   UNL     1      15.864  20.990  13.957  1.00  0.00    -0.000 C 
BRANCH  29  30
ATOM     30  C   UNL     1      15.433  19.870  14.919  1.00  0.00    -0.000 C 
BRANCH  30  31
ATOM     31  C   UNL     1      13.983  20.030  15.405  1.00  0.00    -0.003 C 
ATOM     32  C   UNL     1      13.299  18.689  15.663  1.00  0.00     0.004 C 
ENDBRANCH  30  31
ENDBRANCH  29  30
ENDBRANCH  28  29
ENDBRANCH  27  28
ENDBRANCH  26  27
ENDBRANCH  25  26
ENDBRANCH  24  25
ENDBRANCH  23  24
ENDBRANCH  22  23
ENDBRANCH  21  22
ENDBRANCH  20  21
ENDBRANCH  19  20
ENDBRANCH  18  19
ENDBRANCH   1  18
TORSDOF 28
ENDMDL
MODEL 4
REMARK VINA RESULT:    24.565      1.583      2.746
REMARK INTER + INTRA:          62.895
REMARK INTER:                  63.908
REMARK INTRA:                  -1.014
REMARK UNBOUND:                -1.881
REMARK SMILES CCCCCCCCCCCCCCCCCCCCCCCCCCCCCC(=O)[O-]
REMARK SMILES IDX 16 1 17 2 18 3 19 4 20 5 21 6 22 7 23 8 24 9 25 10 26 11
REMARK SMILES IDX 27 12 28 13 29 14 30 15 31 16 32 17 15 18 14 19 13 20 12 21
REMARK SMILES IDX 11 22 10 23 9 24 8 25 7 26 6 27 5 28 4 29 3 30 2 31 1 32
REMARK H PARENT
REMARK Flexibility Score: inf
ROOT
ATOM      1  C   UNL     1      14.323  14.371  16.771  1.00  0.00     0.000 C 
ENDROOT
BRANCH   1   2
ATOM      2  C   UNL     1      14.459  15.501  17.815  1.00  0.00     0.000 C 
BRANCH   2   3
ATOM      3  C   UNL     1      14.470  16.913  17.200  1.00  0.00     0.000 C 
BRANCH   3   4
ATOM      4  C   UNL     1      13.328  17.200  16.212  1.00  0.00     0.000 C 
BRANCH   4   5
ATOM      5  C   UNL     1      13.652  18.355  15.251  1.00  0.00     0.000 C 
BRANCH   5   6
ATOM      6  C   UNL     1      14.445  19.489  15.927  1.00  0.00     0.000 C 
BRANCH   6   7
ATOM      7  C   UNL     1      13.896  20.910  15.682  1.00  0.00     0.000 C 
BRANCH   7   8
ATOM      8  C   UNL     1      14.375  21.926  16.734  1.00  0.00     0.000 C 
BRANCH   8   9
ATOM      9  C   UNL     1      15.567  22.766  16.250  1.00  0.00     0.000 C 
BRANCH   9  10
ATOM     10  C   UNL     1      16.494  21.992  15.300  1.00  0.00     0.000 C 
BRANCH  10  11
ATOM     11  C   UNL     1      17.786  21.580  16.013  1.00  0.00     0.000 C 
BRANCH  11  12
ATOM     12  C   UNL     1      17.945  22.324  17.349  1.00  0.00     0.000 C 
BRANCH  12  13
ATOM     13  C   UNL     1      17.980  21.366  18.550  1.00  0.00     0.006 C 
BRANCH  13  14
ATOM     14  C   UNL     1      16.694  21.423  19.386  1.00  0.00     0.053 C 
BRANCH  14  15
ATOM     15  C   UNL     1      16.387  20.082  19.973  1.00  0.00     0.041 C 
ATOM     16  O   UNL     1      15.489  19.963  20.850  1.00  0.00    -0.550 OA
ATOM     17  O   UNL     1      17.120  18.969  19.585  1.00  0.00    -0.550 OA
ENDBRANCH  14  15
ENDBRANCH  13  14
ENDBRANCH  12  13
ENDBRANCH  11  12
ENDBRANCH  10  11
ENDBRANCH   9  10
ENDBRANCH   8   9
ENDBRANCH   7   8
ENDBRANCH   6   7
ENDBRANCH   5   6
ENDBRANCH   4   5
ENDBRANCH   3   4
ENDBRANCH   2   3
ENDBRANCH   1   2
BRANCH   1  18
ATOM     18  C   UNL     1      12.913  13.758  16.756  1.00  0.00     0.000 C 
BRANCH  18  19
ATOM     19  C   UNL     1      12.892  12.306  17.254  1.00  0.00     0.000 C 
BRANCH  19  20
ATOM     20  C   UNL     1      14.301  11.732  17.460  1.00  0.00     0.000 C 
BRANCH  20  21
ATOM     21  C   UNL     1      15.058  11.656  16.128  1.00  0.00     0.000 C 
BRANCH  21  22
ATOM     22  C   UNL     1      15.823  10.331  16.004  1.00  0.00     0.000 C 
BRANCH  22  23
ATOM     23  C   UNL     1      16.550  10.200  14.655  1.00  0.00     0.000 C 
BRANCH  23  24
ATOM     24  C   UNL     1      16.195   8.897  13.919  1.00  0.00    -0.000 C 
BRANCH  24  25
ATOM     25  C   UNL     1      15.824   9.124  12.441  1.00  0.00    -0.000 C 
BRANCH  25  26
ATOM     26  C   UNL     1      17.042   9.350  11.519  1.00  0.00    -0.000 C 
BRANCH  26  27
ATOM     27  C   UNL     1      16.650   9.951  10.156  1.00  0.00    -0.000 C 
BRANCH  27  28
ATOM     28  C   UNL     1      16.820  11.481  10.107  1.00  0.00    -0.000 C 
BRANCH  28  29
ATOM     29  C   UNL     1      15.776  12.219   9.246  1.00  0.00    -0.000 C 
BRANCH  29  30
ATOM     30  C   UNL     1      15.761  13.736   9.500  1.00  0.00    -0.000 C 
BRANCH  30  31
ATOM     31  C   UNL     1      16.928  14.201  10.387  1.00  0.00    -0.003 C 
ATOM     32  C   UNL     1      18.155  14.609   9.574  1.00  0.00     0.004 C 
ENDBRANCH  30  31
ENDBRANCH  29  30
ENDBRANCH  28  29
ENDBRANCH  27  28
ENDBRANCH  26  27
ENDBRANCH  25  26
ENDBRANCH  24  25
ENDBRANCH  23  24
ENDBRANCH  22  23
ENDBRANCH  21  22
ENDBRANCH  20  21
ENDBRANCH  19  20
ENDBRANCH  18  19
ENDBRANCH   1  18
TORSDOF 28
ENDMDL
MODEL 5
REMARK VINA RESULT:    24.753      2.488     10.509
REMARK INTER + INTRA:          63.391
REMARK INTER:                  65.385
REMARK INTRA:                  -1.995
REMARK UNBOUND:                -1.881
REMARK SMILES CCCCCCCCCCCCCCCCCCCCCCCCCCCCCC(=O)[O-]
REMARK SMILES IDX 16 1 17 2 18 3 19 4 20 5 21 6 22 7 23 8 24 9 25 10 26 11
REMARK SMILES IDX 27 12 28 13 29 14 30 15 31 16 32 17 15 18 14 19 13 20 12 21
REMARK SMILES IDX 11 22 10 23 9 24 8 25 7 26 6 27 5 28 4 29 3 30 2 31 1 32
REMARK H PARENT
REMARK Flexibility Score: inf
ROOT
ATOM      1  C   UNL     1      14.145  14.140  16.422  1.00  0.00     0.000 C 
ENDROOT
BRANCH   1   2
ATOM      2  C   UNL     1      13.312  13.084  17.179  1.00  0.00     0.000 C 
BRANCH   2   3
ATOM      3  C   UNL     1      13.844  11.647  17.023  1.00  0.00     0.000 C 
BRANCH   3   4
ATOM      4  C   UNL     1      15.336  11.542  16.667  1.00  0.00     0.000 C 
BRANCH   4   5
ATOM      5  C   UNL     1      15.571  10.977  15.257  1.00  0.00     0.000 C 
BRANCH   5   6
ATOM      6  C   UNL     1      16.550   9.788  15.247  1.00  0.00     0.000 C 
BRANCH   6   7
ATOM      7  C   UNL     1      16.123   8.594  14.368  1.00  0.00     0.000 C 
BRANCH   7   8
ATOM      8  C   UNL     1      15.664   9.020  12.963  1.00  0.00     0.000 C 
BRANCH   8   9
ATOM      9  C   UNL     1      16.724   8.751  11.884  1.00  0.00     0.000 C 
BRANCH   9  10
ATOM     10  C   UNL     1      17.179  10.030  11.164  1.00  0.00     0.000 C 
BRANCH  10  11
ATOM     11  C   UNL     1      16.499  10.159   9.797  1.00  0.00     0.000 C 
BRANCH  11  12
ATOM     12  C   UNL     1      16.205  11.629   9.459  1.00  0.00     0.000 C 
BRANCH  12  13
ATOM     13  C   UNL     1      16.622  12.584  10.590  1.00  0.00     0.006 C 
BRANCH  13  14
ATOM     14  C   UNL     1      17.720  13.565  10.157  1.00  0.00     0.053 C 
BRANCH  14  15
ATOM     15  C   UNL     1      17.156  14.633   9.275  1.00  0.00     0.041 C 
ATOM     16  O   UNL     1      15.909  14.805   9.205  1.00  0.00    -0.550 OA
ATOM     17  O   UNL     1      18.001  15.412   8.498  1.00  0.00    -0.550 OA
ENDBRANCH  14  15
ENDBRANCH  13  14
ENDBRANCH  12  13
ENDBRANCH  11  12
ENDBRANCH  10  11
ENDBRANCH   9  10
ENDBRANCH   8   9
ENDBRANCH   7   8
ENDBRANCH   6   7
ENDBRANCH   5   6
ENDBRANCH   4   5
ENDBRANCH   3   4
ENDBRANCH   2   3
ENDBRANCH   1   2
BRANCH   1  18
ATOM     18  C   UNL     1      14.976  15.017  17.373  1.00  0.00     0.000 C 
BRANCH  18  19
ATOM     19  C   UNL     1      14.445  16.455  17.470  1.00  0.00     0.000 C 
BRANCH  19  20
ATOM     20  C   UNL     1      13.419  16.780  16.376  1.00  0.00     0.000 C 
BRANCH  20  21
ATOM     21  C   UNL     1      13.889  17.965  15.523  1.00  0.00     0.000 C 
BRANCH  21  22
ATOM     22  C   UNL     1      13.507  19.301  16.176  1.00  0.00     0.000 C 
BRANCH  22  23
ATOM     23  C   UNL     1      13.991  20.511  15.361  1.00  0.00     0.000 C 
BRANCH  23  24
ATOM     24  C   UNL     1      15.422  20.328  14.828  1.00  0.00    -0.000 C 
BRANCH  24  25
ATOM     25  C   UNL     1      16.360  21.485  15.217  1.00  0.00    -0.000 C 
BRANCH  25  26
ATOM     26  C   UNL     1      15.946  22.217  16.512  1.00  0.00    -0.000 C 
BRANCH  26  27
ATOM     27  C   UNL     1      16.904  21.936  17.684  1.00  0.00    -0.000 C 
BRANCH  27  28
ATOM     28  C   UNL     1      16.260  21.079  18.789  1.00  0.00    -0.000 C 
BRANCH  28  29
ATOM     29  C   UNL     1      17.203  20.043  19.435  1.00  0.00    -0.000 C 
BRANCH  29  30
ATOM     30  C   UNL     1      16.683  19.527  20.787  1.00  0.00    -0.000 C 
BRANCH  30  31
ATOM     31  C   UNL     1      15.195  19.845  21.012  1.00  0.00    -0.003 C 
ATOM     32  C   UNL     1      14.619  19.126  22.230  1.00  0.00     0.004 C 
ENDBRANCH  30  31
ENDBRANCH  29  30
ENDBRANCH  28  29
ENDBRANCH  27  28
ENDBRANCH  26  27
ENDBRANCH  25  26
ENDBRANCH  24  25
ENDBRANCH  23  24
ENDBRANCH  22  23
ENDBRANCH  21  22
ENDBRANCH  20  21
ENDBRANCH  19  20
ENDBRANCH  18  19
ENDBRANCH   1  18
TORSDOF 28
ENDMDL
MODEL 6
REMARK VINA RESULT:    24.843      2.265     10.649
REMARK INTER + INTRA:          63.626
REMARK INTER:                  65.348
REMARK INTRA:                  -1.722
REMARK UNBOUND:                -1.881
REMARK SMILES CCCCCCCCCCCCCCCCCCCCCCCCCCCCCC(=O)[O-]
REMARK SMILES IDX 16 1 17 2 18 3 19 4 20 5 21 6 22 7 23 8 24 9 25 10 26 11
REMARK SMILES IDX 27 12 28 13 29 14 30 15 31 16 32 17 15 18 14 19 13 20 12 21
REMARK SMILES IDX 11 22 10 23 9 24 8 25 7 26 6 27 5 28 4 29 3 30 2 31 1 32
REMARK H PARENT
REMARK Flexibility Score: inf
ROOT
ATOM      1  C   UNL     1      14.373  16.014  17.564  1.00  0.00     0.000 C 
ENDROOT
BRANCH   1   2
ATOM      2  C   UNL     1      14.590  14.520  17.243  1.00  0.00     0.000 C 
BRANCH   2   3
ATOM      3  C   UNL     1      13.379  13.848  16.569  1.00  0.00     0.000 C 
BRANCH   3   4
ATOM      4  C   UNL     1      12.952  12.508  17.189  1.00  0.00     0.000 C 
BRANCH   4   5
ATOM      5  C   UNL     1      14.117  11.511  17.307  1.00  0.00     0.000 C 
BRANCH   5   6
ATOM      6  C   UNL     1      15.058  11.547  16.088  1.00  0.00     0.000 C 
BRANCH   6   7
ATOM      7  C   UNL     1      15.993  10.329  15.945  1.00  0.00     0.000 C 
BRANCH   7   8
ATOM      8  C   UNL     1      16.441  10.086  14.493  1.00  0.00     0.000 C 
BRANCH   8   9
ATOM      9  C   UNL     1      15.826   8.815  13.886  1.00  0.00     0.000 C 
BRANCH   9  10
ATOM     10  C   UNL     1      16.013   8.733  12.363  1.00  0.00     0.000 C 
BRANCH  10  11
ATOM     11  C   UNL     1      16.755   9.966  11.837  1.00  0.00     0.000 C 
BRANCH  11  12
ATOM     12  C   UNL     1      16.553  10.131  10.322  1.00  0.00     0.000 C 
BRANCH  12  13
ATOM     13  C   UNL     1      17.262  11.379   9.770  1.00  0.00     0.006 C 
BRANCH  13  14
ATOM     14  C   UNL     1      16.329  12.594   9.678  1.00  0.00     0.053 C 
BRANCH  14  15
ATOM     15  C   UNL     1      16.983  13.807  10.259  1.00  0.00     0.041 C 
ATOM     16  O   UNL     1      17.967  14.338   9.677  1.00  0.00    -0.550 OA
ATOM     17  O   UNL     1      16.536  14.328  11.465  1.00  0.00    -0.550 OA
ENDBRANCH  14  15
ENDBRANCH  13  14
ENDBRANCH  12  13
ENDBRANCH  11  12
ENDBRANCH  10  11
ENDBRANCH   9  10
ENDBRANCH   8   9
ENDBRANCH   7   8
ENDBRANCH   6   7
ENDBRANCH   5   6
ENDBRANCH   4   5
ENDBRANCH   3   4
ENDBRANCH   2   3
ENDBRANCH   1   2
BRANCH   1  18
ATOM     18  C   UNL     1      13.665  16.759  16.419  1.00  0.00     0.000 C 
BRANCH  18  19
ATOM     19  C   UNL     1      14.196  18.186  16.224  1.00  0.00     0.000 C 
BRANCH  19  20
ATOM     20  C   UNL     1      13.210  19.084  15.462  1.00  0.00     0.000 C 
BRANCH  20  21
ATOM     21  C   UNL     1      13.955  20.196  14.714  1.00  0.00     0.000 C 
BRANCH  21  22
ATOM     22  C   UNL     1      15.474  20.040  14.862  1.00  0.00     0.000 C 
BRANCH  22  23
ATOM     23  C   UNL     1      16.249  21.191  14.199  1.00  0.00     0.000 C 
BRANCH  23  24
ATOM     24  C   UNL     1      16.411  22.405  15.130  1.00  0.00    -0.000 C 
BRANCH  24  25
ATOM     25  C   UNL     1      16.620  22.008  16.603  1.00  0.00    -0.000 C 
BRANCH  25  26
ATOM     26  C   UNL     1      15.326  22.028  17.445  1.00  0.00    -0.000 C 
BRANCH  26  27
ATOM     27  C   UNL     1      15.564  21.616  18.909  1.00  0.00    -0.000 C 
BRANCH  27  28
ATOM     28  C   UNL     1      17.011  21.159  19.172  1.00  0.00    -0.000 C 
BRANCH  28  29
ATOM     29  C   UNL     1      17.138  19.829  19.942  1.00  0.00    -0.000 C 
BRANCH  29  30
ATOM     30  C   UNL     1      15.773  19.222  20.310  1.00  0.00    -0.000 C 
BRANCH  30  31
ATOM     31  C   UNL     1      15.508  19.229  21.824  1.00  0.00    -0.003 C 
ATOM     32  C   UNL     1      16.788  19.076  22.644  1.00  0.00     0.004 C 
ENDBRANCH  30  31
ENDBRANCH  29  30
ENDBRANCH  28  29
ENDBRANCH  27  28
ENDBRANCH  26  27
ENDBRANCH  25  26
ENDBRANCH  24  25
ENDBRANCH  23  24
ENDBRANCH  22  23
ENDBRANCH  21  22
ENDBRANCH  20  21
ENDBRANCH  19  20
ENDBRANCH  18  19
ENDBRANCH   1  18
TORSDOF 28
ENDMDL
MODEL 7
REMARK VINA RESULT:    24.943      2.190     10.230
REMARK INTER + INTRA:          63.892
REMARK INTER:                  63.475
REMARK INTRA:                   0.417
REMARK UNBOUND:                -1.881
REMARK SMILES CCCCCCCCCCCCCCCCCCCCCCCCCCCCCC(=O)[O-]
REMARK SMILES IDX 16 1 17 2 18 3 19 4 20 5 21 6 22 7 23 8 24 9 25 10 26 11
REMARK SMILES IDX 27 12 28 13 29 14 30 15 31 16 32 17 15 18 14 19 13 20 12 21
REMARK SMILES IDX 11 22 10 23 9 24 8 25 7 26 6 27 5 28 4 29 3 30 2 31 1 32
REMARK H PARENT
REMARK Flexibility Score: inf
ROOT
ATOM      1  C   UNL     1      13.427  13.108  17.671  1.00  0.00     0.000 C 
ENDROOT
BRANCH   1   2
ATOM      2  C   UNL     1      13.849  11.724  17.133  1.00  0.00     0.000 C 
BRANCH   2   3
ATOM      3  C   UNL     1      15.318  11.658  16.674  1.00  0.00     0.000 C 
BRANCH   3   4
ATOM      4  C   UNL     1      15.551  10.914  15.349  1.00  0.00     0.000 C 
BRANCH   4   5
ATOM      5  C   UNL     1      16.577   9.777  15.481  1.00  0.00     0.000 C 
BRANCH   5   6
ATOM      6  C   UNL     1      16.262   8.581  14.562  1.00  0.00     0.000 C 
BRANCH   6   7
ATOM      7  C   UNL     1      15.767   8.952  13.149  1.00  0.00     0.000 C 
BRANCH   7   8
ATOM      8  C   UNL     1      16.895   9.467  12.237  1.00  0.00     0.000 C 
BRANCH   8   9
ATOM      9  C   UNL     1      16.604   9.236  10.746  1.00  0.00     0.000 C 
BRANCH   9  10
ATOM     10  C   UNL     1      17.282  10.275   9.840  1.00  0.00     0.000 C 
BRANCH  10  11
ATOM     11  C   UNL     1      16.742  11.681  10.122  1.00  0.00     0.000 C 
BRANCH  11  12
ATOM     12  C   UNL     1      15.623  12.055   9.136  1.00  0.00     0.000 C 
BRANCH  12  13
ATOM     13  C   UNL     1      14.943  13.385   9.500  1.00  0.00     0.006 C 
BRANCH  13  14
ATOM     14  C   UNL     1      15.906  14.577   9.428  1.00  0.00     0.053 C 
BRANCH  14  15
ATOM     15  C   UNL     1      17.080  14.362  10.330  1.00  0.00     0.041 C 
ATOM     16  O   UNL     1      18.209  14.078   9.846  1.00  0.00    -0.550 OA
ATOM     17  O   UNL     1      16.921  14.435  11.707  1.00  0.00    -0.550 OA
ENDBRANCH  14  15
ENDBRANCH  13  14
ENDBRANCH  12  13
ENDBRANCH  11  12
ENDBRANCH  10  11
ENDBRANCH   9  10
ENDBRANCH   8   9
ENDBRANCH   7   8
ENDBRANCH   6   7
ENDBRANCH   5   6
ENDBRANCH   4   5
ENDBRANCH   3   4
ENDBRANCH   2   3
ENDBRANCH   1   2
BRANCH   1  18
ATOM     18  C   UNL     1      13.871  14.253  16.745  1.00  0.00     0.000 C 
BRANCH  18  19
ATOM     19  C   UNL     1      14.831  15.233  17.433  1.00  0.00     0.000 C 
BRANCH  19  20
ATOM     20  C   UNL     1      14.287  16.669  17.465  1.00  0.00     0.000 C 
BRANCH  20  21
ATOM     21  C   UNL     1      13.559  17.005  16.158  1.00  0.00     0.000 C 
BRANCH  21  22
ATOM     22  C   UNL     1      13.444  18.523  15.965  1.00  0.00     0.000 C 
BRANCH  22  23
ATOM     23  C   UNL     1      14.720  19.136  15.364  1.00  0.00     0.000 C 
BRANCH  23  24
ATOM     24  C   UNL     1      14.458  20.488  14.680  1.00  0.00    -0.000 C 
BRANCH  24  25
ATOM     25  C   UNL     1      15.747  21.168  14.181  1.00  0.00    -0.000 C 
BRANCH  25  26
ATOM     26  C   UNL     1      16.693  21.622  15.314  1.00  0.00    -0.000 C 
BRANCH  26  27
ATOM     27  C   UNL     1      16.031  22.629  16.272  1.00  0.00    -0.000 C 
BRANCH  27  28
ATOM     28  C   UNL     1      14.895  22.005  17.103  1.00  0.00    -0.000 C 
BRANCH  28  29
ATOM     29  C   UNL     1      15.280  21.643  18.552  1.00  0.00    -0.000 C 
BRANCH  29  30
ATOM     30  C   UNL     1      16.777  21.325  18.708  1.00  0.00    -0.000 C 
BRANCH  30  31
ATOM     31  C   UNL     1      17.088  20.554  20.002  1.00  0.00    -0.003 C 
ATOM     32  C   UNL     1      16.519  19.137  19.992  1.00  0.00     0.004 C 
ENDBRANCH  30  31
ENDBRANCH  29  30
ENDBRANCH  28  29
ENDBRANCH  27  28
ENDBRANCH  26  27
ENDBRANCH  25  26
ENDBRANCH  24  25
ENDBRANCH  23  24
ENDBRANCH  22  23
ENDBRANCH  21  22
ENDBRANCH  20  21
ENDBRANCH  19  20
ENDBRANCH  18  19
ENDBRANCH   1  18
TORSDOF 28
ENDMDL
MODEL 8
REMARK VINA RESULT:    25.302      2.898     11.248
REMARK INTER + INTRA:          64.838
REMARK INTER:                  66.494
REMARK INTRA:                  -1.656
REMARK UNBOUND:                -1.881
REMARK SMILES CCCCCCCCCCCCCCCCCCCCCCCCCCCCCC(=O)[O-]
REMARK SMILES IDX 16 1 17 2 18 3 19 4 20 5 21 6 22 7 23 8 24 9 25 10 26 11
REMARK SMILES IDX 27 12 28 13 29 14 30 15 31 16 32 17 15 18 14 19 13 20 12 21
REMARK SMILES IDX 11 22 10 23 9 24 8 25 7 26 6 27 5 28 4 29 3 30 2 31 1 32
REMARK H PARENT
REMARK Flexibility Score: inf
ROOT
ATOM      1  C   UNL     1      14.279  14.977  17.286  1.00  0.00     0.000 C 
ENDROOT
BRANCH   1   2
ATOM      2  C   UNL     1      13.814  13.731  18.070  1.00  0.00     0.000 C 
BRANCH   2   3
ATOM      3  C   UNL     1      13.049  12.707  17.211  1.00  0.00     0.000 C 
BRANCH   3   4
ATOM      4  C   UNL     1      13.834  11.430  16.871  1.00  0.00     0.000 C 
BRANCH   4   5
ATOM      5  C   UNL     1      15.117  11.716  16.073  1.00  0.00     0.000 C 
BRANCH   5   6
ATOM      6  C   UNL     1      16.140  10.568  16.159  1.00  0.00     0.000 C 
BRANCH   6   7
ATOM      7  C   UNL     1      16.656  10.046  14.802  1.00  0.00     0.000 C 
BRANCH   7   8
ATOM      8  C   UNL     1      15.783   8.918  14.225  1.00  0.00     0.000 C 
BRANCH   8   9
ATOM      9  C   UNL     1      15.781   8.895  12.689  1.00  0.00     0.000 C 
BRANCH   9  10
ATOM     10  C   UNL     1      16.909   9.741  12.079  1.00  0.00     0.000 C 
BRANCH  10  11
ATOM     11  C   UNL     1      17.019   9.499  10.570  1.00  0.00     0.000 C 
BRANCH  11  12
ATOM     12  C   UNL     1      16.081  10.432   9.788  1.00  0.00     0.000 C 
BRANCH  12  13
ATOM     13  C   UNL     1      16.788  11.712   9.317  1.00  0.00     0.006 C 
BRANCH  13  14
ATOM     14  C   UNL     1      16.009  12.984   9.681  1.00  0.00     0.053 C 
BRANCH  14  15
ATOM     15  C   UNL     1      16.915  13.996  10.306  1.00  0.00     0.041 C 
ATOM     16  O   UNL     1      17.944  14.390   9.695  1.00  0.00    -0.550 OA
ATOM     17  O   UNL     1      16.647  14.475  11.581  1.00  0.00    -0.550 OA
ENDBRANCH  14  15
ENDBRANCH  13  14
ENDBRANCH  12  13
ENDBRANCH  11  12
ENDBRANCH  10  11
ENDBRANCH   9  10
ENDBRANCH   8   9
ENDBRANCH   7   8
ENDBRANCH   6   7
ENDBRANCH   5   6
ENDBRANCH   4   5
ENDBRANCH   3   4
ENDBRANCH   2   3
ENDBRANCH   1   2
BRANCH   1  18
ATOM     18  C   UNL     1      14.543  16.180  18.207  1.00  0.00     0.000 C 
BRANCH  18  19
ATOM     19  C   UNL     1      15.788  16.978  17.796  1.00  0.00     0.000 C 
BRANCH  19  20
ATOM     20  C   UNL     1      15.773  18.416  18.334  1.00  0.00     0.000 C 
BRANCH  20  21
ATOM     21  C   UNL     1      16.935  18.646  19.308  1.00  0.00     0.000 C 
BRANCH  21  22
ATOM     22  C   UNL     1      16.735  19.939  20.110  1.00  0.00     0.000 C 
BRANCH  22  23
ATOM     23  C   UNL     1      16.001  21.022  19.302  1.00  0.00     0.000 C 
BRANCH  23  24
ATOM     24  C   UNL     1      16.909  21.694  18.258  1.00  0.00    -0.000 C 
BRANCH  24  25
ATOM     25  C   UNL     1      16.139  22.181  17.017  1.00  0.00    -0.000 C 
BRANCH  25  26
ATOM     26  C   UNL     1      14.610  21.984  17.113  1.00  0.00    -0.000 C 
BRANCH  26  27
ATOM     27  C   UNL     1      13.826  23.269  16.790  1.00  0.00    -0.000 C 
BRANCH  27  28
ATOM     28  C   UNL     1      14.732  24.509  16.679  1.00  0.00    -0.000 C 
BRANCH  28  29
ATOM     29  C   UNL     1      14.157  25.788  17.321  1.00  0.00    -0.000 C 
BRANCH  29  30
ATOM     30  C   UNL     1      15.112  26.989  17.213  1.00  0.00    -0.000 C 
BRANCH  30  31
ATOM     31  C   UNL     1      14.543  28.124  16.345  1.00  0.00    -0.003 C 
ATOM     32  C   UNL     1      13.923  27.614  15.046  1.00  0.00     0.004 C 
ENDBRANCH  30  31
ENDBRANCH  29  30
ENDBRANCH  28  29
ENDBRANCH  27  28
ENDBRANCH  26  27
ENDBRANCH  25  26
ENDBRANCH  24  25
ENDBRANCH  23  24
ENDBRANCH  22  23
ENDBRANCH  21  22
ENDBRANCH  20  21
ENDBRANCH  19  20
ENDBRANCH  18  19
ENDBRANCH   1  18
TORSDOF 28
ENDMDL
MODEL 9
REMARK VINA RESULT:    25.571      2.538      9.610
REMARK INTER + INTRA:          65.548
REMARK INTER:                  65.229
REMARK INTRA:                   0.319
REMARK UNBOUND:                -1.881
REMARK SMILES CCCCCCCCCCCCCCCCCCCCCCCCCCCCCC(=O)[O-]
REMARK SMILES IDX 16 1 17 2 18 3 19 4 20 5 21 6 22 7 23 8 24 9 25 10 26 11
REMARK SMILES IDX 27 12 28 13 29 14 30 15 31 16 32 17 15 18 14 19 13 20 12 21
REMARK SMILES IDX 11 22 10 23 9 24 8 25 7 26 6 27 5 28 4 29 3 30 2 31 1 32
REMARK H PARENT
REMARK Flexibility Score: inf
ROOT
ATOM      1  C   UNL     1       9.411  11.546  15.587  1.00  0.00     0.000 C 
ENDROOT
BRANCH   1   2
ATOM      2  C   UNL     1      10.167  10.903  16.769  1.00  0.00     0.000 C 
BRANCH   2   3
ATOM      3  C   UNL     1      10.827  11.926  17.713  1.00  0.00     0.000 C 
BRANCH   3   4
ATOM      4  C   UNL     1      12.259  11.576  18.150  1.00  0.00     0.000 C 
BRANCH   4   5
ATOM      5  C   UNL     1      13.112  11.023  16.998  1.00  0.00     0.000 C 
BRANCH   5   6
ATOM      6  C   UNL     1      14.505  11.676  16.921  1.00  0.00     0.000 C 
BRANCH   6   7
ATOM      7  C   UNL     1      15.245  11.488  15.581  1.00  0.00     0.000 C 
BRANCH   7   8
ATOM      8  C   UNL     1      16.241  10.315  15.607  1.00  0.00     0.000 C 
BRANCH   8   9
ATOM      9  C   UNL     1      16.165   9.442  14.345  1.00  0.00     0.000 C 
BRANCH   9  10
ATOM     10  C   UNL     1      16.647  10.176  13.084  1.00  0.00     0.000 C 
BRANCH  10  11
ATOM     11  C   UNL     1      16.693   9.225  11.883  1.00  0.00     0.000 C 
BRANCH  11  12
ATOM     12  C   UNL     1      16.489   9.986  10.564  1.00  0.00     0.000 C 
BRANCH  12  13
ATOM     13  C   UNL     1      17.371  11.242  10.471  1.00  0.00     0.006 C 
BRANCH  13  14
ATOM     14  C   UNL     1      16.729  12.351   9.626  1.00  0.00     0.053 C 
BRANCH  14  15
ATOM     15  C   UNL     1      17.089  13.699  10.164  1.00  0.00     0.041 C 
ATOM     16  O   UNL     1      18.049  14.347   9.665  1.00  0.00    -0.550 OA
ATOM     17  O   UNL     1      16.394  14.225  11.244  1.00  0.00    -0.550 OA
ENDBRANCH  14  15
ENDBRANCH  13  14
ENDBRANCH  12  13
ENDBRANCH  11  12
ENDBRANCH  10  11
ENDBRANCH   9  10
ENDBRANCH   8   9
ENDBRANCH   7   8
ENDBRANCH   6   7
ENDBRANCH   5   6
ENDBRANCH   4   5
ENDBRANCH   3   4
ENDBRANCH   2   3
ENDBRANCH   1   2
BRANCH   1  18
ATOM     18  C   UNL     1       9.508  13.081  15.600  1.00  0.00     0.000 C 
BRANCH  18  19
ATOM     19  C   UNL     1      10.880  13.592  15.140  1.00  0.00     0.000 C 
BRANCH  19  20
ATOM     20  C   UNL     1      11.834  13.864  16.312  1.00  0.00     0.000 C 
BRANCH  20  21
ATOM     21  C   UNL     1      12.877  14.921  15.932  1.00  0.00     0.000 C 
BRANCH  21  22
ATOM     22  C   UNL     1      14.145  14.777  16.785  1.00  0.00     0.000 C 
BRANCH  22  23
ATOM     23  C   UNL     1      14.224  15.832  17.900  1.00  0.00     0.000 C 
BRANCH  23  24
ATOM     24  C   UNL     1      15.537  16.633  17.862  1.00  0.00    -0.000 C 
BRANCH  24  25
ATOM     25  C   UNL     1      15.481  17.918  18.709  1.00  0.00    -0.000 C 
BRANCH  25  26
ATOM     26  C   UNL     1      16.869  18.499  19.055  1.00  0.00    -0.000 C 
BRANCH  26  27
ATOM     27  C   UNL     1      16.802  19.585  20.145  1.00  0.00    -0.000 C 
BRANCH  27  28
ATOM     28  C   UNL     1      16.985  21.007  19.583  1.00  0.00    -0.000 C 
BRANCH  28  29
ATOM     29  C   UNL     1      15.767  21.560  18.818  1.00  0.00    -0.000 C 
BRANCH  29  30
ATOM     30  C   UNL     1      16.071  21.838  17.336  1.00  0.00    -0.000 C 
BRANCH  30  31
ATOM     31  C   UNL     1      14.805  21.858  16.463  1.00  0.00    -0.003 C 
ATOM     32  C   UNL     1      14.561  20.529  15.752  1.00  0.00     0.004 C 
ENDBRANCH  30  31
ENDBRANCH  29  30
ENDBRANCH  28  29
ENDBRANCH  27  28
ENDBRANCH  26  27
ENDBRANCH  25  26
ENDBRANCH  24  25
ENDBRANCH  23  24
ENDBRANCH  22  23
ENDBRANCH  21  22
ENDBRANCH  20  21
ENDBRANCH  19  20
ENDBRANCH  18  19
ENDBRANCH   1  18
TORSDOF 28
ENDMDL
