MODEL 1
REMARK VINA RESULT:    -5.774      0.000      0.000
REMARK INTER + INTRA:         -12.419
REMARK INTER:                 -10.500
REMARK INTRA:                  -1.919
REMARK UNBOUND:                -1.919
REMARK SMILES CCCCCCCCCCCCCCCC(=O)[O-]
REMARK SMILES IDX 9 1 10 2 11 3 12 4 13 5 14 6 15 7 16 8 17 9 18 10 8 11 7 12
REMARK SMILES IDX 6 13 5 14 4 15 3 16 2 17 1 18
REMARK H PARENT
REMARK Flexibility Score: inf
ROOT
ATOM      1  C   UNL     1     -15.103 -13.060  -8.634  1.00  0.00     0.000 C 
ENDROOT
BRANCH   1   2
ATOM      2  C   UNL     1     -14.427 -12.401  -9.850  1.00  0.00     0.000 C 
BRANCH   2   3
ATOM      3  C   UNL     1     -15.258 -11.254 -10.447  1.00  0.00     0.000 C 
BRANCH   3   4
ATOM      4  C   UNL     1     -16.682 -11.688 -10.842  1.00  0.00     0.000 C 
BRANCH   4   5
ATOM      5  C   UNL     1     -17.713 -10.549 -10.952  1.00  0.00     0.000 C 
BRANCH   5   6
ATOM      6  C   UNL     1     -19.187 -10.994 -11.023  1.00  0.00     0.006 C 
BRANCH   6   7
ATOM      7  C   UNL     1     -19.560 -11.712 -12.333  1.00  0.00     0.053 C 
BRANCH   7   8
ATOM      8  C   UNL     1     -20.711 -11.060 -13.036  1.00  0.00     0.041 C 
ATOM      9  O   UNL     1     -21.312 -11.661 -13.965  1.00  0.00    -0.550 OA
ATOM     10  O   UNL     1     -21.144  -9.799 -12.642  1.00  0.00    -0.550 OA
ENDBRANCH   7   8
ENDBRANCH   6   7
ENDBRANCH   5   6
ENDBRANCH   4   5
ENDBRANCH   3   4
ENDBRANCH   2   3
ENDBRANCH   1   2
BRANCH   1  11
ATOM     11  C   UNL     1     -15.255 -12.156  -7.393  1.00  0.00     0.000 C 
BRANCH  11  12
ATOM     12  C   UNL     1     -13.958 -11.479  -6.916  1.00  0.00    -0.000 C 
BRANCH  12  13
ATOM     13  C   UNL     1     -14.195 -10.068  -6.349  1.00  0.00    -0.000 C 
BRANCH  13  14
ATOM     14  C   UNL     1     -13.944  -8.968  -7.402  1.00  0.00    -0.000 C 
BRANCH  14  15
ATOM     15  C   UNL     1     -15.089  -7.947  -7.509  1.00  0.00    -0.000 C 
BRANCH  15  16
ATOM     16  C   UNL     1     -16.153  -8.348  -8.543  1.00  0.00    -0.000 C 
BRANCH  16  17
ATOM     17  C   UNL     1     -17.557  -8.462  -7.930  1.00  0.00    -0.003 C 
ATOM     18  C   UNL     1     -17.828  -9.841  -7.329  1.00  0.00     0.004 C 
ENDBRANCH  16  17
ENDBRANCH  15  16
ENDBRANCH  14  15
ENDBRANCH  13  14
ENDBRANCH  12  13
ENDBRANCH  11  12
ENDBRANCH   1  11
TORSDOF 14
ENDMDL
MODEL 2
REMARK VINA RESULT:    -5.614      1.178      3.249
REMARK INTER + INTRA:         -12.127
REMARK INTER:                 -10.245
REMARK INTRA:                  -1.882
REMARK UNBOUND:                -1.919
REMARK SMILES CCCCCCCCCCCCCCCC(=O)[O-]
REMARK SMILES IDX 9 1 10 2 11 3 12 4 13 5 14 6 15 7 16 8 17 9 18 10 8 11 7 12
REMARK SMILES IDX 6 13 5 14 4 15 3 16 2 17 1 18
REMARK H PARENT
REMARK Flexibility Score: inf
ROOT
ATOM      1  C   UNL     1     -17.202  -8.384  -7.919  1.00  0.00     0.000 C 
ENDROOT
BRANCH   1   2
ATOM      2  C   UNL     1     -16.554  -8.379  -9.316  1.00  0.00     0.000 C 
BRANCH   2   3
ATOM      3  C   UNL     1     -17.227  -9.359 -10.290  1.00  0.00     0.000 C 
BRANCH   3   4
ATOM      4  C   UNL     1     -16.361 -10.599 -10.584  1.00  0.00     0.000 C 
BRANCH   4   5
ATOM      5  C   UNL     1     -17.136 -11.855 -11.027  1.00  0.00     0.000 C 
BRANCH   5   6
ATOM      6  C   UNL     1     -18.630 -11.637 -11.334  1.00  0.00     0.006 C 
BRANCH   6   7
ATOM      7  C   UNL     1     -18.919 -11.262 -12.799  1.00  0.00     0.053 C 
BRANCH   7   8
ATOM      8  C   UNL     1     -20.381 -11.068 -13.063  1.00  0.00     0.041 C 
ATOM      9  O   UNL     1     -21.026 -11.924 -13.723  1.00  0.00    -0.550 OA
ATOM     10  O   UNL     1     -21.040  -9.957 -12.551  1.00  0.00    -0.550 OA
ENDBRANCH   7   8
ENDBRANCH   6   7
ENDBRANCH   5   6
ENDBRANCH   4   5
ENDBRANCH   3   4
ENDBRANCH   2   3
ENDBRANCH   1   2
BRANCH   1  11
ATOM     11  C   UNL     1     -18.141  -9.573  -7.632  1.00  0.00     0.000 C 
BRANCH  11  12
ATOM     12  C   UNL     1     -17.665 -10.529  -6.523  1.00  0.00    -0.000 C 
BRANCH  12  13
ATOM     13  C   UNL     1     -16.134 -10.556  -6.378  1.00  0.00    -0.000 C 
BRANCH  13  14
ATOM     14  C   UNL     1     -15.485 -11.655  -7.246  1.00  0.00    -0.000 C 
BRANCH  14  15
ATOM     15  C   UNL     1     -14.104 -11.267  -7.798  1.00  0.00    -0.000 C 
BRANCH  15  16
ATOM     16  C   UNL     1     -13.684  -9.840  -7.412  1.00  0.00    -0.000 C 
BRANCH  16  17
ATOM     17  C   UNL     1     -12.392  -9.809  -6.582  1.00  0.00    -0.003 C 
ATOM     18  C   UNL     1     -12.415 -10.799  -5.418  1.00  0.00     0.004 C 
ENDBRANCH  16  17
ENDBRANCH  15  16
ENDBRANCH  14  15
ENDBRANCH  13  14
ENDBRANCH  12  13
ENDBRANCH  11  12
ENDBRANCH   1  11
TORSDOF 14
ENDMDL
MODEL 3
REMARK VINA RESULT:    -5.559      0.836      3.461
REMARK INTER + INTRA:         -12.027
REMARK INTER:                 -10.410
REMARK INTRA:                  -1.617
REMARK UNBOUND:                -1.919
REMARK SMILES CCCCCCCCCCCCCCCC(=O)[O-]
REMARK SMILES IDX 9 1 10 2 11 3 12 4 13 5 14 6 15 7 16 8 17 9 18 10 8 11 7 12
REMARK SMILES IDX 6 13 5 14 4 15 3 16 2 17 1 18
REMARK H PARENT
REMARK Flexibility Score: inf
ROOT
ATOM      1  C   UNL     1     -15.899  -8.185  -7.238  1.00  0.00     0.000 C 
ENDROOT
BRANCH   1   2
ATOM      2  C   UNL     1     -16.892  -9.119  -6.523  1.00  0.00     0.000 C 
BRANCH   2   3
ATOM      3  C   UNL     1     -17.817  -9.866  -7.498  1.00  0.00     0.000 C 
BRANCH   3   4
ATOM      4  C   UNL     1     -17.831  -9.243  -8.906  1.00  0.00     0.000 C 
BRANCH   4   5
ATOM      5  C   UNL     1     -19.109  -9.498  -9.728  1.00  0.00     0.000 C 
BRANCH   5   6
ATOM      6  C   UNL     1     -18.883  -9.852 -11.211  1.00  0.00     0.006 C 
BRANCH   6   7
ATOM      7  C   UNL     1     -19.538 -11.176 -11.644  1.00  0.00     0.053 C 
BRANCH   7   8
ATOM      8  C   UNL     1     -20.586 -10.979 -12.696  1.00  0.00     0.041 C 
ATOM      9  O   UNL     1     -21.200  -9.884 -12.783  1.00  0.00    -0.550 OA
ATOM     10  O   UNL     1     -20.862 -11.994 -13.604  1.00  0.00    -0.550 OA
ENDBRANCH   7   8
ENDBRANCH   6   7
ENDBRANCH   5   6
ENDBRANCH   4   5
ENDBRANCH   3   4
ENDBRANCH   2   3
ENDBRANCH   1   2
BRANCH   1  11
ATOM     11  C   UNL     1     -14.496  -8.778  -7.485  1.00  0.00     0.000 C 
BRANCH  11  12
ATOM     12  C   UNL     1     -14.012  -9.776  -6.418  1.00  0.00    -0.000 C 
BRANCH  12  13
ATOM     13  C   UNL     1     -13.782 -11.188  -6.985  1.00  0.00    -0.000 C 
BRANCH  13  14
ATOM     14  C   UNL     1     -15.092 -11.999  -7.080  1.00  0.00    -0.000 C 
BRANCH  14  15
ATOM     15  C   UNL     1     -15.148 -12.935  -8.299  1.00  0.00    -0.000 C 
BRANCH  15  16
ATOM     16  C   UNL     1     -14.405 -12.372  -9.520  1.00  0.00    -0.000 C 
BRANCH  16  17
ATOM     17  C   UNL     1     -15.245 -11.355 -10.305  1.00  0.00    -0.003 C 
ATOM     18  C   UNL     1     -16.190 -12.018 -11.307  1.00  0.00     0.004 C 
ENDBRANCH  16  17
ENDBRANCH  15  16
ENDBRANCH  14  15
ENDBRANCH  13  14
ENDBRANCH  12  13
ENDBRANCH  11  12
ENDBRANCH   1  11
TORSDOF 14
ENDMDL
MODEL 4
REMARK VINA RESULT:    -5.537      2.346      5.546
REMARK INTER + INTRA:         -11.987
REMARK INTER:                 -10.509
REMARK INTRA:                  -1.478
REMARK UNBOUND:                -1.919
REMARK SMILES CCCCCCCCCCCCCCCC(=O)[O-]
REMARK SMILES IDX 9 1 10 2 11 3 12 4 13 5 14 6 15 7 16 8 17 9 18 10 8 11 7 12
REMARK SMILES IDX 6 13 5 14 4 15 3 16 2 17 1 18
REMARK H PARENT
REMARK Flexibility Score: inf
ROOT
ATOM      1  C   UNL     1     -15.134 -12.878  -8.371  1.00  0.00     0.000 C 
ENDROOT
BRANCH   1   2
ATOM      2  C   UNL     1     -15.051 -11.989  -7.117  1.00  0.00     0.000 C 
BRANCH   2   3
ATOM      3  C   UNL     1     -13.680 -11.313  -6.954  1.00  0.00     0.000 C 
BRANCH   3   4
ATOM      4  C   UNL     1     -13.784  -9.865  -6.440  1.00  0.00     0.000 C 
BRANCH   4   5
ATOM      5  C   UNL     1     -14.126  -8.808  -7.509  1.00  0.00     0.000 C 
BRANCH   5   6
ATOM      6  C   UNL     1     -15.422  -8.013  -7.262  1.00  0.00     0.006 C 
BRANCH   6   7
ATOM      7  C   UNL     1     -16.632  -8.524  -8.065  1.00  0.00     0.053 C 
BRANCH   7   8
ATOM      8  C   UNL     1     -17.533  -9.398  -7.248  1.00  0.00     0.041 C 
ATOM      9  O   UNL     1     -18.566  -9.902  -7.762  1.00  0.00    -0.550 OA
ATOM     10  O   UNL     1     -17.216  -9.683  -5.925  1.00  0.00    -0.550 OA
ENDBRANCH   7   8
ENDBRANCH   6   7
ENDBRANCH   5   6
ENDBRANCH   4   5
ENDBRANCH   3   4
ENDBRANCH   2   3
ENDBRANCH   1   2
BRANCH   1  11
ATOM     11  C   UNL     1     -14.403 -12.334  -9.616  1.00  0.00     0.000 C 
BRANCH  11  12
ATOM     12  C   UNL     1     -15.307 -11.650 -10.657  1.00  0.00    -0.000 C 
BRANCH  12  13
ATOM     13  C   UNL     1     -16.764 -11.511 -10.181  1.00  0.00    -0.000 C 
BRANCH  13  14
ATOM     14  C   UNL     1     -17.753 -11.398 -11.360  1.00  0.00    -0.000 C 
BRANCH  14  15
ATOM     15  C   UNL     1     -18.665 -10.162 -11.281  1.00  0.00    -0.000 C 
BRANCH  15  16
ATOM     16  C   UNL     1     -20.012 -10.367 -11.992  1.00  0.00    -0.000 C 
BRANCH  16  17
ATOM     17  C   UNL     1     -20.016 -11.603 -12.903  1.00  0.00    -0.003 C 
ATOM     18  C   UNL     1     -21.173 -11.597 -13.901  1.00  0.00     0.004 C 
ENDBRANCH  16  17
ENDBRANCH  15  16
ENDBRANCH  14  15
ENDBRANCH  13  14
ENDBRANCH  12  13
ENDBRANCH  11  12
ENDBRANCH   1  11
TORSDOF 14
ENDMDL
MODEL 5
REMARK VINA RESULT:    -5.524      5.879      8.694
REMARK INTER + INTRA:         -11.963
REMARK INTER:                 -10.324
REMARK INTRA:                  -1.639
REMARK UNBOUND:                -1.919
REMARK SMILES CCCCCCCCCCCCCCCC(=O)[O-]
REMARK SMILES IDX 9 1 10 2 11 3 12 4 13 5 14 6 15 7 16 8 17 9 18 10 8 11 7 12
REMARK SMILES IDX 6 13 5 14 4 15 3 16 2 17 1 18
REMARK H PARENT
REMARK Flexibility Score: inf
ROOT
ATOM      1  C   UNL     1     -15.329  -9.526  -6.208  1.00  0.00     0.000 C 
ENDROOT
BRANCH   1   2
ATOM      2  C   UNL     1     -14.182  -9.150  -7.164  1.00  0.00     0.000 C 
BRANCH   2   3
ATOM      3  C   UNL     1     -12.879  -9.905  -6.859  1.00  0.00     0.000 C 
BRANCH   3   4
ATOM      4  C   UNL     1     -13.047 -10.970  -5.759  1.00  0.00     0.000 C 
BRANCH   4   5
ATOM      5  C   UNL     1     -11.814 -11.194  -4.863  1.00  0.00     0.000 C 
BRANCH   5   6
ATOM      6  C   UNL     1     -12.118 -11.526  -3.389  1.00  0.00     0.006 C 
BRANCH   6   7
ATOM      7  C   UNL     1     -11.225 -12.633  -2.801  1.00  0.00     0.053 C 
BRANCH   7   8
ATOM      8  C   UNL     1     -10.799 -12.338  -1.395  1.00  0.00     0.041 C 
ATOM      9  O   UNL     1      -9.934 -13.057  -0.829  1.00  0.00    -0.550 OA
ATOM     10  O   UNL     1     -11.333 -11.247  -0.719  1.00  0.00    -0.550 OA
ENDBRANCH   7   8
ENDBRANCH   6   7
ENDBRANCH   5   6
ENDBRANCH   4   5
ENDBRANCH   3   4
ENDBRANCH   2   3
ENDBRANCH   1   2
BRANCH   1  11
ATOM     11  C   UNL     1     -16.751  -9.306  -6.765  1.00  0.00     0.000 C 
BRANCH  11  12
ATOM     12  C   UNL     1     -16.857  -8.261  -7.889  1.00  0.00    -0.000 C 
BRANCH  12  13
ATOM     13  C   UNL     1     -17.603  -8.792  -9.126  1.00  0.00    -0.000 C 
BRANCH  13  14
ATOM     14  C   UNL     1     -16.653  -9.491 -10.123  1.00  0.00    -0.000 C 
BRANCH  14  15
ATOM     15  C   UNL     1     -16.804 -11.022 -10.145  1.00  0.00    -0.000 C 
BRANCH  15  16
ATOM     16  C   UNL     1     -15.533 -11.740 -10.624  1.00  0.00    -0.000 C 
BRANCH  16  17
ATOM     17  C   UNL     1     -14.525 -11.976  -9.489  1.00  0.00    -0.003 C 
ATOM     18  C   UNL     1     -15.133 -12.735  -8.309  1.00  0.00     0.004 C 
ENDBRANCH  16  17
ENDBRANCH  15  16
ENDBRANCH  14  15
ENDBRANCH  13  14
ENDBRANCH  12  13
ENDBRANCH  11  12
ENDBRANCH   1  11
TORSDOF 14
ENDMDL
MODEL 6
REMARK VINA RESULT:    -5.500      6.219      8.792
REMARK INTER + INTRA:         -11.920
REMARK INTER:                 -10.455
REMARK INTRA:                  -1.466
REMARK UNBOUND:                -1.919
REMARK SMILES CCCCCCCCCCCCCCCC(=O)[O-]
REMARK SMILES IDX 9 1 10 2 11 3 12 4 13 5 14 6 15 7 16 8 17 9 18 10 8 11 7 12
REMARK SMILES IDX 6 13 5 14 4 15 3 16 2 17 1 18
REMARK H PARENT
REMARK Flexibility Score: inf
ROOT
ATOM      1  C   UNL     1     -14.245 -11.685  -7.308  1.00  0.00     0.000 C 
ENDROOT
BRANCH   1   2
ATOM      2  C   UNL     1     -13.495 -10.345  -7.428  1.00  0.00     0.000 C 
BRANCH   2   3
ATOM      3  C   UNL     1     -12.463 -10.137  -6.308  1.00  0.00     0.000 C 
BRANCH   3   4
ATOM      4  C   UNL     1     -12.782 -10.951  -5.040  1.00  0.00     0.000 C 
BRANCH   4   5
ATOM      5  C   UNL     1     -11.578 -11.659  -4.390  1.00  0.00     0.000 C 
BRANCH   5   6
ATOM      6  C   UNL     1     -11.757 -12.045  -2.909  1.00  0.00     0.006 C 
BRANCH   6   7
ATOM      7  C   UNL     1     -10.537 -12.756  -2.296  1.00  0.00     0.053 C 
BRANCH   7   8
ATOM      8  C   UNL     1     -10.363 -12.444  -0.842  1.00  0.00     0.041 C 
ATOM      9  O   UNL     1      -9.723 -13.231  -0.096  1.00  0.00    -0.550 OA
ATOM     10  O   UNL     1     -10.878 -11.266  -0.315  1.00  0.00    -0.550 OA
ENDBRANCH   7   8
ENDBRANCH   6   7
ENDBRANCH   5   6
ENDBRANCH   4   5
ENDBRANCH   3   4
ENDBRANCH   2   3
ENDBRANCH   1   2
BRANCH   1  11
ATOM     11  C   UNL     1     -14.916 -12.183  -8.604  1.00  0.00     0.000 C 
BRANCH  11  12
ATOM     12  C   UNL     1     -15.154 -11.103  -9.674  1.00  0.00    -0.000 C 
BRANCH  12  13
ATOM     13  C   UNL     1     -16.617 -11.043 -10.145  1.00  0.00    -0.000 C 
BRANCH  13  14
ATOM     14  C   UNL     1     -17.118  -9.592 -10.308  1.00  0.00    -0.000 C 
BRANCH  14  15
ATOM     15  C   UNL     1     -17.962  -9.096  -9.122  1.00  0.00    -0.000 C 
BRANCH  15  16
ATOM     16  C   UNL     1     -17.165  -8.211  -8.150  1.00  0.00    -0.000 C 
BRANCH  16  17
ATOM     17  C   UNL     1     -16.800  -8.943  -6.850  1.00  0.00    -0.003 C 
ATOM     18  C   UNL     1     -17.591 -10.237  -6.660  1.00  0.00     0.004 C 
ENDBRANCH  16  17
ENDBRANCH  15  16
ENDBRANCH  14  15
ENDBRANCH  13  14
ENDBRANCH  12  13
ENDBRANCH  11  12
ENDBRANCH   1  11
TORSDOF 14
ENDMDL
MODEL 7
REMARK VINA RESULT:    -5.478      6.743      9.469
REMARK INTER + INTRA:         -11.881
REMARK INTER:                 -10.603
REMARK INTRA:                  -1.278
REMARK UNBOUND:                -1.919
REMARK SMILES CCCCCCCCCCCCCCCC(=O)[O-]
REMARK SMILES IDX 9 1 10 2 11 3 12 4 13 5 14 6 15 7 16 8 17 9 18 10 8 11 7 12
REMARK SMILES IDX 6 13 5 14 4 15 3 16 2 17 1 18
REMARK H PARENT
REMARK Flexibility Score: inf
ROOT
ATOM      1  C   UNL     1     -13.215  -9.806  -7.213  1.00  0.00     0.000 C 
ENDROOT
BRANCH   1   2
ATOM      2  C   UNL     1     -13.265 -10.788  -6.029  1.00  0.00     0.000 C 
BRANCH   2   3
ATOM      3  C   UNL     1     -12.067 -10.640  -5.078  1.00  0.00     0.000 C 
BRANCH   3   4
ATOM      4  C   UNL     1     -11.891 -11.850  -4.142  1.00  0.00     0.000 C 
BRANCH   4   5
ATOM      5  C   UNL     1     -12.030 -11.548  -2.638  1.00  0.00     0.000 C 
BRANCH   5   6
ATOM      6  C   UNL     1     -11.224 -12.467  -1.700  1.00  0.00     0.006 C 
BRANCH   6   7
ATOM      7  C   UNL     1      -9.941 -13.035  -2.333  1.00  0.00     0.053 C 
BRANCH   7   8
ATOM      8  C   UNL     1      -8.964 -13.523  -1.307  1.00  0.00     0.041 C 
ATOM      9  O   UNL     1      -8.496 -14.689  -1.380  1.00  0.00    -0.550 OA
ATOM     10  O   UNL     1      -8.543 -12.677  -0.289  1.00  0.00    -0.550 OA
ENDBRANCH   7   8
ENDBRANCH   6   7
ENDBRANCH   5   6
ENDBRANCH   4   5
ENDBRANCH   3   4
ENDBRANCH   2   3
ENDBRANCH   1   2
BRANCH   1  11
ATOM     11  C   UNL     1     -14.313  -8.723  -7.219  1.00  0.00     0.000 C 
BRANCH  11  12
ATOM     12  C   UNL     1     -15.591  -9.084  -6.442  1.00  0.00    -0.000 C 
BRANCH  12  13
ATOM     13  C   UNL     1     -16.863  -8.970  -7.301  1.00  0.00    -0.000 C 
BRANCH  13  14
ATOM     14  C   UNL     1     -16.594  -8.263  -8.647  1.00  0.00    -0.000 C 
BRANCH  14  15
ATOM     15  C   UNL     1     -17.189  -9.002  -9.858  1.00  0.00    -0.000 C 
BRANCH  15  16
ATOM     16  C   UNL     1     -16.932 -10.517  -9.819  1.00  0.00    -0.000 C 
BRANCH  16  17
ATOM     17  C   UNL     1     -15.477 -10.877 -10.154  1.00  0.00    -0.003 C 
ATOM     18  C   UNL     1     -14.942 -12.025  -9.299  1.00  0.00     0.004 C 
ENDBRANCH  16  17
ENDBRANCH  15  16
ENDBRANCH  14  15
ENDBRANCH  13  14
ENDBRANCH  12  13
ENDBRANCH  11  12
ENDBRANCH   1  11
TORSDOF 14
ENDMDL
MODEL 8
REMARK VINA RESULT:    -5.331      1.768      3.887
REMARK INTER + INTRA:         -11.613
REMARK INTER:                  -9.944
REMARK INTRA:                  -1.669
REMARK UNBOUND:                -1.919
REMARK SMILES CCCCCCCCCCCCCCCC(=O)[O-]
REMARK SMILES IDX 9 1 10 2 11 3 12 4 13 5 14 6 15 7 16 8 17 9 18 10 8 11 7 12
REMARK SMILES IDX 6 13 5 14 4 15 3 16 2 17 1 18
REMARK H PARENT
REMARK Flexibility Score: inf
ROOT
ATOM      1  C   UNL     1     -17.376 -10.298  -6.545  1.00  0.00     0.000 C 
ENDROOT
BRANCH   1   2
ATOM      2  C   UNL     1     -16.955  -8.860  -6.898  1.00  0.00     0.000 C 
BRANCH   2   3
ATOM      3  C   UNL     1     -17.555  -8.372  -8.227  1.00  0.00     0.000 C 
BRANCH   3   4
ATOM      4  C   UNL     1     -16.552  -8.432  -9.395  1.00  0.00     0.000 C 
BRANCH   4   5
ATOM      5  C   UNL     1     -16.857  -9.490 -10.473  1.00  0.00     0.000 C 
BRANCH   5   6
ATOM      6  C   UNL     1     -18.154 -10.294 -10.263  1.00  0.00     0.006 C 
BRANCH   6   7
ATOM      7  C   UNL     1     -18.427 -11.338 -11.361  1.00  0.00     0.053 C 
BRANCH   7   8
ATOM      8  C   UNL     1     -19.610 -10.982 -12.208  1.00  0.00     0.041 C 
ATOM      9  O   UNL     1     -20.235  -9.907 -12.007  1.00  0.00    -0.550 OA
ATOM     10  O   UNL     1     -20.005 -11.821 -13.243  1.00  0.00    -0.550 OA
ENDBRANCH   7   8
ENDBRANCH   6   7
ENDBRANCH   5   6
ENDBRANCH   4   5
ENDBRANCH   3   4
ENDBRANCH   2   3
ENDBRANCH   1   2
BRANCH   1  11
ATOM     11  C   UNL     1     -16.231 -11.331  -6.510  1.00  0.00     0.000 C 
BRANCH  11  12
ATOM     12  C   UNL     1     -15.559 -11.607  -7.867  1.00  0.00    -0.000 C 
BRANCH  12  13
ATOM     13  C   UNL     1     -14.030 -11.448  -7.817  1.00  0.00    -0.000 C 
BRANCH  13  14
ATOM     14  C   UNL     1     -13.605 -10.062  -7.288  1.00  0.00    -0.000 C 
BRANCH  14  15
ATOM     15  C   UNL     1     -12.414 -10.114  -6.315  1.00  0.00    -0.000 C 
BRANCH  15  16
ATOM     16  C   UNL     1     -12.752 -10.825  -4.995  1.00  0.00    -0.000 C 
BRANCH  16  17
ATOM     17  C   UNL     1     -11.591 -11.686  -4.476  1.00  0.00    -0.003 C 
ATOM     18  C   UNL     1     -11.731 -12.036  -2.995  1.00  0.00     0.004 C 
ENDBRANCH  16  17
ENDBRANCH  15  16
ENDBRANCH  14  15
ENDBRANCH  13  14
ENDBRANCH  12  13
ENDBRANCH  11  12
ENDBRANCH   1  11
TORSDOF 14
ENDMDL
MODEL 9
REMARK VINA RESULT:    -5.302      6.535      9.465
REMARK INTER + INTRA:         -11.560
REMARK INTER:                 -11.140
REMARK INTRA:                  -0.421
REMARK UNBOUND:                -1.919
REMARK SMILES CCCCCCCCCCCCCCCC(=O)[O-]
REMARK SMILES IDX 9 1 10 2 11 3 12 4 13 5 14 6 15 7 16 8 17 9 18 10 8 11 7 12
REMARK SMILES IDX 6 13 5 14 4 15 3 16 2 17 1 18
REMARK H PARENT
REMARK Flexibility Score: inf
ROOT
ATOM      1  C   UNL     1     -14.382  -9.358  -7.217  1.00  0.00     0.000 C 
ENDROOT
BRANCH   1   2
ATOM      2  C   UNL     1     -13.743 -10.649  -6.670  1.00  0.00     0.000 C 
BRANCH   2   3
ATOM      3  C   UNL     1     -12.536 -10.378  -5.758  1.00  0.00     0.000 C 
BRANCH   3   4
ATOM      4  C   UNL     1     -12.136 -11.603  -4.915  1.00  0.00     0.000 C 
BRANCH   4   5
ATOM      5  C   UNL     1     -12.093 -11.371  -3.392  1.00  0.00     0.000 C 
BRANCH   5   6
ATOM      6  C   UNL     1     -11.380 -12.466  -2.576  1.00  0.00     0.006 C 
BRANCH   6   7
ATOM      7  C   UNL     1     -11.136 -12.089  -1.103  1.00  0.00     0.053 C 
BRANCH   7   8
ATOM      8  C   UNL     1      -9.887 -12.706  -0.553  1.00  0.00     0.041 C 
ATOM      9  O   UNL     1      -9.863 -13.149   0.625  1.00  0.00    -0.550 OA
ATOM     10  O   UNL     1      -8.757 -12.824  -1.353  1.00  0.00    -0.550 OA
ENDBRANCH   7   8
ENDBRANCH   6   7
ENDBRANCH   5   6
ENDBRANCH   4   5
ENDBRANCH   3   4
ENDBRANCH   2   3
ENDBRANCH   1   2
BRANCH   1  11
ATOM     11  C   UNL     1     -15.558  -8.802  -6.388  1.00  0.00     0.000 C 
BRANCH  11  12
ATOM     12  C   UNL     1     -16.955  -9.069  -6.977  1.00  0.00    -0.000 C 
BRANCH  12  13
ATOM     13  C   UNL     1     -17.190  -8.335  -8.308  1.00  0.00    -0.000 C 
BRANCH  13  14
ATOM     14  C   UNL     1     -17.194  -9.299  -9.513  1.00  0.00    -0.000 C 
BRANCH  14  15
ATOM     15  C   UNL     1     -18.602  -9.747  -9.938  1.00  0.00    -0.000 C 
BRANCH  15  16
ATOM     16  C   UNL     1     -18.700 -10.069 -11.437  1.00  0.00    -0.000 C 
BRANCH  16  17
ATOM     17  C   UNL     1     -19.279 -11.466 -11.704  1.00  0.00    -0.003 C 
ATOM     18  C   UNL     1     -20.065 -11.539 -13.013  1.00  0.00     0.004 C 
ENDBRANCH  16  17
ENDBRANCH  15  16
ENDBRANCH  14  15
ENDBRANCH  13  14
ENDBRANCH  12  13
ENDBRANCH  11  12
ENDBRANCH   1  11
TORSDOF 14
ENDMDL
