MODEL 1
REMARK VINA RESULT:    -5.728      0.000      0.000
REMARK INTER + INTRA:          -6.295
REMARK INTER:                  -6.230
REMARK INTRA:                  -0.065
REMARK UNBOUND:                -0.065
REMARK SMILES COc1cc2ccc(=O)oc2cc1O
REMARK SMILES IDX 3 1 13 2 12 3 11 4 5 5 4 6 6 7 7 8 8 9 9 10 10 11 2 12 1 13
REMARK SMILES IDX 14 14
REMARK H PARENT 14 15
REMARK Flexibility Score: inf
ROOT
ATOM      1  C   UNL     1     -10.012  16.226   6.116  1.00  0.00     0.161 A 
ATOM      2  C   UNL     1      -9.308  16.958   7.092  1.00  0.00     0.161 A 
ATOM      3  C   UNL     1      -7.967  16.661   7.365  1.00  0.00     0.098 A 
ATOM      4  C   UNL     1      -7.314  15.638   6.673  1.00  0.00     0.142 A 
ATOM      5  C   UNL     1      -8.011  14.900   5.693  1.00  0.00     0.022 A 
ATOM      6  C   UNL     1      -9.353  15.193   5.417  1.00  0.00     0.062 A 
ATOM      7  C   UNL     1      -7.330  13.882   5.017  1.00  0.00     0.019 A 
ATOM      8  C   UNL     1      -5.995  13.628   5.326  1.00  0.00     0.094 A 
ATOM      9  C   UNL     1      -5.368  14.401   6.310  1.00  0.00     0.336 A 
ATOM     10  O   UNL     1      -4.163  14.187   6.605  1.00  0.00    -0.246 OA
ATOM     11  O   UNL     1      -6.040  15.364   6.938  1.00  0.00    -0.423 OA
ENDROOT
BRANCH   1  12
ATOM     12  O   UNL     1     -11.356  16.550   5.868  1.00  0.00    -0.493 OA
ATOM     13  C   UNL     1     -12.469  15.841   6.402  1.00  0.00     0.278 C 
ENDBRANCH   1  12
BRANCH   2  14
ATOM     14  O   UNL     1      -9.925  17.986   7.804  1.00  0.00    -0.504 OA
ATOM     15  H   UNL     1     -10.028  18.919   7.426  1.00  0.00     0.293 HD
ENDBRANCH   2  14
TORSDOF 2
ENDMDL
MODEL 2
REMARK VINA RESULT:    -5.656      3.373      5.817
REMARK INTER + INTRA:          -6.217
REMARK INTER:                  -6.172
REMARK INTRA:                  -0.045
REMARK UNBOUND:                -0.065
REMARK SMILES COc1cc2ccc(=O)oc2cc1O
REMARK SMILES IDX 3 1 13 2 12 3 11 4 5 5 4 6 6 7 7 8 8 9 9 10 10 11 2 12 1 13
REMARK SMILES IDX 14 14
REMARK H PARENT 14 15
REMARK Flexibility Score: inf
ROOT
ATOM      1  C   UNL     1      -3.448  15.146   9.033  1.00  0.00     0.161 A 
ATOM      2  C   UNL     1      -4.628  15.059   9.796  1.00  0.00     0.161 A 
ATOM      3  C   UNL     1      -5.818  14.615   9.208  1.00  0.00     0.098 A 
ATOM      4  C   UNL     1      -5.848  14.253   7.859  1.00  0.00     0.142 A 
ATOM      5  C   UNL     1      -4.671  14.335   7.086  1.00  0.00     0.022 A 
ATOM      6  C   UNL     1      -3.478  14.780   7.670  1.00  0.00     0.062 A 
ATOM      7  C   UNL     1      -4.733  13.965   5.738  1.00  0.00     0.019 A 
ATOM      8  C   UNL     1      -5.943  13.529   5.202  1.00  0.00     0.094 A 
ATOM      9  C   UNL     1      -7.070  13.473   6.030  1.00  0.00     0.336 A 
ATOM     10  O   UNL     1      -8.173  13.083   5.565  1.00  0.00    -0.246 OA
ATOM     11  O   UNL     1      -6.984  13.831   7.309  1.00  0.00    -0.423 OA
ENDROOT
BRANCH   1  12
ATOM     12  O   UNL     1      -2.272  15.596   9.654  1.00  0.00    -0.493 OA
ATOM     13  C   UNL     1      -0.955  15.268   9.225  1.00  0.00     0.278 C 
ENDBRANCH   1  12
BRANCH   2  14
ATOM     14  O   UNL     1      -4.639  15.412  11.146  1.00  0.00    -0.504 OA
ATOM     15  H   UNL     1      -4.944  16.324  11.463  1.00  0.00     0.293 HD
ENDBRANCH   2  14
TORSDOF 2
ENDMDL
MODEL 3
REMARK VINA RESULT:    -5.607      1.245      5.410
REMARK INTER + INTRA:          -6.164
REMARK INTER:                  -6.100
REMARK INTRA:                  -0.064
REMARK UNBOUND:                -0.065
REMARK SMILES COc1cc2ccc(=O)oc2cc1O
REMARK SMILES IDX 3 1 13 2 12 3 11 4 5 5 4 6 6 7 7 8 8 9 9 10 10 11 2 12 1 13
REMARK SMILES IDX 14 14
REMARK H PARENT 14 15
REMARK Flexibility Score: inf
ROOT
ATOM      1  C   UNL     1      -5.762  14.742   6.200  1.00  0.00     0.161 A 
ATOM      2  C   UNL     1      -6.442  13.898   5.301  1.00  0.00     0.161 A 
ATOM      3  C   UNL     1      -7.812  14.071   5.070  1.00  0.00     0.098 A 
ATOM      4  C   UNL     1      -8.518  15.082   5.726  1.00  0.00     0.142 A 
ATOM      5  C   UNL     1      -7.846  15.934   6.627  1.00  0.00     0.022 A 
ATOM      6  C   UNL     1      -6.475  15.764   6.863  1.00  0.00     0.062 A 
ATOM      7  C   UNL     1      -8.580  16.937   7.269  1.00  0.00     0.019 A 
ATOM      8  C   UNL     1      -9.942  17.066   7.003  1.00  0.00     0.094 A 
ATOM      9  C   UNL     1     -10.542  16.185   6.096  1.00  0.00     0.336 A 
ATOM     10  O   UNL     1     -11.770  16.284   5.842  1.00  0.00    -0.246 OA
ATOM     11  O   UNL     1      -9.819  15.239   5.499  1.00  0.00    -0.423 OA
ENDROOT
BRANCH   1  12
ATOM     12  O   UNL     1      -4.388  14.541   6.409  1.00  0.00    -0.493 OA
ATOM     13  C   UNL     1      -3.824  13.983   7.591  1.00  0.00     0.278 C 
ENDBRANCH   1  12
BRANCH   2  14
ATOM     14  O   UNL     1      -5.772  12.877   4.627  1.00  0.00    -0.504 OA
ATOM     15  H   UNL     1      -6.238  12.029   4.330  1.00  0.00     0.293 HD
ENDBRANCH   2  14
TORSDOF 2
ENDMDL
MODEL 4
REMARK VINA RESULT:    -5.513      2.202      3.815
REMARK INTER + INTRA:          -6.061
REMARK INTER:                  -6.012
REMARK INTRA:                  -0.049
REMARK UNBOUND:                -0.065
REMARK SMILES COc1cc2ccc(=O)oc2cc1O
REMARK SMILES IDX 3 1 13 2 12 3 11 4 5 5 4 6 6 7 7 8 8 9 9 10 10 11 2 12 1 13
REMARK SMILES IDX 14 14
REMARK H PARENT 14 15
REMARK Flexibility Score: inf
ROOT
ATOM      1  C   UNL     1      -7.350  15.128   5.806  1.00  0.00     0.161 A 
ATOM      2  C   UNL     1      -6.664  13.989   5.340  1.00  0.00     0.161 A 
ATOM      3  C   UNL     1      -5.426  13.638   5.889  1.00  0.00     0.098 A 
ATOM      4  C   UNL     1      -4.856  14.412   6.903  1.00  0.00     0.142 A 
ATOM      5  C   UNL     1      -5.535  15.554   7.378  1.00  0.00     0.022 A 
ATOM      6  C   UNL     1      -6.776  15.910   6.831  1.00  0.00     0.062 A 
ATOM      7  C   UNL     1      -4.940  16.308   8.394  1.00  0.00     0.019 A 
ATOM      8  C   UNL     1      -3.705  15.914   8.906  1.00  0.00     0.094 A 
ATOM      9  C   UNL     1      -3.090  14.769   8.387  1.00  0.00     0.336 A 
ATOM     10  O   UNL     1      -1.974  14.397   8.835  1.00  0.00    -0.246 OA
ATOM     11  O   UNL     1      -3.679  14.070   7.419  1.00  0.00    -0.423 OA
ENDROOT
BRANCH   1  12
ATOM     12  O   UNL     1      -8.591  15.452   5.233  1.00  0.00    -0.493 OA
ATOM     13  C   UNL     1      -9.735  15.871   5.968  1.00  0.00     0.278 C 
ENDBRANCH   1  12
BRANCH   2  14
ATOM     14  O   UNL     1      -7.200  13.192   4.329  1.00  0.00    -0.504 OA
ATOM     15  H   UNL     1      -8.155  13.293   4.010  1.00  0.00     0.293 HD
ENDBRANCH   2  14
TORSDOF 2
ENDMDL
MODEL 5
REMARK VINA RESULT:    -5.224      3.259      5.277
REMARK INTER + INTRA:          -5.747
REMARK INTER:                  -5.686
REMARK INTRA:                  -0.061
REMARK UNBOUND:                -0.065
REMARK SMILES COc1cc2ccc(=O)oc2cc1O
REMARK SMILES IDX 3 1 13 2 12 3 11 4 5 5 4 6 6 7 7 8 8 9 9 10 10 11 2 12 1 13
REMARK SMILES IDX 14 14
REMARK H PARENT 14 15
REMARK Flexibility Score: inf
ROOT
ATOM      1  C   UNL     1      -5.413  15.086   6.813  1.00  0.00     0.161 A 
ATOM      2  C   UNL     1      -5.319  14.370   8.022  1.00  0.00     0.161 A 
ATOM      3  C   UNL     1      -4.118  14.352   8.740  1.00  0.00     0.098 A 
ATOM      4  C   UNL     1      -3.000  15.044   8.266  1.00  0.00     0.142 A 
ATOM      5  C   UNL     1      -3.084  15.765   7.056  1.00  0.00     0.022 A 
ATOM      6  C   UNL     1      -4.284  15.785   6.334  1.00  0.00     0.062 A 
ATOM      7  C   UNL     1      -1.948  16.446   6.607  1.00  0.00     0.019 A 
ATOM      8  C   UNL     1      -0.776  16.397   7.361  1.00  0.00     0.094 A 
ATOM      9  C   UNL     1      -0.768  15.661   8.552  1.00  0.00     0.336 A 
ATOM     10  O   UNL     1       0.281  15.603   9.247  1.00  0.00    -0.246 OA
ATOM     11  O   UNL     1      -1.863  15.021   8.956  1.00  0.00    -0.423 OA
ENDROOT
BRANCH   1  12
ATOM     12  O   UNL     1      -6.633  15.082   6.117  1.00  0.00    -0.493 OA
ATOM     13  C   UNL     1      -6.963  14.178   5.069  1.00  0.00     0.278 C 
ENDBRANCH   1  12
BRANCH   2  14
ATOM     14  O   UNL     1      -6.412  13.667   8.527  1.00  0.00    -0.504 OA
ATOM     15  H   UNL     1      -6.338  13.059   9.333  1.00  0.00     0.293 HD
ENDBRANCH   2  14
TORSDOF 2
ENDMDL
MODEL 6
REMARK VINA RESULT:    -5.086      4.655      6.654
REMARK INTER + INTRA:          -5.597
REMARK INTER:                  -5.550
REMARK INTRA:                  -0.047
REMARK UNBOUND:                -0.065
REMARK SMILES COc1cc2ccc(=O)oc2cc1O
REMARK SMILES IDX 3 1 13 2 12 3 11 4 5 5 4 6 6 7 7 8 8 9 9 10 10 11 2 12 1 13
REMARK SMILES IDX 14 14
REMARK H PARENT 14 15
REMARK Flexibility Score: inf
ROOT
ATOM      1  C   UNL     1      -4.080  15.092   8.085  1.00  0.00     0.161 A 
ATOM      2  C   UNL     1      -3.849  15.865   6.931  1.00  0.00     0.161 A 
ATOM      3  C   UNL     1      -2.561  16.330   6.640  1.00  0.00     0.098 A 
ATOM      4  C   UNL     1      -1.493  16.033   7.491  1.00  0.00     0.142 A 
ATOM      5  C   UNL     1      -1.714  15.259   8.649  1.00  0.00     0.022 A 
ATOM      6  C   UNL     1      -3.002  14.792   8.944  1.00  0.00     0.062 A 
ATOM      7  C   UNL     1      -0.625  14.979   9.481  1.00  0.00     0.019 A 
ATOM      8  C   UNL     1       0.637  15.466   9.145  1.00  0.00     0.094 A 
ATOM      9  C   UNL     1       0.781  16.227   7.979  1.00  0.00     0.336 A 
ATOM     10  O   UNL     1       1.912  16.677   7.659  1.00  0.00    -0.246 OA
ATOM     11  O   UNL     1      -0.272  16.479   7.206  1.00  0.00    -0.423 OA
ENDROOT
BRANCH   1  12
ATOM     12  O   UNL     1      -5.385  14.642   8.347  1.00  0.00    -0.493 OA
ATOM     13  C   UNL     1      -5.955  14.530   9.646  1.00  0.00     0.278 C 
ENDBRANCH   1  12
BRANCH   2  14
ATOM     14  O   UNL     1      -4.889  16.183   6.058  1.00  0.00    -0.504 OA
ATOM     15  H   UNL     1      -5.785  15.713   6.091  1.00  0.00     0.293 HD
ENDBRANCH   2  14
TORSDOF 2
ENDMDL
MODEL 7
REMARK VINA RESULT:    -5.009      2.432      5.321
REMARK INTER + INTRA:          -5.513
REMARK INTER:                  -5.450
REMARK INTRA:                  -0.064
REMARK UNBOUND:                -0.065
REMARK SMILES COc1cc2ccc(=O)oc2cc1O
REMARK SMILES IDX 3 1 13 2 12 3 11 4 5 5 4 6 6 7 7 8 8 9 9 10 10 11 2 12 1 13
REMARK SMILES IDX 14 14
REMARK H PARENT 14 15
REMARK Flexibility Score: inf
ROOT
ATOM      1  C   UNL     1      -4.705  15.594   8.136  1.00  0.00     0.161 A 
ATOM      2  C   UNL     1      -4.389  14.294   7.697  1.00  0.00     0.161 A 
ATOM      3  C   UNL     1      -5.303  13.570   6.923  1.00  0.00     0.098 A 
ATOM      4  C   UNL     1      -6.536  14.128   6.576  1.00  0.00     0.142 A 
ATOM      5  C   UNL     1      -6.861  15.431   7.010  1.00  0.00     0.022 A 
ATOM      6  C   UNL     1      -5.950  16.159   7.786  1.00  0.00     0.062 A 
ATOM      7  C   UNL     1      -8.103  15.963   6.648  1.00  0.00     0.019 A 
ATOM      8  C   UNL     1      -8.976  15.199   5.874  1.00  0.00     0.094 A 
ATOM      9  C   UNL     1      -8.585  13.914   5.480  1.00  0.00     0.336 A 
ATOM     10  O   UNL     1      -9.359  13.209   4.782  1.00  0.00    -0.246 OA
ATOM     11  O   UNL     1      -7.397  13.432   5.839  1.00  0.00    -0.423 OA
ENDROOT
BRANCH   1  12
ATOM     12  O   UNL     1      -3.765  16.293   8.912  1.00  0.00    -0.493 OA
ATOM     13  C   UNL     1      -3.773  16.347  10.334  1.00  0.00     0.278 C 
ENDBRANCH   1  12
BRANCH   2  14
ATOM     14  O   UNL     1      -3.169  13.702   8.022  1.00  0.00    -0.504 OA
ATOM     15  H   UNL     1      -2.543  13.333   7.318  1.00  0.00     0.293 HD
ENDBRANCH   2  14
TORSDOF 2
ENDMDL
MODEL 8
REMARK VINA RESULT:    -4.960     12.768     12.973
REMARK INTER + INTRA:          -5.460
REMARK INTER:                  -5.416
REMARK INTRA:                  -0.043
REMARK UNBOUND:                -0.065
REMARK SMILES COc1cc2ccc(=O)oc2cc1O
REMARK SMILES IDX 3 1 13 2 12 3 11 4 5 5 4 6 6 7 7 8 8 9 9 10 10 11 2 12 1 13
REMARK SMILES IDX 14 14
REMARK H PARENT 14 15
REMARK Flexibility Score: inf
ROOT
ATOM      1  C   UNL     1      -2.496  26.260  11.443  1.00  0.00     0.161 A 
ATOM      2  C   UNL     1      -2.570  25.386  12.545  1.00  0.00     0.161 A 
ATOM      3  C   UNL     1      -1.632  24.359  12.696  1.00  0.00     0.098 A 
ATOM      4  C   UNL     1      -0.612  24.189  11.755  1.00  0.00     0.142 A 
ATOM      5  C   UNL     1      -0.529  25.059  10.648  1.00  0.00     0.022 A 
ATOM      6  C   UNL     1      -1.467  26.089  10.493  1.00  0.00     0.062 A 
ATOM      7  C   UNL     1       0.502  24.864   9.724  1.00  0.00     0.019 A 
ATOM      8  C   UNL     1       1.411  23.825   9.921  1.00  0.00     0.094 A 
ATOM      9  C   UNL     1       1.267  23.002  11.043  1.00  0.00     0.336 A 
ATOM     10  O   UNL     1       2.076  22.058  11.238  1.00  0.00    -0.246 OA
ATOM     11  O   UNL     1       0.275  23.210  11.907  1.00  0.00    -0.423 OA
ENDROOT
BRANCH   1  12
ATOM     12  O   UNL     1      -3.454  27.280  11.323  1.00  0.00    -0.493 OA
ATOM     13  C   UNL     1      -3.425  28.303  10.334  1.00  0.00     0.278 C 
ENDBRANCH   1  12
BRANCH   2  14
ATOM     14  O   UNL     1      -3.573  25.523  13.505  1.00  0.00    -0.504 OA
ATOM     15  H   UNL     1      -4.550  25.364  13.293  1.00  0.00     0.293 HD
ENDBRANCH   2  14
TORSDOF 2
ENDMDL
MODEL 9
REMARK VINA RESULT:    -4.928      4.311      7.829
REMARK INTER + INTRA:          -5.425
REMARK INTER:                  -5.381
REMARK INTRA:                  -0.045
REMARK UNBOUND:                -0.065
REMARK SMILES COc1cc2ccc(=O)oc2cc1O
REMARK SMILES IDX 3 1 13 2 12 3 11 4 5 5 4 6 6 7 7 8 8 9 9 10 10 11 2 12 1 13
REMARK SMILES IDX 14 14
REMARK H PARENT 14 15
REMARK Flexibility Score: inf
ROOT
ATOM      1  C   UNL     1      -0.374  15.807   8.376  1.00  0.00     0.161 A 
ATOM      2  C   UNL     1      -0.497  16.562   7.193  1.00  0.00     0.161 A 
ATOM      3  C   UNL     1      -1.704  16.570   6.484  1.00  0.00     0.098 A 
ATOM      4  C   UNL     1      -2.798  15.830   6.941  1.00  0.00     0.142 A 
ATOM      5  C   UNL     1      -2.685  15.072   8.125  1.00  0.00     0.022 A 
ATOM      6  C   UNL     1      -1.479  15.060   8.837  1.00  0.00     0.062 A 
ATOM      7  C   UNL     1      -3.797  14.342   8.556  1.00  0.00     0.019 A 
ATOM      8  C   UNL     1      -4.976  14.385   7.813  1.00  0.00     0.094 A 
ATOM      9  C   UNL     1      -5.015  15.160   6.648  1.00  0.00     0.336 A 
ATOM     10  O   UNL     1      -6.069  15.212   5.963  1.00  0.00    -0.246 OA
ATOM     11  O   UNL     1      -3.941  15.845   6.260  1.00  0.00    -0.423 OA
ENDROOT
BRANCH   1  12
ATOM     12  O   UNL     1       0.851  15.821   9.062  1.00  0.00    -0.493 OA
ATOM     13  C   UNL     1       1.003  15.543  10.450  1.00  0.00     0.278 C 
ENDBRANCH   1  12
BRANCH   2  14
ATOM     14  O   UNL     1       0.572  17.313   6.705  1.00  0.00    -0.504 OA
ATOM     15  H   UNL     1       0.589  17.678   5.761  1.00  0.00     0.293 HD
ENDBRANCH   2  14
TORSDOF 2
ENDMDL
