MODEL 1
REMARK VINA RESULT:    -3.272      0.000      0.000
REMARK INTER + INTRA:          -7.510
REMARK INTER:                  -5.951
REMARK INTRA:                  -1.560
REMARK UNBOUND:                -1.560
REMARK SMILES CCCCCCCCCCCCCCCC(=O)[O-]
REMARK SMILES IDX 9 1 10 2 11 3 12 4 13 5 14 6 15 7 16 8 17 9 18 10 8 11 7 12
REMARK SMILES IDX 6 13 5 14 4 15 3 16 2 17 1 18
REMARK H PARENT
REMARK Flexibility Score: inf
ROOT
ATOM      1  C   UNL     1      25.407  40.647  25.074  1.00  0.00     0.000 C 
ENDROOT
BRANCH   1   2
ATOM      2  C   UNL     1      25.159  39.480  24.103  1.00  0.00     0.000 C 
BRANCH   2   3
ATOM      3  C   UNL     1      25.730  38.150  24.622  1.00  0.00     0.000 C 
BRANCH   3   4
ATOM      4  C   UNL     1      27.007  38.340  25.456  1.00  0.00     0.000 C 
BRANCH   4   5
ATOM      5  C   UNL     1      26.994  37.436  26.694  1.00  0.00     0.000 C 
BRANCH   5   6
ATOM      6  C   UNL     1      25.692  37.606  27.485  1.00  0.00     0.006 C 
BRANCH   6   7
ATOM      7  C   UNL     1      25.971  37.719  28.987  1.00  0.00     0.053 C 
BRANCH   7   8
ATOM      8  C   UNL     1      25.226  38.876  29.572  1.00  0.00     0.041 C 
ATOM      9  O   UNL     1      24.875  39.840  28.841  1.00  0.00    -0.550 OA
ATOM     10  O   UNL     1      24.875  38.869  30.916  1.00  0.00    -0.550 OA
ENDBRANCH   7   8
ENDBRANCH   6   7
ENDBRANCH   5   6
ENDBRANCH   4   5
ENDBRANCH   3   4
ENDBRANCH   2   3
ENDBRANCH   1   2
BRANCH   1  11
ATOM     11  C   UNL     1      25.996  41.891  24.380  1.00  0.00     0.000 C 
BRANCH  11  12
ATOM     12  C   UNL     1      26.380  43.049  25.319  1.00  0.00    -0.000 C 
BRANCH  12  13
ATOM     13  C   UNL     1      26.307  42.667  26.807  1.00  0.00    -0.000 C 
BRANCH  13  14
ATOM     14  C   UNL     1      27.696  42.509  27.453  1.00  0.00    -0.000 C 
BRANCH  14  15
ATOM     15  C   UNL     1      28.655  41.543  26.728  1.00  0.00    -0.000 C 
BRANCH  15  16
ATOM     16  C   UNL     1      30.038  42.126  26.389  1.00  0.00    -0.000 C 
BRANCH  16  17
ATOM     17  C   UNL     1      29.954  43.448  25.612  1.00  0.00    -0.003 C 
ATOM     18  C   UNL     1      30.554  44.597  26.415  1.00  0.00     0.004 C 
ENDBRANCH  16  17
ENDBRANCH  15  16
ENDBRANCH  14  15
ENDBRANCH  13  14
ENDBRANCH  12  13
ENDBRANCH  11  12
ENDBRANCH   1  11
TORSDOF 14
ENDMDL
MODEL 2
REMARK VINA RESULT:    -3.205      1.320      2.307
REMARK INTER + INTRA:          -7.388
REMARK INTER:                  -5.634
REMARK INTRA:                  -1.755
REMARK UNBOUND:                -1.560
REMARK SMILES CCCCCCCCCCCCCCCC(=O)[O-]
REMARK SMILES IDX 9 1 10 2 11 3 12 4 13 5 14 6 15 7 16 8 17 9 18 10 8 11 7 12
REMARK SMILES IDX 6 13 5 14 4 15 3 16 2 17 1 18
REMARK H PARENT
REMARK Flexibility Score: inf
ROOT
ATOM      1  C   UNL     1      25.470  38.940  24.226  1.00  0.00     0.000 C 
ENDROOT
BRANCH   1   2
ATOM      2  C   UNL     1      25.999  37.926  25.256  1.00  0.00     0.000 C 
BRANCH   2   3
ATOM      3  C   UNL     1      26.633  38.606  26.480  1.00  0.00     0.000 C 
BRANCH   3   4
ATOM      4  C   UNL     1      25.892  38.281  27.787  1.00  0.00     0.000 C 
BRANCH   4   5
ATOM      5  C   UNL     1      25.137  39.509  28.310  1.00  0.00     0.000 C 
BRANCH   5   6
ATOM      6  C   UNL     1      24.875  39.395  29.815  1.00  0.00     0.006 C 
BRANCH   6   7
ATOM      7  C   UNL     1      25.281  38.015  30.341  1.00  0.00     0.053 C 
BRANCH   7   8
ATOM      8  C   UNL     1      26.242  38.151  31.480  1.00  0.00     0.041 C 
ATOM      9  O   UNL     1      25.819  38.186  32.666  1.00  0.00    -0.550 OA
ATOM     10  O   UNL     1      27.609  38.191  31.235  1.00  0.00    -0.550 OA
ENDBRANCH   7   8
ENDBRANCH   6   7
ENDBRANCH   5   6
ENDBRANCH   4   5
ENDBRANCH   3   4
ENDBRANCH   2   3
ENDBRANCH   1   2
BRANCH   1  11
ATOM     11  C   UNL     1      25.031  40.272  24.865  1.00  0.00     0.000 C 
BRANCH  11  12
ATOM     12  C   UNL     1      25.531  41.541  24.152  1.00  0.00    -0.000 C 
BRANCH  12  13
ATOM     13  C   UNL     1      26.728  42.197  24.861  1.00  0.00    -0.000 C 
BRANCH  13  14
ATOM     14  C   UNL     1      26.404  42.635  26.301  1.00  0.00    -0.000 C 
BRANCH  14  15
ATOM     15  C   UNL     1      27.472  42.282  27.356  1.00  0.00    -0.000 C 
BRANCH  15  16
ATOM     16  C   UNL     1      28.821  41.809  26.787  1.00  0.00    -0.000 C 
BRANCH  16  17
ATOM     17  C   UNL     1      29.955  42.816  27.027  1.00  0.00    -0.003 C 
ATOM     18  C   UNL     1      30.075  43.796  25.863  1.00  0.00     0.004 C 
ENDBRANCH  16  17
ENDBRANCH  15  16
ENDBRANCH  14  15
ENDBRANCH  13  14
ENDBRANCH  12  13
ENDBRANCH  11  12
ENDBRANCH   1  11
TORSDOF 14
ENDMDL
MODEL 3
REMARK VINA RESULT:    -3.006      2.678      6.105
REMARK INTER + INTRA:          -7.026
REMARK INTER:                  -5.349
REMARK INTRA:                  -1.677
REMARK UNBOUND:                -1.560
REMARK SMILES CCCCCCCCCCCCCCCC(=O)[O-]
REMARK SMILES IDX 9 1 10 2 11 3 12 4 13 5 14 6 15 7 16 8 17 9 18 10 8 11 7 12
REMARK SMILES IDX 6 13 5 14 4 15 3 16 2 17 1 18
REMARK H PARENT
REMARK Flexibility Score: inf
ROOT
ATOM      1  C   UNL     1      26.293  39.492  25.267  1.00  0.00     0.000 C 
ENDROOT
BRANCH   1   2
ATOM      2  C   UNL     1      24.994  40.252  25.588  1.00  0.00     0.000 C 
BRANCH   2   3
ATOM      3  C   UNL     1      25.072  41.015  26.920  1.00  0.00     0.000 C 
BRANCH   3   4
ATOM      4  C   UNL     1      26.423  40.831  27.629  1.00  0.00     0.000 C 
BRANCH   4   5
ATOM      5  C   UNL     1      27.119  42.181  27.842  1.00  0.00     0.000 C 
BRANCH   5   6
ATOM      6  C   UNL     1      26.900  43.109  26.643  1.00  0.00     0.006 C 
BRANCH   6   7
ATOM      7  C   UNL     1      27.993  42.912  25.588  1.00  0.00     0.053 C 
BRANCH   7   8
ATOM      8  C   UNL     1      29.341  43.185  26.174  1.00  0.00     0.041 C 
ATOM      9  O   UNL     1      29.626  44.334  26.603  1.00  0.00    -0.550 OA
ATOM     10  O   UNL     1      30.269  42.158  26.291  1.00  0.00    -0.550 OA
ENDBRANCH   7   8
ENDBRANCH   6   7
ENDBRANCH   5   6
ENDBRANCH   4   5
ENDBRANCH   3   4
ENDBRANCH   2   3
ENDBRANCH   1   2
BRANCH   1  11
ATOM     11  C   UNL     1      26.039  38.092  24.676  1.00  0.00     0.000 C 
BRANCH  11  12
ATOM     12  C   UNL     1      25.419  37.069  25.645  1.00  0.00    -0.000 C 
BRANCH  12  13
ATOM     13  C   UNL     1      26.053  37.106  27.045  1.00  0.00    -0.000 C 
BRANCH  13  14
ATOM     14  C   UNL     1      25.026  37.371  28.161  1.00  0.00    -0.000 C 
BRANCH  14  15
ATOM     15  C   UNL     1      25.539  37.149  29.598  1.00  0.00    -0.000 C 
BRANCH  15  16
ATOM     16  C   UNL     1      26.160  38.386  30.269  1.00  0.00    -0.000 C 
BRANCH  16  17
ATOM     17  C   UNL     1      26.800  38.069  31.629  1.00  0.00    -0.003 C 
ATOM     18  C   UNL     1      25.843  37.280  32.517  1.00  0.00     0.004 C 
ENDBRANCH  16  17
ENDBRANCH  15  16
ENDBRANCH  14  15
ENDBRANCH  13  14
ENDBRANCH  12  13
ENDBRANCH  11  12
ENDBRANCH   1  11
TORSDOF 14
ENDMDL
MODEL 4
REMARK VINA RESULT:    -2.939     15.945     18.064
REMARK INTER + INTRA:          -6.904
REMARK INTER:                  -5.421
REMARK INTRA:                  -1.482
REMARK UNBOUND:                -1.560
REMARK SMILES CCCCCCCCCCCCCCCC(=O)[O-]
REMARK SMILES IDX 9 1 10 2 11 3 12 4 13 5 14 6 15 7 16 8 17 9 18 10 8 11 7 12
REMARK SMILES IDX 6 13 5 14 4 15 3 16 2 17 1 18
REMARK H PARENT
REMARK Flexibility Score: inf
ROOT
ATOM      1  C   UNL     1      27.939  52.210  38.355  1.00  0.00     0.000 C 
ENDROOT
BRANCH   1   2
ATOM      2  C   UNL     1      29.415  52.019  37.967  1.00  0.00     0.000 C 
BRANCH   2   3
ATOM      3  C   UNL     1      30.324  51.815  39.190  1.00  0.00     0.000 C 
BRANCH   3   4
ATOM      4  C   UNL     1      30.679  50.338  39.424  1.00  0.00     0.000 C 
BRANCH   4   5
ATOM      5  C   UNL     1      30.787  50.030  40.923  1.00  0.00     0.000 C 
BRANCH   5   6
ATOM      6  C   UNL     1      29.754  48.979  41.345  1.00  0.00     0.006 C 
BRANCH   6   7
ATOM      7  C   UNL     1      29.671  47.846  40.318  1.00  0.00     0.053 C 
BRANCH   7   8
ATOM      8  C   UNL     1      30.034  46.540  40.949  1.00  0.00     0.041 C 
ATOM      9  O   UNL     1      29.133  45.764  41.366  1.00  0.00    -0.550 OA
ATOM     10  O   UNL     1      31.366  46.156  41.035  1.00  0.00    -0.550 OA
ENDBRANCH   7   8
ENDBRANCH   6   7
ENDBRANCH   5   6
ENDBRANCH   4   5
ENDBRANCH   3   4
ENDBRANCH   2   3
ENDBRANCH   1   2
BRANCH   1  11
ATOM     11  C   UNL     1      27.578  51.540  39.694  1.00  0.00     0.000 C 
BRANCH  11  12
ATOM     12  C   UNL     1      26.596  52.327  40.582  1.00  0.00    -0.000 C 
BRANCH  12  13
ATOM     13  C   UNL     1      27.166  52.642  41.975  1.00  0.00    -0.000 C 
BRANCH  13  14
ATOM     14  C   UNL     1      28.705  52.697  41.994  1.00  0.00    -0.000 C 
BRANCH  14  15
ATOM     15  C   UNL     1      29.318  54.095  41.773  1.00  0.00    -0.000 C 
BRANCH  15  16
ATOM     16  C   UNL     1      28.745  54.879  40.580  1.00  0.00    -0.000 C 
BRANCH  16  17
ATOM     17  C   UNL     1      28.852  56.401  40.759  1.00  0.00    -0.003 C 
ATOM     18  C   UNL     1      29.434  56.754  42.125  1.00  0.00     0.004 C 
ENDBRANCH  16  17
ENDBRANCH  15  16
ENDBRANCH  14  15
ENDBRANCH  13  14
ENDBRANCH  12  13
ENDBRANCH  11  12
ENDBRANCH   1  11
TORSDOF 14
ENDMDL
MODEL 5
REMARK VINA RESULT:    -2.667      2.582      5.851
REMARK INTER + INTRA:          -6.409
REMARK INTER:                  -5.158
REMARK INTRA:                  -1.250
REMARK UNBOUND:                -1.560
REMARK SMILES CCCCCCCCCCCCCCCC(=O)[O-]
REMARK SMILES IDX 9 1 10 2 11 3 12 4 13 5 14 6 15 7 16 8 17 9 18 10 8 11 7 12
REMARK SMILES IDX 6 13 5 14 4 15 3 16 2 17 1 18
REMARK H PARENT
REMARK Flexibility Score: inf
ROOT
ATOM      1  C   UNL     1      25.660  40.500  25.155  1.00  0.00     0.000 C 
ENDROOT
BRANCH   1   2
ATOM      2  C   UNL     1      24.875  40.342  26.468  1.00  0.00     0.000 C 
BRANCH   2   3
ATOM      3  C   UNL     1      25.221  41.432  27.496  1.00  0.00     0.000 C 
BRANCH   3   4
ATOM      4  C   UNL     1      26.735  41.663  27.626  1.00  0.00     0.000 C 
BRANCH   4   5
ATOM      5  C   UNL     1      27.100  43.114  27.289  1.00  0.00     0.000 C 
BRANCH   5   6
ATOM      6  C   UNL     1      27.592  43.236  25.843  1.00  0.00     0.006 C 
BRANCH   6   7
ATOM      7  C   UNL     1      28.922  42.502  25.650  1.00  0.00     0.053 C 
BRANCH   7   8
ATOM      8  C   UNL     1      29.978  43.091  26.531  1.00  0.00     0.041 C 
ATOM      9  O   UNL     1      30.198  44.331  26.514  1.00  0.00    -0.550 OA
ATOM     10  O   UNL     1      30.687  42.278  27.406  1.00  0.00    -0.550 OA
ENDBRANCH   7   8
ENDBRANCH   6   7
ENDBRANCH   5   6
ENDBRANCH   4   5
ENDBRANCH   3   4
ENDBRANCH   2   3
ENDBRANCH   1   2
BRANCH   1  11
ATOM     11  C   UNL     1      24.916  39.919  23.937  1.00  0.00     0.000 C 
BRANCH  11  12
ATOM     12  C   UNL     1      25.116  38.411  23.699  1.00  0.00    -0.000 C 
BRANCH  12  13
ATOM     13  C   UNL     1      26.522  37.922  24.087  1.00  0.00    -0.000 C 
BRANCH  13  14
ATOM     14  C   UNL     1      26.506  36.931  25.264  1.00  0.00    -0.000 C 
BRANCH  14  15
ATOM     15  C   UNL     1      27.125  37.454  26.577  1.00  0.00    -0.000 C 
BRANCH  15  16
ATOM     16  C   UNL     1      26.122  37.718  27.713  1.00  0.00    -0.000 C 
BRANCH  16  17
ATOM     17  C   UNL     1      26.406  36.877  28.966  1.00  0.00    -0.003 C 
ATOM     18  C   UNL     1      26.356  37.735  30.227  1.00  0.00     0.004 C 
ENDBRANCH  16  17
ENDBRANCH  15  16
ENDBRANCH  14  15
ENDBRANCH  13  14
ENDBRANCH  12  13
ENDBRANCH  11  12
ENDBRANCH   1  11
TORSDOF 14
ENDMDL
MODEL 6
REMARK VINA RESULT:    -2.644      2.816      4.019
REMARK INTER + INTRA:          -6.368
REMARK INTER:                  -5.525
REMARK INTRA:                  -0.844
REMARK UNBOUND:                -1.560
REMARK SMILES CCCCCCCCCCCCCCCC(=O)[O-]
REMARK SMILES IDX 9 1 10 2 11 3 12 4 13 5 14 6 15 7 16 8 17 9 18 10 8 11 7 12
REMARK SMILES IDX 6 13 5 14 4 15 3 16 2 17 1 18
REMARK H PARENT
REMARK Flexibility Score: inf
ROOT
ATOM      1  C   UNL     1      25.972  40.106  27.560  1.00  0.00     0.000 C 
ENDROOT
BRANCH   1   2
ATOM      2  C   UNL     1      25.119  39.448  28.658  1.00  0.00     0.000 C 
BRANCH   2   3
ATOM      3  C   UNL     1      25.260  37.918  28.677  1.00  0.00     0.000 C 
BRANCH   3   4
ATOM      4  C   UNL     1      25.402  37.319  27.268  1.00  0.00     0.000 C 
BRANCH   4   5
ATOM      5  C   UNL     1      26.836  37.475  26.748  1.00  0.00     0.000 C 
BRANCH   5   6
ATOM      6  C   UNL     1      26.981  36.875  25.345  1.00  0.00     0.006 C 
BRANCH   6   7
ATOM      7  C   UNL     1      25.832  37.320  24.435  1.00  0.00     0.053 C 
BRANCH   7   8
ATOM      8  C   UNL     1      26.253  37.275  23.000  1.00  0.00     0.041 C 
ATOM      9  O   UNL     1      27.476  37.267  22.698  1.00  0.00    -0.550 OA
ATOM     10  O   UNL     1      25.296  37.193  21.997  1.00  0.00    -0.550 OA
ENDBRANCH   7   8
ENDBRANCH   6   7
ENDBRANCH   5   6
ENDBRANCH   4   5
ENDBRANCH   3   4
ENDBRANCH   2   3
ENDBRANCH   1   2
BRANCH   1  11
ATOM     11  C   UNL     1      25.133  40.900  26.541  1.00  0.00     0.000 C 
BRANCH  11  12
ATOM     12  C   UNL     1      25.660  40.880  25.094  1.00  0.00    -0.000 C 
BRANCH  12  13
ATOM     13  C   UNL     1      26.328  42.202  24.679  1.00  0.00    -0.000 C 
BRANCH  13  14
ATOM     14  C   UNL     1      26.397  43.224  25.829  1.00  0.00    -0.000 C 
BRANCH  14  15
ATOM     15  C   UNL     1      27.819  43.618  26.278  1.00  0.00    -0.000 C 
BRANCH  15  16
ATOM     16  C   UNL     1      28.673  42.464  26.834  1.00  0.00    -0.000 C 
BRANCH  16  17
ATOM     17  C   UNL     1      30.136  42.865  27.071  1.00  0.00    -0.003 C 
ATOM     18  C   UNL     1      30.498  44.117  26.278  1.00  0.00     0.004 C 
ENDBRANCH  16  17
ENDBRANCH  15  16
ENDBRANCH  14  15
ENDBRANCH  13  14
ENDBRANCH  12  13
ENDBRANCH  11  12
ENDBRANCH   1  11
TORSDOF 14
ENDMDL
MODEL 7
REMARK VINA RESULT:    -2.559      3.433      5.957
REMARK INTER + INTRA:          -6.213
REMARK INTER:                  -5.611
REMARK INTRA:                  -0.602
REMARK UNBOUND:                -1.560
REMARK SMILES CCCCCCCCCCCCCCCC(=O)[O-]
REMARK SMILES IDX 9 1 10 2 11 3 12 4 13 5 14 6 15 7 16 8 17 9 18 10 8 11 7 12
REMARK SMILES IDX 6 13 5 14 4 15 3 16 2 17 1 18
REMARK H PARENT
REMARK Flexibility Score: inf
ROOT
ATOM      1  C   UNL     1      25.749  39.473  24.740  1.00  0.00     0.000 C 
ENDROOT
BRANCH   1   2
ATOM      2  C   UNL     1      24.969  40.150  25.880  1.00  0.00     0.000 C 
BRANCH   2   3
ATOM      3  C   UNL     1      25.755  40.170  27.201  1.00  0.00     0.000 C 
BRANCH   3   4
ATOM      4  C   UNL     1      25.958  41.593  27.747  1.00  0.00     0.000 C 
BRANCH   4   5
ATOM      5  C   UNL     1      26.262  42.578  26.611  1.00  0.00     0.000 C 
BRANCH   5   6
ATOM      6  C   UNL     1      27.693  42.397  26.094  1.00  0.00     0.006 C 
BRANCH   6   7
ATOM      7  C   UNL     1      28.552  43.626  26.409  1.00  0.00     0.053 C 
BRANCH   7   8
ATOM      8  C   UNL     1      29.992  43.345  26.122  1.00  0.00     0.041 C 
ATOM      9  O   UNL     1      30.724  44.236  25.617  1.00  0.00    -0.550 OA
ATOM     10  O   UNL     1      30.540  42.113  26.458  1.00  0.00    -0.550 OA
ENDBRANCH   7   8
ENDBRANCH   6   7
ENDBRANCH   5   6
ENDBRANCH   4   5
ENDBRANCH   3   4
ENDBRANCH   2   3
ENDBRANCH   1   2
BRANCH   1  11
ATOM     11  C   UNL     1      25.178  38.094  24.357  1.00  0.00     0.000 C 
BRANCH  11  12
ATOM     12  C   UNL     1      25.880  36.887  25.006  1.00  0.00    -0.000 C 
BRANCH  12  13
ATOM     13  C   UNL     1      27.301  37.210  25.497  1.00  0.00    -0.000 C 
BRANCH  13  14
ATOM     14  C   UNL     1      28.225  37.705  24.369  1.00  0.00    -0.000 C 
BRANCH  14  15
ATOM     15  C   UNL     1      28.181  36.880  23.067  1.00  0.00    -0.000 C 
BRANCH  15  16
ATOM     16  C   UNL     1      29.485  36.877  22.250  1.00  0.00    -0.000 C 
BRANCH  16  17
ATOM     17  C   UNL     1      30.723  37.195  23.101  1.00  0.00    -0.003 C 
ATOM     18  C   UNL     1      32.001  37.079  22.277  1.00  0.00     0.004 C 
ENDBRANCH  16  17
ENDBRANCH  15  16
ENDBRANCH  14  15
ENDBRANCH  13  14
ENDBRANCH  12  13
ENDBRANCH  11  12
ENDBRANCH   1  11
TORSDOF 14
ENDMDL
MODEL 8
REMARK VINA RESULT:    -2.505      1.735      4.242
REMARK INTER + INTRA:          -6.116
REMARK INTER:                  -4.449
REMARK INTRA:                  -1.667
REMARK UNBOUND:                -1.560
REMARK SMILES CCCCCCCCCCCCCCCC(=O)[O-]
REMARK SMILES IDX 9 1 10 2 11 3 12 4 13 5 14 6 15 7 16 8 17 9 18 10 8 11 7 12
REMARK SMILES IDX 6 13 5 14 4 15 3 16 2 17 1 18
REMARK H PARENT
REMARK Flexibility Score: inf
ROOT
ATOM      1  C   UNL     1      28.033  42.458  27.164  1.00  0.00     0.000 C 
ENDROOT
BRANCH   1   2
ATOM      2  C   UNL     1      26.714  42.079  27.859  1.00  0.00     0.000 C 
BRANCH   2   3
ATOM      3  C   UNL     1      26.661  40.594  28.252  1.00  0.00     0.000 C 
BRANCH   3   4
ATOM      4  C   UNL     1      25.224  40.087  28.454  1.00  0.00     0.000 C 
BRANCH   4   5
ATOM      5  C   UNL     1      25.140  38.572  28.230  1.00  0.00     0.000 C 
BRANCH   5   6
ATOM      6  C   UNL     1      24.875  37.835  29.547  1.00  0.00     0.006 C 
BRANCH   6   7
ATOM      7  C   UNL     1      25.210  38.720  30.751  1.00  0.00     0.053 C 
BRANCH   7   8
ATOM      8  C   UNL     1      26.252  38.071  31.604  1.00  0.00     0.041 C 
ATOM      9  O   UNL     1      25.988  37.745  32.792  1.00  0.00    -0.550 OA
ATOM     10  O   UNL     1      27.503  37.781  31.074  1.00  0.00    -0.550 OA
ENDBRANCH   7   8
ENDBRANCH   6   7
ENDBRANCH   5   6
ENDBRANCH   4   5
ENDBRANCH   3   4
ENDBRANCH   2   3
ENDBRANCH   1   2
BRANCH   1  11
ATOM     11  C   UNL     1      27.882  42.633  25.641  1.00  0.00     0.000 C 
BRANCH  11  12
ATOM     12  C   UNL     1      26.445  42.875  25.144  1.00  0.00    -0.000 C 
BRANCH  12  13
ATOM     13  C   UNL     1      25.975  41.822  24.127  1.00  0.00    -0.000 C 
BRANCH  13  14
ATOM     14  C   UNL     1      25.255  40.632  24.787  1.00  0.00    -0.000 C 
BRANCH  14  15
ATOM     15  C   UNL     1      25.229  39.332  23.957  1.00  0.00    -0.000 C 
BRANCH  15  16
ATOM     16  C   UNL     1      25.282  38.031  24.777  1.00  0.00    -0.000 C 
BRANCH  16  17
ATOM     17  C   UNL     1      26.638  37.318  24.676  1.00  0.00    -0.003 C 
ATOM     18  C   UNL     1      27.673  37.972  25.587  1.00  0.00     0.004 C 
ENDBRANCH  16  17
ENDBRANCH  15  16
ENDBRANCH  14  15
ENDBRANCH  13  14
ENDBRANCH  12  13
ENDBRANCH  11  12
ENDBRANCH   1  11
TORSDOF 14
ENDMDL
MODEL 9
REMARK VINA RESULT:    -2.489     14.262     17.092
REMARK INTER + INTRA:          -6.086
REMARK INTER:                  -5.356
REMARK INTRA:                  -0.731
REMARK UNBOUND:                -1.560
REMARK SMILES CCCCCCCCCCCCCCCC(=O)[O-]
REMARK SMILES IDX 9 1 10 2 11 3 12 4 13 5 14 6 15 7 16 8 17 9 18 10 8 11 7 12
REMARK SMILES IDX 6 13 5 14 4 15 3 16 2 17 1 18
REMARK H PARENT
REMARK Flexibility Score: inf
ROOT
ATOM      1  C   UNL     1      30.595  46.247  41.215  1.00  0.00     0.000 C 
ENDROOT
BRANCH   1   2
ATOM      2  C   UNL     1      31.476  47.235  41.999  1.00  0.00     0.000 C 
BRANCH   2   3
ATOM      3  C   UNL     1      30.948  48.677  41.931  1.00  0.00     0.000 C 
BRANCH   3   4
ATOM      4  C   UNL     1      30.258  48.992  40.593  1.00  0.00     0.000 C 
BRANCH   4   5
ATOM      5  C   UNL     1      28.856  49.568  40.821  1.00  0.00     0.000 C 
BRANCH   5   6
ATOM      6  C   UNL     1      28.319  50.230  39.548  1.00  0.00     0.006 C 
BRANCH   6   7
ATOM      7  C   UNL     1      27.581  51.532  39.874  1.00  0.00     0.053 C 
BRANCH   7   8
ATOM      8  C   UNL     1      28.264  52.696  39.228  1.00  0.00     0.041 C 
ATOM      9  O   UNL     1      28.349  52.766  37.974  1.00  0.00    -0.550 OA
ATOM     10  O   UNL     1      28.765  53.729  40.011  1.00  0.00    -0.550 OA
ENDBRANCH   7   8
ENDBRANCH   6   7
ENDBRANCH   5   6
ENDBRANCH   4   5
ENDBRANCH   3   4
ENDBRANCH   2   3
ENDBRANCH   1   2
BRANCH   1  11
ATOM     11  C   UNL     1      29.874  45.233  42.124  1.00  0.00     0.000 C 
BRANCH  11  12
ATOM     12  C   UNL     1      28.348  45.144  41.933  1.00  0.00    -0.000 C 
BRANCH  12  13
ATOM     13  C   UNL     1      27.804  43.715  42.098  1.00  0.00    -0.000 C 
BRANCH  13  14
ATOM     14  C   UNL     1      26.277  43.632  41.918  1.00  0.00    -0.000 C 
BRANCH  14  15
ATOM     15  C   UNL     1      25.766  42.375  41.185  1.00  0.00    -0.000 C 
BRANCH  15  16
ATOM     16  C   UNL     1      25.111  42.636  39.817  1.00  0.00    -0.000 C 
BRANCH  16  17
ATOM     17  C   UNL     1      25.788  41.866  38.675  1.00  0.00    -0.003 C 
ATOM     18  C   UNL     1      26.808  40.868  39.214  1.00  0.00     0.004 C 
ENDBRANCH  16  17
ENDBRANCH  15  16
ENDBRANCH  14  15
ENDBRANCH  13  14
ENDBRANCH  12  13
ENDBRANCH  11  12
ENDBRANCH   1  11
TORSDOF 14
ENDMDL
