MODEL 1
REMARK VINA RESULT:    -5.146      0.000      0.000
REMARK INTER + INTRA:         -11.044
REMARK INTER:                  -9.358
REMARK INTRA:                  -1.686
REMARK UNBOUND:                -1.686
REMARK SMILES CCCCCCCCCCCCCCCC(=O)[O-]
REMARK SMILES IDX 9 1 10 2 11 3 12 4 13 5 14 6 15 7 16 8 17 9 18 10 8 11 7 12
REMARK SMILES IDX 6 13 5 14 4 15 3 16 2 17 1 18
REMARK H PARENT
REMARK Flexibility Score: inf
ROOT
ATOM      1  C   UNL     1      23.529  12.525  35.723  1.00  0.00     0.000 C 
ENDROOT
BRANCH   1   2
ATOM      2  C   UNL     1      25.013  12.838  35.966  1.00  0.00     0.000 C 
BRANCH   2   3
ATOM      3  C   UNL     1      25.907  11.724  35.402  1.00  0.00     0.000 C 
BRANCH   3   4
ATOM      4  C   UNL     1      27.367  12.171  35.213  1.00  0.00     0.000 C 
BRANCH   4   5
ATOM      5  C   UNL     1      28.003  11.589  33.940  1.00  0.00     0.000 C 
BRANCH   5   6
ATOM      6  C   UNL     1      28.080  12.606  32.787  1.00  0.00     0.006 C 
BRANCH   6   7
ATOM      7  C   UNL     1      27.302  12.185  31.527  1.00  0.00     0.053 C 
BRANCH   7   8
ATOM      8  C   UNL     1      25.998  12.909  31.389  1.00  0.00     0.041 C 
ATOM      9  O   UNL     1      25.041  12.644  32.164  1.00  0.00    -0.550 OA
ATOM     10  O   UNL     1      25.825  13.853  30.384  1.00  0.00    -0.550 OA
ENDBRANCH   7   8
ENDBRANCH   6   7
ENDBRANCH   5   6
ENDBRANCH   4   5
ENDBRANCH   3   4
ENDBRANCH   2   3
ENDBRANCH   1   2
BRANCH   1  11
ATOM     11  C   UNL     1      23.311  11.157  35.053  1.00  0.00     0.000 C 
BRANCH  11  12
ATOM     12  C   UNL     1      22.308  10.277  35.819  1.00  0.00    -0.000 C 
BRANCH  12  13
ATOM     13  C   UNL     1      20.965  10.138  35.085  1.00  0.00    -0.000 C 
BRANCH  13  14
ATOM     14  C   UNL     1      19.815  10.855  35.808  1.00  0.00    -0.000 C 
BRANCH  14  15
ATOM     15  C   UNL     1      19.313  12.055  34.989  1.00  0.00    -0.000 C 
BRANCH  15  16
ATOM     16  C   UNL     1      19.892  13.392  35.495  1.00  0.00    -0.000 C 
BRANCH  16  17
ATOM     17  C   UNL     1      20.571  14.226  34.396  1.00  0.00    -0.003 C 
ATOM     18  C   UNL     1      20.914  13.410  33.152  1.00  0.00     0.004 C 
ENDBRANCH  16  17
ENDBRANCH  15  16
ENDBRANCH  14  15
ENDBRANCH  13  14
ENDBRANCH  12  13
ENDBRANCH  11  12
ENDBRANCH   1  11
TORSDOF 14
ENDMDL
MODEL 2
REMARK VINA RESULT:    -5.121      1.289      2.553
REMARK INTER + INTRA:         -10.998
REMARK INTER:                  -8.979
REMARK INTRA:                  -2.019
REMARK UNBOUND:                -1.686
REMARK SMILES CCCCCCCCCCCCCCCC(=O)[O-]
REMARK SMILES IDX 9 1 10 2 11 3 12 4 13 5 14 6 15 7 16 8 17 9 18 10 8 11 7 12
REMARK SMILES IDX 6 13 5 14 4 15 3 16 2 17 1 18
REMARK H PARENT
REMARK Flexibility Score: inf
ROOT
ATOM      1  C   UNL     1      22.113  10.464  35.736  1.00  0.00     0.000 C 
ENDROOT
BRANCH   1   2
ATOM      2  C   UNL     1      23.165  11.272  34.961  1.00  0.00     0.000 C 
BRANCH   2   3
ATOM      3  C   UNL     1      23.773  12.370  35.846  1.00  0.00     0.000 C 
BRANCH   3   4
ATOM      4  C   UNL     1      25.301  12.473  35.702  1.00  0.00     0.000 C 
BRANCH   4   5
ATOM      5  C   UNL     1      25.927  11.194  35.121  1.00  0.00     0.000 C 
BRANCH   5   6
ATOM      6  C   UNL     1      27.390  11.385  34.683  1.00  0.00     0.006 C 
BRANCH   6   7
ATOM      7  C   UNL     1      27.707  12.795  34.155  1.00  0.00     0.053 C 
BRANCH   7   8
ATOM      8  C   UNL     1      27.463  12.926  32.683  1.00  0.00     0.041 C 
ATOM      9  O   UNL     1      26.311  13.201  32.254  1.00  0.00    -0.550 OA
ATOM     10  O   UNL     1      28.497  12.713  31.780  1.00  0.00    -0.550 OA
ENDBRANCH   7   8
ENDBRANCH   6   7
ENDBRANCH   5   6
ENDBRANCH   4   5
ENDBRANCH   3   4
ENDBRANCH   2   3
ENDBRANCH   1   2
BRANCH   1  11
ATOM     11  C   UNL     1      20.925  10.039  34.858  1.00  0.00     0.000 C 
BRANCH  11  12
ATOM     12  C   UNL     1      21.154  10.339  33.366  1.00  0.00    -0.000 C 
BRANCH  12  13
ATOM     13  C   UNL     1      20.007  11.154  32.745  1.00  0.00    -0.000 C 
BRANCH  13  14
ATOM     14  C   UNL     1      20.453  12.547  32.276  1.00  0.00    -0.000 C 
BRANCH  14  15
ATOM     15  C   UNL     1      19.822  13.648  33.143  1.00  0.00    -0.000 C 
BRANCH  15  16
ATOM     16  C   UNL     1      20.739  14.072  34.309  1.00  0.00    -0.000 C 
BRANCH  16  17
ATOM     17  C   UNL     1      20.242  13.605  35.687  1.00  0.00    -0.003 C 
ATOM     18  C   UNL     1      18.787  13.144  35.674  1.00  0.00     0.004 C 
ENDBRANCH  16  17
ENDBRANCH  15  16
ENDBRANCH  14  15
ENDBRANCH  13  14
ENDBRANCH  12  13
ENDBRANCH  11  12
ENDBRANCH   1  11
TORSDOF 14
ENDMDL
MODEL 3
REMARK VINA RESULT:    -5.026      1.336      1.775
REMARK INTER + INTRA:         -10.825
REMARK INTER:                  -9.042
REMARK INTRA:                  -1.783
REMARK UNBOUND:                -1.686
REMARK SMILES CCCCCCCCCCCCCCCC(=O)[O-]
REMARK SMILES IDX 9 1 10 2 11 3 12 4 13 5 14 6 15 7 16 8 17 9 18 10 8 11 7 12
REMARK SMILES IDX 6 13 5 14 4 15 3 16 2 17 1 18
REMARK H PARENT
REMARK Flexibility Score: inf
ROOT
ATOM      1  C   UNL     1      23.246  11.160  34.883  1.00  0.00     0.000 C 
ENDROOT
BRANCH   1   2
ATOM      2  C   UNL     1      23.727  12.513  35.429  1.00  0.00     0.000 C 
BRANCH   2   3
ATOM      3  C   UNL     1      25.128  12.386  36.046  1.00  0.00     0.000 C 
BRANCH   3   4
ATOM      4  C   UNL     1      26.040  11.429  35.260  1.00  0.00     0.000 C 
BRANCH   4   5
ATOM      5  C   UNL     1      27.288  12.131  34.699  1.00  0.00     0.000 C 
BRANCH   5   6
ATOM      6  C   UNL     1      26.951  13.218  33.662  1.00  0.00     0.006 C 
BRANCH   6   7
ATOM      7  C   UNL     1      26.496  12.666  32.300  1.00  0.00     0.053 C 
BRANCH   7   8
ATOM      8  C   UNL     1      27.616  12.032  31.533  1.00  0.00     0.041 C 
ATOM      9  O   UNL     1      27.550  10.819  31.202  1.00  0.00    -0.550 OA
ATOM     10  O   UNL     1      28.748  12.770  31.210  1.00  0.00    -0.550 OA
ENDBRANCH   7   8
ENDBRANCH   6   7
ENDBRANCH   5   6
ENDBRANCH   4   5
ENDBRANCH   3   4
ENDBRANCH   2   3
ENDBRANCH   1   2
BRANCH   1  11
ATOM     11  C   UNL     1      22.155  10.519  35.757  1.00  0.00     0.000 C 
BRANCH  11  12
ATOM     12  C   UNL     1      20.796  10.437  35.041  1.00  0.00    -0.000 C 
BRANCH  12  13
ATOM     13  C   UNL     1      19.660  11.081  35.853  1.00  0.00    -0.000 C 
BRANCH  13  14
ATOM     14  C   UNL     1      19.850  12.593  36.045  1.00  0.00    -0.000 C 
BRANCH  14  15
ATOM     15  C   UNL     1      18.760  13.383  35.305  1.00  0.00    -0.000 C 
BRANCH  15  16
ATOM     16  C   UNL     1      19.093  13.583  33.812  1.00  0.00    -0.000 C 
BRANCH  16  17
ATOM     17  C   UNL     1      20.571  13.919  33.550  1.00  0.00    -0.003 C 
ATOM     18  C   UNL     1      21.184  13.087  32.426  1.00  0.00     0.004 C 
ENDBRANCH  16  17
ENDBRANCH  15  16
ENDBRANCH  14  15
ENDBRANCH  13  14
ENDBRANCH  12  13
ENDBRANCH  11  12
ENDBRANCH   1  11
TORSDOF 14
ENDMDL
MODEL 4
REMARK VINA RESULT:    -4.989      1.916      3.390
REMARK INTER + INTRA:         -10.759
REMARK INTER:                  -9.870
REMARK INTRA:                  -0.889
REMARK UNBOUND:                -1.686
REMARK SMILES CCCCCCCCCCCCCCCC(=O)[O-]
REMARK SMILES IDX 9 1 10 2 11 3 12 4 13 5 14 6 15 7 16 8 17 9 18 10 8 11 7 12
REMARK SMILES IDX 6 13 5 14 4 15 3 16 2 17 1 18
REMARK H PARENT
REMARK Flexibility Score: inf
ROOT
ATOM      1  C   UNL     1      25.182  11.198  35.864  1.00  0.00     0.000 C 
ENDROOT
BRANCH   1   2
ATOM      2  C   UNL     1      26.026  11.066  34.587  1.00  0.00     0.000 C 
BRANCH   2   3
ATOM      3  C   UNL     1      27.520  11.239  34.898  1.00  0.00     0.000 C 
BRANCH   3   4
ATOM      4  C   UNL     1      28.228  12.181  33.910  1.00  0.00     0.000 C 
BRANCH   4   5
ATOM      5  C   UNL     1      27.385  13.421  33.570  1.00  0.00     0.000 C 
BRANCH   5   6
ATOM      6  C   UNL     1      26.796  13.377  32.148  1.00  0.00     0.006 C 
BRANCH   6   7
ATOM      7  C   UNL     1      27.670  12.622  31.131  1.00  0.00     0.053 C 
BRANCH   7   8
ATOM      8  C   UNL     1      26.964  11.448  30.526  1.00  0.00     0.041 C 
ATOM      9  O   UNL     1      27.483  10.301  30.577  1.00  0.00    -0.550 OA
ATOM     10  O   UNL     1      25.748  11.621  29.876  1.00  0.00    -0.550 OA
ENDBRANCH   7   8
ENDBRANCH   6   7
ENDBRANCH   5   6
ENDBRANCH   4   5
ENDBRANCH   3   4
ENDBRANCH   2   3
ENDBRANCH   1   2
BRANCH   1  11
ATOM     11  C   UNL     1      24.358  12.496  35.900  1.00  0.00     0.000 C 
BRANCH  11  12
ATOM     12  C   UNL     1      22.866  12.258  35.608  1.00  0.00    -0.000 C 
BRANCH  12  13
ATOM     13  C   UNL     1      22.463  10.782  35.759  1.00  0.00    -0.000 C 
BRANCH  13  14
ATOM     14  C   UNL     1      21.056  10.491  35.216  1.00  0.00    -0.000 C 
BRANCH  14  15
ATOM     15  C   UNL     1      20.670   9.021  35.445  1.00  0.00    -0.000 C 
BRANCH  15  16
ATOM     16  C   UNL     1      19.353   8.879  36.235  1.00  0.00    -0.000 C 
BRANCH  16  17
ATOM     17  C   UNL     1      19.493   8.050  37.524  1.00  0.00    -0.003 C 
ATOM     18  C   UNL     1      19.495   6.545  37.270  1.00  0.00     0.004 C 
ENDBRANCH  16  17
ENDBRANCH  15  16
ENDBRANCH  14  15
ENDBRANCH  13  14
ENDBRANCH  12  13
ENDBRANCH  11  12
ENDBRANCH   1  11
TORSDOF 14
ENDMDL
MODEL 5
REMARK VINA RESULT:    -4.980      1.312      2.473
REMARK INTER + INTRA:         -10.741
REMARK INTER:                  -9.079
REMARK INTRA:                  -1.662
REMARK UNBOUND:                -1.686
REMARK SMILES CCCCCCCCCCCCCCCC(=O)[O-]
REMARK SMILES IDX 9 1 10 2 11 3 12 4 13 5 14 6 15 7 16 8 17 9 18 10 8 11 7 12
REMARK SMILES IDX 6 13 5 14 4 15 3 16 2 17 1 18
REMARK H PARENT
REMARK Flexibility Score: inf
ROOT
ATOM      1  C   UNL     1      23.829  12.256  35.383  1.00  0.00     0.000 C 
ENDROOT
BRANCH   1   2
ATOM      2  C   UNL     1      24.995  11.408  35.912  1.00  0.00     0.000 C 
BRANCH   2   3
ATOM      3  C   UNL     1      26.023  11.139  34.803  1.00  0.00     0.000 C 
BRANCH   3   4
ATOM      4  C   UNL     1      27.420  11.687  35.141  1.00  0.00     0.000 C 
BRANCH   4   5
ATOM      5  C   UNL     1      27.583  13.166  34.753  1.00  0.00     0.000 C 
BRANCH   5   6
ATOM      6  C   UNL     1      27.325  13.428  33.258  1.00  0.00     0.006 C 
BRANCH   6   7
ATOM      7  C   UNL     1      28.288  12.685  32.316  1.00  0.00     0.053 C 
BRANCH   7   8
ATOM      8  C   UNL     1      27.596  12.125  31.111  1.00  0.00     0.041 C 
ATOM      9  O   UNL     1      27.822  10.942  30.744  1.00  0.00    -0.550 OA
ATOM     10  O   UNL     1      26.726  12.918  30.373  1.00  0.00    -0.550 OA
ENDBRANCH   7   8
ENDBRANCH   6   7
ENDBRANCH   5   6
ENDBRANCH   4   5
ENDBRANCH   3   4
ENDBRANCH   2   3
ENDBRANCH   1   2
BRANCH   1  11
ATOM     11  C   UNL     1      23.540  12.007  33.893  1.00  0.00     0.000 C 
BRANCH  11  12
ATOM     12  C   UNL     1      22.102  12.385  33.498  1.00  0.00    -0.000 C 
BRANCH  12  13
ATOM     13  C   UNL     1      21.464  13.383  34.478  1.00  0.00    -0.000 C 
BRANCH  13  14
ATOM     14  C   UNL     1      19.971  13.111  34.716  1.00  0.00    -0.000 C 
BRANCH  14  15
ATOM     15  C   UNL     1      19.773  11.927  35.675  1.00  0.00    -0.000 C 
BRANCH  15  16
ATOM     16  C   UNL     1      19.095  10.724  34.988  1.00  0.00    -0.000 C 
BRANCH  16  17
ATOM     17  C   UNL     1      20.000   9.485  34.879  1.00  0.00    -0.003 C 
ATOM     18  C   UNL     1      21.257   9.585  35.740  1.00  0.00     0.004 C 
ENDBRANCH  16  17
ENDBRANCH  15  16
ENDBRANCH  14  15
ENDBRANCH  13  14
ENDBRANCH  12  13
ENDBRANCH  11  12
ENDBRANCH   1  11
TORSDOF 14
ENDMDL
MODEL 6
REMARK VINA RESULT:    -4.937      1.651      2.782
REMARK INTER + INTRA:         -10.664
REMARK INTER:                  -9.215
REMARK INTRA:                  -1.449
REMARK UNBOUND:                -1.686
REMARK SMILES CCCCCCCCCCCCCCCC(=O)[O-]
REMARK SMILES IDX 9 1 10 2 11 3 12 4 13 5 14 6 15 7 16 8 17 9 18 10 8 11 7 12
REMARK SMILES IDX 6 13 5 14 4 15 3 16 2 17 1 18
REMARK H PARENT
REMARK Flexibility Score: inf
ROOT
ATOM      1  C   UNL     1      22.930  11.052  35.625  1.00  0.00     0.000 C 
ENDROOT
BRANCH   1   2
ATOM      2  C   UNL     1      24.420  10.945  35.981  1.00  0.00     0.000 C 
BRANCH   2   3
ATOM      3  C   UNL     1      25.043  12.338  36.152  1.00  0.00     0.000 C 
BRANCH   3   4
ATOM      4  C   UNL     1      26.258  12.563  35.235  1.00  0.00     0.000 C 
BRANCH   4   5
ATOM      5  C   UNL     1      27.041  11.268  34.964  1.00  0.00     0.000 C 
BRANCH   5   6
ATOM      6  C   UNL     1      28.231  11.473  34.009  1.00  0.00     0.006 C 
BRANCH   6   7
ATOM      7  C   UNL     1      28.047  12.638  33.019  1.00  0.00     0.053 C 
BRANCH   7   8
ATOM      8  C   UNL     1      28.155  12.201  31.591  1.00  0.00     0.041 C 
ATOM      9  O   UNL     1      28.701  12.951  30.739  1.00  0.00    -0.550 OA
ATOM     10  O   UNL     1      27.624  10.981  31.190  1.00  0.00    -0.550 OA
ENDBRANCH   7   8
ENDBRANCH   6   7
ENDBRANCH   5   6
ENDBRANCH   4   5
ENDBRANCH   3   4
ENDBRANCH   2   3
ENDBRANCH   1   2
BRANCH   1  11
ATOM     11  C   UNL     1      22.524  12.468  35.182  1.00  0.00     0.000 C 
BRANCH  11  12
ATOM     12  C   UNL     1      21.035  12.762  35.435  1.00  0.00    -0.000 C 
BRANCH  12  13
ATOM     13  C   UNL     1      20.570  14.069  34.772  1.00  0.00    -0.000 C 
BRANCH  13  14
ATOM     14  C   UNL     1      19.612  13.831  33.595  1.00  0.00    -0.000 C 
BRANCH  14  15
ATOM     15  C   UNL     1      20.390  13.533  32.303  1.00  0.00    -0.000 C 
BRANCH  15  16
ATOM     16  C   UNL     1      20.243  12.063  31.858  1.00  0.00    -0.000 C 
BRANCH  16  17
ATOM     17  C   UNL     1      21.579  11.304  31.784  1.00  0.00    -0.003 C 
ATOM     18  C   UNL     1      22.783  12.228  31.613  1.00  0.00     0.004 C 
ENDBRANCH  16  17
ENDBRANCH  15  16
ENDBRANCH  14  15
ENDBRANCH  13  14
ENDBRANCH  12  13
ENDBRANCH  11  12
ENDBRANCH   1  11
TORSDOF 14
ENDMDL
MODEL 7
REMARK VINA RESULT:    -4.901      1.633      3.788
REMARK INTER + INTRA:         -10.597
REMARK INTER:                  -8.572
REMARK INTRA:                  -2.025
REMARK UNBOUND:                -1.686
REMARK SMILES CCCCCCCCCCCCCCCC(=O)[O-]
REMARK SMILES IDX 9 1 10 2 11 3 12 4 13 5 14 6 15 7 16 8 17 9 18 10 8 11 7 12
REMARK SMILES IDX 6 13 5 14 4 15 3 16 2 17 1 18
REMARK H PARENT
REMARK Flexibility Score: inf
ROOT
ATOM      1  C   UNL     1      21.400  12.560  32.722  1.00  0.00     0.000 C 
ENDROOT
BRANCH   1   2
ATOM      2  C   UNL     1      22.823  12.255  33.215  1.00  0.00     0.000 C 
BRANCH   2   3
ATOM      3  C   UNL     1      22.791  11.348  34.453  1.00  0.00     0.000 C 
BRANCH   3   4
ATOM      4  C   UNL     1      23.267  12.065  35.728  1.00  0.00     0.000 C 
BRANCH   4   5
ATOM      5  C   UNL     1      24.753  12.457  35.665  1.00  0.00     0.000 C 
BRANCH   5   6
ATOM      6  C   UNL     1      25.683  11.253  35.434  1.00  0.00     0.006 C 
BRANCH   6   7
ATOM      7  C   UNL     1      26.477  11.317  34.117  1.00  0.00     0.053 C 
BRANCH   7   8
ATOM      8  C   UNL     1      27.105  12.657  33.890  1.00  0.00     0.041 C 
ATOM      9  O   UNL     1      28.009  13.072  34.662  1.00  0.00    -0.550 OA
ATOM     10  O   UNL     1      26.673  13.465  32.845  1.00  0.00    -0.550 OA
ENDBRANCH   7   8
ENDBRANCH   6   7
ENDBRANCH   5   6
ENDBRANCH   4   5
ENDBRANCH   3   4
ENDBRANCH   2   3
ENDBRANCH   1   2
BRANCH   1  11
ATOM     11  C   UNL     1      20.818  13.841  33.341  1.00  0.00     0.000 C 
BRANCH  11  12
ATOM     12  C   UNL     1      19.541  13.576  34.157  1.00  0.00    -0.000 C 
BRANCH  12  13
ATOM     13  C   UNL     1      19.835  13.301  35.641  1.00  0.00    -0.000 C 
BRANCH  13  14
ATOM     14  C   UNL     1      19.421  11.888  36.078  1.00  0.00    -0.000 C 
BRANCH  14  15
ATOM     15  C   UNL     1      18.870  11.083  34.891  1.00  0.00    -0.000 C 
BRANCH  15  16
ATOM     16  C   UNL     1      19.445   9.653  34.836  1.00  0.00    -0.000 C 
BRANCH  16  17
ATOM     17  C   UNL     1      20.216   9.249  36.105  1.00  0.00    -0.003 C 
ATOM     18  C   UNL     1      19.458   8.247  36.972  1.00  0.00     0.004 C 
ENDBRANCH  16  17
ENDBRANCH  15  16
ENDBRANCH  14  15
ENDBRANCH  13  14
ENDBRANCH  12  13
ENDBRANCH  11  12
ENDBRANCH   1  11
TORSDOF 14
ENDMDL
MODEL 8
REMARK VINA RESULT:    -4.897      1.576      6.222
REMARK INTER + INTRA:         -10.591
REMARK INTER:                  -9.085
REMARK INTRA:                  -1.507
REMARK UNBOUND:                -1.686
REMARK SMILES CCCCCCCCCCCCCCCC(=O)[O-]
REMARK SMILES IDX 9 1 10 2 11 3 12 4 13 5 14 6 15 7 16 8 17 9 18 10 8 11 7 12
REMARK SMILES IDX 6 13 5 14 4 15 3 16 2 17 1 18
REMARK H PARENT
REMARK Flexibility Score: inf
ROOT
ATOM      1  C   UNL     1      23.191  12.555  35.508  1.00  0.00     0.000 C 
ENDROOT
BRANCH   1   2
ATOM      2  C   UNL     1      22.565  11.162  35.342  1.00  0.00     0.000 C 
BRANCH   2   3
ATOM      3  C   UNL     1      21.041  11.222  35.519  1.00  0.00     0.000 C 
BRANCH   3   4
ATOM      4  C   UNL     1      20.529  12.647  35.788  1.00  0.00     0.000 C 
BRANCH   4   5
ATOM      5  C   UNL     1      19.682  13.199  34.629  1.00  0.00     0.000 C 
BRANCH   5   6
ATOM      6  C   UNL     1      20.467  14.156  33.713  1.00  0.00     0.006 C 
BRANCH   6   7
ATOM      7  C   UNL     1      20.466  13.745  32.230  1.00  0.00     0.053 C 
BRANCH   7   8
ATOM      8  C   UNL     1      21.150  12.433  31.997  1.00  0.00     0.041 C 
ATOM      9  O   UNL     1      20.471  11.391  31.801  1.00  0.00    -0.550 OA
ATOM     10  O   UNL     1      22.537  12.351  32.027  1.00  0.00    -0.550 OA
ENDBRANCH   7   8
ENDBRANCH   6   7
ENDBRANCH   5   6
ENDBRANCH   4   5
ENDBRANCH   3   4
ENDBRANCH   2   3
ENDBRANCH   1   2
BRANCH   1  11
ATOM     11  C   UNL     1      24.671  12.498  35.919  1.00  0.00     0.000 C 
BRANCH  11  12
ATOM     12  C   UNL     1      25.295  11.111  35.689  1.00  0.00    -0.000 C 
BRANCH  12  13
ATOM     13  C   UNL     1      26.196  11.068  34.444  1.00  0.00    -0.000 C 
BRANCH  13  14
ATOM     14  C   UNL     1      27.658  11.423  34.755  1.00  0.00    -0.000 C 
BRANCH  14  15
ATOM     15  C   UNL     1      27.982  12.858  34.312  1.00  0.00    -0.000 C 
BRANCH  15  16
ATOM     16  C   UNL     1      27.481  13.157  32.884  1.00  0.00    -0.000 C 
BRANCH  16  17
ATOM     17  C   UNL     1      28.354  12.537  31.781  1.00  0.00    -0.003 C 
ATOM     18  C   UNL     1      27.652  11.414  31.022  1.00  0.00     0.004 C 
ENDBRANCH  16  17
ENDBRANCH  15  16
ENDBRANCH  14  15
ENDBRANCH  13  14
ENDBRANCH  12  13
ENDBRANCH  11  12
ENDBRANCH   1  11
TORSDOF 14
ENDMDL
MODEL 9
REMARK VINA RESULT:    -4.811      2.765      6.050
REMARK INTER + INTRA:         -10.434
REMARK INTER:                  -8.648
REMARK INTRA:                  -1.786
REMARK UNBOUND:                -1.686
REMARK SMILES CCCCCCCCCCCCCCCC(=O)[O-]
REMARK SMILES IDX 9 1 10 2 11 3 12 4 13 5 14 6 15 7 16 8 17 9 18 10 8 11 7 12
REMARK SMILES IDX 6 13 5 14 4 15 3 16 2 17 1 18
REMARK H PARENT
REMARK Flexibility Score: inf
ROOT
ATOM      1  C   UNL     1      27.661  12.843  35.067  1.00  0.00     0.000 C 
ENDROOT
BRANCH   1   2
ATOM      2  C   UNL     1      26.143  12.707  35.261  1.00  0.00     0.000 C 
BRANCH   2   3
ATOM      3  C   UNL     1      25.705  11.240  35.137  1.00  0.00     0.000 C 
BRANCH   3   4
ATOM      4  C   UNL     1      24.354  10.963  35.820  1.00  0.00     0.000 C 
BRANCH   4   5
ATOM      5  C   UNL     1      23.435  12.195  35.831  1.00  0.00     0.000 C 
BRANCH   5   6
ATOM      6  C   UNL     1      21.956  11.844  35.586  1.00  0.00     0.006 C 
BRANCH   6   7
ATOM      7  C   UNL     1      21.678  10.333  35.489  1.00  0.00     0.053 C 
BRANCH   7   8
ATOM      8  C   UNL     1      20.329  10.032  34.912  1.00  0.00     0.041 C 
ATOM      9  O   UNL     1      20.221   9.256  33.926  1.00  0.00    -0.550 OA
ATOM     10  O   UNL     1      19.193  10.632  35.441  1.00  0.00    -0.550 OA
ENDBRANCH   7   8
ENDBRANCH   6   7
ENDBRANCH   5   6
ENDBRANCH   4   5
ENDBRANCH   3   4
ENDBRANCH   2   3
ENDBRANCH   1   2
BRANCH   1  11
ATOM     11  C   UNL     1      28.252  11.722  34.197  1.00  0.00     0.000 C 
BRANCH  11  12
ATOM     12  C   UNL     1      28.381  12.126  32.718  1.00  0.00    -0.000 C 
BRANCH  12  13
ATOM     13  C   UNL     1      27.358  11.413  31.819  1.00  0.00    -0.000 C 
BRANCH  13  14
ATOM     14  C   UNL     1      26.963  12.246  30.590  1.00  0.00    -0.000 C 
BRANCH  14  15
ATOM     15  C   UNL     1      25.819  13.215  30.926  1.00  0.00    -0.000 C 
BRANCH  15  16
ATOM     16  C   UNL     1      24.433  12.553  30.791  1.00  0.00    -0.000 C 
BRANCH  16  17
ATOM     17  C   UNL     1      23.711  12.354  32.135  1.00  0.00    -0.003 C 
ATOM     18  C   UNL     1      22.238  11.984  31.974  1.00  0.00     0.004 C 
ENDBRANCH  16  17
ENDBRANCH  15  16
ENDBRANCH  14  15
ENDBRANCH  13  14
ENDBRANCH  12  13
ENDBRANCH  11  12
ENDBRANCH   1  11
TORSDOF 14
ENDMDL
