MODEL 1
REMARK VINA RESULT:     1.617      0.000      0.000
REMARK INTER + INTRA:           6.447
REMARK INTER:                   4.264
REMARK INTRA:                   2.183
REMARK UNBOUND:                 2.183
REMARK SMILES CCCCCCCCCCCCCCCCCCCCCCCCCCCCCC(=O)[O-]
REMARK SMILES IDX 16 1 17 2 18 3 19 4 20 5 21 6 22 7 23 8 24 9 25 10 26 11
REMARK SMILES IDX 27 12 28 13 29 14 30 15 31 16 32 17 15 18 14 19 13 20 12 21
REMARK SMILES IDX 11 22 10 23 9 24 8 25 7 26 6 27 5 28 4 29 3 30 2 31 1 32
REMARK H PARENT
REMARK Flexibility Score: inf
ROOT
ATOM      1  C   UNL     1       5.569   2.338  15.778  1.00  0.00     0.000 C 
ENDROOT
BRANCH   1   2
ATOM      2  C   UNL     1       5.705   0.828  16.050  1.00  0.00     0.000 C 
BRANCH   2   3
ATOM      3  C   UNL     1       4.594   0.213  16.926  1.00  0.00     0.000 C 
BRANCH   3   4
ATOM      4  C   UNL     1       4.195  -1.222  16.524  1.00  0.00     0.000 C 
BRANCH   4   5
ATOM      5  C   UNL     1       5.407  -2.114  16.201  1.00  0.00     0.000 C 
BRANCH   5   6
ATOM      6  C   UNL     1       6.525  -1.998  17.249  1.00  0.00     0.000 C 
BRANCH   6   7
ATOM      7  C   UNL     1       5.990  -1.986  18.692  1.00  0.00     0.000 C 
BRANCH   7   8
ATOM      8  C   UNL     1       7.038  -1.526  19.721  1.00  0.00     0.000 C 
BRANCH   8   9
ATOM      9  C   UNL     1       6.715  -0.202  20.439  1.00  0.00     0.000 C 
BRANCH   9  10
ATOM     10  C   UNL     1       5.223   0.164  20.391  1.00  0.00     0.000 C 
BRANCH  10  11
ATOM     11  C   UNL     1       4.902   1.199  19.298  1.00  0.00     0.000 C 
BRANCH  11  12
ATOM     12  C   UNL     1       3.595   1.982  19.547  1.00  0.00     0.000 C 
BRANCH  12  13
ATOM     13  C   UNL     1       2.510   1.649  18.510  1.00  0.00     0.006 C 
BRANCH  13  14
ATOM     14  C   UNL     1       1.160   2.246  18.917  1.00  0.00     0.053 C 
BRANCH  14  15
ATOM     15  C   UNL     1       0.902   2.023  20.373  1.00  0.00     0.041 C 
ATOM     16  O   UNL     1       0.479   2.964  21.094  1.00  0.00    -0.550 OA
ATOM     17  O   UNL     1       1.097   0.763  20.928  1.00  0.00    -0.550 OA
ENDBRANCH  14  15
ENDBRANCH  13  14
ENDBRANCH  12  13
ENDBRANCH  11  12
ENDBRANCH  10  11
ENDBRANCH   9  10
ENDBRANCH   8   9
ENDBRANCH   7   8
ENDBRANCH   6   7
ENDBRANCH   5   6
ENDBRANCH   4   5
ENDBRANCH   3   4
ENDBRANCH   2   3
ENDBRANCH   1   2
BRANCH   1  18
ATOM     18  C   UNL     1       5.844   2.776  14.324  1.00  0.00     0.000 C 
BRANCH  18  19
ATOM     19  C   UNL     1       6.027   1.627  13.318  1.00  0.00     0.000 C 
BRANCH  19  20
ATOM     20  C   UNL     1       6.821   0.446  13.901  1.00  0.00     0.000 C 
BRANCH  20  21
ATOM     21  C   UNL     1       6.951  -0.726  12.914  1.00  0.00     0.000 C 
BRANCH  21  22
ATOM     22  C   UNL     1       5.825  -1.766  13.064  1.00  0.00     0.000 C 
BRANCH  22  23
ATOM     23  C   UNL     1       4.421  -1.154  12.876  1.00  0.00     0.000 C 
BRANCH  23  24
ATOM     24  C   UNL     1       3.271  -2.075  13.331  1.00  0.00    -0.000 C 
BRANCH  24  25
ATOM     25  C   UNL     1       2.729  -1.793  14.745  1.00  0.00    -0.000 C 
BRANCH  25  26
ATOM     26  C   UNL     1       1.195  -1.660  14.843  1.00  0.00    -0.000 C 
BRANCH  26  27
ATOM     27  C   UNL     1       0.638  -0.259  14.539  1.00  0.00    -0.000 C 
BRANCH  27  28
ATOM     28  C   UNL     1       1.139   0.811  15.524  1.00  0.00    -0.000 C 
BRANCH  28  29
ATOM     29  C   UNL     1       2.253   1.696  14.936  1.00  0.00    -0.000 C 
BRANCH  29  30
ATOM     30  C   UNL     1       1.877   3.177  14.724  1.00  0.00    -0.000 C 
BRANCH  30  31
ATOM     31  C   UNL     1       3.071   4.142  14.616  1.00  0.00    -0.003 C 
ATOM     32  C   UNL     1       3.261   4.698  13.206  1.00  0.00     0.004 C 
ENDBRANCH  30  31
ENDBRANCH  29  30
ENDBRANCH  28  29
ENDBRANCH  27  28
ENDBRANCH  26  27
ENDBRANCH  25  26
ENDBRANCH  24  25
ENDBRANCH  23  24
ENDBRANCH  22  23
ENDBRANCH  21  22
ENDBRANCH  20  21
ENDBRANCH  19  20
ENDBRANCH  18  19
ENDBRANCH   1  18
TORSDOF 28
ENDMDL
MODEL 2
REMARK VINA RESULT:     4.037      1.618      5.317
REMARK INTER + INTRA:          12.829
REMARK INTER:                   9.879
REMARK INTRA:                   2.950
REMARK UNBOUND:                 2.183
REMARK SMILES CCCCCCCCCCCCCCCCCCCCCCCCCCCCCC(=O)[O-]
REMARK SMILES IDX 16 1 17 2 18 3 19 4 20 5 21 6 22 7 23 8 24 9 25 10 26 11
REMARK SMILES IDX 27 12 28 13 29 14 30 15 31 16 32 17 15 18 14 19 13 20 12 21
REMARK SMILES IDX 11 22 10 23 9 24 8 25 7 26 6 27 5 28 4 29 3 30 2 31 1 32
REMARK H PARENT
REMARK Flexibility Score: inf
ROOT
ATOM      1  C   UNL     1       4.694   3.225  12.956  1.00  0.00     0.000 C 
ENDROOT
BRANCH   1   2
ATOM      2  C   UNL     1       4.821   1.690  12.970  1.00  0.00     0.000 C 
BRANCH   2   3
ATOM      3  C   UNL     1       6.264   1.149  13.043  1.00  0.00     0.000 C 
BRANCH   3   4
ATOM      4  C   UNL     1       6.372  -0.382  12.877  1.00  0.00     0.000 C 
BRANCH   4   5
ATOM      5  C   UNL     1       7.323  -1.030  13.900  1.00  0.00     0.000 C 
BRANCH   5   6
ATOM      6  C   UNL     1       6.640  -2.124  14.735  1.00  0.00     0.000 C 
BRANCH   6   7
ATOM      7  C   UNL     1       6.291  -1.656  16.159  1.00  0.00     0.000 C 
BRANCH   7   8
ATOM      8  C   UNL     1       4.861  -2.035  16.586  1.00  0.00     0.000 C 
BRANCH   8   9
ATOM      9  C   UNL     1       3.742  -1.516  15.663  1.00  0.00     0.000 C 
BRANCH   9  10
ATOM     10  C   UNL     1       3.928  -1.931  14.195  1.00  0.00     0.000 C 
BRANCH  10  11
ATOM     11  C   UNL     1       2.590  -2.122  13.459  1.00  0.00     0.000 C 
BRANCH  11  12
ATOM     12  C   UNL     1       1.360  -1.672  14.277  1.00  0.00     0.000 C 
BRANCH  12  13
ATOM     13  C   UNL     1       0.933  -0.234  13.944  1.00  0.00     0.006 C 
BRANCH  13  14
ATOM     14  C   UNL     1       1.607   0.770  14.884  1.00  0.00     0.053 C 
BRANCH  14  15
ATOM     15  C   UNL     1       0.917   0.796  16.211  1.00  0.00     0.041 C 
ATOM     16  O   UNL     1      -0.093   0.073  16.414  1.00  0.00    -0.550 OA
ATOM     17  O   UNL     1       1.412   1.594  17.237  1.00  0.00    -0.550 OA
ENDBRANCH  14  15
ENDBRANCH  13  14
ENDBRANCH  12  13
ENDBRANCH  11  12
ENDBRANCH  10  11
ENDBRANCH   9  10
ENDBRANCH   8   9
ENDBRANCH   7   8
ENDBRANCH   6   7
ENDBRANCH   5   6
ENDBRANCH   4   5
ENDBRANCH   3   4
ENDBRANCH   2   3
ENDBRANCH   1   2
BRANCH   1  18
ATOM     18  C   UNL     1       3.292   3.776  13.291  1.00  0.00     0.000 C 
BRANCH  18  19
ATOM     19  C   UNL     1       3.226   4.683  14.533  1.00  0.00     0.000 C 
BRANCH  19  20
ATOM     20  C   UNL     1       4.062   4.147  15.707  1.00  0.00     0.000 C 
BRANCH  20  21
ATOM     21  C   UNL     1       3.236   3.290  16.680  1.00  0.00     0.000 C 
BRANCH  21  22
ATOM     22  C   UNL     1       4.069   2.198  17.375  1.00  0.00     0.000 C 
BRANCH  22  23
ATOM     23  C   UNL     1       4.995   1.443  16.398  1.00  0.00     0.000 C 
BRANCH  23  24
ATOM     24  C   UNL     1       6.496   1.584  16.723  1.00  0.00    -0.000 C 
BRANCH  24  25
ATOM     25  C   UNL     1       6.980   0.775  17.940  1.00  0.00    -0.000 C 
BRANCH  25  26
ATOM     26  C   UNL     1       6.042  -0.367  18.382  1.00  0.00    -0.000 C 
BRANCH  26  27
ATOM     27  C   UNL     1       5.359  -0.164  19.746  1.00  0.00    -0.000 C 
BRANCH  27  28
ATOM     28  C   UNL     1       3.853   0.121  19.625  1.00  0.00    -0.000 C 
BRANCH  28  29
ATOM     29  C   UNL     1       3.522   1.624  19.635  1.00  0.00    -0.000 C 
BRANCH  29  30
ATOM     30  C   UNL     1       2.925   2.160  20.953  1.00  0.00    -0.000 C 
BRANCH  30  31
ATOM     31  C   UNL     1       1.403   2.388  20.932  1.00  0.00    -0.003 C 
ATOM     32  C   UNL     1       0.606   1.086  20.925  1.00  0.00     0.004 C 
ENDBRANCH  30  31
ENDBRANCH  29  30
ENDBRANCH  28  29
ENDBRANCH  27  28
ENDBRANCH  26  27
ENDBRANCH  25  26
ENDBRANCH  24  25
ENDBRANCH  23  24
ENDBRANCH  22  23
ENDBRANCH  21  22
ENDBRANCH  20  21
ENDBRANCH  19  20
ENDBRANCH  18  19
ENDBRANCH   1  18
TORSDOF 28
ENDMDL
MODEL 3
REMARK VINA RESULT:     4.064      1.246      3.141
REMARK INTER + INTRA:          12.899
REMARK INTER:                  13.337
REMARK INTRA:                  -0.438
REMARK UNBOUND:                 2.183
REMARK SMILES CCCCCCCCCCCCCCCCCCCCCCCCCCCCCC(=O)[O-]
REMARK SMILES IDX 16 1 17 2 18 3 19 4 20 5 21 6 22 7 23 8 24 9 25 10 26 11
REMARK SMILES IDX 27 12 28 13 29 14 30 15 31 16 32 17 15 18 14 19 13 20 12 21
REMARK SMILES IDX 11 22 10 23 9 24 8 25 7 26 6 27 5 28 4 29 3 30 2 31 1 32
REMARK H PARENT
REMARK Flexibility Score: inf
ROOT
ATOM      1  C   UNL     1       3.956   2.390  17.953  1.00  0.00     0.000 C 
ENDROOT
BRANCH   1   2
ATOM      2  C   UNL     1       5.425   1.975  17.745  1.00  0.00     0.000 C 
BRANCH   2   3
ATOM      3  C   UNL     1       5.786   1.520  16.316  1.00  0.00     0.000 C 
BRANCH   3   4
ATOM      4  C   UNL     1       6.718   0.291  16.261  1.00  0.00     0.000 C 
BRANCH   4   5
ATOM      5  C   UNL     1       6.136  -0.866  15.429  1.00  0.00     0.000 C 
BRANCH   5   6
ATOM      6  C   UNL     1       5.822  -2.107  16.278  1.00  0.00     0.000 C 
BRANCH   6   7
ATOM      7  C   UNL     1       6.559  -2.107  17.629  1.00  0.00     0.000 C 
BRANCH   7   8
ATOM      8  C   UNL     1       5.713  -1.533  18.779  1.00  0.00     0.000 C 
BRANCH   8   9
ATOM      9  C   UNL     1       6.316  -0.304  19.487  1.00  0.00     0.000 C 
BRANCH   9  10
ATOM     10  C   UNL     1       5.459   0.200  20.658  1.00  0.00     0.000 C 
BRANCH  10  11
ATOM     11  C   UNL     1       3.957  -0.062  20.450  1.00  0.00     0.000 C 
BRANCH  11  12
ATOM     12  C   UNL     1       3.096   1.219  20.446  1.00  0.00     0.000 C 
BRANCH  12  13
ATOM     13  C   UNL     1       1.617   0.928  20.748  1.00  0.00     0.006 C 
BRANCH  13  14
ATOM     14  C   UNL     1       0.699   1.772  19.858  1.00  0.00     0.053 C 
BRANCH  14  15
ATOM     15  C   UNL     1       0.593   3.168  20.384  1.00  0.00     0.041 C 
ATOM     16  O   UNL     1       1.052   3.455  21.521  1.00  0.00    -0.550 OA
ATOM     17  O   UNL     1       0.018   4.164  19.602  1.00  0.00    -0.550 OA
ENDBRANCH  14  15
ENDBRANCH  13  14
ENDBRANCH  12  13
ENDBRANCH  11  12
ENDBRANCH  10  11
ENDBRANCH   9  10
ENDBRANCH   8   9
ENDBRANCH   7   8
ENDBRANCH   6   7
ENDBRANCH   5   6
ENDBRANCH   4   5
ENDBRANCH   3   4
ENDBRANCH   2   3
ENDBRANCH   1   2
BRANCH   1  18
ATOM     18  C   UNL     1       3.020   2.132  16.754  1.00  0.00     0.000 C 
BRANCH  18  19
ATOM     19  C   UNL     1       2.565   0.673  16.581  1.00  0.00     0.000 C 
BRANCH  19  20
ATOM     20  C   UNL     1       1.047   0.543  16.368  1.00  0.00     0.000 C 
BRANCH  20  21
ATOM     21  C   UNL     1       0.632   0.783  14.908  1.00  0.00     0.000 C 
BRANCH  21  22
ATOM     22  C   UNL     1       1.201  -0.271  13.940  1.00  0.00     0.000 C 
BRANCH  22  23
ATOM     23  C   UNL     1       1.752  -1.514  14.669  1.00  0.00     0.000 C 
BRANCH  23  24
ATOM     24  C   UNL     1       3.171  -1.923  14.226  1.00  0.00    -0.000 C 
BRANCH  24  25
ATOM     25  C   UNL     1       3.723  -1.154  13.012  1.00  0.00    -0.000 C 
BRANCH  25  26
ATOM     26  C   UNL     1       5.237  -0.860  13.056  1.00  0.00    -0.000 C 
BRANCH  26  27
ATOM     27  C   UNL     1       5.623   0.618  12.876  1.00  0.00    -0.000 C 
BRANCH  27  28
ATOM     28  C   UNL     1       4.650   1.581  13.577  1.00  0.00    -0.000 C 
BRANCH  28  29
ATOM     29  C   UNL     1       5.018   3.062  13.375  1.00  0.00    -0.000 C 
BRANCH  29  30
ATOM     30  C   UNL     1       4.134   4.072  14.136  1.00  0.00    -0.000 C 
BRANCH  30  31
ATOM     31  C   UNL     1       2.858   4.506  13.395  1.00  0.00    -0.003 C 
ATOM     32  C   UNL     1       1.579   4.019  14.074  1.00  0.00     0.004 C 
ENDBRANCH  30  31
ENDBRANCH  29  30
ENDBRANCH  28  29
ENDBRANCH  27  28
ENDBRANCH  26  27
ENDBRANCH  25  26
ENDBRANCH  24  25
ENDBRANCH  23  24
ENDBRANCH  22  23
ENDBRANCH  21  22
ENDBRANCH  20  21
ENDBRANCH  19  20
ENDBRANCH  18  19
ENDBRANCH   1  18
TORSDOF 28
ENDMDL
MODEL 4
REMARK VINA RESULT:     4.527      2.076      5.475
REMARK INTER + INTRA:          14.119
REMARK INTER:                   8.483
REMARK INTRA:                   5.637
REMARK UNBOUND:                 2.183
REMARK SMILES CCCCCCCCCCCCCCCCCCCCCCCCCCCCCC(=O)[O-]
REMARK SMILES IDX 16 1 17 2 18 3 19 4 20 5 21 6 22 7 23 8 24 9 25 10 26 11
REMARK SMILES IDX 27 12 28 13 29 14 30 15 31 16 32 17 15 18 14 19 13 20 12 21
REMARK SMILES IDX 11 22 10 23 9 24 8 25 7 26 6 27 5 28 4 29 3 30 2 31 1 32
REMARK H PARENT
REMARK Flexibility Score: inf
ROOT
ATOM      1  C   UNL     1       6.174   1.539  12.934  1.00  0.00     0.000 C 
ENDROOT
BRANCH   1   2
ATOM      2  C   UNL     1       7.309   0.581  13.338  1.00  0.00     0.000 C 
BRANCH   2   3
ATOM      3  C   UNL     1       7.124  -0.886  12.897  1.00  0.00     0.000 C 
BRANCH   3   4
ATOM      4  C   UNL     1       7.240  -1.911  14.045  1.00  0.00     0.000 C 
BRANCH   4   5
ATOM      5  C   UNL     1       7.134  -1.265  15.438  1.00  0.00     0.000 C 
BRANCH   5   6
ATOM      6  C   UNL     1       6.338  -2.124  16.432  1.00  0.00     0.000 C 
BRANCH   6   7
ATOM      7  C   UNL     1       5.099  -1.400  16.987  1.00  0.00     0.000 C 
BRANCH   7   8
ATOM      8  C   UNL     1       3.821  -1.682  16.177  1.00  0.00     0.000 C 
BRANCH   8   9
ATOM      9  C   UNL     1       4.052  -2.117  14.718  1.00  0.00     0.000 C 
BRANCH   9  10
ATOM     10  C   UNL     1       4.300  -0.937  13.766  1.00  0.00     0.000 C 
BRANCH  10  11
ATOM     11  C   UNL     1       3.075  -0.609  12.896  1.00  0.00     0.000 C 
BRANCH  11  12
ATOM     12  C   UNL     1       2.379   0.717  13.274  1.00  0.00     0.000 C 
BRANCH  12  13
ATOM     13  C   UNL     1       2.669   1.134  14.725  1.00  0.00     0.006 C 
BRANCH  13  14
ATOM     14  C   UNL     1       1.633   0.541  15.684  1.00  0.00     0.053 C 
BRANCH  14  15
ATOM     15  C   UNL     1       0.520  -0.107  14.923  1.00  0.00     0.041 C 
ATOM     16  O   UNL     1      -0.283   0.593  14.253  1.00  0.00    -0.550 OA
ATOM     17  O   UNL     1       0.391  -1.492  14.926  1.00  0.00    -0.550 OA
ENDBRANCH  14  15
ENDBRANCH  13  14
ENDBRANCH  12  13
ENDBRANCH  11  12
ENDBRANCH  10  11
ENDBRANCH   9  10
ENDBRANCH   8   9
ENDBRANCH   7   8
ENDBRANCH   6   7
ENDBRANCH   5   6
ENDBRANCH   4   5
ENDBRANCH   3   4
ENDBRANCH   2   3
ENDBRANCH   1   2
BRANCH   1  18
ATOM     18  C   UNL     1       6.557   3.032  12.875  1.00  0.00     0.000 C 
BRANCH  18  19
ATOM     19  C   UNL     1       5.374   4.014  12.936  1.00  0.00     0.000 C 
BRANCH  19  20
ATOM     20  C   UNL     1       4.210   3.493  13.795  1.00  0.00     0.000 C 
BRANCH  20  21
ATOM     21  C   UNL     1       2.874   4.173  13.457  1.00  0.00     0.000 C 
BRANCH  21  22
ATOM     22  C   UNL     1       2.047   4.527  14.707  1.00  0.00     0.000 C 
BRANCH  22  23
ATOM     23  C   UNL     1       2.778   4.182  16.022  1.00  0.00     0.000 C 
BRANCH  23  24
ATOM     24  C   UNL     1       4.312   4.116  15.887  1.00  0.00    -0.000 C 
BRANCH  24  25
ATOM     25  C   UNL     1       4.930   2.726  16.124  1.00  0.00    -0.000 C 
BRANCH  25  26
ATOM     26  C   UNL     1       4.617   2.096  17.497  1.00  0.00    -0.000 C 
BRANCH  26  27
ATOM     27  C   UNL     1       3.134   2.121  17.907  1.00  0.00    -0.000 C 
BRANCH  27  28
ATOM     28  C   UNL     1       2.919   1.793  19.394  1.00  0.00    -0.000 C 
BRANCH  28  29
ATOM     29  C   UNL     1       3.678   0.534  19.849  1.00  0.00    -0.000 C 
BRANCH  29  30
ATOM     30  C   UNL     1       5.160   0.467  19.424  1.00  0.00    -0.000 C 
BRANCH  30  31
ATOM     31  C   UNL     1       6.063  -0.371  20.346  1.00  0.00    -0.003 C 
ATOM     32  C   UNL     1       7.105  -1.184  19.581  1.00  0.00     0.004 C 
ENDBRANCH  30  31
ENDBRANCH  29  30
ENDBRANCH  28  29
ENDBRANCH  27  28
ENDBRANCH  26  27
ENDBRANCH  25  26
ENDBRANCH  24  25
ENDBRANCH  23  24
ENDBRANCH  22  23
ENDBRANCH  21  22
ENDBRANCH  20  21
ENDBRANCH  19  20
ENDBRANCH  18  19
ENDBRANCH   1  18
TORSDOF 28
ENDMDL
