MODEL 1
REMARK VINA RESULT:    -4.906      0.000      0.000
REMARK INTER + INTRA:         -13.419
REMARK INTER:                 -10.642
REMARK INTRA:                  -2.777
REMARK UNBOUND:                -2.777
REMARK SMILES CCCCCCCCCCCCCCCCCCCCCC(=O)[O-]
REMARK SMILES IDX 12 1 11 2 10 3 9 4 8 5 7 6 6 7 5 8 4 9 3 10 2 11 1 12 13 13
REMARK SMILES IDX 14 14 15 15 16 16 17 17 18 18 19 19 20 20 21 21 22 22 23 23
REMARK SMILES IDX 24 24
REMARK H PARENT
REMARK Flexibility Score: inf
ROOT
ATOM      1  C   UNL     1     163.245 167.239 157.611  1.00  0.00     0.000 C 
ENDROOT
BRANCH   1   2
ATOM      2  C   UNL     1     162.625 166.493 156.421  1.00  0.00     0.000 C 
BRANCH   2   3
ATOM      3  C   UNL     1     161.094 166.470 156.523  1.00  0.00     0.000 C 
BRANCH   3   4
ATOM      4  C   UNL     1     160.463 165.969 155.215  1.00  0.00    -0.000 C 
BRANCH   4   5
ATOM      5  C   UNL     1     160.696 166.926 154.035  1.00  0.00    -0.000 C 
BRANCH   5   6
ATOM      6  C   UNL     1     161.051 166.186 152.733  1.00  0.00    -0.000 C 
BRANCH   6   7
ATOM      7  C   UNL     1     162.413 166.612 152.154  1.00  0.00    -0.000 C 
BRANCH   7   8
ATOM      8  C   UNL     1     163.184 167.652 152.988  1.00  0.00    -0.000 C 
BRANCH   8   9
ATOM      9  C   UNL     1     164.701 167.413 152.989  1.00  0.00    -0.000 C 
BRANCH   9  10
ATOM     10  C   UNL     1     165.453 168.651 153.492  1.00  0.00    -0.000 C 
BRANCH  10  11
ATOM     11  C   UNL     1     166.964 168.501 153.277  1.00  0.00    -0.003 C 
ATOM     12  C   UNL     1     167.269 167.885 151.914  1.00  0.00     0.004 C 
ENDBRANCH  10  11
ENDBRANCH   9  10
ENDBRANCH   8   9
ENDBRANCH   7   8
ENDBRANCH   6   7
ENDBRANCH   5   6
ENDBRANCH   4   5
ENDBRANCH   3   4
ENDBRANCH   2   3
ENDBRANCH   1   2
BRANCH   1  13
ATOM     13  C   UNL     1     163.607 166.306 158.782  1.00  0.00     0.000 C 
BRANCH  13  14
ATOM     14  C   UNL     1     163.193 166.816 160.175  1.00  0.00     0.000 C 
BRANCH  14  15
ATOM     15  C   UNL     1     162.345 168.099 160.115  1.00  0.00     0.000 C 
BRANCH  15  16
ATOM     16  C   UNL     1     160.849 167.828 160.352  1.00  0.00     0.000 C 
BRANCH  16  17
ATOM     17  C   UNL     1     160.592 166.439 160.965  1.00  0.00     0.000 C 
BRANCH  17  18
ATOM     18  C   UNL     1     159.267 165.819 160.489  1.00  0.00     0.000 C 
BRANCH  18  19
ATOM     19  C   UNL     1     159.472 164.508 159.710  1.00  0.00     0.000 C 
BRANCH  19  20
ATOM     20  C   UNL     1     160.897 163.944 159.857  1.00  0.00     0.006 C 
BRANCH  20  21
ATOM     21  C   UNL     1     161.505 163.401 158.553  1.00  0.00     0.053 C 
BRANCH  21  22
ATOM     22  C   UNL     1     162.558 162.367 158.810  1.00  0.00     0.041 C 
ATOM     23  O   UNL     1     162.316 161.391 159.567  1.00  0.00    -0.550 OA
ATOM     24  O   UNL     1     163.817 162.500 158.241  1.00  0.00    -0.550 OA
ENDBRANCH  21  22
ENDBRANCH  20  21
ENDBRANCH  19  20
ENDBRANCH  18  19
ENDBRANCH  17  18
ENDBRANCH  16  17
ENDBRANCH  15  16
ENDBRANCH  14  15
ENDBRANCH  13  14
ENDBRANCH   1  13
TORSDOF 20
ENDMDL
MODEL 2
REMARK VINA RESULT:    -4.898      2.964      7.576
REMARK INTER + INTRA:         -13.402
REMARK INTER:                 -10.920
REMARK INTRA:                  -2.482
REMARK UNBOUND:                -2.777
REMARK SMILES CCCCCCCCCCCCCCCCCCCCCC(=O)[O-]
REMARK SMILES IDX 12 1 11 2 10 3 9 4 8 5 7 6 6 7 5 8 4 9 3 10 2 11 1 12 13 13
REMARK SMILES IDX 14 14 15 15 16 16 17 17 18 18 19 19 20 20 21 21 22 22 23 23
REMARK SMILES IDX 24 24
REMARK H PARENT
REMARK Flexibility Score: inf
ROOT
ATOM      1  C   UNL     1     162.810 163.477 158.318  1.00  0.00     0.000 C 
ENDROOT
BRANCH   1   2
ATOM      2  C   UNL     1     161.948 162.557 159.193  1.00  0.00     0.000 C 
BRANCH   2   3
ATOM      3  C   UNL     1     160.759 161.998 158.400  1.00  0.00     0.000 C 
BRANCH   3   4
ATOM      4  C   UNL     1     159.709 163.089 158.141  1.00  0.00    -0.000 C 
BRANCH   4   5
ATOM      5  C   UNL     1     158.462 162.941 159.027  1.00  0.00    -0.000 C 
BRANCH   5   6
ATOM      6  C   UNL     1     158.249 164.147 159.958  1.00  0.00    -0.000 C 
BRANCH   6   7
ATOM      7  C   UNL     1     159.349 165.216 159.814  1.00  0.00    -0.000 C 
BRANCH   7   8
ATOM      8  C   UNL     1     159.230 166.413 160.775  1.00  0.00    -0.000 C 
BRANCH   8   9
ATOM      9  C   UNL     1     160.389 166.491 161.780  1.00  0.00    -0.000 C 
BRANCH   9  10
ATOM     10  C   UNL     1     160.296 165.366 162.817  1.00  0.00    -0.000 C 
BRANCH  10  11
ATOM     11  C   UNL     1     161.438 164.358 162.637  1.00  0.00    -0.003 C 
ATOM     12  C   UNL     1     161.771 163.662 163.954  1.00  0.00     0.004 C 
ENDBRANCH  10  11
ENDBRANCH   9  10
ENDBRANCH   8   9
ENDBRANCH   7   8
ENDBRANCH   6   7
ENDBRANCH   5   6
ENDBRANCH   4   5
ENDBRANCH   3   4
ENDBRANCH   2   3
ENDBRANCH   1   2
BRANCH   1  13
ATOM     13  C   UNL     1     162.952 164.897 158.897  1.00  0.00     0.000 C 
BRANCH  13  14
ATOM     14  C   UNL     1     163.699 165.898 157.996  1.00  0.00     0.000 C 
BRANCH  14  15
ATOM     15  C   UNL     1     162.788 167.016 157.459  1.00  0.00     0.000 C 
BRANCH  15  16
ATOM     16  C   UNL     1     161.313 166.587 157.380  1.00  0.00     0.000 C 
BRANCH  16  17
ATOM     17  C   UNL     1     160.872 166.258 155.941  1.00  0.00     0.000 C 
BRANCH  17  18
ATOM     18  C   UNL     1     161.771 166.918 154.882  1.00  0.00     0.000 C 
BRANCH  18  19
ATOM     19  C   UNL     1     161.293 166.646 153.445  1.00  0.00     0.000 C 
BRANCH  19  20
ATOM     20  C   UNL     1     162.398 166.871 152.396  1.00  0.00     0.006 C 
BRANCH  20  21
ATOM     21  C   UNL     1     163.680 167.514 152.950  1.00  0.00     0.053 C 
BRANCH  21  22
ATOM     22  C   UNL     1     164.902 167.064 152.209  1.00  0.00     0.041 C 
ATOM     23  O   UNL     1     164.805 166.218 151.282  1.00  0.00    -0.550 OA
ATOM     24  O   UNL     1     166.151 167.550 152.567  1.00  0.00    -0.550 OA
ENDBRANCH  21  22
ENDBRANCH  20  21
ENDBRANCH  19  20
ENDBRANCH  18  19
ENDBRANCH  17  18
ENDBRANCH  16  17
ENDBRANCH  15  16
ENDBRANCH  14  15
ENDBRANCH  13  14
ENDBRANCH   1  13
TORSDOF 20
ENDMDL
MODEL 3
REMARK VINA RESULT:    -4.847      3.376      7.729
REMARK INTER + INTRA:         -13.291
REMARK INTER:                 -10.793
REMARK INTRA:                  -2.498
REMARK UNBOUND:                -2.777
REMARK SMILES CCCCCCCCCCCCCCCCCCCCCC(=O)[O-]
REMARK SMILES IDX 12 1 11 2 10 3 9 4 8 5 7 6 6 7 5 8 4 9 3 10 2 11 1 12 13 13
REMARK SMILES IDX 14 14 15 15 16 16 17 17 18 18 19 19 20 20 21 21 22 22 23 23
REMARK SMILES IDX 24 24
REMARK H PARENT
REMARK Flexibility Score: inf
ROOT
ATOM      1  C   UNL     1     159.886 163.158 157.825  1.00  0.00     0.000 C 
ENDROOT
BRANCH   1   2
ATOM      2  C   UNL     1     158.507 163.182 158.501  1.00  0.00     0.000 C 
BRANCH   2   3
ATOM      3  C   UNL     1     158.633 163.491 159.998  1.00  0.00     0.000 C 
BRANCH   3   4
ATOM      4  C   UNL     1     157.564 164.501 160.443  1.00  0.00    -0.000 C 
BRANCH   4   5
ATOM      5  C   UNL     1     157.985 165.960 160.208  1.00  0.00    -0.000 C 
BRANCH   5   6
ATOM      6  C   UNL     1     159.106 166.413 161.159  1.00  0.00    -0.000 C 
BRANCH   6   7
ATOM      7  C   UNL     1     160.475 166.525 160.463  1.00  0.00    -0.000 C 
BRANCH   7   8
ATOM      8  C   UNL     1     161.672 166.004 161.281  1.00  0.00    -0.000 C 
BRANCH   8   9
ATOM      9  C   UNL     1     161.454 164.582 161.821  1.00  0.00    -0.000 C 
BRANCH   9  10
ATOM     10  C   UNL     1     161.058 164.610 163.301  1.00  0.00    -0.000 C 
BRANCH  10  11
ATOM     11  C   UNL     1     161.806 163.529 164.091  1.00  0.00    -0.003 C 
ATOM     12  C   UNL     1     161.105 163.228 165.413  1.00  0.00     0.004 C 
ENDBRANCH  10  11
ENDBRANCH   9  10
ENDBRANCH   8   9
ENDBRANCH   7   8
ENDBRANCH   6   7
ENDBRANCH   5   6
ENDBRANCH   4   5
ENDBRANCH   3   4
ENDBRANCH   2   3
ENDBRANCH   1   2
BRANCH   1  13
ATOM     13  C   UNL     1     161.037 162.905 158.817  1.00  0.00     0.000 C 
BRANCH  13  14
ATOM     14  C   UNL     1     162.312 162.304 158.198  1.00  0.00     0.000 C 
BRANCH  14  15
ATOM     15  C   UNL     1     163.470 163.315 158.114  1.00  0.00     0.000 C 
BRANCH  15  16
ATOM     16  C   UNL     1     163.081 164.703 158.651  1.00  0.00     0.000 C 
BRANCH  16  17
ATOM     17  C   UNL     1     163.816 165.843 157.922  1.00  0.00     0.000 C 
BRANCH  17  18
ATOM     18  C   UNL     1     162.933 167.088 157.731  1.00  0.00     0.000 C 
BRANCH  18  19
ATOM     19  C   UNL     1     161.617 166.775 157.000  1.00  0.00     0.000 C 
BRANCH  19  20
ATOM     20  C   UNL     1     161.806 166.597 155.482  1.00  0.00     0.006 C 
BRANCH  20  21
ATOM     21  C   UNL     1     160.498 166.592 154.673  1.00  0.00     0.053 C 
BRANCH  21  22
ATOM     22  C   UNL     1     160.736 166.840 153.215  1.00  0.00     0.041 C 
ATOM     23  O   UNL     1     161.239 165.940 152.493  1.00  0.00    -0.550 OA
ATOM     24  O   UNL     1     160.436 168.077 152.661  1.00  0.00    -0.550 OA
ENDBRANCH  21  22
ENDBRANCH  20  21
ENDBRANCH  19  20
ENDBRANCH  18  19
ENDBRANCH  17  18
ENDBRANCH  16  17
ENDBRANCH  15  16
ENDBRANCH  14  15
ENDBRANCH  13  14
ENDBRANCH   1  13
TORSDOF 20
ENDMDL
MODEL 4
REMARK VINA RESULT:    -4.830      3.131      6.142
REMARK INTER + INTRA:         -13.254
REMARK INTER:                 -10.908
REMARK INTRA:                  -2.347
REMARK UNBOUND:                -2.777
REMARK SMILES CCCCCCCCCCCCCCCCCCCCCC(=O)[O-]
REMARK SMILES IDX 12 1 11 2 10 3 9 4 8 5 7 6 6 7 5 8 4 9 3 10 2 11 1 12 13 13
REMARK SMILES IDX 14 14 15 15 16 16 17 17 18 18 19 19 20 20 21 21 22 22 23 23
REMARK SMILES IDX 24 24
REMARK H PARENT
REMARK Flexibility Score: inf
ROOT
ATOM      1  C   UNL     1     158.986 166.257 160.859  1.00  0.00     0.000 C 
ENDROOT
BRANCH   1   2
ATOM      2  C   UNL     1     159.028 164.759 160.526  1.00  0.00     0.000 C 
BRANCH   2   3
ATOM      3  C   UNL     1     157.643 164.247 160.112  1.00  0.00     0.000 C 
BRANCH   3   4
ATOM      4  C   UNL     1     157.760 163.127 159.066  1.00  0.00    -0.000 C 
BRANCH   4   5
ATOM      5  C   UNL     1     159.032 163.239 158.211  1.00  0.00    -0.000 C 
BRANCH   5   6
ATOM      6  C   UNL     1     159.926 161.991 158.314  1.00  0.00    -0.000 C 
BRANCH   6   7
ATOM      7  C   UNL     1     161.176 162.220 159.186  1.00  0.00    -0.000 C 
BRANCH   7   8
ATOM      8  C   UNL     1     162.257 163.118 158.557  1.00  0.00    -0.000 C 
BRANCH   8   9
ATOM      9  C   UNL     1     163.567 162.368 158.273  1.00  0.00    -0.000 C 
BRANCH   9  10
ATOM     10  C   UNL     1     164.646 163.322 157.748  1.00  0.00    -0.000 C 
BRANCH  10  11
ATOM     11  C   UNL     1     165.915 163.242 158.605  1.00  0.00    -0.003 C 
ATOM     12  C   UNL     1     167.120 162.821 157.769  1.00  0.00     0.004 C 
ENDBRANCH  10  11
ENDBRANCH   9  10
ENDBRANCH   8   9
ENDBRANCH   7   8
ENDBRANCH   6   7
ENDBRANCH   5   6
ENDBRANCH   4   5
ENDBRANCH   3   4
ENDBRANCH   2   3
ENDBRANCH   1   2
BRANCH   1  13
ATOM     13  C   UNL     1     160.372 166.838 161.194  1.00  0.00     0.000 C 
BRANCH  13  14
ATOM     14  C   UNL     1     161.561 165.912 160.880  1.00  0.00     0.000 C 
BRANCH  14  15
ATOM     15  C   UNL     1     162.859 166.685 160.587  1.00  0.00     0.000 C 
BRANCH  15  16
ATOM     16  C   UNL     1     162.828 167.394 159.222  1.00  0.00     0.000 C 
BRANCH  16  17
ATOM     17  C   UNL     1     163.401 166.521 158.090  1.00  0.00     0.000 C 
BRANCH  17  18
ATOM     18  C   UNL     1     162.782 166.847 156.721  1.00  0.00     0.000 C 
BRANCH  18  19
ATOM     19  C   UNL     1     161.400 166.199 156.525  1.00  0.00     0.000 C 
BRANCH  19  20
ATOM     20  C   UNL     1     160.765 166.550 155.166  1.00  0.00     0.006 C 
BRANCH  20  21
ATOM     21  C   UNL     1     161.768 167.000 154.092  1.00  0.00     0.053 C 
BRANCH  21  22
ATOM     22  C   UNL     1     161.267 166.731 152.705  1.00  0.00     0.041 C 
ATOM     23  O   UNL     1     161.267 165.559 152.247  1.00  0.00    -0.550 OA
ATOM     24  O   UNL     1     160.835 167.781 151.906  1.00  0.00    -0.550 OA
ENDBRANCH  21  22
ENDBRANCH  20  21
ENDBRANCH  19  20
ENDBRANCH  18  19
ENDBRANCH  17  18
ENDBRANCH  16  17
ENDBRANCH  15  16
ENDBRANCH  14  15
ENDBRANCH  13  14
ENDBRANCH   1  13
TORSDOF 20
ENDMDL
MODEL 5
REMARK VINA RESULT:    -4.785      2.331      3.651
REMARK INTER + INTRA:         -13.156
REMARK INTER:                 -10.569
REMARK INTRA:                  -2.587
REMARK UNBOUND:                -2.777
REMARK SMILES CCCCCCCCCCCCCCCCCCCCCC(=O)[O-]
REMARK SMILES IDX 12 1 11 2 10 3 9 4 8 5 7 6 6 7 5 8 4 9 3 10 2 11 1 12 13 13
REMARK SMILES IDX 14 14 15 15 16 16 17 17 18 18 19 19 20 20 21 21 22 22 23 23
REMARK SMILES IDX 24 24
REMARK H PARENT
REMARK Flexibility Score: inf
ROOT
ATOM      1  C   UNL     1     161.427 166.814 156.643  1.00  0.00     0.000 C 
ENDROOT
BRANCH   1   2
ATOM      2  C   UNL     1     160.746 166.074 155.483  1.00  0.00     0.000 C 
BRANCH   2   3
ATOM      3  C   UNL     1     160.636 166.974 154.245  1.00  0.00     0.000 C 
BRANCH   3   4
ATOM      4  C   UNL     1     160.847 166.163 152.956  1.00  0.00    -0.000 C 
BRANCH   4   5
ATOM      5  C   UNL     1     162.126 166.562 152.202  1.00  0.00    -0.000 C 
BRANCH   5   6
ATOM      6  C   UNL     1     163.011 167.529 153.007  1.00  0.00    -0.000 C 
BRANCH   6   7
ATOM      7  C   UNL     1     164.443 167.635 152.451  1.00  0.00    -0.000 C 
BRANCH   7   8
ATOM      8  C   UNL     1     165.488 168.199 153.432  1.00  0.00    -0.000 C 
BRANCH   8   9
ATOM      9  C   UNL     1     165.668 169.720 153.305  1.00  0.00    -0.000 C 
BRANCH   9  10
ATOM     10  C   UNL     1     165.675 170.152 151.834  1.00  0.00    -0.000 C 
BRANCH  10  11
ATOM     11  C   UNL     1     165.762 171.678 151.711  1.00  0.00    -0.003 C 
ATOM     12  C   UNL     1     165.568 172.353 153.066  1.00  0.00     0.004 C 
ENDBRANCH  10  11
ENDBRANCH   9  10
ENDBRANCH   8   9
ENDBRANCH   7   8
ENDBRANCH   6   7
ENDBRANCH   5   6
ENDBRANCH   4   5
ENDBRANCH   3   4
ENDBRANCH   2   3
ENDBRANCH   1   2
BRANCH   1  13
ATOM     13  C   UNL     1     162.927 166.488 156.766  1.00  0.00     0.000 C 
BRANCH  13  14
ATOM     14  C   UNL     1     163.487 166.521 158.200  1.00  0.00     0.000 C 
BRANCH  14  15
ATOM     15  C   UNL     1     164.123 165.186 158.625  1.00  0.00     0.000 C 
BRANCH  15  16
ATOM     16  C   UNL     1     163.616 163.999 157.789  1.00  0.00     0.000 C 
BRANCH  16  17
ATOM     17  C   UNL     1     162.783 163.006 158.620  1.00  0.00     0.000 C 
BRANCH  17  18
ATOM     18  C   UNL     1     161.319 162.928 158.154  1.00  0.00     0.000 C 
BRANCH  18  19
ATOM     19  C   UNL     1     160.464 164.090 158.689  1.00  0.00     0.000 C 
BRANCH  19  20
ATOM     20  C   UNL     1     160.601 164.279 160.211  1.00  0.00     0.006 C 
BRANCH  20  21
ATOM     21  C   UNL     1     160.836 165.732 160.654  1.00  0.00     0.053 C 
BRANCH  21  22
ATOM     22  C   UNL     1     159.683 166.622 160.301  1.00  0.00     0.041 C 
ATOM     23  O   UNL     1     159.889 167.760 159.804  1.00  0.00    -0.550 OA
ATOM     24  O   UNL     1     158.382 166.210 160.556  1.00  0.00    -0.550 OA
ENDBRANCH  21  22
ENDBRANCH  20  21
ENDBRANCH  19  20
ENDBRANCH  18  19
ENDBRANCH  17  18
ENDBRANCH  16  17
ENDBRANCH  15  16
ENDBRANCH  14  15
ENDBRANCH  13  14
ENDBRANCH   1  13
TORSDOF 20
ENDMDL
MODEL 6
REMARK VINA RESULT:    -4.784      3.587      8.438
REMARK INTER + INTRA:         -13.154
REMARK INTER:                 -11.059
REMARK INTRA:                  -2.095
REMARK UNBOUND:                -2.777
REMARK SMILES CCCCCCCCCCCCCCCCCCCCCC(=O)[O-]
REMARK SMILES IDX 12 1 11 2 10 3 9 4 8 5 7 6 6 7 5 8 4 9 3 10 2 11 1 12 13 13
REMARK SMILES IDX 14 14 15 15 16 16 17 17 18 18 19 19 20 20 21 21 22 22 23 23
REMARK SMILES IDX 24 24
REMARK H PARENT
REMARK Flexibility Score: inf
ROOT
ATOM      1  C   UNL     1     162.447 166.577 158.085  1.00  0.00     0.000 C 
ENDROOT
BRANCH   1   2
ATOM      2  C   UNL     1     162.909 165.326 158.846  1.00  0.00     0.000 C 
BRANCH   2   3
ATOM      3  C   UNL     1     162.787 164.073 157.970  1.00  0.00     0.000 C 
BRANCH   3   4
ATOM      4  C   UNL     1     162.437 162.841 158.819  1.00  0.00    -0.000 C 
BRANCH   4   5
ATOM      5  C   UNL     1     161.183 162.106 158.319  1.00  0.00    -0.000 C 
BRANCH   5   6
ATOM      6  C   UNL     1     160.050 163.071 157.924  1.00  0.00    -0.000 C 
BRANCH   6   7
ATOM      7  C   UNL     1     158.737 162.793 158.680  1.00  0.00    -0.000 C 
BRANCH   7   8
ATOM      8  C   UNL     1     158.383 163.815 159.777  1.00  0.00    -0.000 C 
BRANCH   8   9
ATOM      9  C   UNL     1     159.591 164.652 160.227  1.00  0.00    -0.000 C 
BRANCH   9  10
ATOM     10  C   UNL     1     159.158 166.061 160.647  1.00  0.00    -0.000 C 
BRANCH  10  11
ATOM     11  C   UNL     1     159.946 166.534 161.876  1.00  0.00    -0.003 C 
ATOM     12  C   UNL     1     160.503 165.351 162.663  1.00  0.00     0.004 C 
ENDBRANCH  10  11
ENDBRANCH   9  10
ENDBRANCH   8   9
ENDBRANCH   7   8
ENDBRANCH   6   7
ENDBRANCH   5   6
ENDBRANCH   4   5
ENDBRANCH   3   4
ENDBRANCH   2   3
ENDBRANCH   1   2
BRANCH   1  13
ATOM     13  C   UNL     1     161.315 166.288 157.083  1.00  0.00     0.000 C 
BRANCH  13  14
ATOM     14  C   UNL     1     161.633 166.639 155.618  1.00  0.00     0.000 C 
BRANCH  14  15
ATOM     15  C   UNL     1     160.405 166.530 154.697  1.00  0.00     0.000 C 
BRANCH  15  16
ATOM     16  C   UNL     1     160.632 167.198 153.330  1.00  0.00     0.000 C 
BRANCH  16  17
ATOM     17  C   UNL     1     161.975 166.796 152.693  1.00  0.00     0.000 C 
BRANCH  17  18
ATOM     18  C   UNL     1     162.970 167.967 152.626  1.00  0.00     0.000 C 
BRANCH  18  19
ATOM     19  C   UNL     1     164.337 167.620 153.241  1.00  0.00     0.000 C 
BRANCH  19  20
ATOM     20  C   UNL     1     165.311 168.813 153.242  1.00  0.00     0.006 C 
BRANCH  20  21
ATOM     21  C   UNL     1     164.827 170.030 152.438  1.00  0.00     0.053 C 
BRANCH  21  22
ATOM     22  C   UNL     1     165.654 170.260 151.209  1.00  0.00     0.041 C 
ATOM     23  O   UNL     1     165.286 171.097 150.345  1.00  0.00    -0.550 OA
ATOM     24  O   UNL     1     166.812 169.524 151.003  1.00  0.00    -0.550 OA
ENDBRANCH  21  22
ENDBRANCH  20  21
ENDBRANCH  19  20
ENDBRANCH  18  19
ENDBRANCH  17  18
ENDBRANCH  16  17
ENDBRANCH  15  16
ENDBRANCH  14  15
ENDBRANCH  13  14
ENDBRANCH   1  13
TORSDOF 20
ENDMDL
MODEL 7
REMARK VINA RESULT:    -4.751      0.995      2.640
REMARK INTER + INTRA:         -13.083
REMARK INTER:                 -10.914
REMARK INTRA:                  -2.169
REMARK UNBOUND:                -2.777
REMARK SMILES CCCCCCCCCCCCCCCCCCCCCC(=O)[O-]
REMARK SMILES IDX 12 1 11 2 10 3 9 4 8 5 7 6 6 7 5 8 4 9 3 10 2 11 1 12 13 13
REMARK SMILES IDX 14 14 15 15 16 16 17 17 18 18 19 19 20 20 21 21 22 22 23 23
REMARK SMILES IDX 24 24
REMARK H PARENT
REMARK Flexibility Score: inf
ROOT
ATOM      1  C   UNL     1     162.149 167.895 159.654  1.00  0.00     0.000 C 
ENDROOT
BRANCH   1   2
ATOM      2  C   UNL     1     163.030 166.637 159.656  1.00  0.00     0.000 C 
BRANCH   2   3
ATOM      3  C   UNL     1     162.894 165.869 158.335  1.00  0.00     0.000 C 
BRANCH   3   4
ATOM      4  C   UNL     1     161.599 166.255 157.605  1.00  0.00    -0.000 C 
BRANCH   4   5
ATOM      5  C   UNL     1     161.825 166.584 156.120  1.00  0.00    -0.000 C 
BRANCH   5   6
ATOM      6  C   UNL     1     160.561 166.371 155.268  1.00  0.00    -0.000 C 
BRANCH   6   7
ATOM      7  C   UNL     1     160.644 167.058 153.892  1.00  0.00    -0.000 C 
BRANCH   7   8
ATOM      8  C   UNL     1     161.157 166.166 152.745  1.00  0.00    -0.000 C 
BRANCH   8   9
ATOM      9  C   UNL     1     162.381 166.757 152.029  1.00  0.00    -0.000 C 
BRANCH   9  10
ATOM     10  C   UNL     1     163.280 167.515 153.012  1.00  0.00    -0.000 C 
BRANCH  10  11
ATOM     11  C   UNL     1     164.755 167.408 152.603  1.00  0.00    -0.003 C 
ATOM     12  C   UNL     1     165.601 168.464 153.308  1.00  0.00     0.004 C 
ENDBRANCH  10  11
ENDBRANCH   9  10
ENDBRANCH   8   9
ENDBRANCH   7   8
ENDBRANCH   6   7
ENDBRANCH   5   6
ENDBRANCH   4   5
ENDBRANCH   3   4
ENDBRANCH   2   3
ENDBRANCH   1   2
BRANCH   1  13
ATOM     13  C   UNL     1     161.247 168.000 160.897  1.00  0.00     0.000 C 
BRANCH  13  14
ATOM     14  C   UNL     1     160.601 166.677 161.348  1.00  0.00     0.000 C 
BRANCH  14  15
ATOM     15  C   UNL     1     159.185 166.478 160.778  1.00  0.00     0.000 C 
BRANCH  15  16
ATOM     16  C   UNL     1     158.830 164.994 160.586  1.00  0.00     0.000 C 
BRANCH  16  17
ATOM     17  C   UNL     1     159.421 164.410 159.289  1.00  0.00     0.000 C 
BRANCH  17  18
ATOM     18  C   UNL     1     158.797 163.055 158.913  1.00  0.00     0.000 C 
BRANCH  18  19
ATOM     19  C   UNL     1     159.850 161.949 158.729  1.00  0.00     0.000 C 
BRANCH  19  20
ATOM     20  C   UNL     1     161.218 162.496 158.281  1.00  0.00     0.006 C 
BRANCH  20  21
ATOM     21  C   UNL     1     162.384 162.140 159.219  1.00  0.00     0.053 C 
BRANCH  21  22
ATOM     22  C   UNL     1     163.616 161.749 158.462  1.00  0.00     0.041 C 
ATOM     23  O   UNL     1     163.869 160.534 158.247  1.00  0.00    -0.550 OA
ATOM     24  O   UNL     1     164.504 162.722 158.026  1.00  0.00    -0.550 OA
ENDBRANCH  21  22
ENDBRANCH  20  21
ENDBRANCH  19  20
ENDBRANCH  18  19
ENDBRANCH  17  18
ENDBRANCH  16  17
ENDBRANCH  15  16
ENDBRANCH  14  15
ENDBRANCH  13  14
ENDBRANCH   1  13
TORSDOF 20
ENDMDL
MODEL 8
REMARK VINA RESULT:    -4.680      2.070      3.212
REMARK INTER + INTRA:         -12.928
REMARK INTER:                 -10.782
REMARK INTRA:                  -2.146
REMARK UNBOUND:                -2.777
REMARK SMILES CCCCCCCCCCCCCCCCCCCCCC(=O)[O-]
REMARK SMILES IDX 12 1 11 2 10 3 9 4 8 5 7 6 6 7 5 8 4 9 3 10 2 11 1 12 13 13
REMARK SMILES IDX 14 14 15 15 16 16 17 17 18 18 19 19 20 20 21 21 22 22 23 23
REMARK SMILES IDX 24 24
REMARK H PARENT
REMARK Flexibility Score: inf
ROOT
ATOM      1  C   UNL     1     161.039 166.407 156.194  1.00  0.00     0.000 C 
ENDROOT
BRANCH   1   2
ATOM      2  C   UNL     1     160.558 166.462 154.737  1.00  0.00     0.000 C 
BRANCH   2   3
ATOM      3  C   UNL     1     161.567 167.207 153.853  1.00  0.00     0.000 C 
BRANCH   3   4
ATOM      4  C   UNL     1     161.643 166.576 152.454  1.00  0.00    -0.000 C 
BRANCH   4   5
ATOM      5  C   UNL     1     163.086 166.403 151.953  1.00  0.00    -0.000 C 
BRANCH   5   6
ATOM      6  C   UNL     1     164.118 167.063 152.884  1.00  0.00    -0.000 C 
BRANCH   6   7
ATOM      7  C   UNL     1     164.959 168.142 152.176  1.00  0.00    -0.000 C 
BRANCH   7   8
ATOM      8  C   UNL     1     164.902 169.542 152.815  1.00  0.00    -0.000 C 
BRANCH   8   9
ATOM      9  C   UNL     1     164.536 170.644 151.810  1.00  0.00    -0.000 C 
BRANCH   9  10
ATOM     10  C   UNL     1     165.766 171.478 151.435  1.00  0.00    -0.000 C 
BRANCH  10  11
ATOM     11  C   UNL     1     165.631 172.050 150.018  1.00  0.00    -0.003 C 
ATOM     12  C   UNL     1     166.314 171.150 148.993  1.00  0.00     0.004 C 
ENDBRANCH  10  11
ENDBRANCH   9  10
ENDBRANCH   8   9
ENDBRANCH   7   8
ENDBRANCH   6   7
ENDBRANCH   5   6
ENDBRANCH   4   5
ENDBRANCH   3   4
ENDBRANCH   2   3
ENDBRANCH   1   2
BRANCH   1  13
ATOM     13  C   UNL     1     162.568 166.527 156.328  1.00  0.00     0.000 C 
BRANCH  13  14
ATOM     14  C   UNL     1     163.058 167.269 157.585  1.00  0.00     0.000 C 
BRANCH  14  15
ATOM     15  C   UNL     1     163.497 166.315 158.710  1.00  0.00     0.000 C 
BRANCH  15  16
ATOM     16  C   UNL     1     163.328 166.934 160.108  1.00  0.00     0.000 C 
BRANCH  16  17
ATOM     17  C   UNL     1     162.341 168.116 160.114  1.00  0.00     0.000 C 
BRANCH  17  18
ATOM     18  C   UNL     1     161.015 167.774 160.814  1.00  0.00     0.000 C 
BRANCH  18  19
ATOM     19  C   UNL     1     159.933 167.291 159.832  1.00  0.00     0.000 C 
BRANCH  19  20
ATOM     20  C   UNL     1     159.377 165.901 160.195  1.00  0.00     0.006 C 
BRANCH  20  21
ATOM     21  C   UNL     1     160.193 164.724 159.636  1.00  0.00     0.053 C 
BRANCH  21  22
ATOM     22  C   UNL     1     159.336 163.527 159.355  1.00  0.00     0.041 C 
ATOM     23  O   UNL     1     158.091 163.584 159.532  1.00  0.00    -0.550 OA
ATOM     24  O   UNL     1     159.917 162.340 158.932  1.00  0.00    -0.550 OA
ENDBRANCH  21  22
ENDBRANCH  20  21
ENDBRANCH  19  20
ENDBRANCH  18  19
ENDBRANCH  17  18
ENDBRANCH  16  17
ENDBRANCH  15  16
ENDBRANCH  14  15
ENDBRANCH  13  14
ENDBRANCH   1  13
TORSDOF 20
ENDMDL
MODEL 9
REMARK VINA RESULT:    -4.662      1.418      2.443
REMARK INTER + INTRA:         -12.889
REMARK INTER:                 -10.510
REMARK INTRA:                  -2.379
REMARK UNBOUND:                -2.777
REMARK SMILES CCCCCCCCCCCCCCCCCCCCCC(=O)[O-]
REMARK SMILES IDX 12 1 11 2 10 3 9 4 8 5 7 6 6 7 5 8 4 9 3 10 2 11 1 12 13 13
REMARK SMILES IDX 14 14 15 15 16 16 17 17 18 18 19 19 20 20 21 21 22 22 23 23
REMARK SMILES IDX 24 24
REMARK H PARENT
REMARK Flexibility Score: inf
ROOT
ATOM      1  C   UNL     1     161.183 166.324 156.693  1.00  0.00     0.000 C 
ENDROOT
BRANCH   1   2
ATOM      2  C   UNL     1     160.413 165.919 155.428  1.00  0.00     0.000 C 
BRANCH   2   3
ATOM      3  C   UNL     1     160.732 166.864 154.263  1.00  0.00     0.000 C 
BRANCH   3   4
ATOM      4  C   UNL     1     160.956 166.077 152.962  1.00  0.00    -0.000 C 
BRANCH   4   5
ATOM      5  C   UNL     1     162.068 166.674 152.085  1.00  0.00    -0.000 C 
BRANCH   5   6
ATOM      6  C   UNL     1     162.836 167.805 152.792  1.00  0.00    -0.000 C 
BRANCH   6   7
ATOM      7  C   UNL     1     164.300 167.436 153.097  1.00  0.00    -0.000 C 
BRANCH   7   8
ATOM      8  C   UNL     1     165.355 168.360 152.463  1.00  0.00    -0.000 C 
BRANCH   8   9
ATOM      9  C   UNL     1     164.994 169.849 152.579  1.00  0.00    -0.000 C 
BRANCH   9  10
ATOM     10  C   UNL     1     165.314 170.596 151.279  1.00  0.00    -0.000 C 
BRANCH  10  11
ATOM     11  C   UNL     1     165.908 171.980 151.572  1.00  0.00    -0.003 C 
ATOM     12  C   UNL     1     165.692 172.375 153.030  1.00  0.00     0.004 C 
ENDBRANCH  10  11
ENDBRANCH   9  10
ENDBRANCH   8   9
ENDBRANCH   7   8
ENDBRANCH   6   7
ENDBRANCH   5   6
ENDBRANCH   4   5
ENDBRANCH   3   4
ENDBRANCH   2   3
ENDBRANCH   1   2
BRANCH   1  13
ATOM     13  C   UNL     1     162.595 166.859 156.391  1.00  0.00     0.000 C 
BRANCH  13  14
ATOM     14  C   UNL     1     163.421 167.257 157.628  1.00  0.00     0.000 C 
BRANCH  14  15
ATOM     15  C   UNL     1     163.466 166.153 158.699  1.00  0.00     0.000 C 
BRANCH  15  16
ATOM     16  C   UNL     1     163.047 166.662 160.089  1.00  0.00     0.000 C 
BRANCH  16  17
ATOM     17  C   UNL     1     162.070 165.705 160.797  1.00  0.00     0.000 C 
BRANCH  17  18
ATOM     18  C   UNL     1     160.622 165.867 160.302  1.00  0.00     0.000 C 
BRANCH  18  19
ATOM     19  C   UNL     1     160.046 164.565 159.721  1.00  0.00     0.000 C 
BRANCH  19  20
ATOM     20  C   UNL     1     161.058 163.404 159.740  1.00  0.00     0.006 C 
BRANCH  20  21
ATOM     21  C   UNL     1     161.582 162.993 158.354  1.00  0.00     0.053 C 
BRANCH  21  22
ATOM     22  C   UNL     1     162.833 162.172 158.446  1.00  0.00     0.041 C 
ATOM     23  O   UNL     1     163.948 162.683 158.164  1.00  0.00    -0.550 OA
ATOM     24  O   UNL     1     162.761 160.834 158.807  1.00  0.00    -0.550 OA
ENDBRANCH  21  22
ENDBRANCH  20  21
ENDBRANCH  19  20
ENDBRANCH  18  19
ENDBRANCH  17  18
ENDBRANCH  16  17
ENDBRANCH  15  16
ENDBRANCH  14  15
ENDBRANCH  13  14
ENDBRANCH   1  13
TORSDOF 20
ENDMDL
