MODEL 1
REMARK VINA RESULT:    -3.765      0.000      0.000
REMARK INTER + INTRA:          -9.176
REMARK INTER:                  -6.847
REMARK INTRA:                  -2.329
REMARK UNBOUND:                -2.329
REMARK SMILES CCCCCCCCCCCCCCCC(=O)[O-]
REMARK SMILES IDX 9 1 10 2 11 3 12 4 13 5 14 6 15 7 16 8 17 9 18 10 8 11 7 12
REMARK SMILES IDX 6 13 5 14 4 15 3 16 2 17 1 18
REMARK H PARENT
REMARK Flexibility Score: inf
ROOT
ATOM      1  C   UNL     1      25.332  -2.160  -1.171  1.00  0.00     0.000 C 
ENDROOT
BRANCH   1   2
ATOM      2  C   UNL     1      25.309  -0.880  -2.015  1.00  0.00     0.000 C 
BRANCH   2   3
ATOM      3  C   UNL     1      25.336   0.368  -1.119  1.00  0.00     0.000 C 
BRANCH   3   4
ATOM      4  C   UNL     1      24.000   1.131  -1.124  1.00  0.00     0.000 C 
BRANCH   4   5
ATOM      5  C   UNL     1      23.344   1.181   0.268  1.00  0.00     0.000 C 
BRANCH   5   6
ATOM      6  C   UNL     1      24.155   0.421   1.335  1.00  0.00     0.006 C 
BRANCH   6   7
ATOM      7  C   UNL     1      23.320  -0.529   2.208  1.00  0.00     0.053 C 
BRANCH   7   8
ATOM      8  C   UNL     1      24.181  -1.443   3.024  1.00  0.00     0.041 C 
ATOM      9  O   UNL     1      23.965  -1.586   4.256  1.00  0.00    -0.550 OA
ATOM     10  O   UNL     1      25.242  -2.114   2.429  1.00  0.00    -0.550 OA
ENDBRANCH   7   8
ENDBRANCH   6   7
ENDBRANCH   5   6
ENDBRANCH   4   5
ENDBRANCH   3   4
ENDBRANCH   2   3
ENDBRANCH   1   2
BRANCH   1  11
ATOM     11  C   UNL     1      23.910  -2.620  -0.828  1.00  0.00     0.000 C 
BRANCH  11  12
ATOM     12  C   UNL     1      22.967  -2.437  -2.027  1.00  0.00    -0.000 C 
BRANCH  12  13
ATOM     13  C   UNL     1      21.712  -1.624  -1.675  1.00  0.00    -0.000 C 
BRANCH  13  14
ATOM     14  C   UNL     1      21.105  -2.032  -0.320  1.00  0.00    -0.000 C 
BRANCH  14  15
ATOM     15  C   UNL     1      20.113  -3.200  -0.447  1.00  0.00    -0.000 C 
BRANCH  15  16
ATOM     16  C   UNL     1      19.083  -2.977  -1.568  1.00  0.00    -0.000 C 
BRANCH  16  17
ATOM     17  C   UNL     1      18.868  -4.233  -2.427  1.00  0.00    -0.003 C 
ATOM     18  C   UNL     1      20.164  -4.751  -3.048  1.00  0.00     0.004 C 
ENDBRANCH  16  17
ENDBRANCH  15  16
ENDBRANCH  14  15
ENDBRANCH  13  14
ENDBRANCH  12  13
ENDBRANCH  11  12
ENDBRANCH   1  11
TORSDOF 14
ENDMDL
MODEL 2
REMARK VINA RESULT:    -3.740      3.649      5.922
REMARK INTER + INTRA:          -9.130
REMARK INTER:                  -6.880
REMARK INTRA:                  -2.250
REMARK UNBOUND:                -2.329
REMARK SMILES CCCCCCCCCCCCCCCC(=O)[O-]
REMARK SMILES IDX 9 1 10 2 11 3 12 4 13 5 14 6 15 7 16 8 17 9 18 10 8 11 7 12
REMARK SMILES IDX 6 13 5 14 4 15 3 16 2 17 1 18
REMARK H PARENT
REMARK Flexibility Score: inf
ROOT
ATOM      1  C   UNL     1      22.726   1.054  -0.086  1.00  0.00     0.000 C 
ENDROOT
BRANCH   1   2
ATOM      2  C   UNL     1      21.332   1.290  -0.678  1.00  0.00     0.000 C 
BRANCH   2   3
ATOM      3  C   UNL     1      20.523  -0.016  -0.717  1.00  0.00     0.000 C 
BRANCH   3   4
ATOM      4  C   UNL     1      19.860  -0.343   0.632  1.00  0.00     0.000 C 
BRANCH   4   5
ATOM      5  C   UNL     1      19.129  -1.697   0.616  1.00  0.00     0.000 C 
BRANCH   5   6
ATOM      6  C   UNL     1      18.886  -2.226  -0.810  1.00  0.00     0.006 C 
BRANCH   6   7
ATOM      7  C   UNL     1      17.441  -2.674  -1.084  1.00  0.00     0.053 C 
BRANCH   7   8
ATOM      8  C   UNL     1      16.604  -1.561  -1.635  1.00  0.00     0.041 C 
ATOM      9  O   UNL     1      17.130  -0.451  -1.916  1.00  0.00    -0.550 OA
ATOM     10  O   UNL     1      15.237  -1.739  -1.810  1.00  0.00    -0.550 OA
ENDBRANCH   7   8
ENDBRANCH   6   7
ENDBRANCH   5   6
ENDBRANCH   4   5
ENDBRANCH   3   4
ENDBRANCH   2   3
ENDBRANCH   1   2
BRANCH   1  11
ATOM     11  C   UNL     1      23.811   1.177  -1.162  1.00  0.00     0.000 C 
BRANCH  11  12
ATOM     12  C   UNL     1      24.992   0.241  -0.863  1.00  0.00    -0.000 C 
BRANCH  12  13
ATOM     13  C   UNL     1      25.270  -0.745  -2.009  1.00  0.00    -0.000 C 
BRANCH  13  14
ATOM     14  C   UNL     1      24.792  -2.172  -1.689  1.00  0.00    -0.000 C 
BRANCH  14  15
ATOM     15  C   UNL     1      23.312  -2.390  -2.042  1.00  0.00    -0.000 C 
BRANCH  15  16
ATOM     16  C   UNL     1      22.514  -3.009  -0.882  1.00  0.00    -0.000 C 
BRANCH  16  17
ATOM     17  C   UNL     1      23.365  -3.194   0.384  1.00  0.00    -0.003 C 
ATOM     18  C   UNL     1      22.947  -2.259   1.518  1.00  0.00     0.004 C 
ENDBRANCH  16  17
ENDBRANCH  15  16
ENDBRANCH  14  15
ENDBRANCH  13  14
ENDBRANCH  12  13
ENDBRANCH  11  12
ENDBRANCH   1  11
TORSDOF 14
ENDMDL
MODEL 3
REMARK VINA RESULT:    -3.700      4.027      6.746
REMARK INTER + INTRA:          -9.058
REMARK INTER:                  -6.393
REMARK INTRA:                  -2.665
REMARK UNBOUND:                -2.329
REMARK SMILES CCCCCCCCCCCCCCCC(=O)[O-]
REMARK SMILES IDX 9 1 10 2 11 3 12 4 13 5 14 6 15 7 16 8 17 9 18 10 8 11 7 12
REMARK SMILES IDX 6 13 5 14 4 15 3 16 2 17 1 18
REMARK H PARENT
REMARK Flexibility Score: inf
ROOT
ATOM      1  C   UNL     1      19.682   0.487   0.822  1.00  0.00     0.000 C 
ENDROOT
BRANCH   1   2
ATOM      2  C   UNL     1      19.335  -0.856   0.168  1.00  0.00     0.000 C 
BRANCH   2   3
ATOM      3  C   UNL     1      18.647  -1.793   1.173  1.00  0.00     0.000 C 
BRANCH   3   4
ATOM      4  C   UNL     1      19.409  -3.115   1.370  1.00  0.00     0.000 C 
BRANCH   4   5
ATOM      5  C   UNL     1      20.758  -3.134   0.628  1.00  0.00     0.000 C 
BRANCH   5   6
ATOM      6  C   UNL     1      20.827  -4.231  -0.451  1.00  0.00     0.006 C 
BRANCH   6   7
ATOM      7  C   UNL     1      20.635  -3.720  -1.888  1.00  0.00     0.053 C 
BRANCH   7   8
ATOM      8  C   UNL     1      19.347  -4.196  -2.485  1.00  0.00     0.041 C 
ATOM      9  O   UNL     1      18.246  -3.790  -2.026  1.00  0.00    -0.550 OA
ATOM     10  O   UNL     1      19.360  -5.113  -3.528  1.00  0.00    -0.550 OA
ENDBRANCH   7   8
ENDBRANCH   6   7
ENDBRANCH   5   6
ENDBRANCH   4   5
ENDBRANCH   3   4
ENDBRANCH   2   3
ENDBRANCH   1   2
BRANCH   1  11
ATOM     11  C   UNL     1      21.200   0.702   0.866  1.00  0.00     0.000 C 
BRANCH  11  12
ATOM     12  C   UNL     1      21.719   0.665   2.311  1.00  0.00    -0.000 C 
BRANCH  12  13
ATOM     13  C   UNL     1      22.469  -0.636   2.637  1.00  0.00    -0.000 C 
BRANCH  13  14
ATOM     14  C   UNL     1      21.819  -1.419   3.792  1.00  0.00    -0.000 C 
BRANCH  14  15
ATOM     15  C   UNL     1      20.832  -0.561   4.601  1.00  0.00    -0.000 C 
BRANCH  15  16
ATOM     16  C   UNL     1      19.512  -1.296   4.890  1.00  0.00    -0.000 C 
BRANCH  16  17
ATOM     17  C   UNL     1      18.279  -0.418   4.624  1.00  0.00    -0.003 C 
ATOM     18  C   UNL     1      18.639   1.048   4.390  1.00  0.00     0.004 C 
ENDBRANCH  16  17
ENDBRANCH  15  16
ENDBRANCH  14  15
ENDBRANCH  13  14
ENDBRANCH  12  13
ENDBRANCH  11  12
ENDBRANCH   1  11
TORSDOF 14
ENDMDL
MODEL 4
REMARK VINA RESULT:    -3.689      4.365      6.925
REMARK INTER + INTRA:          -9.038
REMARK INTER:                  -6.515
REMARK INTRA:                  -2.523
REMARK UNBOUND:                -2.329
REMARK SMILES CCCCCCCCCCCCCCCC(=O)[O-]
REMARK SMILES IDX 9 1 10 2 11 3 12 4 13 5 14 6 15 7 16 8 17 9 18 10 8 11 7 12
REMARK SMILES IDX 6 13 5 14 4 15 3 16 2 17 1 18
REMARK H PARENT
REMARK Flexibility Score: inf
ROOT
ATOM      1  C   UNL     1      21.665  -1.590   3.134  1.00  0.00     0.000 C 
ENDROOT
BRANCH   1   2
ATOM      2  C   UNL     1      21.770  -2.828   2.237  1.00  0.00     0.000 C 
BRANCH   2   3
ATOM      3  C   UNL     1      20.958  -2.642   0.946  1.00  0.00     0.000 C 
BRANCH   3   4
ATOM      4  C   UNL     1      20.636  -1.166   0.656  1.00  0.00     0.000 C 
BRANCH   4   5
ATOM      5  C   UNL     1      19.134  -0.925   0.423  1.00  0.00     0.000 C 
BRANCH   5   6
ATOM      6  C   UNL     1      18.291  -2.202   0.603  1.00  0.00     0.006 C 
BRANCH   6   7
ATOM      7  C   UNL     1      17.510  -2.628  -0.650  1.00  0.00     0.053 C 
BRANCH   7   8
ATOM      8  C   UNL     1      18.227  -3.692  -1.423  1.00  0.00     0.041 C 
ATOM      9  O   UNL     1      19.150  -3.382  -2.223  1.00  0.00    -0.550 OA
ATOM     10  O   UNL     1      17.855  -5.023  -1.285  1.00  0.00    -0.550 OA
ENDBRANCH   7   8
ENDBRANCH   6   7
ENDBRANCH   5   6
ENDBRANCH   4   5
ENDBRANCH   3   4
ENDBRANCH   2   3
ENDBRANCH   1   2
BRANCH   1  11
ATOM     11  C   UNL     1      21.513  -1.987   4.608  1.00  0.00     0.000 C 
BRANCH  11  12
ATOM     12  C   UNL     1      20.169  -1.503   5.173  1.00  0.00    -0.000 C 
BRANCH  12  13
ATOM     13  C   UNL     1      18.986  -1.838   4.251  1.00  0.00    -0.000 C 
BRANCH  13  14
ATOM     14  C   UNL     1      18.016  -0.654   4.083  1.00  0.00    -0.000 C 
BRANCH  14  15
ATOM     15  C   UNL     1      18.521   0.623   4.774  1.00  0.00    -0.000 C 
BRANCH  15  16
ATOM     16  C   UNL     1      18.770   1.771   3.781  1.00  0.00    -0.000 C 
BRANCH  16  17
ATOM     17  C   UNL     1      20.137   1.662   3.086  1.00  0.00    -0.003 C 
ATOM     18  C   UNL     1      21.302   1.961   4.027  1.00  0.00     0.004 C 
ENDBRANCH  16  17
ENDBRANCH  15  16
ENDBRANCH  14  15
ENDBRANCH  13  14
ENDBRANCH  12  13
ENDBRANCH  11  12
ENDBRANCH   1  11
TORSDOF 14
ENDMDL
MODEL 5
REMARK VINA RESULT:    -3.683      1.721      3.095
REMARK INTER + INTRA:          -9.027
REMARK INTER:                  -6.756
REMARK INTRA:                  -2.271
REMARK UNBOUND:                -2.329
REMARK SMILES CCCCCCCCCCCCCCCC(=O)[O-]
REMARK SMILES IDX 9 1 10 2 11 3 12 4 13 5 14 6 15 7 16 8 17 9 18 10 8 11 7 12
REMARK SMILES IDX 6 13 5 14 4 15 3 16 2 17 1 18
REMARK H PARENT
REMARK Flexibility Score: inf
ROOT
ATOM      1  C   UNL     1      24.789  -0.920  -1.989  1.00  0.00     0.000 C 
ENDROOT
BRANCH   1   2
ATOM      2  C   UNL     1      25.462  -2.023  -1.163  1.00  0.00     0.000 C 
BRANCH   2   3
ATOM      3  C   UNL     1      24.583  -2.431   0.028  1.00  0.00     0.000 C 
BRANCH   3   4
ATOM      4  C   UNL     1      25.012  -1.756   1.342  1.00  0.00     0.000 C 
BRANCH   4   5
ATOM      5  C   UNL     1      23.981  -1.948   2.468  1.00  0.00     0.000 C 
BRANCH   5   6
ATOM      6  C   UNL     1      24.577  -2.639   3.709  1.00  0.00     0.006 C 
BRANCH   6   7
ATOM      7  C   UNL     1      24.853  -1.695   4.890  1.00  0.00     0.053 C 
BRANCH   7   8
ATOM      8  C   UNL     1      26.178  -1.008   4.762  1.00  0.00     0.041 C 
ATOM      9  O   UNL     1      26.248   0.249   4.806  1.00  0.00    -0.550 OA
ATOM     10  O   UNL     1      27.332  -1.755   4.561  1.00  0.00    -0.550 OA
ENDBRANCH   7   8
ENDBRANCH   6   7
ENDBRANCH   5   6
ENDBRANCH   4   5
ENDBRANCH   3   4
ENDBRANCH   2   3
ENDBRANCH   1   2
BRANCH   1  11
ATOM     11  C   UNL     1      25.343   0.461  -1.620  1.00  0.00     0.000 C 
BRANCH  11  12
ATOM     12  C   UNL     1      24.212   1.413  -1.201  1.00  0.00    -0.000 C 
BRANCH  12  13
ATOM     13  C   UNL     1      22.842   0.718  -1.149  1.00  0.00    -0.000 C 
BRANCH  13  14
ATOM     14  C   UNL     1      22.269   0.649   0.278  1.00  0.00    -0.000 C 
BRANCH  14  15
ATOM     15  C   UNL     1      21.233  -0.475   0.442  1.00  0.00    -0.000 C 
BRANCH  15  16
ATOM     16  C   UNL     1      20.877  -1.148  -0.894  1.00  0.00    -0.000 C 
BRANCH  16  17
ATOM     17  C   UNL     1      21.001  -2.678  -0.834  1.00  0.00    -0.003 C 
ATOM     18  C   UNL     1      21.632  -3.269  -2.093  1.00  0.00     0.004 C 
ENDBRANCH  16  17
ENDBRANCH  15  16
ENDBRANCH  14  15
ENDBRANCH  13  14
ENDBRANCH  12  13
ENDBRANCH  11  12
ENDBRANCH   1  11
TORSDOF 14
ENDMDL
MODEL 6
REMARK VINA RESULT:    -3.669      2.520      5.265
REMARK INTER + INTRA:          -9.001
REMARK INTER:                  -6.690
REMARK INTRA:                  -2.311
REMARK UNBOUND:                -2.329
REMARK SMILES CCCCCCCCCCCCCCCC(=O)[O-]
REMARK SMILES IDX 9 1 10 2 11 3 12 4 13 5 14 6 15 7 16 8 17 9 18 10 8 11 7 12
REMARK SMILES IDX 6 13 5 14 4 15 3 16 2 17 1 18
REMARK H PARENT
REMARK Flexibility Score: inf
ROOT
ATOM      1  C   UNL     1      25.725  -1.370  -1.235  1.00  0.00     0.000 C 
ENDROOT
BRANCH   1   2
ATOM      2  C   UNL     1      24.873  -2.630  -1.427  1.00  0.00     0.000 C 
BRANCH   2   3
ATOM      3  C   UNL     1      23.489  -2.276  -1.995  1.00  0.00     0.000 C 
BRANCH   3   4
ATOM      4  C   UNL     1      22.343  -2.976  -1.245  1.00  0.00     0.000 C 
BRANCH   4   5
ATOM      5  C   UNL     1      21.252  -3.502  -2.195  1.00  0.00     0.000 C 
BRANCH   5   6
ATOM      6  C   UNL     1      19.829  -3.261  -1.657  1.00  0.00     0.006 C 
BRANCH   6   7
ATOM      7  C   UNL     1      19.253  -1.875  -1.987  1.00  0.00     0.053 C 
BRANCH   7   8
ATOM      8  C   UNL     1      19.085  -1.032  -0.761  1.00  0.00     0.041 C 
ATOM      9  O   UNL     1      18.645   0.145  -0.855  1.00  0.00    -0.550 OA
ATOM     10  O   UNL     1      19.444  -1.534   0.484  1.00  0.00    -0.550 OA
ENDBRANCH   7   8
ENDBRANCH   6   7
ENDBRANCH   5   6
ENDBRANCH   4   5
ENDBRANCH   3   4
ENDBRANCH   2   3
ENDBRANCH   1   2
BRANCH   1  11
ATOM     11  C   UNL     1      25.140  -0.184  -2.012  1.00  0.00     0.000 C 
BRANCH  11  12
ATOM     12  C   UNL     1      25.329   1.129  -1.238  1.00  0.00    -0.000 C 
BRANCH  12  13
ATOM     13  C   UNL     1      24.046   1.973  -1.183  1.00  0.00    -0.000 C 
BRANCH  13  14
ATOM     14  C   UNL     1      22.770   1.114  -1.264  1.00  0.00    -0.000 C 
BRANCH  14  15
ATOM     15  C   UNL     1      21.838   1.332  -0.061  1.00  0.00    -0.000 C 
BRANCH  15  16
ATOM     16  C   UNL     1      22.496   0.943   1.273  1.00  0.00    -0.000 C 
BRANCH  16  17
ATOM     17  C   UNL     1      22.802  -0.560   1.362  1.00  0.00    -0.003 C 
ATOM     18  C   UNL     1      24.163  -0.849   1.992  1.00  0.00     0.004 C 
ENDBRANCH  16  17
ENDBRANCH  15  16
ENDBRANCH  14  15
ENDBRANCH  13  14
ENDBRANCH  12  13
ENDBRANCH  11  12
ENDBRANCH   1  11
TORSDOF 14
ENDMDL
MODEL 7
REMARK VINA RESULT:    -3.667      1.807      4.591
REMARK INTER + INTRA:          -8.997
REMARK INTER:                  -6.344
REMARK INTRA:                  -2.653
REMARK UNBOUND:                -2.329
REMARK SMILES CCCCCCCCCCCCCCCC(=O)[O-]
REMARK SMILES IDX 9 1 10 2 11 3 12 4 13 5 14 6 15 7 16 8 17 9 18 10 8 11 7 12
REMARK SMILES IDX 6 13 5 14 4 15 3 16 2 17 1 18
REMARK H PARENT
REMARK Flexibility Score: inf
ROOT
ATOM      1  C   UNL     1      21.503  -2.909  -0.523  1.00  0.00     0.000 C 
ENDROOT
BRANCH   1   2
ATOM      2  C   UNL     1      21.201  -1.963   0.645  1.00  0.00     0.000 C 
BRANCH   2   3
ATOM      3  C   UNL     1      22.156  -2.222   1.821  1.00  0.00     0.000 C 
BRANCH   3   4
ATOM      4  C   UNL     1      22.800  -3.617   1.767  1.00  0.00     0.000 C 
BRANCH   4   5
ATOM      5  C   UNL     1      24.295  -3.592   2.131  1.00  0.00     0.000 C 
BRANCH   5   6
ATOM      6  C   UNL     1      24.773  -2.199   2.585  1.00  0.00     0.006 C 
BRANCH   6   7
ATOM      7  C   UNL     1      25.307  -2.150   4.026  1.00  0.00     0.053 C 
BRANCH   7   8
ATOM      8  C   UNL     1      24.337  -2.737   5.004  1.00  0.00     0.041 C 
ATOM      9  O   UNL     1      23.242  -2.159   5.237  1.00  0.00    -0.550 OA
ATOM     10  O   UNL     1      24.654  -3.907   5.682  1.00  0.00    -0.550 OA
ENDBRANCH   7   8
ENDBRANCH   6   7
ENDBRANCH   5   6
ENDBRANCH   4   5
ENDBRANCH   3   4
ENDBRANCH   2   3
ENDBRANCH   1   2
BRANCH   1  11
ATOM     11  C   UNL     1      22.034  -2.137  -1.736  1.00  0.00     0.000 C 
BRANCH  11  12
ATOM     12  C   UNL     1      23.458  -2.587  -2.095  1.00  0.00    -0.000 C 
BRANCH  12  13
ATOM     13  C   UNL     1      24.521  -1.987  -1.160  1.00  0.00    -0.000 C 
BRANCH  13  14
ATOM     14  C   UNL     1      25.341  -0.874  -1.837  1.00  0.00    -0.000 C 
BRANCH  14  15
ATOM     15  C   UNL     1      24.983   0.525  -1.306  1.00  0.00    -0.000 C 
BRANCH  15  16
ATOM     16  C   UNL     1      24.226   0.471   0.032  1.00  0.00    -0.000 C 
BRANCH  16  17
ATOM     17  C   UNL     1      22.908   1.259  -0.006  1.00  0.00    -0.003 C 
ATOM     18  C   UNL     1      22.421   1.526  -1.430  1.00  0.00     0.004 C 
ENDBRANCH  16  17
ENDBRANCH  15  16
ENDBRANCH  14  15
ENDBRANCH  13  14
ENDBRANCH  12  13
ENDBRANCH  11  12
ENDBRANCH   1  11
TORSDOF 14
ENDMDL
MODEL 8
REMARK VINA RESULT:    -3.665      2.864      5.380
REMARK INTER + INTRA:          -8.995
REMARK INTER:                  -6.964
REMARK INTRA:                  -2.031
REMARK UNBOUND:                -2.329
REMARK SMILES CCCCCCCCCCCCCCCC(=O)[O-]
REMARK SMILES IDX 9 1 10 2 11 3 12 4 13 5 14 6 15 7 16 8 17 9 18 10 8 11 7 12
REMARK SMILES IDX 6 13 5 14 4 15 3 16 2 17 1 18
REMARK H PARENT
REMARK Flexibility Score: inf
ROOT
ATOM      1  C   UNL     1      16.801  -1.367  -1.583  1.00  0.00     0.000 C 
ENDROOT
BRANCH   1   2
ATOM      2  C   UNL     1      17.868  -0.528  -2.297  1.00  0.00     0.000 C 
BRANCH   2   3
ATOM      3  C   UNL     1      17.794   0.943  -1.858  1.00  0.00     0.000 C 
BRANCH   3   4
ATOM      4  C   UNL     1      19.031   1.386  -1.058  1.00  0.00     0.000 C 
BRANCH   4   5
ATOM      5  C   UNL     1      20.085   0.271  -0.936  1.00  0.00     0.000 C 
BRANCH   5   6
ATOM      6  C   UNL     1      20.484  -0.012   0.525  1.00  0.00     0.006 C 
BRANCH   6   7
ATOM      7  C   UNL     1      19.355  -0.600   1.388  1.00  0.00     0.053 C 
BRANCH   7   8
ATOM      8  C   UNL     1      19.364  -0.041   2.777  1.00  0.00     0.041 C 
ATOM      9  O   UNL     1      18.957   1.131   2.993  1.00  0.00    -0.550 OA
ATOM     10  O   UNL     1      19.852  -0.804   3.831  1.00  0.00    -0.550 OA
ENDBRANCH   7   8
ENDBRANCH   6   7
ENDBRANCH   5   6
ENDBRANCH   4   5
ENDBRANCH   3   4
ENDBRANCH   2   3
ENDBRANCH   1   2
BRANCH   1  11
ATOM     11  C   UNL     1      17.414  -2.626  -0.960  1.00  0.00     0.000 C 
BRANCH  11  12
ATOM     12  C   UNL     1      18.505  -3.214  -1.868  1.00  0.00    -0.000 C 
BRANCH  12  13
ATOM     13  C   UNL     1      19.832  -3.443  -1.127  1.00  0.00    -0.000 C 
BRANCH  13  14
ATOM     14  C   UNL     1      20.993  -3.772  -2.083  1.00  0.00    -0.000 C 
BRANCH  14  15
ATOM     15  C   UNL     1      21.970  -2.597  -2.247  1.00  0.00    -0.000 C 
BRANCH  15  16
ATOM     16  C   UNL     1      23.060  -2.580  -1.162  1.00  0.00    -0.000 C 
BRANCH  16  17
ATOM     17  C   UNL     1      24.451  -2.262  -1.729  1.00  0.00    -0.003 C 
ATOM     18  C   UNL     1      24.770  -0.768  -1.706  1.00  0.00     0.004 C 
ENDBRANCH  16  17
ENDBRANCH  15  16
ENDBRANCH  14  15
ENDBRANCH  13  14
ENDBRANCH  12  13
ENDBRANCH  11  12
ENDBRANCH   1  11
TORSDOF 14
ENDMDL
MODEL 9
REMARK VINA RESULT:    -3.592      2.757      5.435
REMARK INTER + INTRA:          -8.861
REMARK INTER:                  -6.443
REMARK INTRA:                  -2.418
REMARK UNBOUND:                -2.329
REMARK SMILES CCCCCCCCCCCCCCCC(=O)[O-]
REMARK SMILES IDX 9 1 10 2 11 3 12 4 13 5 14 6 15 7 16 8 17 9 18 10 8 11 7 12
REMARK SMILES IDX 6 13 5 14 4 15 3 16 2 17 1 18
REMARK H PARENT
REMARK Flexibility Score: inf
ROOT
ATOM      1  C   UNL     1      18.572  -3.828  -0.584  1.00  0.00     0.000 C 
ENDROOT
BRANCH   1   2
ATOM      2  C   UNL     1      19.929  -4.503  -0.812  1.00  0.00     0.000 C 
BRANCH   2   3
ATOM      3  C   UNL     1      20.931  -4.104   0.283  1.00  0.00     0.000 C 
BRANCH   3   4
ATOM      4  C   UNL     1      22.121  -3.299  -0.267  1.00  0.00     0.000 C 
BRANCH   4   5
ATOM      5  C   UNL     1      21.934  -2.902  -1.742  1.00  0.00     0.000 C 
BRANCH   5   6
ATOM      6  C   UNL     1      22.539  -1.523  -2.067  1.00  0.00     0.006 C 
BRANCH   6   7
ATOM      7  C   UNL     1      23.506  -0.986  -0.999  1.00  0.00     0.053 C 
BRANCH   7   8
ATOM      8  C   UNL     1      24.880  -0.762  -1.550  1.00  0.00     0.041 C 
ATOM      9  O   UNL     1      25.715  -1.705  -1.576  1.00  0.00    -0.550 OA
ATOM     10  O   UNL     1      25.251   0.498  -2.005  1.00  0.00    -0.550 OA
ENDBRANCH   7   8
ENDBRANCH   6   7
ENDBRANCH   5   6
ENDBRANCH   4   5
ENDBRANCH   3   4
ENDBRANCH   2   3
ENDBRANCH   1   2
BRANCH   1  11
ATOM     11  C   UNL     1      18.166  -2.983  -1.798  1.00  0.00     0.000 C 
BRANCH  11  12
ATOM     12  C   UNL     1      18.506  -1.501  -1.575  1.00  0.00    -0.000 C 
BRANCH  12  13
ATOM     13  C   UNL     1      18.645  -1.143  -0.087  1.00  0.00    -0.000 C 
BRANCH  13  14
ATOM     14  C   UNL     1      19.855  -0.233   0.191  1.00  0.00    -0.000 C 
BRANCH  14  15
ATOM     15  C   UNL     1      20.486  -0.499   1.567  1.00  0.00    -0.000 C 
BRANCH  15  16
ATOM     16  C   UNL     1      19.535  -1.244   2.518  1.00  0.00    -0.000 C 
BRANCH  16  17
ATOM     17  C   UNL     1      19.612  -0.717   3.960  1.00  0.00    -0.003 C 
ATOM     18  C   UNL     1      18.234  -0.465   4.570  1.00  0.00     0.004 C 
ENDBRANCH  16  17
ENDBRANCH  15  16
ENDBRANCH  14  15
ENDBRANCH  13  14
ENDBRANCH  12  13
ENDBRANCH  11  12
ENDBRANCH   1  11
TORSDOF 14
ENDMDL
