MODEL 1
REMARK VINA RESULT:    -3.532      0.000      0.000
REMARK INTER + INTRA:         -10.869
REMARK INTER:                  -8.900
REMARK INTRA:                  -1.970
REMARK UNBOUND:                -1.970
REMARK SMILES CCCCCCCCCCCCCCCCCCCCCCCCCCCC(=O)[O-]
REMARK SMILES IDX 15 1 16 2 17 3 18 4 19 5 20 6 21 7 22 8 23 9 24 10 25 11
REMARK SMILES IDX 26 12 27 13 28 14 29 15 30 16 14 17 13 18 12 19 11 20 10 21
REMARK SMILES IDX 9 22 8 23 7 24 6 25 5 26 4 27 3 28 2 29 1 30
REMARK H PARENT
REMARK Flexibility Score: inf
ROOT
ATOM      1  C   UNL     1      31.496 161.627 119.742  1.00  0.00     0.000 C 
ENDROOT
BRANCH   1   2
ATOM      2  C   UNL     1      30.537 162.040 120.877  1.00  0.00     0.000 C 
BRANCH   2   3
ATOM      3  C   UNL     1      29.081 161.575 120.705  1.00  0.00     0.000 C 
BRANCH   3   4
ATOM      4  C   UNL     1      28.571 160.735 121.890  1.00  0.00     0.000 C 
BRANCH   4   5
ATOM      5  C   UNL     1      29.424 159.473 122.103  1.00  0.00     0.000 C 
BRANCH   5   6
ATOM      6  C   UNL     1      29.075 158.365 121.092  1.00  0.00     0.000 C 
BRANCH   6   7
ATOM      7  C   UNL     1      28.560 157.084 121.777  1.00  0.00     0.000 C 
BRANCH   7   8
ATOM      8  C   UNL     1      27.033 156.905 121.676  1.00  0.00     0.000 C 
BRANCH   8   9
ATOM      9  C   UNL     1      26.602 156.290 120.335  1.00  0.00     0.000 C 
BRANCH   9  10
ATOM     10  C   UNL     1      25.591 157.194 119.614  1.00  0.00     0.000 C 
BRANCH  10  11
ATOM     11  C   UNL     1      25.716 158.666 120.039  1.00  0.00     0.000 C 
BRANCH  11  12
ATOM     12  C   UNL     1      25.375 159.641 118.899  1.00  0.00     0.006 C 
BRANCH  12  13
ATOM     13  C   UNL     1      25.649 159.032 117.516  1.00  0.00     0.053 C 
BRANCH  13  14
ATOM     14  C   UNL     1      26.915 159.559 116.913  1.00  0.00     0.041 C 
ATOM     15  O   UNL     1      26.974 159.817 115.681  1.00  0.00    -0.550 OA
ATOM     16  O   UNL     1      28.005 159.845 117.727  1.00  0.00    -0.550 OA
ENDBRANCH  13  14
ENDBRANCH  12  13
ENDBRANCH  11  12
ENDBRANCH  10  11
ENDBRANCH   9  10
ENDBRANCH   8   9
ENDBRANCH   7   8
ENDBRANCH   6   7
ENDBRANCH   5   6
ENDBRANCH   4   5
ENDBRANCH   3   4
ENDBRANCH   2   3
ENDBRANCH   1   2
BRANCH   1  17
ATOM     17  C   UNL     1      32.643 160.694 120.187  1.00  0.00     0.000 C 
BRANCH  17  18
ATOM     18  C   UNL     1      33.825 161.464 120.807  1.00  0.00     0.000 C 
BRANCH  18  19
ATOM     19  C   UNL     1      34.709 160.580 121.706  1.00  0.00     0.000 C 
BRANCH  19  20
ATOM     20  C   UNL     1      36.220 160.598 121.376  1.00  0.00     0.000 C 
BRANCH  20  21
ATOM     21  C   UNL     1      37.050 161.664 122.118  1.00  0.00     0.000 C 
BRANCH  21  22
ATOM     22  C   UNL     1      38.403 161.960 121.440  1.00  0.00    -0.000 C 
BRANCH  22  23
ATOM     23  C   UNL     1      38.695 161.004 120.274  1.00  0.00    -0.000 C 
BRANCH  23  24
ATOM     24  C   UNL     1      39.402 161.690 119.096  1.00  0.00    -0.000 C 
BRANCH  24  25
ATOM     25  C   UNL     1      40.089 160.650 118.198  1.00  0.00    -0.000 C 
BRANCH  25  26
ATOM     26  C   UNL     1      41.233 161.247 117.359  1.00  0.00    -0.000 C 
BRANCH  26  27
ATOM     27  C   UNL     1      42.228 160.214 116.802  1.00  0.00    -0.000 C 
BRANCH  27  28
ATOM     28  C   UNL     1      42.949 160.705 115.536  1.00  0.00    -0.000 C 
BRANCH  28  29
ATOM     29  C   UNL     1      43.939 159.665 114.982  1.00  0.00    -0.003 C 
ATOM     30  C   UNL     1      44.301 158.598 116.013  1.00  0.00     0.004 C 
ENDBRANCH  28  29
ENDBRANCH  27  28
ENDBRANCH  26  27
ENDBRANCH  25  26
ENDBRANCH  24  25
ENDBRANCH  23  24
ENDBRANCH  22  23
ENDBRANCH  21  22
ENDBRANCH  20  21
ENDBRANCH  19  20
ENDBRANCH  18  19
ENDBRANCH  17  18
ENDBRANCH   1  17
TORSDOF 26
ENDMDL
MODEL 2
REMARK VINA RESULT:    -2.661      4.348     12.603
REMARK INTER + INTRA:          -8.674
REMARK INTER:                  -7.086
REMARK INTRA:                  -1.588
REMARK UNBOUND:                -1.970
REMARK SMILES CCCCCCCCCCCCCCCCCCCCCCCCCCCC(=O)[O-]
REMARK SMILES IDX 15 1 16 2 17 3 18 4 19 5 20 6 21 7 22 8 23 9 24 10 25 11
REMARK SMILES IDX 26 12 27 13 28 14 29 15 30 16 14 17 13 18 12 19 11 20 10 21
REMARK SMILES IDX 9 22 8 23 7 24 6 25 5 26 4 27 3 28 2 29 1 30
REMARK H PARENT
REMARK Flexibility Score: inf
ROOT
ATOM      1  C   UNL     1      32.223 159.938 118.953  1.00  0.00     0.000 C 
ENDROOT
BRANCH   1   2
ATOM      2  C   UNL     1      32.451 158.986 120.144  1.00  0.00     0.000 C 
BRANCH   2   3
ATOM      3  C   UNL     1      33.486 159.465 121.176  1.00  0.00     0.000 C 
BRANCH   3   4
ATOM      4  C   UNL     1      33.723 160.986 121.134  1.00  0.00     0.000 C 
BRANCH   4   5
ATOM      5  C   UNL     1      35.165 161.325 120.722  1.00  0.00     0.000 C 
BRANCH   5   6
ATOM      6  C   UNL     1      36.191 160.840 121.763  1.00  0.00     0.000 C 
BRANCH   6   7
ATOM      7  C   UNL     1      37.364 161.824 121.936  1.00  0.00     0.000 C 
BRANCH   7   8
ATOM      8  C   UNL     1      38.622 161.428 121.139  1.00  0.00     0.000 C 
BRANCH   8   9
ATOM      9  C   UNL     1      38.693 162.124 119.771  1.00  0.00     0.000 C 
BRANCH   9  10
ATOM     10  C   UNL     1      39.648 161.382 118.823  1.00  0.00     0.000 C 
BRANCH  10  11
ATOM     11  C   UNL     1      41.058 161.994 118.815  1.00  0.00     0.000 C 
BRANCH  11  12
ATOM     12  C   UNL     1      41.730 161.912 117.434  1.00  0.00     0.006 C 
BRANCH  12  13
ATOM     13  C   UNL     1      41.715 160.486 116.866  1.00  0.00     0.053 C 
BRANCH  13  14
ATOM     14  C   UNL     1      43.085 159.881 116.836  1.00  0.00     0.041 C 
ATOM     15  O   UNL     1      43.772 159.809 117.890  1.00  0.00    -0.550 OA
ATOM     16  O   UNL     1      43.569 159.318 115.661  1.00  0.00    -0.550 OA
ENDBRANCH  13  14
ENDBRANCH  12  13
ENDBRANCH  11  12
ENDBRANCH  10  11
ENDBRANCH   9  10
ENDBRANCH   8   9
ENDBRANCH   7   8
ENDBRANCH   6   7
ENDBRANCH   5   6
ENDBRANCH   4   5
ENDBRANCH   3   4
ENDBRANCH   2   3
ENDBRANCH   1   2
BRANCH   1  17
ATOM     17  C   UNL     1      31.037 160.910 119.135  1.00  0.00     0.000 C 
BRANCH  17  18
ATOM     18  C   UNL     1      30.205 160.599 120.393  1.00  0.00     0.000 C 
BRANCH  18  19
ATOM     19  C   UNL     1      29.008 159.675 120.106  1.00  0.00     0.000 C 
BRANCH  19  20
ATOM     20  C   UNL     1      28.804 158.517 121.111  1.00  0.00     0.000 C 
BRANCH  20  21
ATOM     21  C   UNL     1      27.344 158.071 121.323  1.00  0.00     0.000 C 
BRANCH  21  22
ATOM     22  C   UNL     1      26.750 157.337 120.104  1.00  0.00    -0.000 C 
BRANCH  22  23
ATOM     23  C   UNL     1      26.131 158.303 119.083  1.00  0.00    -0.000 C 
BRANCH  23  24
ATOM     24  C   UNL     1      24.932 159.082 119.641  1.00  0.00    -0.000 C 
BRANCH  24  25
ATOM     25  C   UNL     1      25.374 160.459 120.157  1.00  0.00    -0.000 C 
BRANCH  25  26
ATOM     26  C   UNL     1      25.588 161.481 119.025  1.00  0.00    -0.000 C 
BRANCH  26  27
ATOM     27  C   UNL     1      25.004 161.063 117.664  1.00  0.00    -0.000 C 
BRANCH  27  28
ATOM     28  C   UNL     1      25.961 161.345 116.494  1.00  0.00    -0.000 C 
BRANCH  28  29
ATOM     29  C   UNL     1      27.330 160.671 116.678  1.00  0.00    -0.003 C 
ATOM     30  C   UNL     1      27.884 160.107 115.371  1.00  0.00     0.004 C 
ENDBRANCH  28  29
ENDBRANCH  27  28
ENDBRANCH  26  27
ENDBRANCH  25  26
ENDBRANCH  24  25
ENDBRANCH  23  24
ENDBRANCH  22  23
ENDBRANCH  21  22
ENDBRANCH  20  21
ENDBRANCH  19  20
ENDBRANCH  18  19
ENDBRANCH  17  18
ENDBRANCH   1  17
TORSDOF 26
ENDMDL
MODEL 3
REMARK VINA RESULT:    -2.529      4.052     12.482
REMARK INTER + INTRA:          -8.342
REMARK INTER:                  -6.404
REMARK INTRA:                  -1.938
REMARK UNBOUND:                -1.970
REMARK SMILES CCCCCCCCCCCCCCCCCCCCCCCCCCCC(=O)[O-]
REMARK SMILES IDX 15 1 16 2 17 3 18 4 19 5 20 6 21 7 22 8 23 9 24 10 25 11
REMARK SMILES IDX 26 12 27 13 28 14 29 15 30 16 14 17 13 18 12 19 11 20 10 21
REMARK SMILES IDX 9 22 8 23 7 24 6 25 5 26 4 27 3 28 2 29 1 30
REMARK H PARENT
REMARK Flexibility Score: inf
ROOT
ATOM      1  C   UNL     1      31.548 161.118 118.207  1.00  0.00     0.000 C 
ENDROOT
BRANCH   1   2
ATOM      2  C   UNL     1      31.552 159.680 118.765  1.00  0.00     0.000 C 
BRANCH   2   3
ATOM      3  C   UNL     1      32.427 159.463 120.010  1.00  0.00     0.000 C 
BRANCH   3   4
ATOM      4  C   UNL     1      33.709 160.316 120.005  1.00  0.00     0.000 C 
BRANCH   4   5
ATOM      5  C   UNL     1      34.567 160.061 121.255  1.00  0.00     0.000 C 
BRANCH   5   6
ATOM      6  C   UNL     1      34.708 161.324 122.125  1.00  0.00     0.000 C 
BRANCH   6   7
ATOM      7  C   UNL     1      36.005 162.101 121.828  1.00  0.00     0.000 C 
BRANCH   7   8
ATOM      8  C   UNL     1      37.268 161.219 121.843  1.00  0.00     0.000 C 
BRANCH   8   9
ATOM      9  C   UNL     1      38.518 161.976 121.367  1.00  0.00     0.000 C 
BRANCH   9  10
ATOM     10  C   UNL     1      38.677 161.876 119.843  1.00  0.00     0.000 C 
BRANCH  10  11
ATOM     11  C   UNL     1      40.151 161.830 119.409  1.00  0.00     0.000 C 
BRANCH  11  12
ATOM     12  C   UNL     1      40.339 161.209 118.015  1.00  0.00     0.006 C 
BRANCH  12  13
ATOM     13  C   UNL     1      41.567 161.776 117.289  1.00  0.00     0.053 C 
BRANCH  13  14
ATOM     14  C   UNL     1      42.568 160.709 116.966  1.00  0.00     0.041 C 
ATOM     15  O   UNL     1      43.707 160.721 117.505  1.00  0.00    -0.550 OA
ATOM     16  O   UNL     1      42.213 159.653 116.135  1.00  0.00    -0.550 OA
ENDBRANCH  13  14
ENDBRANCH  12  13
ENDBRANCH  11  12
ENDBRANCH  10  11
ENDBRANCH   9  10
ENDBRANCH   8   9
ENDBRANCH   7   8
ENDBRANCH   6   7
ENDBRANCH   5   6
ENDBRANCH   4   5
ENDBRANCH   3   4
ENDBRANCH   2   3
ENDBRANCH   1   2
BRANCH   1  17
ATOM     17  C   UNL     1      30.737 162.125 119.052  1.00  0.00     0.000 C 
BRANCH  17  18
ATOM     18  C   UNL     1      29.401 161.540 119.548  1.00  0.00     0.000 C 
BRANCH  18  19
ATOM     19  C   UNL     1      28.185 162.098 118.787  1.00  0.00     0.000 C 
BRANCH  19  20
ATOM     20  C   UNL     1      26.804 161.650 119.320  1.00  0.00     0.000 C 
BRANCH  20  21
ATOM     21  C   UNL     1      25.672 161.602 118.275  1.00  0.00     0.000 C 
BRANCH  21  22
ATOM     22  C   UNL     1      24.994 160.221 118.179  1.00  0.00    -0.000 C 
BRANCH  22  23
ATOM     23  C   UNL     1      25.759 159.254 117.263  1.00  0.00    -0.000 C 
BRANCH  23  24
ATOM     24  C   UNL     1      26.196 157.967 117.977  1.00  0.00    -0.000 C 
BRANCH  24  25
ATOM     25  C   UNL     1      25.728 157.975 119.440  1.00  0.00    -0.000 C 
BRANCH  25  26
ATOM     26  C   UNL     1      25.529 156.560 120.011  1.00  0.00    -0.000 C 
BRANCH  26  27
ATOM     27  C   UNL     1      25.960 156.393 121.479  1.00  0.00    -0.000 C 
BRANCH  27  28
ATOM     28  C   UNL     1      27.482 156.505 121.668  1.00  0.00    -0.000 C 
BRANCH  28  29
ATOM     29  C   UNL     1      27.934 157.946 121.962  1.00  0.00    -0.003 C 
ATOM     30  C   UNL     1      29.265 158.287 121.296  1.00  0.00     0.004 C 
ENDBRANCH  28  29
ENDBRANCH  27  28
ENDBRANCH  26  27
ENDBRANCH  25  26
ENDBRANCH  24  25
ENDBRANCH  23  24
ENDBRANCH  22  23
ENDBRANCH  21  22
ENDBRANCH  20  21
ENDBRANCH  19  20
ENDBRANCH  18  19
ENDBRANCH  17  18
ENDBRANCH   1  17
TORSDOF 26
ENDMDL
MODEL 4
REMARK VINA RESULT:    -2.524      4.535     12.473
REMARK INTER + INTRA:          -8.330
REMARK INTER:                  -6.178
REMARK INTRA:                  -2.152
REMARK UNBOUND:                -1.970
REMARK SMILES CCCCCCCCCCCCCCCCCCCCCCCCCCCC(=O)[O-]
REMARK SMILES IDX 15 1 16 2 17 3 18 4 19 5 20 6 21 7 22 8 23 9 24 10 25 11
REMARK SMILES IDX 26 12 27 13 28 14 29 15 30 16 14 17 13 18 12 19 11 20 10 21
REMARK SMILES IDX 9 22 8 23 7 24 6 25 5 26 4 27 3 28 2 29 1 30
REMARK H PARENT
REMARK Flexibility Score: inf
ROOT
ATOM      1  C   UNL     1      30.488 159.971 121.028  1.00  0.00     0.000 C 
ENDROOT
BRANCH   1   2
ATOM      2  C   UNL     1      31.887 160.044 121.673  1.00  0.00     0.000 C 
BRANCH   2   3
ATOM      3  C   UNL     1      32.435 161.465 121.888  1.00  0.00     0.000 C 
BRANCH   3   4
ATOM      4  C   UNL     1      33.273 161.976 120.702  1.00  0.00     0.000 C 
BRANCH   4   5
ATOM      5  C   UNL     1      34.758 162.123 121.076  1.00  0.00     0.000 C 
BRANCH   5   6
ATOM      6  C   UNL     1      35.383 160.777 121.489  1.00  0.00     0.000 C 
BRANCH   6   7
ATOM      7  C   UNL     1      36.838 160.928 121.973  1.00  0.00     0.000 C 
BRANCH   7   8
ATOM      8  C   UNL     1      37.884 160.543 120.909  1.00  0.00     0.000 C 
BRANCH   8   9
ATOM      9  C   UNL     1      38.959 161.624 120.724  1.00  0.00     0.000 C 
BRANCH   9  10
ATOM     10  C   UNL     1      38.995 162.125 119.272  1.00  0.00     0.000 C 
BRANCH  10  11
ATOM     11  C   UNL     1      39.796 161.191 118.351  1.00  0.00     0.000 C 
BRANCH  11  12
ATOM     12  C   UNL     1      41.109 161.827 117.862  1.00  0.00     0.006 C 
BRANCH  12  13
ATOM     13  C   UNL     1      42.141 160.771 117.440  1.00  0.00     0.053 C 
BRANCH  13  14
ATOM     14  C   UNL     1      43.485 161.027 118.051  1.00  0.00     0.041 C 
ATOM     15  O   UNL     1      44.320 161.767 117.464  1.00  0.00    -0.550 OA
ATOM     16  O   UNL     1      43.784 160.518 119.308  1.00  0.00    -0.550 OA
ENDBRANCH  13  14
ENDBRANCH  12  13
ENDBRANCH  11  12
ENDBRANCH  10  11
ENDBRANCH   9  10
ENDBRANCH   8   9
ENDBRANCH   7   8
ENDBRANCH   6   7
ENDBRANCH   5   6
ENDBRANCH   4   5
ENDBRANCH   3   4
ENDBRANCH   2   3
ENDBRANCH   1   2
BRANCH   1  17
ATOM     17  C   UNL     1      30.163 158.614 120.367  1.00  0.00     0.000 C 
BRANCH  17  18
ATOM     18  C   UNL     1      30.118 157.457 121.383  1.00  0.00     0.000 C 
BRANCH  18  19
ATOM     19  C   UNL     1      28.756 157.334 122.089  1.00  0.00     0.000 C 
BRANCH  19  20
ATOM     20  C   UNL     1      27.634 156.669 121.259  1.00  0.00     0.000 C 
BRANCH  20  21
ATOM     21  C   UNL     1      26.278 156.515 121.976  1.00  0.00     0.000 C 
BRANCH  21  22
ATOM     22  C   UNL     1      25.306 157.677 121.691  1.00  0.00    -0.000 C 
BRANCH  22  23
ATOM     23  C   UNL     1      25.875 159.037 122.124  1.00  0.00    -0.000 C 
BRANCH  23  24
ATOM     24  C   UNL     1      25.711 160.126 121.054  1.00  0.00    -0.000 C 
BRANCH  24  25
ATOM     25  C   UNL     1      24.879 159.604 119.874  1.00  0.00    -0.000 C 
BRANCH  25  26
ATOM     26  C   UNL     1      25.743 159.189 118.670  1.00  0.00    -0.000 C 
BRANCH  26  27
ATOM     27  C   UNL     1      27.251 159.444 118.843  1.00  0.00    -0.000 C 
BRANCH  27  28
ATOM     28  C   UNL     1      27.954 159.779 117.517  1.00  0.00    -0.000 C 
BRANCH  28  29
ATOM     29  C   UNL     1      28.022 161.293 117.253  1.00  0.00    -0.003 C 
ATOM     30  C   UNL     1      27.934 162.114 118.538  1.00  0.00     0.004 C 
ENDBRANCH  28  29
ENDBRANCH  27  28
ENDBRANCH  26  27
ENDBRANCH  25  26
ENDBRANCH  24  25
ENDBRANCH  23  24
ENDBRANCH  22  23
ENDBRANCH  21  22
ENDBRANCH  20  21
ENDBRANCH  19  20
ENDBRANCH  18  19
ENDBRANCH  17  18
ENDBRANCH   1  17
TORSDOF 26
ENDMDL
MODEL 5
REMARK VINA RESULT:    -2.319      4.713     10.755
REMARK INTER + INTRA:          -7.813
REMARK INTER:                  -5.770
REMARK INTRA:                  -2.043
REMARK UNBOUND:                -1.970
REMARK SMILES CCCCCCCCCCCCCCCCCCCCCCCCCCCC(=O)[O-]
REMARK SMILES IDX 15 1 16 2 17 3 18 4 19 5 20 6 21 7 22 8 23 9 24 10 25 11
REMARK SMILES IDX 26 12 27 13 28 14 29 15 30 16 14 17 13 18 12 19 11 20 10 21
REMARK SMILES IDX 9 22 8 23 7 24 6 25 5 26 4 27 3 28 2 29 1 30
REMARK H PARENT
REMARK Flexibility Score: inf
ROOT
ATOM      1  C   UNL     1      28.231 159.584 118.380  1.00  0.00     0.000 C 
ENDROOT
BRANCH   1   2
ATOM      2  C   UNL     1      28.238 159.613 119.921  1.00  0.00     0.000 C 
BRANCH   2   3
ATOM      3  C   UNL     1      29.143 160.685 120.552  1.00  0.00     0.000 C 
BRANCH   3   4
ATOM      4  C   UNL     1      29.584 160.338 121.985  1.00  0.00     0.000 C 
BRANCH   4   5
ATOM      5  C   UNL     1      30.212 158.936 122.063  1.00  0.00     0.000 C 
BRANCH   5   6
ATOM      6  C   UNL     1      31.516 158.843 121.250  1.00  0.00     0.000 C 
BRANCH   6   7
ATOM      7  C   UNL     1      32.743 159.323 122.049  1.00  0.00     0.000 C 
BRANCH   7   8
ATOM      8  C   UNL     1      34.001 159.525 121.182  1.00  0.00     0.000 C 
BRANCH   8   9
ATOM      9  C   UNL     1      34.991 160.521 121.806  1.00  0.00     0.000 C 
BRANCH   9  10
ATOM     10  C   UNL     1      34.367 161.921 121.916  1.00  0.00     0.000 C 
BRANCH  10  11
ATOM     11  C   UNL     1      33.047 162.036 121.137  1.00  0.00     0.000 C 
BRANCH  11  12
ATOM     12  C   UNL     1      33.261 162.100 119.616  1.00  0.00     0.006 C 
BRANCH  12  13
ATOM     13  C   UNL     1      31.962 161.848 118.837  1.00  0.00     0.053 C 
BRANCH  13  14
ATOM     14  C   UNL     1      32.154 160.850 117.736  1.00  0.00     0.041 C 
ATOM     15  O   UNL     1      31.606 159.717 117.801  1.00  0.00    -0.550 OA
ATOM     16  O   UNL     1      32.868 161.203 116.597  1.00  0.00    -0.550 OA
ENDBRANCH  13  14
ENDBRANCH  12  13
ENDBRANCH  11  12
ENDBRANCH  10  11
ENDBRANCH   9  10
ENDBRANCH   8   9
ENDBRANCH   7   8
ENDBRANCH   6   7
ENDBRANCH   5   6
ENDBRANCH   4   5
ENDBRANCH   3   4
ENDBRANCH   2   3
ENDBRANCH   1   2
BRANCH   1  17
ATOM     17  C   UNL     1      27.111 158.717 117.766  1.00  0.00     0.000 C 
BRANCH  17  18
ATOM     18  C   UNL     1      26.456 159.378 116.538  1.00  0.00     0.000 C 
BRANCH  18  19
ATOM     19  C   UNL     1      27.173 160.669 116.101  1.00  0.00     0.000 C 
BRANCH  19  20
ATOM     20  C   UNL     1      26.763 161.949 116.866  1.00  0.00     0.000 C 
BRANCH  20  21
ATOM     21  C   UNL     1      25.612 161.780 117.877  1.00  0.00     0.000 C 
BRANCH  21  22
ATOM     22  C   UNL     1      26.062 161.952 119.342  1.00  0.00    -0.000 C 
BRANCH  22  23
ATOM     23  C   UNL     1      24.876 162.123 120.303  1.00  0.00    -0.000 C 
BRANCH  23  24
ATOM     24  C   UNL     1      24.929 161.165 121.501  1.00  0.00    -0.000 C 
BRANCH  24  25
ATOM     25  C   UNL     1      25.016 159.707 121.024  1.00  0.00    -0.000 C 
BRANCH  25  26
ATOM     26  C   UNL     1      25.500 158.746 122.124  1.00  0.00    -0.000 C 
BRANCH  26  27
ATOM     27  C   UNL     1      25.277 157.254 121.817  1.00  0.00    -0.000 C 
BRANCH  27  28
ATOM     28  C   UNL     1      26.368 156.665 120.907  1.00  0.00    -0.000 C 
BRANCH  28  29
ATOM     29  C   UNL     1      25.798 156.114 119.588  1.00  0.00    -0.003 C 
ATOM     30  C   UNL     1      26.421 154.776 119.197  1.00  0.00     0.004 C 
ENDBRANCH  28  29
ENDBRANCH  27  28
ENDBRANCH  26  27
ENDBRANCH  25  26
ENDBRANCH  24  25
ENDBRANCH  23  24
ENDBRANCH  22  23
ENDBRANCH  21  22
ENDBRANCH  20  21
ENDBRANCH  19  20
ENDBRANCH  18  19
ENDBRANCH  17  18
ENDBRANCH   1  17
TORSDOF 26
ENDMDL
MODEL 6
REMARK VINA RESULT:    -2.136      1.619      2.812
REMARK INTER + INTRA:          -7.351
REMARK INTER:                  -5.689
REMARK INTRA:                  -1.662
REMARK UNBOUND:                -1.970
REMARK SMILES CCCCCCCCCCCCCCCCCCCCCCCCCCCC(=O)[O-]
REMARK SMILES IDX 15 1 16 2 17 3 18 4 19 5 20 6 21 7 22 8 23 9 24 10 25 11
REMARK SMILES IDX 26 12 27 13 28 14 29 15 30 16 14 17 13 18 12 19 11 20 10 21
REMARK SMILES IDX 9 22 8 23 7 24 6 25 5 26 4 27 3 28 2 29 1 30
REMARK H PARENT
REMARK Flexibility Score: inf
ROOT
ATOM      1  C   UNL     1      32.287 161.443 118.129  1.00  0.00     0.000 C 
ENDROOT
BRANCH   1   2
ATOM      2  C   UNL     1      31.413 162.112 119.209  1.00  0.00     0.000 C 
BRANCH   2   3
ATOM      3  C   UNL     1      29.897 162.033 118.966  1.00  0.00     0.000 C 
BRANCH   3   4
ATOM      4  C   UNL     1      29.139 161.321 120.101  1.00  0.00     0.000 C 
BRANCH   4   5
ATOM      5  C   UNL     1      30.025 160.287 120.816  1.00  0.00     0.000 C 
BRANCH   5   6
ATOM      6  C   UNL     1      29.325 158.922 120.950  1.00  0.00     0.000 C 
BRANCH   6   7
ATOM      7  C   UNL     1      28.192 158.942 121.994  1.00  0.00     0.000 C 
BRANCH   7   8
ATOM      8  C   UNL     1      26.811 159.275 121.396  1.00  0.00     0.000 C 
BRANCH   8   9
ATOM      9  C   UNL     1      25.939 158.024 121.202  1.00  0.00     0.000 C 
BRANCH   9  10
ATOM     10  C   UNL     1      24.996 158.191 120.000  1.00  0.00     0.000 C 
BRANCH  10  11
ATOM     11  C   UNL     1      25.692 157.888 118.664  1.00  0.00     0.000 C 
BRANCH  11  12
ATOM     12  C   UNL     1      25.681 159.091 117.705  1.00  0.00     0.006 C 
BRANCH  12  13
ATOM     13  C   UNL     1      27.098 159.552 117.338  1.00  0.00     0.053 C 
BRANCH  13  14
ATOM     14  C   UNL     1      27.098 160.476 116.159  1.00  0.00     0.041 C 
ATOM     15  O   UNL     1      26.462 161.563 116.202  1.00  0.00    -0.550 OA
ATOM     16  O   UNL     1      27.871 160.177 115.043  1.00  0.00    -0.550 OA
ENDBRANCH  13  14
ENDBRANCH  12  13
ENDBRANCH  11  12
ENDBRANCH  10  11
ENDBRANCH   9  10
ENDBRANCH   8   9
ENDBRANCH   7   8
ENDBRANCH   6   7
ENDBRANCH   5   6
ENDBRANCH   4   5
ENDBRANCH   3   4
ENDBRANCH   2   3
ENDBRANCH   1   2
BRANCH   1  17
ATOM     17  C   UNL     1      32.259 159.899 118.156  1.00  0.00     0.000 C 
BRANCH  17  18
ATOM     18  C   UNL     1      33.238 159.309 119.189  1.00  0.00     0.000 C 
BRANCH  18  19
ATOM     19  C   UNL     1      32.613 159.160 120.589  1.00  0.00     0.000 C 
BRANCH  19  20
ATOM     20  C   UNL     1      33.323 159.937 121.721  1.00  0.00     0.000 C 
BRANCH  20  21
ATOM     21  C   UNL     1      33.561 161.436 121.451  1.00  0.00     0.000 C 
BRANCH  21  22
ATOM     22  C   UNL     1      35.052 161.794 121.291  1.00  0.00    -0.000 C 
BRANCH  22  23
ATOM     23  C   UNL     1      35.961 160.557 121.345  1.00  0.00    -0.000 C 
BRANCH  23  24
ATOM     24  C   UNL     1      37.302 160.825 122.043  1.00  0.00    -0.000 C 
BRANCH  24  25
ATOM     25  C   UNL     1      37.933 162.125 121.521  1.00  0.00    -0.000 C 
BRANCH  25  26
ATOM     26  C   UNL     1      38.383 162.024 120.053  1.00  0.00    -0.000 C 
BRANCH  26  27
ATOM     27  C   UNL     1      39.413 160.915 119.772  1.00  0.00    -0.000 C 
BRANCH  27  28
ATOM     28  C   UNL     1      39.850 160.868 118.298  1.00  0.00    -0.000 C 
BRANCH  28  29
ATOM     29  C   UNL     1      40.688 162.093 117.894  1.00  0.00    -0.003 C 
ATOM     30  C   UNL     1      42.050 161.704 117.321  1.00  0.00     0.004 C 
ENDBRANCH  28  29
ENDBRANCH  27  28
ENDBRANCH  26  27
ENDBRANCH  25  26
ENDBRANCH  24  25
ENDBRANCH  23  24
ENDBRANCH  22  23
ENDBRANCH  21  22
ENDBRANCH  20  21
ENDBRANCH  19  20
ENDBRANCH  18  19
ENDBRANCH  17  18
ENDBRANCH   1  17
TORSDOF 26
ENDMDL
MODEL 7
REMARK VINA RESULT:    -1.845      3.879     11.888
REMARK INTER + INTRA:          -6.619
REMARK INTER:                  -6.223
REMARK INTRA:                  -0.397
REMARK UNBOUND:                -1.970
REMARK SMILES CCCCCCCCCCCCCCCCCCCCCCCCCCCC(=O)[O-]
REMARK SMILES IDX 15 1 16 2 17 3 18 4 19 5 20 6 21 7 22 8 23 9 24 10 25 11
REMARK SMILES IDX 26 12 27 13 28 14 29 15 30 16 14 17 13 18 12 19 11 20 10 21
REMARK SMILES IDX 9 22 8 23 7 24 6 25 5 26 4 27 3 28 2 29 1 30
REMARK H PARENT
REMARK Flexibility Score: inf
ROOT
ATOM      1  C   UNL     1      28.588 161.428 121.909  1.00  0.00     0.000 C 
ENDROOT
BRANCH   1   2
ATOM      2  C   UNL     1      29.042 161.274 120.444  1.00  0.00     0.000 C 
BRANCH   2   3
ATOM      3  C   UNL     1      30.515 160.873 120.254  1.00  0.00     0.000 C 
BRANCH   3   4
ATOM      4  C   UNL     1      30.690 159.419 119.781  1.00  0.00     0.000 C 
BRANCH   4   5
ATOM      5  C   UNL     1      32.150 158.952 119.904  1.00  0.00     0.000 C 
BRANCH   5   6
ATOM      6  C   UNL     1      32.809 159.459 121.200  1.00  0.00     0.000 C 
BRANCH   6   7
ATOM      7  C   UNL     1      33.767 160.640 120.951  1.00  0.00     0.000 C 
BRANCH   7   8
ATOM      8  C   UNL     1      35.141 160.471 121.627  1.00  0.00     0.000 C 
BRANCH   8   9
ATOM      9  C   UNL     1      35.782 161.818 121.996  1.00  0.00     0.000 C 
BRANCH   9  10
ATOM     10  C   UNL     1      36.983 162.124 121.088  1.00  0.00     0.000 C 
BRANCH  10  11
ATOM     11  C   UNL     1      38.033 161.002 121.108  1.00  0.00     0.000 C 
BRANCH  11  12
ATOM     12  C   UNL     1      38.759 160.847 119.761  1.00  0.00     0.006 C 
BRANCH  12  13
ATOM     13  C   UNL     1      39.921 161.839 119.612  1.00  0.00     0.053 C 
BRANCH  13  14
ATOM     14  C   UNL     1      40.821 161.480 118.470  1.00  0.00     0.041 C 
ATOM     15  O   UNL     1      41.946 162.036 118.347  1.00  0.00    -0.550 OA
ATOM     16  O   UNL     1      40.455 160.470 117.589  1.00  0.00    -0.550 OA
ENDBRANCH  13  14
ENDBRANCH  12  13
ENDBRANCH  11  12
ENDBRANCH  10  11
ENDBRANCH   9  10
ENDBRANCH   8   9
ENDBRANCH   7   8
ENDBRANCH   6   7
ENDBRANCH   5   6
ENDBRANCH   4   5
ENDBRANCH   3   4
ENDBRANCH   2   3
ENDBRANCH   1   2
BRANCH   1  17
ATOM     17  C   UNL     1      27.067 161.269 122.123  1.00  0.00     0.000 C 
BRANCH  17  18
ATOM     18  C   UNL     1      26.384 160.508 120.971  1.00  0.00     0.000 C 
BRANCH  18  19
ATOM     19  C   UNL     1      26.679 158.997 120.994  1.00  0.00     0.000 C 
BRANCH  19  20
ATOM     20  C   UNL     1      25.774 158.156 121.925  1.00  0.00     0.000 C 
BRANCH  20  21
ATOM     21  C   UNL     1      26.097 156.650 121.983  1.00  0.00     0.000 C 
BRANCH  21  22
ATOM     22  C   UNL     1      26.196 155.997 120.590  1.00  0.00    -0.000 C 
BRANCH  22  23
ATOM     23  C   UNL     1      26.004 157.010 119.453  1.00  0.00    -0.000 C 
BRANCH  23  24
ATOM     24  C   UNL     1      25.957 156.356 118.065  1.00  0.00    -0.000 C 
BRANCH  24  25
ATOM     25  C   UNL     1      25.107 157.195 117.099  1.00  0.00    -0.000 C 
BRANCH  25  26
ATOM     26  C   UNL     1      25.433 158.698 117.168  1.00  0.00    -0.000 C 
BRANCH  26  27
ATOM     27  C   UNL     1      26.896 159.053 116.850  1.00  0.00    -0.000 C 
BRANCH  27  28
ATOM     28  C   UNL     1      27.028 160.038 115.676  1.00  0.00    -0.000 C 
BRANCH  28  29
ATOM     29  C   UNL     1      26.828 161.500 116.110  1.00  0.00    -0.003 C 
ATOM     30  C   UNL     1      25.393 161.979 115.905  1.00  0.00     0.004 C 
ENDBRANCH  28  29
ENDBRANCH  27  28
ENDBRANCH  26  27
ENDBRANCH  25  26
ENDBRANCH  24  25
ENDBRANCH  23  24
ENDBRANCH  22  23
ENDBRANCH  21  22
ENDBRANCH  20  21
ENDBRANCH  19  20
ENDBRANCH  18  19
ENDBRANCH  17  18
ENDBRANCH   1  17
TORSDOF 26
ENDMDL
