MODEL 1
REMARK VINA RESULT:    -2.996      0.000      0.000
REMARK INTER + INTRA:         -10.145
REMARK INTER:                  -6.500
REMARK INTRA:                  -3.645
REMARK UNBOUND:                -3.645
REMARK SMILES CCCCCCCCCCCCCCCCCCCCCC(=O)[O-]
REMARK SMILES IDX 12 1 11 2 10 3 9 4 8 5 7 6 6 7 5 8 4 9 3 10 2 11 1 12 13 13
REMARK SMILES IDX 14 14 15 15 16 16 17 17 18 18 19 19 20 20 21 21 22 22 23 23
REMARK SMILES IDX 24 24
REMARK H PARENT
REMARK Flexibility Score: inf
ROOT
ATOM      1  C   UNL     1      58.249  28.835  53.508  1.00  0.00     0.000 C 
ENDROOT
BRANCH   1   2
ATOM      2  C   UNL     1      57.774  27.384  53.741  1.00  0.00     0.000 C 
BRANCH   2   3
ATOM      3  C   UNL     1      58.168  26.415  52.609  1.00  0.00     0.000 C 
BRANCH   3   4
ATOM      4  C   UNL     1      56.991  25.870  51.780  1.00  0.00    -0.000 C 
BRANCH   4   5
ATOM      5  C   UNL     1      56.724  26.698  50.511  1.00  0.00    -0.000 C 
BRANCH   5   6
ATOM      6  C   UNL     1      55.348  27.383  50.536  1.00  0.00    -0.000 C 
BRANCH   6   7
ATOM      7  C   UNL     1      55.437  28.885  50.854  1.00  0.00    -0.000 C 
BRANCH   7   8
ATOM      8  C   UNL     1      54.892  29.235  52.251  1.00  0.00    -0.000 C 
BRANCH   8   9
ATOM      9  C   UNL     1      54.470  30.704  52.437  1.00  0.00    -0.000 C 
BRANCH   9  10
ATOM     10  C   UNL     1      54.960  31.307  53.764  1.00  0.00    -0.000 C 
BRANCH  10  11
ATOM     11  C   UNL     1      55.764  32.601  53.560  1.00  0.00    -0.003 C 
ATOM     12  C   UNL     1      57.274  32.369  53.581  1.00  0.00     0.004 C 
ENDBRANCH  10  11
ENDBRANCH   9  10
ENDBRANCH   8   9
ENDBRANCH   7   8
ENDBRANCH   6   7
ENDBRANCH   5   6
ENDBRANCH   4   5
ENDBRANCH   3   4
ENDBRANCH   2   3
ENDBRANCH   1   2
BRANCH   1  13
ATOM     13  C   UNL     1      59.319  28.927  52.405  1.00  0.00     0.000 C 
BRANCH  13  14
ATOM     14  C   UNL     1      58.898  29.867  51.254  1.00  0.00     0.000 C 
BRANCH  14  15
ATOM     15  C   UNL     1      59.224  29.322  49.850  1.00  0.00     0.000 C 
BRANCH  15  16
ATOM     16  C   UNL     1      60.017  28.004  49.823  1.00  0.00     0.000 C 
BRANCH  16  17
ATOM     17  C   UNL     1      61.531  28.218  49.655  1.00  0.00     0.000 C 
BRANCH  17  18
ATOM     18  C   UNL     1      62.360  27.467  50.713  1.00  0.00     0.000 C 
BRANCH  18  19
ATOM     19  C   UNL     1      61.631  26.301  51.406  1.00  0.00     0.000 C 
BRANCH  19  20
ATOM     20  C   UNL     1      61.841  24.955  50.690  1.00  0.00     0.006 C 
BRANCH  20  21
ATOM     21  C   UNL     1      60.514  24.286  50.309  1.00  0.00     0.053 C 
BRANCH  21  22
ATOM     22  C   UNL     1      60.658  22.804  50.150  1.00  0.00     0.041 C 
ATOM     23  O   UNL     1      60.463  22.040  51.132  1.00  0.00    -0.550 OA
ATOM     24  O   UNL     1      60.976  22.265  48.910  1.00  0.00    -0.550 OA
ENDBRANCH  21  22
ENDBRANCH  20  21
ENDBRANCH  19  20
ENDBRANCH  18  19
ENDBRANCH  17  18
ENDBRANCH  16  17
ENDBRANCH  15  16
ENDBRANCH  14  15
ENDBRANCH  13  14
ENDBRANCH   1  13
TORSDOF 20
ENDMDL
MODEL 2
REMARK VINA RESULT:    -2.980      3.804      6.942
REMARK INTER + INTRA:         -10.109
REMARK INTER:                  -7.069
REMARK INTRA:                  -3.040
REMARK UNBOUND:                -3.645
REMARK SMILES CCCCCCCCCCCCCCCCCCCCCC(=O)[O-]
REMARK SMILES IDX 12 1 11 2 10 3 9 4 8 5 7 6 6 7 5 8 4 9 3 10 2 11 1 12 13 13
REMARK SMILES IDX 14 14 15 15 16 16 17 17 18 18 19 19 20 20 21 21 22 22 23 23
REMARK SMILES IDX 24 24
REMARK H PARENT
REMARK Flexibility Score: inf
ROOT
ATOM      1  C   UNL     1      58.713  29.926  51.546  1.00  0.00     0.000 C 
ENDROOT
BRANCH   1   2
ATOM      2  C   UNL     1      58.248  29.643  50.101  1.00  0.00     0.000 C 
BRANCH   2   3
ATOM      3  C   UNL     1      59.235  28.781  49.290  1.00  0.00     0.000 C 
BRANCH   3   4
ATOM      4  C   UNL     1      59.850  27.598  50.058  1.00  0.00    -0.000 C 
BRANCH   4   5
ATOM      5  C   UNL     1      61.388  27.639  50.084  1.00  0.00    -0.000 C 
BRANCH   5   6
ATOM      6  C   UNL     1      61.935  28.417  51.292  1.00  0.00    -0.000 C 
BRANCH   6   7
ATOM      7  C   UNL     1      63.361  28.944  51.063  1.00  0.00    -0.000 C 
BRANCH   7   8
ATOM      8  C   UNL     1      63.415  30.473  50.887  1.00  0.00    -0.000 C 
BRANCH   8   9
ATOM      9  C   UNL     1      62.044  31.174  50.855  1.00  0.00    -0.000 C 
BRANCH   9  10
ATOM     10  C   UNL     1      62.154  32.701  50.714  1.00  0.00    -0.000 C 
BRANCH  10  11
ATOM     11  C   UNL     1      62.661  33.127  49.327  1.00  0.00    -0.003 C 
ATOM     12  C   UNL     1      61.960  34.379  48.800  1.00  0.00     0.004 C 
ENDBRANCH  10  11
ENDBRANCH   9  10
ENDBRANCH   8   9
ENDBRANCH   7   8
ENDBRANCH   6   7
ENDBRANCH   5   6
ENDBRANCH   4   5
ENDBRANCH   3   4
ENDBRANCH   2   3
ENDBRANCH   1   2
BRANCH   1  13
ATOM     13  C   UNL     1      57.630  29.579  52.584  1.00  0.00     0.000 C 
BRANCH  13  14
ATOM     14  C   UNL     1      57.817  28.167  53.180  1.00  0.00     0.000 C 
BRANCH  14  15
ATOM     15  C   UNL     1      56.512  27.526  53.693  1.00  0.00     0.000 C 
BRANCH  15  16
ATOM     16  C   UNL     1      56.012  26.318  52.884  1.00  0.00     0.000 C 
BRANCH  16  17
ATOM     17  C   UNL     1      56.800  26.099  51.580  1.00  0.00     0.000 C 
BRANCH  17  18
ATOM     18  C   UNL     1      56.087  26.685  50.348  1.00  0.00     0.000 C 
BRANCH  18  19
ATOM     19  C   UNL     1      54.573  26.414  50.278  1.00  0.00     0.000 C 
BRANCH  19  20
ATOM     20  C   UNL     1      53.734  27.703  50.276  1.00  0.00     0.006 C 
BRANCH  20  21
ATOM     21  C   UNL     1      54.579  28.946  50.582  1.00  0.00     0.053 C 
BRANCH  21  22
ATOM     22  C   UNL     1      53.970  29.787  51.663  1.00  0.00     0.041 C 
ATOM     23  O   UNL     1      53.697  30.996  51.446  1.00  0.00    -0.550 OA
ATOM     24  O   UNL     1      53.674  29.224  52.897  1.00  0.00    -0.550 OA
ENDBRANCH  21  22
ENDBRANCH  20  21
ENDBRANCH  19  20
ENDBRANCH  18  19
ENDBRANCH  17  18
ENDBRANCH  16  17
ENDBRANCH  15  16
ENDBRANCH  14  15
ENDBRANCH  13  14
ENDBRANCH   1  13
TORSDOF 20
ENDMDL
MODEL 3
REMARK VINA RESULT:    -2.969     11.428     12.994
REMARK INTER + INTRA:         -10.085
REMARK INTER:                  -8.022
REMARK INTRA:                  -2.063
REMARK UNBOUND:                -3.645
REMARK SMILES CCCCCCCCCCCCCCCCCCCCCC(=O)[O-]
REMARK SMILES IDX 12 1 11 2 10 3 9 4 8 5 7 6 6 7 5 8 4 9 3 10 2 11 1 12 13 13
REMARK SMILES IDX 14 14 15 15 16 16 17 17 18 18 19 19 20 20 21 21 22 22 23 23
REMARK SMILES IDX 24 24
REMARK H PARENT
REMARK Flexibility Score: inf
ROOT
ATOM      1  C   UNL     1      64.160  28.626  60.698  1.00  0.00     0.000 C 
ENDROOT
BRANCH   1   2
ATOM      2  C   UNL     1      63.094  29.522  61.366  1.00  0.00     0.000 C 
BRANCH   2   3
ATOM      3  C   UNL     1      61.672  28.927  61.327  1.00  0.00     0.000 C 
BRANCH   3   4
ATOM      4  C   UNL     1      60.649  29.741  60.516  1.00  0.00    -0.000 C 
BRANCH   4   5
ATOM      5  C   UNL     1      61.120  30.029  59.080  1.00  0.00    -0.000 C 
BRANCH   5   6
ATOM      6  C   UNL     1      61.517  31.500  58.876  1.00  0.00    -0.000 C 
BRANCH   6   7
ATOM      7  C   UNL     1      62.877  31.657  58.175  1.00  0.00    -0.000 C 
BRANCH   7   8
ATOM      8  C   UNL     1      63.721  32.808  58.755  1.00  0.00    -0.000 C 
BRANCH   8   9
ATOM      9  C   UNL     1      63.650  32.962  60.285  1.00  0.00    -0.000 C 
BRANCH   9  10
ATOM     10  C   UNL     1      63.075  34.317  60.727  1.00  0.00    -0.000 C 
BRANCH  10  11
ATOM     11  C   UNL     1      63.845  34.924  61.911  1.00  0.00    -0.003 C 
ATOM     12  C   UNL     1      63.238  36.238  62.401  1.00  0.00     0.004 C 
ENDBRANCH  10  11
ENDBRANCH   9  10
ENDBRANCH   8   9
ENDBRANCH   7   8
ENDBRANCH   6   7
ENDBRANCH   5   6
ENDBRANCH   4   5
ENDBRANCH   3   4
ENDBRANCH   2   3
ENDBRANCH   1   2
BRANCH   1  13
ATOM     13  C   UNL     1      65.252  29.449  59.991  1.00  0.00     0.000 C 
BRANCH  13  14
ATOM     14  C   UNL     1      66.672  29.070  60.462  1.00  0.00     0.000 C 
BRANCH  14  15
ATOM     15  C   UNL     1      66.711  28.371  61.835  1.00  0.00     0.000 C 
BRANCH  15  16
ATOM     16  C   UNL     1      68.113  28.184  62.439  1.00  0.00     0.000 C 
BRANCH  16  17
ATOM     17  C   UNL     1      69.070  29.342  62.103  1.00  0.00     0.000 C 
BRANCH  17  18
ATOM     18  C   UNL     1      70.390  28.860  61.473  1.00  0.00     0.000 C 
BRANCH  18  19
ATOM     19  C   UNL     1      71.165  29.931  60.684  1.00  0.00     0.000 C 
BRANCH  19  20
ATOM     20  C   UNL     1      70.294  31.141  60.304  1.00  0.00     0.006 C 
BRANCH  20  21
ATOM     21  C   UNL     1      70.995  32.069  59.303  1.00  0.00     0.053 C 
BRANCH  21  22
ATOM     22  C   UNL     1      70.554  33.493  59.455  1.00  0.00     0.041 C 
ATOM     23  O   UNL     1      70.352  33.975  60.600  1.00  0.00    -0.550 OA
ATOM     24  O   UNL     1      70.398  34.295  58.332  1.00  0.00    -0.550 OA
ENDBRANCH  21  22
ENDBRANCH  20  21
ENDBRANCH  19  20
ENDBRANCH  18  19
ENDBRANCH  17  18
ENDBRANCH  16  17
ENDBRANCH  15  16
ENDBRANCH  14  15
ENDBRANCH  13  14
ENDBRANCH   1  13
TORSDOF 20
ENDMDL
MODEL 4
REMARK VINA RESULT:    -2.939      2.062      3.746
REMARK INTER + INTRA:         -10.021
REMARK INTER:                  -6.748
REMARK INTRA:                  -3.272
REMARK UNBOUND:                -3.645
REMARK SMILES CCCCCCCCCCCCCCCCCCCCCC(=O)[O-]
REMARK SMILES IDX 12 1 11 2 10 3 9 4 8 5 7 6 6 7 5 8 4 9 3 10 2 11 1 12 13 13
REMARK SMILES IDX 14 14 15 15 16 16 17 17 18 18 19 19 20 20 21 21 22 22 23 23
REMARK SMILES IDX 24 24
REMARK H PARENT
REMARK Flexibility Score: inf
ROOT
ATOM      1  C   UNL     1      58.492  30.397  52.010  1.00  0.00     0.000 C 
ENDROOT
BRANCH   1   2
ATOM      2  C   UNL     1      57.849  29.616  50.843  1.00  0.00     0.000 C 
BRANCH   2   3
ATOM      3  C   UNL     1      58.769  29.467  49.615  1.00  0.00     0.000 C 
BRANCH   3   4
ATOM      4  C   UNL     1      59.549  28.143  49.542  1.00  0.00    -0.000 C 
BRANCH   4   5
ATOM      5  C   UNL     1      58.688  26.924  49.917  1.00  0.00    -0.000 C 
BRANCH   5   6
ATOM      6  C   UNL     1      59.116  26.290  51.251  1.00  0.00    -0.000 C 
BRANCH   6   7
ATOM      7  C   UNL     1      57.957  25.579  51.969  1.00  0.00    -0.000 C 
BRANCH   7   8
ATOM      8  C   UNL     1      56.839  26.543  52.404  1.00  0.00    -0.000 C 
BRANCH   8   9
ATOM      9  C   UNL     1      55.421  26.142  51.956  1.00  0.00    -0.000 C 
BRANCH   9  10
ATOM     10  C   UNL     1      55.106  26.564  50.511  1.00  0.00    -0.000 C 
BRANCH  10  11
ATOM     11  C   UNL     1      54.720  28.048  50.404  1.00  0.00    -0.003 C 
ATOM     12  C   UNL     1      53.210  28.262  50.312  1.00  0.00     0.004 C 
ENDBRANCH  10  11
ENDBRANCH   9  10
ENDBRANCH   8   9
ENDBRANCH   7   8
ENDBRANCH   6   7
ENDBRANCH   5   6
ENDBRANCH   4   5
ENDBRANCH   3   4
ENDBRANCH   2   3
ENDBRANCH   1   2
BRANCH   1  13
ATOM     13  C   UNL     1      59.291  29.480  52.953  1.00  0.00     0.000 C 
BRANCH  13  14
ATOM     14  C   UNL     1      60.814  29.588  52.729  1.00  0.00     0.000 C 
BRANCH  14  15
ATOM     15  C   UNL     1      61.268  30.944  52.155  1.00  0.00     0.000 C 
BRANCH  15  16
ATOM     16  C   UNL     1      62.000  30.875  50.804  1.00  0.00     0.000 C 
BRANCH  16  17
ATOM     17  C   UNL     1      63.163  29.866  50.802  1.00  0.00     0.000 C 
BRANCH  17  18
ATOM     18  C   UNL     1      63.123  28.913  49.593  1.00  0.00     0.000 C 
BRANCH  18  19
ATOM     19  C   UNL     1      64.302  27.927  49.500  1.00  0.00     0.000 C 
BRANCH  19  20
ATOM     20  C   UNL     1      64.152  26.726  50.452  1.00  0.00     0.006 C 
BRANCH  20  21
ATOM     21  C   UNL     1      62.686  26.325  50.654  1.00  0.00     0.053 C 
BRANCH  21  22
ATOM     22  C   UNL     1      62.550  24.901  51.100  1.00  0.00     0.041 C 
ATOM     23  O   UNL     1      63.191  24.488  52.101  1.00  0.00    -0.550 OA
ATOM     24  O   UNL     1      61.691  24.041  50.429  1.00  0.00    -0.550 OA
ENDBRANCH  21  22
ENDBRANCH  20  21
ENDBRANCH  19  20
ENDBRANCH  18  19
ENDBRANCH  17  18
ENDBRANCH  16  17
ENDBRANCH  15  16
ENDBRANCH  14  15
ENDBRANCH  13  14
ENDBRANCH   1  13
TORSDOF 20
ENDMDL
MODEL 5
REMARK VINA RESULT:    -2.904      1.848      2.938
REMARK INTER + INTRA:          -9.945
REMARK INTER:                  -6.167
REMARK INTRA:                  -3.778
REMARK UNBOUND:                -3.645
REMARK SMILES CCCCCCCCCCCCCCCCCCCCCC(=O)[O-]
REMARK SMILES IDX 12 1 11 2 10 3 9 4 8 5 7 6 6 7 5 8 4 9 3 10 2 11 1 12 13 13
REMARK SMILES IDX 14 14 15 15 16 16 17 17 18 18 19 19 20 20 21 21 22 22 23 23
REMARK SMILES IDX 24 24
REMARK H PARENT
REMARK Flexibility Score: inf
ROOT
ATOM      1  C   UNL     1      58.110  27.095  54.103  1.00  0.00     0.000 C 
ENDROOT
BRANCH   1   2
ATOM      2  C   UNL     1      56.721  26.641  53.604  1.00  0.00     0.000 C 
BRANCH   2   3
ATOM      3  C   UNL     1      56.555  25.110  53.541  1.00  0.00     0.000 C 
BRANCH   3   4
ATOM      4  C   UNL     1      55.116  24.619  53.308  1.00  0.00    -0.000 C 
BRANCH   4   5
ATOM      5  C   UNL     1      54.177  25.738  52.824  1.00  0.00    -0.000 C 
BRANCH   5   6
ATOM      6  C   UNL     1      53.370  25.332  51.580  1.00  0.00    -0.000 C 
BRANCH   6   7
ATOM      7  C   UNL     1      54.035  25.778  50.267  1.00  0.00    -0.000 C 
BRANCH   7   8
ATOM      8  C   UNL     1      54.859  27.070  50.422  1.00  0.00    -0.000 C 
BRANCH   8   9
ATOM      9  C   UNL     1      54.054  28.376  50.289  1.00  0.00    -0.000 C 
BRANCH   9  10
ATOM     10  C   UNL     1      53.914  29.134  51.619  1.00  0.00    -0.000 C 
BRANCH  10  11
ATOM     11  C   UNL     1      53.690  30.641  51.416  1.00  0.00    -0.003 C 
ATOM     12  C   UNL     1      54.128  31.473  52.621  1.00  0.00     0.004 C 
ENDBRANCH  10  11
ENDBRANCH   9  10
ENDBRANCH   8   9
ENDBRANCH   7   8
ENDBRANCH   6   7
ENDBRANCH   5   6
ENDBRANCH   4   5
ENDBRANCH   3   4
ENDBRANCH   2   3
ENDBRANCH   1   2
BRANCH   1  13
ATOM     13  C   UNL     1      58.587  28.382  53.405  1.00  0.00     0.000 C 
BRANCH  13  14
ATOM     14  C   UNL     1      57.414  29.297  52.993  1.00  0.00     0.000 C 
BRANCH  14  15
ATOM     15  C   UNL     1      57.683  30.126  51.721  1.00  0.00     0.000 C 
BRANCH  15  16
ATOM     16  C   UNL     1      57.634  29.339  50.401  1.00  0.00     0.000 C 
BRANCH  16  17
ATOM     17  C   UNL     1      59.007  29.226  49.717  1.00  0.00     0.000 C 
BRANCH  17  18
ATOM     18  C   UNL     1      59.517  27.775  49.638  1.00  0.00     0.000 C 
BRANCH  18  19
ATOM     19  C   UNL     1      58.510  26.704  50.096  1.00  0.00     0.000 C 
BRANCH  19  20
ATOM     20  C   UNL     1      59.176  25.546  50.859  1.00  0.00     0.006 C 
BRANCH  20  21
ATOM     21  C   UNL     1      60.704  25.567  50.728  1.00  0.00     0.053 C 
BRANCH  21  22
ATOM     22  C   UNL     1      61.376  24.915  51.898  1.00  0.00     0.041 C 
ATOM     23  O   UNL     1      62.220  24.000  51.715  1.00  0.00    -0.550 OA
ATOM     24  O   UNL     1      61.093  25.343  53.189  1.00  0.00    -0.550 OA
ENDBRANCH  21  22
ENDBRANCH  20  21
ENDBRANCH  19  20
ENDBRANCH  18  19
ENDBRANCH  17  18
ENDBRANCH  16  17
ENDBRANCH  15  16
ENDBRANCH  14  15
ENDBRANCH  13  14
ENDBRANCH   1  13
TORSDOF 20
ENDMDL
MODEL 6
REMARK VINA RESULT:    -2.903      3.141      6.718
REMARK INTER + INTRA:          -9.943
REMARK INTER:                  -6.235
REMARK INTRA:                  -3.708
REMARK UNBOUND:                -3.645
REMARK SMILES CCCCCCCCCCCCCCCCCCCCCC(=O)[O-]
REMARK SMILES IDX 12 1 11 2 10 3 9 4 8 5 7 6 6 7 5 8 4 9 3 10 2 11 1 12 13 13
REMARK SMILES IDX 14 14 15 15 16 16 17 17 18 18 19 19 20 20 21 21 22 22 23 23
REMARK SMILES IDX 24 24
REMARK H PARENT
REMARK Flexibility Score: inf
ROOT
ATOM      1  C   UNL     1      58.856  29.309  49.633  1.00  0.00     0.000 C 
ENDROOT
BRANCH   1   2
ATOM      2  C   UNL     1      59.694  28.012  49.610  1.00  0.00     0.000 C 
BRANCH   2   3
ATOM      3  C   UNL     1      61.211  28.253  49.743  1.00  0.00     0.000 C 
BRANCH   3   4
ATOM      4  C   UNL     1      62.012  27.064  50.300  1.00  0.00    -0.000 C 
BRANCH   4   5
ATOM      5  C   UNL     1      61.112  25.924  50.808  1.00  0.00    -0.000 C 
BRANCH   5   6
ATOM      6  C   UNL     1      61.217  25.724  52.328  1.00  0.00    -0.000 C 
BRANCH   6   7
ATOM      7  C   UNL     1      60.179  26.547  53.109  1.00  0.00    -0.000 C 
BRANCH   7   8
ATOM      8  C   UNL     1      60.709  27.927  53.540  1.00  0.00    -0.000 C 
BRANCH   8   9
ATOM      9  C   UNL     1      59.739  29.100  53.307  1.00  0.00    -0.000 C 
BRANCH   9  10
ATOM     10  C   UNL     1      60.328  30.458  53.719  1.00  0.00    -0.000 C 
BRANCH  10  11
ATOM     11  C   UNL     1      60.364  31.461  52.554  1.00  0.00    -0.003 C 
ATOM     12  C   UNL     1      61.566  31.255  51.633  1.00  0.00     0.004 C 
ENDBRANCH  10  11
ENDBRANCH   9  10
ENDBRANCH   8   9
ENDBRANCH   7   8
ENDBRANCH   6   7
ENDBRANCH   5   6
ENDBRANCH   4   5
ENDBRANCH   3   4
ENDBRANCH   2   3
ENDBRANCH   1   2
BRANCH   1  13
ATOM     13  C   UNL     1      57.529  29.130  50.394  1.00  0.00     0.000 C 
BRANCH  13  14
ATOM     14  C   UNL     1      57.352  27.698  50.941  1.00  0.00     0.000 C 
BRANCH  14  15
ATOM     15  C   UNL     1      56.077  26.990  50.443  1.00  0.00     0.000 C 
BRANCH  15  16
ATOM     16  C   UNL     1      55.051  26.640  51.534  1.00  0.00     0.000 C 
BRANCH  16  17
ATOM     17  C   UNL     1      53.815  27.557  51.513  1.00  0.00     0.000 C 
BRANCH  17  18
ATOM     18  C   UNL     1      53.834  28.555  50.340  1.00  0.00     0.000 C 
BRANCH  18  19
ATOM     19  C   UNL     1      53.884  30.039  50.747  1.00  0.00     0.000 C 
BRANCH  19  20
ATOM     20  C   UNL     1      53.557  30.264  52.233  1.00  0.00     0.006 C 
BRANCH  20  21
ATOM     21  C   UNL     1      54.512  31.266  52.894  1.00  0.00     0.053 C 
BRANCH  21  22
ATOM     22  C   UNL     1      55.819  30.634  53.263  1.00  0.00     0.041 C 
ATOM     23  O   UNL     1      56.890  31.287  53.158  1.00  0.00    -0.550 OA
ATOM     24  O   UNL     1      55.849  29.336  53.756  1.00  0.00    -0.550 OA
ENDBRANCH  21  22
ENDBRANCH  20  21
ENDBRANCH  19  20
ENDBRANCH  18  19
ENDBRANCH  17  18
ENDBRANCH  16  17
ENDBRANCH  15  16
ENDBRANCH  14  15
ENDBRANCH  13  14
ENDBRANCH   1  13
TORSDOF 20
ENDMDL
MODEL 7
REMARK VINA RESULT:    -2.869      2.695      6.492
REMARK INTER + INTRA:          -9.867
REMARK INTER:                  -5.781
REMARK INTRA:                  -4.087
REMARK UNBOUND:                -3.645
REMARK SMILES CCCCCCCCCCCCCCCCCCCCCC(=O)[O-]
REMARK SMILES IDX 12 1 11 2 10 3 9 4 8 5 7 6 6 7 5 8 4 9 3 10 2 11 1 12 13 13
REMARK SMILES IDX 14 14 15 15 16 16 17 17 18 18 19 19 20 20 21 21 22 22 23 23
REMARK SMILES IDX 24 24
REMARK H PARENT
REMARK Flexibility Score: inf
ROOT
ATOM      1  C   UNL     1      58.180  25.933  52.383  1.00  0.00     0.000 C 
ENDROOT
BRANCH   1   2
ATOM      2  C   UNL     1      58.987  25.397  51.180  1.00  0.00     0.000 C 
BRANCH   2   3
ATOM      3  C   UNL     1      58.966  26.332  49.955  1.00  0.00     0.000 C 
BRANCH   3   4
ATOM      4  C   UNL     1      58.376  27.729  50.212  1.00  0.00    -0.000 C 
BRANCH   4   5
ATOM      5  C   UNL     1      59.095  28.835  49.420  1.00  0.00    -0.000 C 
BRANCH   5   6
ATOM      6  C   UNL     1      59.690  29.919  50.333  1.00  0.00    -0.000 C 
BRANCH   6   7
ATOM      7  C   UNL     1      60.138  29.368  51.697  1.00  0.00    -0.000 C 
BRANCH   7   8
ATOM      8  C   UNL     1      61.659  29.143  51.782  1.00  0.00    -0.000 C 
BRANCH   8   9
ATOM      9  C   UNL     1      62.104  27.670  51.748  1.00  0.00    -0.000 C 
BRANCH   9  10
ATOM     10  C   UNL     1      62.444  27.177  50.332  1.00  0.00    -0.000 C 
BRANCH  10  11
ATOM     11  C   UNL     1      62.955  28.306  49.423  1.00  0.00    -0.003 C 
ATOM     12  C   UNL     1      64.466  28.248  49.200  1.00  0.00     0.004 C 
ENDBRANCH  10  11
ENDBRANCH   9  10
ENDBRANCH   8   9
ENDBRANCH   7   8
ENDBRANCH   6   7
ENDBRANCH   5   6
ENDBRANCH   4   5
ENDBRANCH   3   4
ENDBRANCH   2   3
ENDBRANCH   1   2
BRANCH   1  13
ATOM     13  C   UNL     1      59.091  26.389  53.538  1.00  0.00     0.000 C 
BRANCH  13  14
ATOM     14  C   UNL     1      58.344  27.269  54.564  1.00  0.00     0.000 C 
BRANCH  14  15
ATOM     15  C   UNL     1      56.809  27.170  54.474  1.00  0.00     0.000 C 
BRANCH  15  16
ATOM     16  C   UNL     1      56.074  28.506  54.275  1.00  0.00     0.000 C 
BRANCH  16  17
ATOM     17  C   UNL     1      56.645  29.338  53.112  1.00  0.00     0.000 C 
BRANCH  17  18
ATOM     18  C   UNL     1      55.551  29.882  52.175  1.00  0.00     0.000 C 
BRANCH  18  19
ATOM     19  C   UNL     1      55.552  29.285  50.756  1.00  0.00     0.000 C 
BRANCH  19  20
ATOM     20  C   UNL     1      54.339  28.376  50.489  1.00  0.00     0.006 C 
BRANCH  20  21
ATOM     21  C   UNL     1      54.681  26.889  50.648  1.00  0.00     0.053 C 
BRANCH  21  22
ATOM     22  C   UNL     1      54.172  26.331  51.941  1.00  0.00     0.041 C 
ATOM     23  O   UNL     1      54.665  25.273  52.413  1.00  0.00    -0.550 OA
ATOM     24  O   UNL     1      53.175  26.998  52.641  1.00  0.00    -0.550 OA
ENDBRANCH  21  22
ENDBRANCH  20  21
ENDBRANCH  19  20
ENDBRANCH  18  19
ENDBRANCH  17  18
ENDBRANCH  16  17
ENDBRANCH  15  16
ENDBRANCH  14  15
ENDBRANCH  13  14
ENDBRANCH   1  13
TORSDOF 20
ENDMDL
MODEL 8
REMARK VINA RESULT:    -2.854      1.902      5.228
REMARK INTER + INTRA:          -9.836
REMARK INTER:                  -5.782
REMARK INTRA:                  -4.054
REMARK UNBOUND:                -3.645
REMARK SMILES CCCCCCCCCCCCCCCCCCCCCC(=O)[O-]
REMARK SMILES IDX 12 1 11 2 10 3 9 4 8 5 7 6 6 7 5 8 4 9 3 10 2 11 1 12 13 13
REMARK SMILES IDX 14 14 15 15 16 16 17 17 18 18 19 19 20 20 21 21 22 22 23 23
REMARK SMILES IDX 24 24
REMARK H PARENT
REMARK Flexibility Score: inf
ROOT
ATOM      1  C   UNL     1      53.855  26.648  50.009  1.00  0.00     0.000 C 
ENDROOT
BRANCH   1   2
ATOM      2  C   UNL     1      53.304  28.026  50.435  1.00  0.00     0.000 C 
BRANCH   2   3
ATOM      3  C   UNL     1      54.378  29.130  50.500  1.00  0.00     0.000 C 
BRANCH   3   4
ATOM      4  C   UNL     1      54.986  29.365  51.894  1.00  0.00    -0.000 C 
BRANCH   4   5
ATOM      5  C   UNL     1      56.448  28.898  51.993  1.00  0.00    -0.000 C 
BRANCH   5   6
ATOM      6  C   UNL     1      57.047  28.546  50.622  1.00  0.00    -0.000 C 
BRANCH   6   7
ATOM      7  C   UNL     1      57.499  27.079  50.529  1.00  0.00    -0.000 C 
BRANCH   7   8
ATOM      8  C   UNL     1      58.798  26.902  49.722  1.00  0.00    -0.000 C 
BRANCH   8   9
ATOM      9  C   UNL     1      59.734  28.124  49.717  1.00  0.00    -0.000 C 
BRANCH   9  10
ATOM     10  C   UNL     1      61.157  27.794  50.196  1.00  0.00    -0.000 C 
BRANCH  10  11
ATOM     11  C   UNL     1      61.396  28.210  51.656  1.00  0.00    -0.003 C 
ATOM     12  C   UNL     1      60.431  29.297  52.128  1.00  0.00     0.004 C 
ENDBRANCH  10  11
ENDBRANCH   9  10
ENDBRANCH   8   9
ENDBRANCH   7   8
ENDBRANCH   6   7
ENDBRANCH   5   6
ENDBRANCH   4   5
ENDBRANCH   3   4
ENDBRANCH   2   3
ENDBRANCH   1   2
BRANCH   1  13
ATOM     13  C   UNL     1      53.605  25.567  51.076  1.00  0.00     0.000 C 
BRANCH  13  14
ATOM     14  C   UNL     1      53.243  26.168  52.451  1.00  0.00     0.000 C 
BRANCH  14  15
ATOM     15  C   UNL     1      54.325  25.961  53.529  1.00  0.00     0.000 C 
BRANCH  15  16
ATOM     16  C   UNL     1      55.663  25.398  53.020  1.00  0.00     0.000 C 
BRANCH  16  17
ATOM     17  C   UNL     1      56.651  25.079  54.155  1.00  0.00     0.000 C 
BRANCH  17  18
ATOM     18  C   UNL     1      57.650  26.221  54.415  1.00  0.00     0.000 C 
BRANCH  18  19
ATOM     19  C   UNL     1      58.930  26.177  53.560  1.00  0.00     0.000 C 
BRANCH  19  20
ATOM     20  C   UNL     1      59.166  24.803  52.908  1.00  0.00     0.006 C 
BRANCH  20  21
ATOM     21  C   UNL     1      60.656  24.451  52.819  1.00  0.00     0.053 C 
BRANCH  21  22
ATOM     22  C   UNL     1      61.099  24.241  51.404  1.00  0.00     0.041 C 
ATOM     23  O   UNL     1      60.291  23.798  50.546  1.00  0.00    -0.550 OA
ATOM     24  O   UNL     1      62.396  24.565  51.026  1.00  0.00    -0.550 OA
ENDBRANCH  21  22
ENDBRANCH  20  21
ENDBRANCH  19  20
ENDBRANCH  18  19
ENDBRANCH  17  18
ENDBRANCH  16  17
ENDBRANCH  15  16
ENDBRANCH  14  15
ENDBRANCH  13  14
ENDBRANCH   1  13
TORSDOF 20
ENDMDL
MODEL 9
REMARK VINA RESULT:    -2.848      3.190      5.087
REMARK INTER + INTRA:          -9.822
REMARK INTER:                  -5.879
REMARK INTRA:                  -3.943
REMARK UNBOUND:                -3.645
REMARK SMILES CCCCCCCCCCCCCCCCCCCCCC(=O)[O-]
REMARK SMILES IDX 12 1 11 2 10 3 9 4 8 5 7 6 6 7 5 8 4 9 3 10 2 11 1 12 13 13
REMARK SMILES IDX 14 14 15 15 16 16 17 17 18 18 19 19 20 20 21 21 22 22 23 23
REMARK SMILES IDX 24 24
REMARK H PARENT
REMARK Flexibility Score: inf
ROOT
ATOM      1  C   UNL     1      61.308  26.966  52.888  1.00  0.00     0.000 C 
ENDROOT
BRANCH   1   2
ATOM      2  C   UNL     1      60.578  28.094  53.647  1.00  0.00     0.000 C 
BRANCH   2   3
ATOM      3  C   UNL     1      59.062  27.860  53.796  1.00  0.00     0.000 C 
BRANCH   3   4
ATOM      4  C   UNL     1      58.174  28.768  52.927  1.00  0.00    -0.000 C 
BRANCH   4   5
ATOM      5  C   UNL     1      56.901  29.231  53.656  1.00  0.00    -0.000 C 
BRANCH   5   6
ATOM      6  C   UNL     1      55.950  30.015  52.738  1.00  0.00    -0.000 C 
BRANCH   6   7
ATOM      7  C   UNL     1      56.069  29.598  51.262  1.00  0.00    -0.000 C 
BRANCH   7   8
ATOM      8  C   UNL     1      54.724  29.167  50.650  1.00  0.00    -0.000 C 
BRANCH   8   9
ATOM      9  C   UNL     1      54.466  27.649  50.645  1.00  0.00    -0.000 C 
BRANCH   9  10
ATOM     10  C   UNL     1      55.746  26.823  50.434  1.00  0.00    -0.000 C 
BRANCH  10  11
ATOM     11  C   UNL     1      56.047  25.892  51.619  1.00  0.00    -0.003 C 
ATOM     12  C   UNL     1      55.170  26.182  52.837  1.00  0.00     0.004 C 
ENDBRANCH  10  11
ENDBRANCH   9  10
ENDBRANCH   8   9
ENDBRANCH   7   8
ENDBRANCH   6   7
ENDBRANCH   5   6
ENDBRANCH   4   5
ENDBRANCH   3   4
ENDBRANCH   2   3
ENDBRANCH   1   2
BRANCH   1  13
ATOM     13  C   UNL     1      60.517  25.646  52.905  1.00  0.00     0.000 C 
BRANCH  13  14
ATOM     14  C   UNL     1      60.092  25.195  51.490  1.00  0.00     0.000 C 
BRANCH  14  15
ATOM     15  C   UNL     1      60.395  26.229  50.387  1.00  0.00     0.000 C 
BRANCH  15  16
ATOM     16  C   UNL     1      59.160  26.858  49.720  1.00  0.00     0.000 C 
BRANCH  16  17
ATOM     17  C   UNL     1      59.245  28.392  49.625  1.00  0.00     0.000 C 
BRANCH  17  18
ATOM     18  C   UNL     1      60.645  28.934  49.967  1.00  0.00     0.000 C 
BRANCH  18  19
ATOM     19  C   UNL     1      60.661  30.302  50.672  1.00  0.00     0.000 C 
BRANCH  19  20
ATOM     20  C   UNL     1      62.066  30.714  51.146  1.00  0.00     0.006 C 
BRANCH  20  21
ATOM     21  C   UNL     1      63.175  29.982  50.378  1.00  0.00     0.053 C 
BRANCH  21  22
ATOM     22  C   UNL     1      63.752  30.828  49.284  1.00  0.00     0.041 C 
ATOM     23  O   UNL     1      63.573  32.074  49.286  1.00  0.00    -0.550 OA
ATOM     24  O   UNL     1      64.513  30.242  48.281  1.00  0.00    -0.550 OA
ENDBRANCH  21  22
ENDBRANCH  20  21
ENDBRANCH  19  20
ENDBRANCH  18  19
ENDBRANCH  17  18
ENDBRANCH  16  17
ENDBRANCH  15  16
ENDBRANCH  14  15
ENDBRANCH  13  14
ENDBRANCH   1  13
TORSDOF 20
ENDMDL
