MODEL 1
REMARK VINA RESULT:    -3.218      0.000      0.000
REMARK INTER + INTRA:         -10.418
REMARK INTER:                  -6.980
REMARK INTRA:                  -3.438
REMARK UNBOUND:                -3.438
REMARK SMILES CCCCCCCCCCCCCCCCCCCCCC(=O)[O-]
REMARK SMILES IDX 12 1 11 2 10 3 9 4 8 5 7 6 6 7 5 8 4 9 3 10 2 11 1 12 13 13
REMARK SMILES IDX 14 14 15 15 16 16 17 17 18 18 19 19 20 20 21 21 22 22 23 23
REMARK SMILES IDX 24 24
REMARK H PARENT
REMARK Flexibility Score: inf
ROOT
ATOM      1  C   UNL     1       9.508   6.643  29.839  1.00  0.00     0.000 C 
ENDROOT
BRANCH   1   2
ATOM      2  C   UNL     1       8.449   7.195  30.812  1.00  0.00     0.000 C 
BRANCH   2   3
ATOM      3  C   UNL     1       8.955   8.279  31.782  1.00  0.00     0.000 C 
BRANCH   3   4
ATOM      4  C   UNL     1      10.485   8.271  31.941  1.00  0.00    -0.000 C 
BRANCH   4   5
ATOM      5  C   UNL     1      10.932   7.935  33.374  1.00  0.00    -0.000 C 
BRANCH   5   6
ATOM      6  C   UNL     1      11.576   6.546  33.550  1.00  0.00    -0.000 C 
BRANCH   6   7
ATOM      7  C   UNL     1      10.661   5.516  34.245  1.00  0.00    -0.000 C 
BRANCH   7   8
ATOM      8  C   UNL     1       9.688   4.842  33.260  1.00  0.00    -0.000 C 
BRANCH   8   9
ATOM      9  C   UNL     1      10.004   3.354  33.036  1.00  0.00    -0.000 C 
BRANCH   9  10
ATOM     10  C   UNL     1       8.858   2.607  32.333  1.00  0.00    -0.000 C 
BRANCH  10  11
ATOM     11  C   UNL     1       9.368   1.464  31.440  1.00  0.00    -0.003 C 
ATOM     12  C   UNL     1       8.679   1.427  30.076  1.00  0.00     0.004 C 
ENDBRANCH  10  11
ENDBRANCH   9  10
ENDBRANCH   8   9
ENDBRANCH   7   8
ENDBRANCH   6   7
ENDBRANCH   5   6
ENDBRANCH   4   5
ENDBRANCH   3   4
ENDBRANCH   2   3
ENDBRANCH   1   2
BRANCH   1  13
ATOM     13  C   UNL     1       9.354   5.137  29.576  1.00  0.00     0.000 C 
BRANCH  13  14
ATOM     14  C   UNL     1      10.722   4.438  29.555  1.00  0.00     0.000 C 
BRANCH  14  15
ATOM     15  C   UNL     1      11.892   5.419  29.721  1.00  0.00     0.000 C 
BRANCH  15  16
ATOM     16  C   UNL     1      12.901   4.969  30.786  1.00  0.00     0.000 C 
BRANCH  16  17
ATOM     17  C   UNL     1      13.594   3.663  30.366  1.00  0.00     0.000 C 
BRANCH  17  18
ATOM     18  C   UNL     1      14.236   3.752  28.971  1.00  0.00     0.000 C 
BRANCH  18  19
ATOM     19  C   UNL     1      15.584   4.494  28.927  1.00  0.00     0.000 C 
BRANCH  19  20
ATOM     20  C   UNL     1      15.779   5.354  27.660  1.00  0.00     0.006 C 
BRANCH  20  21
ATOM     21  C   UNL     1      14.804   6.538  27.604  1.00  0.00     0.053 C 
BRANCH  21  22
ATOM     22  C   UNL     1      14.217   6.665  26.234  1.00  0.00     0.041 C 
ATOM     23  O   UNL     1      13.702   7.751  25.863  1.00  0.00    -0.550 OA
ATOM     24  O   UNL     1      14.183   5.563  25.388  1.00  0.00    -0.550 OA
ENDBRANCH  21  22
ENDBRANCH  20  21
ENDBRANCH  19  20
ENDBRANCH  18  19
ENDBRANCH  17  18
ENDBRANCH  16  17
ENDBRANCH  15  16
ENDBRANCH  14  15
ENDBRANCH  13  14
ENDBRANCH   1  13
TORSDOF 20
ENDMDL
MODEL 2
REMARK VINA RESULT:    -3.207      1.682      4.684
REMARK INTER + INTRA:         -10.394
REMARK INTER:                  -6.424
REMARK INTRA:                  -3.970
REMARK UNBOUND:                -3.438
REMARK SMILES CCCCCCCCCCCCCCCCCCCCCC(=O)[O-]
REMARK SMILES IDX 12 1 11 2 10 3 9 4 8 5 7 6 6 7 5 8 4 9 3 10 2 11 1 12 13 13
REMARK SMILES IDX 14 14 15 15 16 16 17 17 18 18 19 19 20 20 21 21 22 22 23 23
REMARK SMILES IDX 24 24
REMARK H PARENT
REMARK Flexibility Score: inf
ROOT
ATOM      1  C   UNL     1      11.341   6.258  33.492  1.00  0.00     0.000 C 
ENDROOT
BRANCH   1   2
ATOM      2  C   UNL     1      10.258   5.770  34.472  1.00  0.00     0.000 C 
BRANCH   2   3
ATOM      3  C   UNL     1       9.878   4.283  34.340  1.00  0.00     0.000 C 
BRANCH   3   4
ATOM      4  C   UNL     1      11.016   3.426  33.758  1.00  0.00    -0.000 C 
BRANCH   4   5
ATOM      5  C   UNL     1      10.523   2.072  33.219  1.00  0.00    -0.000 C 
BRANCH   5   6
ATOM      6  C   UNL     1       9.025   2.014  32.863  1.00  0.00    -0.000 C 
BRANCH   6   7
ATOM      7  C   UNL     1       8.656   0.871  31.894  1.00  0.00    -0.000 C 
BRANCH   7   8
ATOM      8  C   UNL     1       8.561   1.352  30.435  1.00  0.00    -0.000 C 
BRANCH   8   9
ATOM      9  C   UNL     1       9.794   0.969  29.601  1.00  0.00    -0.000 C 
BRANCH   9  10
ATOM     10  C   UNL     1      10.578  -0.206  30.211  1.00  0.00    -0.000 C 
BRANCH  10  11
ATOM     11  C   UNL     1      12.086   0.083  30.302  1.00  0.00    -0.003 C 
ATOM     12  C   UNL     1      12.425   1.548  30.027  1.00  0.00     0.004 C 
ENDBRANCH  10  11
ENDBRANCH   9  10
ENDBRANCH   8   9
ENDBRANCH   7   8
ENDBRANCH   6   7
ENDBRANCH   5   6
ENDBRANCH   4   5
ENDBRANCH   3   4
ENDBRANCH   2   3
ENDBRANCH   1   2
BRANCH   1  13
ATOM     13  C   UNL     1      11.280   7.772  33.236  1.00  0.00     0.000 C 
BRANCH  13  14
ATOM     14  C   UNL     1       9.840   8.226  32.955  1.00  0.00     0.000 C 
BRANCH  14  15
ATOM     15  C   UNL     1       9.506   8.250  31.456  1.00  0.00     0.000 C 
BRANCH  15  16
ATOM     16  C   UNL     1       8.193   7.526  31.125  1.00  0.00     0.000 C 
BRANCH  16  17
ATOM     17  C   UNL     1       8.438   6.370  30.144  1.00  0.00     0.000 C 
BRANCH  17  18
ATOM     18  C   UNL     1       8.914   5.085  30.844  1.00  0.00     0.000 C 
BRANCH  18  19
ATOM     19  C   UNL     1      10.274   4.551  30.358  1.00  0.00     0.000 C 
BRANCH  19  20
ATOM     20  C   UNL     1      11.143   5.615  29.652  1.00  0.00     0.006 C 
BRANCH  20  21
ATOM     21  C   UNL     1      12.012   5.013  28.540  1.00  0.00     0.053 C 
BRANCH  21  22
ATOM     22  C   UNL     1      13.442   5.409  28.725  1.00  0.00     0.041 C 
ATOM     23  O   UNL     1      14.111   4.940  29.683  1.00  0.00    -0.550 OA
ATOM     24  O   UNL     1      14.021   6.343  27.874  1.00  0.00    -0.550 OA
ENDBRANCH  21  22
ENDBRANCH  20  21
ENDBRANCH  19  20
ENDBRANCH  18  19
ENDBRANCH  17  18
ENDBRANCH  16  17
ENDBRANCH  15  16
ENDBRANCH  14  15
ENDBRANCH  13  14
ENDBRANCH   1  13
TORSDOF 20
ENDMDL
MODEL 3
REMARK VINA RESULT:    -3.203      2.418      5.571
REMARK INTER + INTRA:         -10.385
REMARK INTER:                  -6.528
REMARK INTRA:                  -3.857
REMARK UNBOUND:                -3.438
REMARK SMILES CCCCCCCCCCCCCCCCCCCCCC(=O)[O-]
REMARK SMILES IDX 12 1 11 2 10 3 9 4 8 5 7 6 6 7 5 8 4 9 3 10 2 11 1 12 13 13
REMARK SMILES IDX 14 14 15 15 16 16 17 17 18 18 19 19 20 20 21 21 22 22 23 23
REMARK SMILES IDX 24 24
REMARK H PARENT
REMARK Flexibility Score: inf
ROOT
ATOM      1  C   UNL     1      11.205   8.083  33.192  1.00  0.00     0.000 C 
ENDROOT
BRANCH   1   2
ATOM      2  C   UNL     1       9.723   8.239  32.806  1.00  0.00     0.000 C 
BRANCH   2   3
ATOM      3  C   UNL     1       9.427   8.147  31.298  1.00  0.00     0.000 C 
BRANCH   3   4
ATOM      4  C   UNL     1       8.111   7.412  30.991  1.00  0.00    -0.000 C 
BRANCH   4   5
ATOM      5  C   UNL     1       8.227   5.888  31.171  1.00  0.00    -0.000 C 
BRANCH   5   6
ATOM      6  C   UNL     1       8.866   5.135  29.987  1.00  0.00    -0.000 C 
BRANCH   6   7
ATOM      7  C   UNL     1      10.322   4.693  30.240  1.00  0.00    -0.000 C 
BRANCH   7   8
ATOM      8  C   UNL     1      11.336   5.564  29.476  1.00  0.00    -0.000 C 
BRANCH   8   9
ATOM      9  C   UNL     1      12.792   5.129  29.715  1.00  0.00    -0.000 C 
BRANCH   9  10
ATOM     10  C   UNL     1      12.937   4.194  30.928  1.00  0.00    -0.000 C 
BRANCH  10  11
ATOM     11  C   UNL     1      14.205   4.491  31.746  1.00  0.00    -0.003 C 
ATOM     12  C   UNL     1      14.143   3.919  33.162  1.00  0.00     0.004 C 
ENDBRANCH  10  11
ENDBRANCH   9  10
ENDBRANCH   8   9
ENDBRANCH   7   8
ENDBRANCH   6   7
ENDBRANCH   5   6
ENDBRANCH   4   5
ENDBRANCH   3   4
ENDBRANCH   2   3
ENDBRANCH   1   2
BRANCH   1  13
ATOM     13  C   UNL     1      11.632   6.616  33.354  1.00  0.00     0.000 C 
BRANCH  13  14
ATOM     14  C   UNL     1      10.628   5.843  34.222  1.00  0.00     0.000 C 
BRANCH  14  15
ATOM     15  C   UNL     1      10.391   4.410  33.720  1.00  0.00     0.000 C 
BRANCH  15  16
ATOM     16  C   UNL     1       9.127   3.772  34.316  1.00  0.00     0.000 C 
BRANCH  16  17
ATOM     17  C   UNL     1       8.929   2.347  33.778  1.00  0.00     0.000 C 
BRANCH  17  18
ATOM     18  C   UNL     1       8.313   2.322  32.369  1.00  0.00     0.000 C 
BRANCH  18  19
ATOM     19  C   UNL     1       8.654   1.072  31.537  1.00  0.00     0.000 C 
BRANCH  19  20
ATOM     20  C   UNL     1       8.965   1.378  30.056  1.00  0.00     0.006 C 
BRANCH  20  21
ATOM     21  C   UNL     1      10.002   0.412  29.467  1.00  0.00     0.053 C 
BRANCH  21  22
ATOM     22  C   UNL     1      11.337   1.079  29.367  1.00  0.00     0.041 C 
ATOM     23  O   UNL     1      11.556   1.930  28.466  1.00  0.00    -0.550 OA
ATOM     24  O   UNL     1      12.362   0.715  30.233  1.00  0.00    -0.550 OA
ENDBRANCH  21  22
ENDBRANCH  20  21
ENDBRANCH  19  20
ENDBRANCH  18  19
ENDBRANCH  17  18
ENDBRANCH  16  17
ENDBRANCH  15  16
ENDBRANCH  14  15
ENDBRANCH  13  14
ENDBRANCH   1  13
TORSDOF 20
ENDMDL
MODEL 4
REMARK VINA RESULT:    -3.200      3.196      5.910
REMARK INTER + INTRA:         -10.380
REMARK INTER:                  -6.597
REMARK INTRA:                  -3.783
REMARK UNBOUND:                -3.438
REMARK SMILES CCCCCCCCCCCCCCCCCCCCCC(=O)[O-]
REMARK SMILES IDX 12 1 11 2 10 3 9 4 8 5 7 6 6 7 5 8 4 9 3 10 2 11 1 12 13 13
REMARK SMILES IDX 14 14 15 15 16 16 17 17 18 18 19 19 20 20 21 21 22 22 23 23
REMARK SMILES IDX 24 24
REMARK H PARENT
REMARK Flexibility Score: inf
ROOT
ATOM      1  C   UNL     1      11.784   6.244  32.765  1.00  0.00     0.000 C 
ENDROOT
BRANCH   1   2
ATOM      2  C   UNL     1      11.310   7.326  33.752  1.00  0.00     0.000 C 
BRANCH   2   3
ATOM      3  C   UNL     1      10.139   8.195  33.257  1.00  0.00     0.000 C 
BRANCH   3   4
ATOM      4  C   UNL     1       9.944   8.123  31.733  1.00  0.00    -0.000 C 
BRANCH   4   5
ATOM      5  C   UNL     1       8.466   8.221  31.317  1.00  0.00    -0.000 C 
BRANCH   5   6
ATOM      6  C   UNL     1       7.875   6.942  30.691  1.00  0.00    -0.000 C 
BRANCH   6   7
ATOM      7  C   UNL     1       8.158   5.661  31.503  1.00  0.00    -0.000 C 
BRANCH   7   8
ATOM      8  C   UNL     1       9.004   4.646  30.715  1.00  0.00    -0.000 C 
BRANCH   8   9
ATOM      9  C   UNL     1       9.513   5.208  29.377  1.00  0.00    -0.000 C 
BRANCH   9  10
ATOM     10  C   UNL     1      11.045   5.347  29.339  1.00  0.00    -0.000 C 
BRANCH  10  11
ATOM     11  C   UNL     1      11.759   4.043  29.734  1.00  0.00    -0.003 C 
ATOM     12  C   UNL     1      12.070   3.152  28.531  1.00  0.00     0.004 C 
ENDBRANCH  10  11
ENDBRANCH   9  10
ENDBRANCH   8   9
ENDBRANCH   7   8
ENDBRANCH   6   7
ENDBRANCH   5   6
ENDBRANCH   4   5
ENDBRANCH   3   4
ENDBRANCH   2   3
ENDBRANCH   1   2
BRANCH   1  13
ATOM     13  C   UNL     1      11.550   4.816  33.283  1.00  0.00     0.000 C 
BRANCH  13  14
ATOM     14  C   UNL     1      11.757   4.741  34.804  1.00  0.00     0.000 C 
BRANCH  14  15
ATOM     15  C   UNL     1      10.620   3.999  35.522  1.00  0.00     0.000 C 
BRANCH  15  16
ATOM     16  C   UNL     1       9.238   4.602  35.231  1.00  0.00     0.000 C 
BRANCH  16  17
ATOM     17  C   UNL     1       8.299   3.548  34.623  1.00  0.00     0.000 C 
BRANCH  17  18
ATOM     18  C   UNL     1       8.782   2.109  34.866  1.00  0.00     0.000 C 
BRANCH  18  19
ATOM     19  C   UNL     1       8.557   1.145  33.686  1.00  0.00     0.000 C 
BRANCH  19  20
ATOM     20  C   UNL     1       9.110   1.668  32.342  1.00  0.00     0.006 C 
BRANCH  20  21
ATOM     21  C   UNL     1       9.907   0.599  31.584  1.00  0.00     0.053 C 
BRANCH  21  22
ATOM     22  C   UNL     1       9.664   0.714  30.112  1.00  0.00     0.041 C 
ATOM     23  O   UNL     1       8.708   1.409  29.680  1.00  0.00    -0.550 OA
ATOM     24  O   UNL     1      10.458   0.004  29.220  1.00  0.00    -0.550 OA
ENDBRANCH  21  22
ENDBRANCH  20  21
ENDBRANCH  19  20
ENDBRANCH  18  19
ENDBRANCH  17  18
ENDBRANCH  16  17
ENDBRANCH  15  16
ENDBRANCH  14  15
ENDBRANCH  13  14
ENDBRANCH   1  13
TORSDOF 20
ENDMDL
MODEL 5
REMARK VINA RESULT:    -3.157      1.135      2.350
REMARK INTER + INTRA:         -10.285
REMARK INTER:                  -6.860
REMARK INTRA:                  -3.425
REMARK UNBOUND:                -3.438
REMARK SMILES CCCCCCCCCCCCCCCCCCCCCC(=O)[O-]
REMARK SMILES IDX 12 1 11 2 10 3 9 4 8 5 7 6 6 7 5 8 4 9 3 10 2 11 1 12 13 13
REMARK SMILES IDX 14 14 15 15 16 16 17 17 18 18 19 19 20 20 21 21 22 22 23 23
REMARK SMILES IDX 24 24
REMARK H PARENT
REMARK Flexibility Score: inf
ROOT
ATOM      1  C   UNL     1      10.572   5.176  29.039  1.00  0.00     0.000 C 
ENDROOT
BRANCH   1   2
ATOM      2  C   UNL     1       9.250   5.424  29.787  1.00  0.00     0.000 C 
BRANCH   2   3
ATOM      3  C   UNL     1       8.381   6.563  29.221  1.00  0.00     0.000 C 
BRANCH   3   4
ATOM      4  C   UNL     1       8.544   7.880  29.998  1.00  0.00    -0.000 C 
BRANCH   4   5
ATOM      5  C   UNL     1       8.853   7.657  31.488  1.00  0.00    -0.000 C 
BRANCH   5   6
ATOM      6  C   UNL     1      10.185   8.257  31.978  1.00  0.00    -0.000 C 
BRANCH   6   7
ATOM      7  C   UNL     1      10.566   7.844  33.416  1.00  0.00    -0.000 C 
BRANCH   7   8
ATOM      8  C   UNL     1      11.388   6.544  33.450  1.00  0.00    -0.000 C 
BRANCH   8   9
ATOM      9  C   UNL     1      10.564   5.330  33.908  1.00  0.00    -0.000 C 
BRANCH   9  10
ATOM     10  C   UNL     1      10.783   4.096  33.016  1.00  0.00    -0.000 C 
BRANCH  10  11
ATOM     11  C   UNL     1       9.473   3.340  32.734  1.00  0.00    -0.003 C 
ATOM     12  C   UNL     1       8.231   4.159  33.083  1.00  0.00     0.004 C 
ENDBRANCH  10  11
ENDBRANCH   9  10
ENDBRANCH   8   9
ENDBRANCH   7   8
ENDBRANCH   6   7
ENDBRANCH   5   6
ENDBRANCH   4   5
ENDBRANCH   3   4
ENDBRANCH   2   3
ENDBRANCH   1   2
BRANCH   1  13
ATOM     13  C   UNL     1      11.739   6.011  29.590  1.00  0.00     0.000 C 
BRANCH  13  14
ATOM     14  C   UNL     1      12.818   5.109  30.209  1.00  0.00     0.000 C 
BRANCH  14  15
ATOM     15  C   UNL     1      12.894   3.729  29.539  1.00  0.00     0.000 C 
BRANCH  15  16
ATOM     16  C   UNL     1      14.153   2.944  29.933  1.00  0.00     0.000 C 
BRANCH  16  17
ATOM     17  C   UNL     1      15.258   3.119  28.879  1.00  0.00     0.000 C 
BRANCH  17  18
ATOM     18  C   UNL     1      16.288   4.192  29.268  1.00  0.00     0.000 C 
BRANCH  18  19
ATOM     19  C   UNL     1      16.138   5.532  28.524  1.00  0.00     0.000 C 
BRANCH  19  20
ATOM     20  C   UNL     1      15.378   5.417  27.185  1.00  0.00     0.006 C 
BRANCH  20  21
ATOM     21  C   UNL     1      14.352   6.542  26.999  1.00  0.00     0.053 C 
BRANCH  21  22
ATOM     22  C   UNL     1      13.853   6.565  25.589  1.00  0.00     0.041 C 
ATOM     23  O   UNL     1      13.431   5.509  25.049  1.00  0.00    -0.550 OA
ATOM     24  O   UNL     1      13.913   7.740  24.850  1.00  0.00    -0.550 OA
ENDBRANCH  21  22
ENDBRANCH  20  21
ENDBRANCH  19  20
ENDBRANCH  18  19
ENDBRANCH  17  18
ENDBRANCH  16  17
ENDBRANCH  15  16
ENDBRANCH  14  15
ENDBRANCH  13  14
ENDBRANCH   1  13
TORSDOF 20
ENDMDL
MODEL 6
REMARK VINA RESULT:    -3.127      1.640      4.520
REMARK INTER + INTRA:         -10.221
REMARK INTER:                  -6.466
REMARK INTRA:                  -3.755
REMARK UNBOUND:                -3.438
REMARK SMILES CCCCCCCCCCCCCCCCCCCCCC(=O)[O-]
REMARK SMILES IDX 12 1 11 2 10 3 9 4 8 5 7 6 6 7 5 8 4 9 3 10 2 11 1 12 13 13
REMARK SMILES IDX 14 14 15 15 16 16 17 17 18 18 19 19 20 20 21 21 22 22 23 23
REMARK SMILES IDX 24 24
REMARK H PARENT
REMARK Flexibility Score: inf
ROOT
ATOM      1  C   UNL     1      12.482   4.176  34.202  1.00  0.00     0.000 C 
ENDROOT
BRANCH   1   2
ATOM      2  C   UNL     1      10.959   4.194  33.977  1.00  0.00     0.000 C 
BRANCH   2   3
ATOM      3  C   UNL     1      10.309   2.809  33.796  1.00  0.00     0.000 C 
BRANCH   3   4
ATOM      4  C   UNL     1       9.613   2.651  32.433  1.00  0.00    -0.000 C 
BRANCH   4   5
ATOM      5  C   UNL     1       9.023   3.972  31.910  1.00  0.00    -0.000 C 
BRANCH   5   6
ATOM      6  C   UNL     1       9.070   4.150  30.380  1.00  0.00    -0.000 C 
BRANCH   6   7
ATOM      7  C   UNL     1       8.419   5.458  29.883  1.00  0.00    -0.000 C 
BRANCH   7   8
ATOM      8  C   UNL     1       9.465   6.493  29.428  1.00  0.00    -0.000 C 
BRANCH   8   9
ATOM      9  C   UNL     1       9.242   7.879  30.055  1.00  0.00    -0.000 C 
BRANCH   9  10
ATOM     10  C   UNL     1       9.123   7.821  31.588  1.00  0.00    -0.000 C 
BRANCH  10  11
ATOM     11  C   UNL     1      10.398   8.316  32.292  1.00  0.00    -0.003 C 
ATOM     12  C   UNL     1      10.485   7.858  33.748  1.00  0.00     0.004 C 
ENDBRANCH  10  11
ENDBRANCH   9  10
ENDBRANCH   8   9
ENDBRANCH   7   8
ENDBRANCH   6   7
ENDBRANCH   5   6
ENDBRANCH   4   5
ENDBRANCH   3   4
ENDBRANCH   2   3
ENDBRANCH   1   2
BRANCH   1  13
ATOM     13  C   UNL     1      13.248   5.034  33.184  1.00  0.00     0.000 C 
BRANCH  13  14
ATOM     14  C   UNL     1      12.378   5.341  31.956  1.00  0.00     0.000 C 
BRANCH  14  15
ATOM     15  C   UNL     1      13.048   4.932  30.635  1.00  0.00     0.000 C 
BRANCH  15  16
ATOM     16  C   UNL     1      12.695   3.500  30.207  1.00  0.00     0.000 C 
BRANCH  16  17
ATOM     17  C   UNL     1      12.454   3.427  28.691  1.00  0.00     0.000 C 
BRANCH  17  18
ATOM     18  C   UNL     1      12.404   4.814  28.029  1.00  0.00     0.000 C 
BRANCH  18  19
ATOM     19  C   UNL     1      13.254   4.950  26.752  1.00  0.00     0.000 C 
BRANCH  19  20
ATOM     20  C   UNL     1      14.182   6.185  26.753  1.00  0.00     0.006 C 
BRANCH  20  21
ATOM     21  C   UNL     1      15.144   6.190  27.948  1.00  0.00     0.053 C 
BRANCH  21  22
ATOM     22  C   UNL     1      16.051   5.001  27.892  1.00  0.00     0.041 C 
ATOM     23  O   UNL     1      16.827   4.841  26.915  1.00  0.00    -0.550 OA
ATOM     24  O   UNL     1      15.994   4.036  28.891  1.00  0.00    -0.550 OA
ENDBRANCH  21  22
ENDBRANCH  20  21
ENDBRANCH  19  20
ENDBRANCH  18  19
ENDBRANCH  17  18
ENDBRANCH  16  17
ENDBRANCH  15  16
ENDBRANCH  14  15
ENDBRANCH  13  14
ENDBRANCH   1  13
TORSDOF 20
ENDMDL
MODEL 7
REMARK VINA RESULT:    -3.122      1.603      2.401
REMARK INTER + INTRA:         -10.211
REMARK INTER:                  -6.455
REMARK INTRA:                  -3.756
REMARK UNBOUND:                -3.438
REMARK SMILES CCCCCCCCCCCCCCCCCCCCCC(=O)[O-]
REMARK SMILES IDX 12 1 11 2 10 3 9 4 8 5 7 6 6 7 5 8 4 9 3 10 2 11 1 12 13 13
REMARK SMILES IDX 14 14 15 15 16 16 17 17 18 18 19 19 20 20 21 21 22 22 23 23
REMARK SMILES IDX 24 24
REMARK H PARENT
REMARK Flexibility Score: inf
ROOT
ATOM      1  C   UNL     1       9.749   7.613  29.826  1.00  0.00     0.000 C 
ENDROOT
BRANCH   1   2
ATOM      2  C   UNL     1      10.576   7.905  31.091  1.00  0.00     0.000 C 
BRANCH   2   3
ATOM      3  C   UNL     1       9.752   8.244  32.347  1.00  0.00     0.000 C 
BRANCH   3   4
ATOM      4  C   UNL     1      10.426   7.775  33.648  1.00  0.00    -0.000 C 
BRANCH   4   5
ATOM      5  C   UNL     1      11.649   6.877  33.393  1.00  0.00    -0.000 C 
BRANCH   5   6
ATOM      6  C   UNL     1      11.624   5.515  34.114  1.00  0.00    -0.000 C 
BRANCH   6   7
ATOM      7  C   UNL     1      10.204   4.960  34.353  1.00  0.00    -0.000 C 
BRANCH   7   8
ATOM      8  C   UNL     1      10.217   3.469  34.733  1.00  0.00    -0.000 C 
BRANCH   8   9
ATOM      9  C   UNL     1       9.362   2.607  33.791  1.00  0.00    -0.000 C 
BRANCH   9  10
ATOM     10  C   UNL     1      10.083   1.321  33.350  1.00  0.00    -0.000 C 
BRANCH  10  11
ATOM     11  C   UNL     1       9.175   0.398  32.521  1.00  0.00    -0.003 C 
ATOM     12  C   UNL     1       8.000   1.140  31.884  1.00  0.00     0.004 C 
ENDBRANCH  10  11
ENDBRANCH   9  10
ENDBRANCH   8   9
ENDBRANCH   7   8
ENDBRANCH   6   7
ENDBRANCH   5   6
ENDBRANCH   4   5
ENDBRANCH   3   4
ENDBRANCH   2   3
ENDBRANCH   1   2
BRANCH   1  13
ATOM     13  C   UNL     1       8.378   6.993  30.135  1.00  0.00     0.000 C 
BRANCH  13  14
ATOM     14  C   UNL     1       8.346   5.505  29.752  1.00  0.00     0.000 C 
BRANCH  14  15
ATOM     15  C   UNL     1       9.056   4.612  30.781  1.00  0.00     0.000 C 
BRANCH  15  16
ATOM     16  C   UNL     1      10.167   3.753  30.159  1.00  0.00     0.000 C 
BRANCH  16  17
ATOM     17  C   UNL     1      11.466   3.870  30.970  1.00  0.00     0.000 C 
BRANCH  17  18
ATOM     18  C   UNL     1      12.528   4.735  30.272  1.00  0.00     0.000 C 
BRANCH  18  19
ATOM     19  C   UNL     1      12.249   5.027  28.786  1.00  0.00     0.000 C 
BRANCH  19  20
ATOM     20  C   UNL     1      13.227   6.042  28.157  1.00  0.00     0.006 C 
BRANCH  20  21
ATOM     21  C   UNL     1      14.204   5.379  27.177  1.00  0.00     0.053 C 
BRANCH  21  22
ATOM     22  C   UNL     1      15.434   4.922  27.896  1.00  0.00     0.041 C 
ATOM     23  O   UNL     1      15.955   3.811  27.616  1.00  0.00    -0.550 OA
ATOM     24  O   UNL     1      15.969   5.696  28.919  1.00  0.00    -0.550 OA
ENDBRANCH  21  22
ENDBRANCH  20  21
ENDBRANCH  19  20
ENDBRANCH  18  19
ENDBRANCH  17  18
ENDBRANCH  16  17
ENDBRANCH  15  16
ENDBRANCH  14  15
ENDBRANCH  13  14
ENDBRANCH   1  13
TORSDOF 20
ENDMDL
MODEL 8
REMARK VINA RESULT:    -3.121      2.129      4.127
REMARK INTER + INTRA:         -10.209
REMARK INTER:                  -6.285
REMARK INTRA:                  -3.923
REMARK UNBOUND:                -3.438
REMARK SMILES CCCCCCCCCCCCCCCCCCCCCC(=O)[O-]
REMARK SMILES IDX 12 1 11 2 10 3 9 4 8 5 7 6 6 7 5 8 4 9 3 10 2 11 1 12 13 13
REMARK SMILES IDX 14 14 15 15 16 16 17 17 18 18 19 19 20 20 21 21 22 22 23 23
REMARK SMILES IDX 24 24
REMARK H PARENT
REMARK Flexibility Score: inf
ROOT
ATOM      1  C   UNL     1       9.167   8.364  32.045  1.00  0.00     0.000 C 
ENDROOT
BRANCH   1   2
ATOM      2  C   UNL     1       8.477   7.705  30.836  1.00  0.00     0.000 C 
BRANCH   2   3
ATOM      3  C   UNL     1       8.877   6.241  30.573  1.00  0.00     0.000 C 
BRANCH   3   4
ATOM      4  C   UNL     1       8.244   5.260  31.575  1.00  0.00    -0.000 C 
BRANCH   4   5
ATOM      5  C   UNL     1       8.974   3.907  31.622  1.00  0.00    -0.000 C 
BRANCH   5   6
ATOM      6  C   UNL     1       9.308   3.294  30.248  1.00  0.00    -0.000 C 
BRANCH   6   7
ATOM      7  C   UNL     1       8.896   1.814  30.107  1.00  0.00    -0.000 C 
BRANCH   7   8
ATOM      8  C   UNL     1       8.584   1.164  31.466  1.00  0.00    -0.000 C 
BRANCH   8   9
ATOM      9  C   UNL     1       9.762   0.346  32.019  1.00  0.00    -0.000 C 
BRANCH   9  10
ATOM     10  C   UNL     1      10.344   0.948  33.310  1.00  0.00    -0.000 C 
BRANCH  10  11
ATOM     11  C   UNL     1      11.679   1.672  33.067  1.00  0.00    -0.003 C 
ATOM     12  C   UNL     1      12.270   1.374  31.689  1.00  0.00     0.004 C 
ENDBRANCH  10  11
ENDBRANCH   9  10
ENDBRANCH   8   9
ENDBRANCH   7   8
ENDBRANCH   6   7
ENDBRANCH   5   6
ENDBRANCH   4   5
ENDBRANCH   3   4
ENDBRANCH   2   3
ENDBRANCH   1   2
BRANCH   1  13
ATOM     13  C   UNL     1      10.698   8.245  32.000  1.00  0.00     0.000 C 
BRANCH  13  14
ATOM     14  C   UNL     1      11.264   7.880  33.381  1.00  0.00     0.000 C 
BRANCH  14  15
ATOM     15  C   UNL     1      10.515   6.711  34.038  1.00  0.00     0.000 C 
BRANCH  15  16
ATOM     16  C   UNL     1      11.321   5.403  34.024  1.00  0.00     0.000 C 
BRANCH  16  17
ATOM     17  C   UNL     1      12.804   5.679  33.729  1.00  0.00     0.000 C 
BRANCH  17  18
ATOM     18  C   UNL     1      13.309   4.942  32.477  1.00  0.00     0.000 C 
BRANCH  18  19
ATOM     19  C   UNL     1      12.420   5.104  31.230  1.00  0.00     0.000 C 
BRANCH  19  20
ATOM     20  C   UNL     1      13.077   4.594  29.929  1.00  0.00     0.006 C 
BRANCH  20  21
ATOM     21  C   UNL     1      14.606   4.718  29.960  1.00  0.00     0.053 C 
BRANCH  21  22
ATOM     22  C   UNL     1      15.242   3.405  29.631  1.00  0.00     0.041 C 
ATOM     23  O   UNL     1      15.442   2.553  30.535  1.00  0.00    -0.550 OA
ATOM     24  O   UNL     1      15.669   3.145  28.334  1.00  0.00    -0.550 OA
ENDBRANCH  21  22
ENDBRANCH  20  21
ENDBRANCH  19  20
ENDBRANCH  18  19
ENDBRANCH  17  18
ENDBRANCH  16  17
ENDBRANCH  15  16
ENDBRANCH  14  15
ENDBRANCH  13  14
ENDBRANCH   1  13
TORSDOF 20
ENDMDL
MODEL 9
REMARK VINA RESULT:    -2.893      1.213      3.304
REMARK INTER + INTRA:          -9.714
REMARK INTER:                  -5.705
REMARK INTRA:                  -4.009
REMARK UNBOUND:                -3.438
REMARK SMILES CCCCCCCCCCCCCCCCCCCCCC(=O)[O-]
REMARK SMILES IDX 12 1 11 2 10 3 9 4 8 5 7 6 6 7 5 8 4 9 3 10 2 11 1 12 13 13
REMARK SMILES IDX 14 14 15 15 16 16 17 17 18 18 19 19 20 20 21 21 22 22 23 23
REMARK SMILES IDX 24 24
REMARK H PARENT
REMARK Flexibility Score: inf
ROOT
ATOM      1  C   UNL     1      10.549   7.855  32.190  1.00  0.00     0.000 C 
ENDROOT
BRANCH   1   2
ATOM      2  C   UNL     1      10.683   7.029  33.483  1.00  0.00     0.000 C 
BRANCH   2   3
ATOM      3  C   UNL     1      11.645   5.830  33.397  1.00  0.00     0.000 C 
BRANCH   3   4
ATOM      4  C   UNL     1      10.912   4.485  33.257  1.00  0.00    -0.000 C 
BRANCH   4   5
ATOM      5  C   UNL     1       9.438   4.564  33.691  1.00  0.00    -0.000 C 
BRANCH   5   6
ATOM      6  C   UNL     1       8.452   3.775  32.807  1.00  0.00    -0.000 C 
BRANCH   6   7
ATOM      7  C   UNL     1       7.875   2.515  33.485  1.00  0.00    -0.000 C 
BRANCH   7   8
ATOM      8  C   UNL     1       8.198   1.231  32.701  1.00  0.00    -0.000 C 
BRANCH   8   9
ATOM      9  C   UNL     1       8.541   1.505  31.227  1.00  0.00    -0.000 C 
BRANCH   9  10
ATOM     10  C   UNL     1       9.876   0.867  30.804  1.00  0.00    -0.000 C 
BRANCH  10  11
ATOM     11  C   UNL     1      10.968   1.032  31.874  1.00  0.00    -0.003 C 
ATOM     12  C   UNL     1      12.287   1.546  31.298  1.00  0.00     0.004 C 
ENDBRANCH  10  11
ENDBRANCH   9  10
ENDBRANCH   8   9
ENDBRANCH   7   8
ENDBRANCH   6   7
ENDBRANCH   5   6
ENDBRANCH   4   5
ENDBRANCH   3   4
ENDBRANCH   2   3
ENDBRANCH   1   2
BRANCH   1  13
ATOM     13  C   UNL     1       9.098   8.252  31.879  1.00  0.00     0.000 C 
BRANCH  13  14
ATOM     14  C   UNL     1       8.392   7.162  31.059  1.00  0.00     0.000 C 
BRANCH  14  15
ATOM     15  C   UNL     1       9.256   6.634  29.904  1.00  0.00     0.000 C 
BRANCH  15  16
ATOM     16  C   UNL     1       9.047   5.136  29.638  1.00  0.00     0.000 C 
BRANCH  16  17
ATOM     17  C   UNL     1      10.392   4.394  29.602  1.00  0.00     0.000 C 
BRANCH  17  18
ATOM     18  C   UNL     1      11.579   5.328  29.317  1.00  0.00     0.000 C 
BRANCH  18  19
ATOM     19  C   UNL     1      12.863   4.998  30.101  1.00  0.00     0.000 C 
BRANCH  19  20
ATOM     20  C   UNL     1      13.950   4.305  29.250  1.00  0.00     0.006 C 
BRANCH  20  21
ATOM     21  C   UNL     1      15.238   5.134  29.161  1.00  0.00     0.053 C 
BRANCH  21  22
ATOM     22  C   UNL     1      15.425   5.659  27.773  1.00  0.00     0.041 C 
ATOM     23  O   UNL     1      14.968   6.788  27.456  1.00  0.00    -0.550 OA
ATOM     24  O   UNL     1      16.051   4.875  26.812  1.00  0.00    -0.550 OA
ENDBRANCH  21  22
ENDBRANCH  20  21
ENDBRANCH  19  20
ENDBRANCH  18  19
ENDBRANCH  17  18
ENDBRANCH  16  17
ENDBRANCH  15  16
ENDBRANCH  14  15
ENDBRANCH  13  14
ENDBRANCH   1  13
TORSDOF 20
ENDMDL
