MODEL 1
REMARK VINA RESULT:    -3.721      0.000      0.000
REMARK INTER + INTRA:          -6.668
REMARK INTER:                  -5.897
REMARK INTRA:                  -0.771
REMARK UNBOUND:                -0.771
REMARK SMILES CCCCCCCCCCCC(=O)[O-]
REMARK SMILES IDX 7 1 8 2 9 3 10 4 11 5 12 6 13 7 14 8 6 9 5 10 4 11 3 12 2 13
REMARK SMILES IDX 1 14
REMARK H PARENT
REMARK Flexibility Score: inf
ROOT
ATOM      1  C   UNL     1      58.696   1.850  96.026  1.00  0.00     0.000 C 
ENDROOT
BRANCH   1   2
ATOM      2  C   UNL     1      57.605   2.834  96.472  1.00  0.00     0.000 C 
BRANCH   2   3
ATOM      3  C   UNL     1      57.773   4.228  95.847  1.00  0.00     0.000 C 
BRANCH   3   4
ATOM      4  C   UNL     1      58.411   5.239  96.817  1.00  0.00     0.006 C 
BRANCH   4   5
ATOM      5  C   UNL     1      59.914   5.413  96.565  1.00  0.00     0.053 C 
BRANCH   5   6
ATOM      6  C   UNL     1      60.230   6.774  96.022  1.00  0.00     0.041 C 
ATOM      7  O   UNL     1      60.703   6.900  94.862  1.00  0.00    -0.550 OA
ATOM      8  O   UNL     1      60.035   7.899  96.813  1.00  0.00    -0.550 OA
ENDBRANCH   5   6
ENDBRANCH   4   5
ENDBRANCH   3   4
ENDBRANCH   2   3
ENDBRANCH   1   2
BRANCH   1   9
ATOM      9  C   UNL     1      59.749   1.661  97.125  1.00  0.00     0.000 C 
BRANCH   9  10
ATOM     10  C   UNL     1      60.720   0.529  96.770  1.00  0.00    -0.000 C 
BRANCH  10  11
ATOM     11  C   UNL     1      60.042  -0.522  95.884  1.00  0.00    -0.000 C 
BRANCH  11  12
ATOM     12  C   UNL     1      61.027  -1.090  94.852  1.00  0.00    -0.000 C 
BRANCH  12  13
ATOM     13  C   UNL     1      60.364  -1.376  93.496  1.00  0.00    -0.003 C 
ATOM     14  C   UNL     1      59.540  -0.195  92.982  1.00  0.00     0.004 C 
ENDBRANCH  12  13
ENDBRANCH  11  12
ENDBRANCH  10  11
ENDBRANCH   9  10
ENDBRANCH   1   9
TORSDOF 10
ENDMDL
MODEL 2
REMARK VINA RESULT:    -3.708      4.256      6.143
REMARK INTER + INTRA:          -6.647
REMARK INTER:                  -5.003
REMARK INTRA:                  -1.644
REMARK UNBOUND:                -0.771
REMARK SMILES CCCCCCCCCCCC(=O)[O-]
REMARK SMILES IDX 7 1 8 2 9 3 10 4 11 5 12 6 13 7 14 8 6 9 5 10 4 11 3 12 2 13
REMARK SMILES IDX 1 14
REMARK H PARENT
REMARK Flexibility Score: inf
ROOT
ATOM      1  C   UNL     1      60.839  -0.600  96.381  1.00  0.00     0.000 C 
ENDROOT
BRANCH   1   2
ATOM      2  C   UNL     1      60.964  -0.618  94.850  1.00  0.00     0.000 C 
BRANCH   2   3
ATOM      3  C   UNL     1      60.488  -1.942  94.233  1.00  0.00     0.000 C 
BRANCH   3   4
ATOM      4  C   UNL     1      60.158  -1.811  92.735  1.00  0.00     0.006 C 
BRANCH   4   5
ATOM      5  C   UNL     1      59.784  -0.374  92.348  1.00  0.00     0.053 C 
BRANCH   5   6
ATOM      6  C   UNL     1      58.622  -0.339  91.403  1.00  0.00     0.041 C 
ATOM      7  O   UNL     1      57.638  -1.105  91.578  1.00  0.00    -0.550 OA
ATOM      8  O   UNL     1      58.643   0.516  90.308  1.00  0.00    -0.550 OA
ENDBRANCH   5   6
ENDBRANCH   4   5
ENDBRANCH   3   4
ENDBRANCH   2   3
ENDBRANCH   1   2
BRANCH   1   9
ATOM      9  C   UNL     1      60.202   0.708  96.865  1.00  0.00     0.000 C 
BRANCH   9  10
ATOM     10  C   UNL     1      59.145   1.207  95.873  1.00  0.00    -0.000 C 
BRANCH  10  11
ATOM     11  C   UNL     1      57.759   0.649  96.217  1.00  0.00    -0.000 C 
BRANCH  11  12
ATOM     12  C   UNL     1      57.123  -0.034  94.997  1.00  0.00    -0.000 C 
BRANCH  12  13
ATOM     13  C   UNL     1      56.940  -1.546  95.195  1.00  0.00    -0.003 C 
ATOM     14  C   UNL     1      57.044  -1.967  96.661  1.00  0.00     0.004 C 
ENDBRANCH  12  13
ENDBRANCH  11  12
ENDBRANCH  10  11
ENDBRANCH   9  10
ENDBRANCH   1   9
TORSDOF 10
ENDMDL
MODEL 3
REMARK VINA RESULT:    -3.666      3.326      6.613
REMARK INTER + INTRA:          -6.580
REMARK INTER:                  -6.014
REMARK INTRA:                  -0.566
REMARK UNBOUND:                -0.771
REMARK SMILES CCCCCCCCCCCC(=O)[O-]
REMARK SMILES IDX 7 1 8 2 9 3 10 4 11 5 12 6 13 7 14 8 6 9 5 10 4 11 3 12 2 13
REMARK SMILES IDX 1 14
REMARK H PARENT
REMARK Flexibility Score: inf
ROOT
ATOM      1  C   UNL     1      58.768   1.669  96.185  1.00  0.00     0.000 C 
ENDROOT
BRANCH   1   2
ATOM      2  C   UNL     1      60.013   1.451  97.057  1.00  0.00     0.000 C 
BRANCH   2   3
ATOM      3  C   UNL     1      60.741   0.137  96.733  1.00  0.00     0.000 C 
BRANCH   3   4
ATOM      4  C   UNL     1      60.069  -0.645  95.590  1.00  0.00     0.006 C 
BRANCH   4   5
ATOM      5  C   UNL     1      61.066  -1.035  94.491  1.00  0.00     0.053 C 
BRANCH   5   6
ATOM      6  C   UNL     1      60.374  -1.341  93.198  1.00  0.00     0.041 C 
ATOM      7  O   UNL     1      60.156  -2.535  92.862  1.00  0.00    -0.550 OA
ATOM      8  O   UNL     1      60.003  -0.307  92.347  1.00  0.00    -0.550 OA
ENDBRANCH   5   6
ENDBRANCH   4   5
ENDBRANCH   3   4
ENDBRANCH   2   3
ENDBRANCH   1   2
BRANCH   1   9
ATOM      9  C   UNL     1      57.786   2.634  96.860  1.00  0.00     0.000 C 
BRANCH   9  10
ATOM     10  C   UNL     1      57.663   3.940  96.066  1.00  0.00    -0.000 C 
BRANCH  10  11
ATOM     11  C   UNL     1      58.183   5.131  96.880  1.00  0.00    -0.000 C 
BRANCH  11  12
ATOM     12  C   UNL     1      59.695   5.314  96.684  1.00  0.00    -0.000 C 
BRANCH  12  13
ATOM     13  C   UNL     1      60.070   6.748  96.281  1.00  0.00    -0.003 C 
ATOM     14  C   UNL     1      60.764   6.818  94.921  1.00  0.00     0.004 C 
ENDBRANCH  12  13
ENDBRANCH  11  12
ENDBRANCH  10  11
ENDBRANCH   9  10
ENDBRANCH   1   9
TORSDOF 10
ENDMDL
MODEL 4
REMARK VINA RESULT:    -3.573      0.902      1.516
REMARK INTER + INTRA:          -6.433
REMARK INTER:                  -5.947
REMARK INTRA:                  -0.486
REMARK UNBOUND:                -0.771
REMARK SMILES CCCCCCCCCCCC(=O)[O-]
REMARK SMILES IDX 7 1 8 2 9 3 10 4 11 5 12 6 13 7 14 8 6 9 5 10 4 11 3 12 2 13
REMARK SMILES IDX 1 14
REMARK H PARENT
REMARK Flexibility Score: inf
ROOT
ATOM      1  C   UNL     1      57.803   2.386  95.715  1.00  0.00     0.000 C 
ENDROOT
BRANCH   1   2
ATOM      2  C   UNL     1      57.887   3.914  95.597  1.00  0.00     0.000 C 
BRANCH   2   3
ATOM      3  C   UNL     1      58.368   4.583  96.894  1.00  0.00     0.000 C 
BRANCH   3   4
ATOM      4  C   UNL     1      59.571   5.516  96.669  1.00  0.00     0.006 C 
BRANCH   4   5
ATOM      5  C   UNL     1      59.208   6.991  96.885  1.00  0.00     0.053 C 
BRANCH   5   6
ATOM      6  C   UNL     1      60.330   7.902  96.489  1.00  0.00     0.041 C 
ATOM      7  O   UNL     1      60.535   8.969  97.125  1.00  0.00    -0.550 OA
ATOM      8  O   UNL     1      61.125   7.588  95.394  1.00  0.00    -0.550 OA
ENDBRANCH   5   6
ENDBRANCH   4   5
ENDBRANCH   3   4
ENDBRANCH   2   3
ENDBRANCH   1   2
BRANCH   1   9
ATOM      9  C   UNL     1      58.915   1.843  96.621  1.00  0.00     0.000 C 
BRANCH   9  10
ATOM     10  C   UNL     1      59.146   0.347  96.374  1.00  0.00    -0.000 C 
BRANCH  10  11
ATOM     11  C   UNL     1      60.632  -0.010  96.498  1.00  0.00    -0.000 C 
BRANCH  11  12
ATOM     12  C   UNL     1      61.095  -0.860  95.306  1.00  0.00    -0.000 C 
BRANCH  12  13
ATOM     13  C   UNL     1      60.003  -1.024  94.238  1.00  0.00    -0.003 C 
ATOM     14  C   UNL     1      60.544  -1.583  92.922  1.00  0.00     0.004 C 
ENDBRANCH  12  13
ENDBRANCH  11  12
ENDBRANCH  10  11
ENDBRANCH   9  10
ENDBRANCH   1   9
TORSDOF 10
ENDMDL
MODEL 5
REMARK VINA RESULT:    -3.543      3.246      6.389
REMARK INTER + INTRA:          -6.385
REMARK INTER:                  -5.605
REMARK INTRA:                  -0.780
REMARK UNBOUND:                -0.771
REMARK SMILES CCCCCCCCCCCC(=O)[O-]
REMARK SMILES IDX 7 1 8 2 9 3 10 4 11 5 12 6 13 7 14 8 6 9 5 10 4 11 3 12 2 13
REMARK SMILES IDX 1 14
REMARK H PARENT
REMARK Flexibility Score: inf
ROOT
ATOM      1  C   UNL     1      60.747   0.334  96.752  1.00  0.00     0.000 C 
ENDROOT
BRANCH   1   2
ATOM      2  C   UNL     1      60.110  -0.635  95.745  1.00  0.00     0.000 C 
BRANCH   2   3
ATOM      3  C   UNL     1      61.105  -1.122  94.680  1.00  0.00     0.000 C 
BRANCH   3   4
ATOM      4  C   UNL     1      60.423  -1.458  93.342  1.00  0.00     0.006 C 
BRANCH   4   5
ATOM      5  C   UNL     1      59.666  -0.256  92.761  1.00  0.00     0.053 C 
BRANCH   5   6
ATOM      6  C   UNL     1      58.191  -0.515  92.685  1.00  0.00     0.041 C 
ATOM      7  O   UNL     1      57.744  -1.683  92.826  1.00  0.00    -0.550 OA
ATOM      8  O   UNL     1      57.316   0.532  92.421  1.00  0.00    -0.550 OA
ENDBRANCH   5   6
ENDBRANCH   4   5
ENDBRANCH   3   4
ENDBRANCH   2   3
ENDBRANCH   1   2
BRANCH   1   9
ATOM      9  C   UNL     1      59.853   1.559  96.977  1.00  0.00     0.000 C 
BRANCH   9  10
ATOM     10  C   UNL     1      58.625   1.521  96.061  1.00  0.00    -0.000 C 
BRANCH  10  11
ATOM     11  C   UNL     1      57.646   2.651  96.403  1.00  0.00    -0.000 C 
BRANCH  11  12
ATOM     12  C   UNL     1      58.113   3.984  95.800  1.00  0.00    -0.000 C 
BRANCH  12  13
ATOM     13  C   UNL     1      58.555   4.994  96.870  1.00  0.00    -0.003 C 
ATOM     14  C   UNL     1      59.725   5.866  96.413  1.00  0.00     0.004 C 
ENDBRANCH  12  13
ENDBRANCH  11  12
ENDBRANCH  10  11
ENDBRANCH   9  10
ENDBRANCH   1   9
TORSDOF 10
ENDMDL
MODEL 6
REMARK VINA RESULT:    -3.518      1.390      2.478
REMARK INTER + INTRA:          -6.345
REMARK INTER:                  -5.725
REMARK INTRA:                  -0.619
REMARK UNBOUND:                -0.771
REMARK SMILES CCCCCCCCCCCC(=O)[O-]
REMARK SMILES IDX 7 1 8 2 9 3 10 4 11 5 12 6 13 7 14 8 6 9 5 10 4 11 3 12 2 13
REMARK SMILES IDX 1 14
REMARK H PARENT
REMARK Flexibility Score: inf
ROOT
ATOM      1  C   UNL     1      60.748   0.285  96.777  1.00  0.00     0.000 C 
ENDROOT
BRANCH   1   2
ATOM      2  C   UNL     1      60.111   1.642  97.111  1.00  0.00     0.000 C 
BRANCH   2   3
ATOM      3  C   UNL     1      58.694   1.789  96.535  1.00  0.00     0.000 C 
BRANCH   3   4
ATOM      4  C   UNL     1      58.285   3.260  96.340  1.00  0.00     0.006 C 
BRANCH   4   5
ATOM      5  C   UNL     1      59.191   4.221  97.120  1.00  0.00     0.053 C 
BRANCH   5   6
ATOM      6  C   UNL     1      59.090   5.623  96.599  1.00  0.00     0.041 C 
ATOM      7  O   UNL     1      60.037   6.125  95.940  1.00  0.00    -0.550 OA
ATOM      8  O   UNL     1      57.962   6.386  96.874  1.00  0.00    -0.550 OA
ENDBRANCH   5   6
ENDBRANCH   4   5
ENDBRANCH   3   4
ENDBRANCH   2   3
ENDBRANCH   1   2
BRANCH   1   9
ATOM      9  C   UNL     1      59.877  -0.503  95.791  1.00  0.00     0.000 C 
BRANCH   9  10
ATOM     10  C   UNL     1      60.703  -0.995  94.597  1.00  0.00    -0.000 C 
BRANCH  10  11
ATOM     11  C   UNL     1      59.996  -0.685  93.272  1.00  0.00    -0.000 C 
BRANCH  11  12
ATOM     12  C   UNL     1      60.227  -1.807  92.249  1.00  0.00    -0.000 C 
BRANCH  12  13
ATOM     13  C   UNL     1      60.159  -3.206  92.881  1.00  0.00    -0.003 C 
ATOM     14  C   UNL     1      58.727  -3.730  93.005  1.00  0.00     0.004 C 
ENDBRANCH  12  13
ENDBRANCH  11  12
ENDBRANCH  10  11
ENDBRANCH   9  10
ENDBRANCH   1   9
TORSDOF 10
ENDMDL
MODEL 7
REMARK VINA RESULT:    -3.477      1.413      1.907
REMARK INTER + INTRA:          -6.281
REMARK INTER:                  -5.178
REMARK INTRA:                  -1.102
REMARK UNBOUND:                -0.771
REMARK SMILES CCCCCCCCCCCC(=O)[O-]
REMARK SMILES IDX 7 1 8 2 9 3 10 4 11 5 12 6 13 7 14 8 6 9 5 10 4 11 3 12 2 13
REMARK SMILES IDX 1 14
REMARK H PARENT
REMARK Flexibility Score: inf
ROOT
ATOM      1  C   UNL     1      57.115   0.851  94.961  1.00  0.00     0.000 C 
ENDROOT
BRANCH   1   2
ATOM      2  C   UNL     1      57.650   2.253  95.287  1.00  0.00     0.000 C 
BRANCH   2   3
ATOM      3  C   UNL     1      57.847   2.476  96.794  1.00  0.00     0.000 C 
BRANCH   3   4
ATOM      4  C   UNL     1      59.068   3.360  97.107  1.00  0.00     0.006 C 
BRANCH   4   5
ATOM      5  C   UNL     1      58.723   4.854  97.077  1.00  0.00     0.053 C 
BRANCH   5   6
ATOM      6  C   UNL     1      59.566   5.598  96.085  1.00  0.00     0.041 C 
ATOM      7  O   UNL     1      60.758   5.894  96.361  1.00  0.00    -0.550 OA
ATOM      8  O   UNL     1      59.021   5.994  94.870  1.00  0.00    -0.550 OA
ENDBRANCH   5   6
ENDBRANCH   4   5
ENDBRANCH   3   4
ENDBRANCH   2   3
ENDBRANCH   1   2
BRANCH   1   9
ATOM      9  C   UNL     1      57.271  -0.089  96.162  1.00  0.00     0.000 C 
BRANCH   9  10
ATOM     10  C   UNL     1      58.377  -1.122  95.915  1.00  0.00    -0.000 C 
BRANCH  10  11
ATOM     11  C   UNL     1      59.747  -0.572  96.331  1.00  0.00    -0.000 C 
BRANCH  11  12
ATOM     12  C   UNL     1      60.607  -0.248  95.101  1.00  0.00    -0.000 C 
BRANCH  12  13
ATOM     13  C   UNL     1      60.428  -1.271  93.969  1.00  0.00    -0.003 C 
ATOM     14  C   UNL     1      59.942  -0.633  92.667  1.00  0.00     0.004 C 
ENDBRANCH  12  13
ENDBRANCH  11  12
ENDBRANCH  10  11
ENDBRANCH   9  10
ENDBRANCH   1   9
TORSDOF 10
ENDMDL
MODEL 8
REMARK VINA RESULT:    -3.461      2.693      4.246
REMARK INTER + INTRA:          -6.255
REMARK INTER:                  -5.035
REMARK INTRA:                  -1.220
REMARK UNBOUND:                -0.771
REMARK SMILES CCCCCCCCCCCC(=O)[O-]
REMARK SMILES IDX 7 1 8 2 9 3 10 4 11 5 12 6 13 7 14 8 6 9 5 10 4 11 3 12 2 13
REMARK SMILES IDX 1 14
REMARK H PARENT
REMARK Flexibility Score: inf
ROOT
ATOM      1  C   UNL     1      60.137  -0.929  95.662  1.00  0.00     0.000 C 
ENDROOT
BRANCH   1   2
ATOM      2  C   UNL     1      60.756  -0.007  96.722  1.00  0.00     0.000 C 
BRANCH   2   3
ATOM      3  C   UNL     1      59.982   1.310  96.886  1.00  0.00     0.000 C 
BRANCH   3   4
ATOM      4  C   UNL     1      58.743   1.386  95.977  1.00  0.00     0.006 C 
BRANCH   4   5
ATOM      5  C   UNL     1      57.437   1.441  96.781  1.00  0.00     0.053 C 
BRANCH   5   6
ATOM      6  C   UNL     1      56.817   2.805  96.738  1.00  0.00     0.041 C 
ATOM      7  O   UNL     1      55.565   2.933  96.766  1.00  0.00    -0.550 OA
ATOM      8  O   UNL     1      57.624   3.931  96.631  1.00  0.00    -0.550 OA
ENDBRANCH   5   6
ENDBRANCH   4   5
ENDBRANCH   3   4
ENDBRANCH   2   3
ENDBRANCH   1   2
BRANCH   1   9
ATOM      9  C   UNL     1      61.124  -1.193  94.518  1.00  0.00     0.000 C 
BRANCH   9  10
ATOM     10  C   UNL     1      60.385  -1.473  93.205  1.00  0.00    -0.000 C 
BRANCH  10  11
ATOM     11  C   UNL     1      59.622  -0.232  92.726  1.00  0.00    -0.000 C 
BRANCH  11  12
ATOM     12  C   UNL     1      58.127  -0.540  92.549  1.00  0.00    -0.000 C 
BRANCH  12  13
ATOM     13  C   UNL     1      57.724  -1.888  93.166  1.00  0.00    -0.003 C 
ATOM     14  C   UNL     1      56.797  -1.733  94.371  1.00  0.00     0.004 C 
ENDBRANCH  12  13
ENDBRANCH  11  12
ENDBRANCH  10  11
ENDBRANCH   9  10
ENDBRANCH   1   9
TORSDOF 10
ENDMDL
