MODEL 1
REMARK VINA RESULT:    -6.276      0.000      0.000
REMARK INTER + INTRA:          -7.548
REMARK INTER:                  -7.377
REMARK INTRA:                  -0.171
REMARK UNBOUND:                -0.171
REMARK SMILES O=c1c(O)c(-c2ccc(O)cc2)oc2cc(O)cc(O)c12
REMARK SMILES IDX 5 1 3 2 2 3 1 4 21 5 19 6 18 7 16 8 15 9 14 10 13 11 6 12
REMARK SMILES IDX 7 13 8 14 9 15 12 16 11 17 10 18 4 20 20 22 17 24
REMARK H PARENT 10 19 4 21 20 23 17 25
REMARK Flexibility Score: inf
ROOT
ATOM      1  C   UNL     1      18.460  -0.954 -16.558  1.00  0.00     0.180 A 
ATOM      2  C   UNL     1      17.822  -0.074 -15.668  1.00  0.00     0.208 A 
ATOM      3  C   UNL     1      17.044  -0.605 -14.626  1.00  0.00     0.238 A 
ATOM      4  O   UNL     1      16.519   0.186 -13.799  1.00  0.00    -0.285 OA
ATOM      5  C   UNL     1      16.900  -2.007 -14.499  1.00  0.00     0.111 A 
ATOM      6  C   UNL     1      16.104  -2.654 -13.506  1.00  0.00     0.134 A 
ATOM      7  C   UNL     1      16.139  -4.049 -13.392  1.00  0.00     0.093 A 
ATOM      8  C   UNL     1      16.892  -4.825 -14.279  1.00  0.00     0.123 A 
ATOM      9  C   UNL     1      17.624  -4.206 -15.288  1.00  0.00     0.094 A 
ATOM     10  C   UNL     1      17.639  -2.814 -15.404  1.00  0.00     0.146 A 
ATOM     11  O   UNL     1      18.359  -2.266 -16.374  1.00  0.00    -0.452 OA
ENDROOT
BRANCH   1  12
ATOM     12  C   UNL     1      19.275  -0.470 -17.696  1.00  0.00     0.021 A 
ATOM     13  C   UNL     1      20.508   0.177 -17.491  1.00  0.00     0.016 A 
ATOM     14  C   UNL     1      21.249   0.648 -18.580  1.00  0.00     0.047 A 
ATOM     15  C   UNL     1      20.764   0.490 -19.882  1.00  0.00     0.115 A 
ATOM     16  C   UNL     1      18.785  -0.604 -19.006  1.00  0.00     0.016 A 
ATOM     17  C   UNL     1      19.528  -0.134 -20.093  1.00  0.00     0.047 A 
BRANCH  15  18
ATOM     18  O   UNL     1      21.514   0.963 -20.957  1.00  0.00    -0.508 OA
ATOM     19  H   UNL     1      22.035   1.831 -20.898  1.00  0.00     0.293 HD
ENDBRANCH  15  18
ENDBRANCH   1  12
BRANCH   2  20
ATOM     20  O   UNL     1      17.995   1.307 -15.799  1.00  0.00    -0.502 OA
ATOM     21  H   UNL     1      17.276   1.972 -15.541  1.00  0.00     0.293 HD
ENDBRANCH   2  20
BRANCH   6  22
ATOM     22  O   UNL     1      15.247  -1.979 -12.632  1.00  0.00    -0.507 OA
ATOM     23  H   UNL     1      14.434  -1.452 -12.916  1.00  0.00     0.293 HD
ENDBRANCH   6  22
BRANCH   8  24
ATOM     24  O   UNL     1      16.908  -6.214 -14.168  1.00  0.00    -0.508 OA
ATOM     25  H   UNL     1      17.693  -6.763 -14.500  1.00  0.00     0.293 HD
ENDBRANCH   8  24
TORSDOF 5
ENDMDL
MODEL 2
REMARK VINA RESULT:    -6.157      2.008      6.681
REMARK INTER + INTRA:          -7.408
REMARK INTER:                  -7.122
REMARK INTRA:                  -0.286
REMARK UNBOUND:                -0.171
REMARK SMILES O=c1c(O)c(-c2ccc(O)cc2)oc2cc(O)cc(O)c12
REMARK SMILES IDX 5 1 3 2 2 3 1 4 21 5 19 6 18 7 16 8 15 9 14 10 13 11 6 12
REMARK SMILES IDX 7 13 8 14 9 15 12 16 11 17 10 18 4 20 20 22 17 24
REMARK H PARENT 10 19 4 21 20 23 17 25
REMARK Flexibility Score: inf
ROOT
ATOM      1  C   UNL     1      18.083  -0.155 -15.590  1.00  0.00     0.180 A 
ATOM      2  C   UNL     1      19.152   0.594 -15.070  1.00  0.00     0.208 A 
ATOM      3  C   UNL     1      20.228   0.919 -15.911  1.00  0.00     0.238 A 
ATOM      4  O   UNL     1      21.157   1.636 -15.456  1.00  0.00    -0.285 OA
ATOM      5  C   UNL     1      20.229   0.477 -17.256  1.00  0.00     0.111 A 
ATOM      6  C   UNL     1      21.286   0.714 -18.187  1.00  0.00     0.134 A 
ATOM      7  C   UNL     1      21.122   0.345 -19.528  1.00  0.00     0.093 A 
ATOM      8  C   UNL     1      19.965  -0.314 -19.957  1.00  0.00     0.123 A 
ATOM      9  C   UNL     1      18.955  -0.602 -19.044  1.00  0.00     0.094 A 
ATOM     10  C   UNL     1      19.073  -0.213 -17.707  1.00  0.00     0.146 A 
ATOM     11  O   UNL     1      18.082  -0.498 -16.873  1.00  0.00    -0.452 OA
ENDROOT
BRANCH   1  12
ATOM     12  C   UNL     1      16.925  -0.558 -14.758  1.00  0.00     0.021 A 
ATOM     13  C   UNL     1      15.817   0.292 -14.583  1.00  0.00     0.016 A 
ATOM     14  C   UNL     1      14.747  -0.101 -13.773  1.00  0.00     0.047 A 
ATOM     15  C   UNL     1      14.775  -1.336 -13.119  1.00  0.00     0.115 A 
ATOM     16  C   UNL     1      16.955  -1.788 -14.080  1.00  0.00     0.016 A 
ATOM     17  C   UNL     1      15.884  -2.179 -13.272  1.00  0.00     0.047 A 
BRANCH  15  18
ATOM     18  O   UNL     1      13.701  -1.714 -12.317  1.00  0.00    -0.508 OA
ATOM     19  H   UNL     1      12.763  -1.368 -12.488  1.00  0.00     0.293 HD
ENDBRANCH  15  18
ENDBRANCH   1  12
BRANCH   2  20
ATOM     20  O   UNL     1      19.121   1.039 -13.746  1.00  0.00    -0.502 OA
ATOM     21  H   UNL     1      19.958   1.305 -13.241  1.00  0.00     0.293 HD
ENDBRANCH   2  20
BRANCH   6  22
ATOM     22  O   UNL     1      22.517   1.280 -17.843  1.00  0.00    -0.507 OA
ATOM     23  H   UNL     1      23.415   0.915 -18.121  1.00  0.00     0.293 HD
ENDBRANCH   6  22
BRANCH   8  24
ATOM     24  O   UNL     1      19.817  -0.692 -21.289  1.00  0.00    -0.508 OA
ATOM     25  H   UNL     1      19.621  -1.652 -21.549  1.00  0.00     0.293 HD
ENDBRANCH   8  24
TORSDOF 5
ENDMDL
MODEL 3
REMARK VINA RESULT:    -6.146      3.722      5.315
REMARK INTER + INTRA:          -7.395
REMARK INTER:                  -7.346
REMARK INTRA:                  -0.049
REMARK UNBOUND:                -0.171
REMARK SMILES O=c1c(O)c(-c2ccc(O)cc2)oc2cc(O)cc(O)c12
REMARK SMILES IDX 5 1 3 2 2 3 1 4 21 5 19 6 18 7 16 8 15 9 14 10 13 11 6 12
REMARK SMILES IDX 7 13 8 14 9 15 12 16 11 17 10 18 4 20 20 22 17 24
REMARK H PARENT 10 19 4 21 20 23 17 25
REMARK Flexibility Score: inf
ROOT
ATOM      1  C   UNL     1      20.766   0.676 -17.281  1.00  0.00     0.180 A 
ATOM      2  C   UNL     1      19.548   0.594 -16.584  1.00  0.00     0.208 A 
ATOM      3  C   UNL     1      19.518   0.943 -15.224  1.00  0.00     0.238 A 
ATOM      4  O   UNL     1      18.415   0.919 -14.618  1.00  0.00    -0.285 OA
ATOM      5  C   UNL     1      20.707   1.354 -14.576  1.00  0.00     0.111 A 
ATOM      6  C   UNL     1      20.801   1.693 -13.192  1.00  0.00     0.134 A 
ATOM      7  C   UNL     1      21.999   2.213 -12.687  1.00  0.00     0.093 A 
ATOM      8  C   UNL     1      23.128   2.343 -13.502  1.00  0.00     0.123 A 
ATOM      9  C   UNL     1      23.062   1.959 -14.839  1.00  0.00     0.094 A 
ATOM     10  C   UNL     1      21.871   1.473 -15.381  1.00  0.00     0.146 A 
ATOM     11  O   UNL     1      21.850   1.128 -16.662  1.00  0.00    -0.452 OA
ENDROOT
BRANCH   1  12
ATOM     12  C   UNL     1      20.882   0.300 -18.710  1.00  0.00     0.021 A 
ATOM     13  C   UNL     1      21.303   1.228 -19.680  1.00  0.00     0.016 A 
ATOM     14  C   UNL     1      21.381   0.857 -21.026  1.00  0.00     0.047 A 
ATOM     15  C   UNL     1      21.030  -0.438 -21.420  1.00  0.00     0.115 A 
ATOM     16  C   UNL     1      20.510  -0.992 -19.117  1.00  0.00     0.016 A 
ATOM     17  C   UNL     1      20.591  -1.361 -20.463  1.00  0.00     0.047 A 
BRANCH  15  18
ATOM     18  O   UNL     1      21.115  -0.794 -22.765  1.00  0.00    -0.508 OA
ATOM     19  H   UNL     1      20.969  -1.750 -23.070  1.00  0.00     0.293 HD
ENDBRANCH  15  18
ENDBRANCH   1  12
BRANCH   2  20
ATOM     20  O   UNL     1      18.382   0.206 -17.249  1.00  0.00    -0.502 OA
ATOM     21  H   UNL     1      18.331  -0.634 -17.813  1.00  0.00     0.293 HD
ENDBRANCH   2  20
BRANCH   6  22
ATOM     22  O   UNL     1      19.763   1.515 -12.273  1.00  0.00    -0.507 OA
ATOM     23  H   UNL     1      18.807   1.800 -12.424  1.00  0.00     0.293 HD
ENDBRANCH   6  22
BRANCH   8  24
ATOM     24  O   UNL     1      24.321   2.846 -12.988  1.00  0.00    -0.508 OA
ATOM     25  H   UNL     1      25.179   2.309 -13.018  1.00  0.00     0.293 HD
ENDBRANCH   8  24
TORSDOF 5
ENDMDL
MODEL 4
REMARK VINA RESULT:    -6.011      3.291      4.643
REMARK INTER + INTRA:          -7.236
REMARK INTER:                  -7.178
REMARK INTRA:                  -0.058
REMARK UNBOUND:                -0.171
REMARK SMILES O=c1c(O)c(-c2ccc(O)cc2)oc2cc(O)cc(O)c12
REMARK SMILES IDX 5 1 3 2 2 3 1 4 21 5 19 6 18 7 16 8 15 9 14 10 13 11 6 12
REMARK SMILES IDX 7 13 8 14 9 15 12 16 11 17 10 18 4 20 20 22 17 24
REMARK H PARENT 10 19 4 21 20 23 17 25
REMARK Flexibility Score: inf
ROOT
ATOM      1  C   UNL     1      20.716   0.687 -17.529  1.00  0.00     0.180 A 
ATOM      2  C   UNL     1      21.818   1.082 -16.752  1.00  0.00     0.208 A 
ATOM      3  C   UNL     1      21.614   1.429 -15.406  1.00  0.00     0.238 A 
ATOM      4  O   UNL     1      22.611   1.730 -14.701  1.00  0.00    -0.285 OA
ATOM      5  C   UNL     1      20.308   1.391 -14.860  1.00  0.00     0.111 A 
ATOM      6  C   UNL     1      19.978   1.760 -13.520  1.00  0.00     0.134 A 
ATOM      7  C   UNL     1      18.675   1.558 -13.049  1.00  0.00     0.093 A 
ATOM      8  C   UNL     1      17.674   1.064 -13.890  1.00  0.00     0.123 A 
ATOM      9  C   UNL     1      17.972   0.758 -15.215  1.00  0.00     0.094 A 
ATOM     10  C   UNL     1      19.271   0.912 -15.704  1.00  0.00     0.146 A 
ATOM     11  O   UNL     1      19.514   0.598 -16.970  1.00  0.00    -0.452 OA
ENDROOT
BRANCH   1  12
ATOM     12  C   UNL     1      20.849   0.331 -18.961  1.00  0.00     0.021 A 
ATOM     13  C   UNL     1      20.504  -0.948 -19.434  1.00  0.00     0.016 A 
ATOM     14  C   UNL     1      20.661  -1.268 -20.786  1.00  0.00     0.047 A 
ATOM     15  C   UNL     1      21.175  -0.322 -21.678  1.00  0.00     0.115 A 
ATOM     16  C   UNL     1      21.385   1.269 -19.859  1.00  0.00     0.016 A 
ATOM     17  C   UNL     1      21.540   0.947 -21.211  1.00  0.00     0.047 A 
BRANCH  15  18
ATOM     18  O   UNL     1      21.324  -0.654 -23.022  1.00  0.00    -0.508 OA
ATOM     19  H   UNL     1      21.509   0.053 -23.726  1.00  0.00     0.293 HD
ENDBRANCH  15  18
ENDBRANCH   1  12
BRANCH   2  20
ATOM     20  O   UNL     1      23.102   1.091 -17.305  1.00  0.00    -0.502 OA
ATOM     21  H   UNL     1      23.920   0.800 -16.784  1.00  0.00     0.293 HD
ENDBRANCH   2  20
BRANCH   6  22
ATOM     22  O   UNL     1      20.880   2.348 -12.629  1.00  0.00    -0.507 OA
ATOM     23  H   UNL     1      21.322   1.868 -11.858  1.00  0.00     0.293 HD
ENDBRANCH   6  22
BRANCH   8  24
ATOM     24  O   UNL     1      16.376   0.882 -13.417  1.00  0.00    -0.508 OA
ATOM     25  H   UNL     1      15.789   1.668 -13.164  1.00  0.00     0.293 HD
ENDBRANCH   8  24
TORSDOF 5
ENDMDL
MODEL 5
REMARK VINA RESULT:    -5.789      7.067      9.474
REMARK INTER + INTRA:          -6.975
REMARK INTER:                  -6.676
REMARK INTRA:                  -0.299
REMARK UNBOUND:                -0.171
REMARK SMILES O=c1c(O)c(-c2ccc(O)cc2)oc2cc(O)cc(O)c12
REMARK SMILES IDX 5 1 3 2 2 3 1 4 21 5 19 6 18 7 16 8 15 9 14 10 13 11 6 12
REMARK SMILES IDX 7 13 8 14 9 15 12 16 11 17 10 18 4 20 20 22 17 24
REMARK H PARENT 10 19 4 21 20 23 17 25
REMARK Flexibility Score: inf
ROOT
ATOM      1  C   UNL     1      18.982  -2.415  -8.534  1.00  0.00     0.180 A 
ATOM      2  C   UNL     1      18.897  -2.763  -7.175  1.00  0.00     0.208 A 
ATOM      3  C   UNL     1      20.080  -3.006  -6.459  1.00  0.00     0.238 A 
ATOM      4  O   UNL     1      20.001  -3.264  -5.229  1.00  0.00    -0.285 OA
ATOM      5  C   UNL     1      21.331  -2.914  -7.114  1.00  0.00     0.111 A 
ATOM      6  C   UNL     1      22.592  -3.178  -6.497  1.00  0.00     0.134 A 
ATOM      7  C   UNL     1      23.773  -2.928  -7.205  1.00  0.00     0.093 A 
ATOM      8  C   UNL     1      23.739  -2.486  -8.531  1.00  0.00     0.123 A 
ATOM      9  C   UNL     1      22.514  -2.283  -9.160  1.00  0.00     0.094 A 
ATOM     10  C   UNL     1      21.318  -2.488  -8.469  1.00  0.00     0.146 A 
ATOM     11  O   UNL     1      20.173  -2.272  -9.104  1.00  0.00    -0.452 OA
ENDROOT
BRANCH   1  12
ATOM     12  C   UNL     1      17.778  -2.170  -9.361  1.00  0.00     0.021 A 
ATOM     13  C   UNL     1      17.123  -3.218 -10.032  1.00  0.00     0.016 A 
ATOM     14  C   UNL     1      16.002  -2.958 -10.827  1.00  0.00     0.047 A 
ATOM     15  C   UNL     1      15.530  -1.650 -10.971  1.00  0.00     0.115 A 
ATOM     16  C   UNL     1      17.311  -0.855  -9.529  1.00  0.00     0.016 A 
ATOM     17  C   UNL     1      16.189  -0.597 -10.323  1.00  0.00     0.047 A 
BRANCH  15  18
ATOM     18  O   UNL     1      14.412  -1.405 -11.765  1.00  0.00    -0.508 OA
ATOM     19  H   UNL     1      13.471  -1.528 -11.408  1.00  0.00     0.293 HD
ENDBRANCH  15  18
ENDBRANCH   1  12
BRANCH   2  20
ATOM     20  O   UNL     1      17.652  -2.828  -6.542  1.00  0.00    -0.502 OA
ATOM     21  H   UNL     1      16.791  -2.986  -7.051  1.00  0.00     0.293 HD
ENDBRANCH   2  20
BRANCH   6  22
ATOM     22  O   UNL     1      22.735  -3.707  -5.211  1.00  0.00    -0.507 OA
ATOM     23  H   UNL     1      22.257  -4.528  -4.871  1.00  0.00     0.293 HD
ENDBRANCH   6  22
BRANCH   8  24
ATOM     24  O   UNL     1      24.920  -2.256  -9.233  1.00  0.00    -0.508 OA
ATOM     25  H   UNL     1      25.483  -3.019  -9.591  1.00  0.00     0.293 HD
ENDBRANCH   8  24
TORSDOF 5
ENDMDL
MODEL 6
REMARK VINA RESULT:    -5.732      8.798     10.548
REMARK INTER + INTRA:          -6.908
REMARK INTER:                  -6.610
REMARK INTRA:                  -0.298
REMARK UNBOUND:                -0.171
REMARK SMILES O=c1c(O)c(-c2ccc(O)cc2)oc2cc(O)cc(O)c12
REMARK SMILES IDX 5 1 3 2 2 3 1 4 21 5 19 6 18 7 16 8 15 9 14 10 13 11 6 12
REMARK SMILES IDX 7 13 8 14 9 15 12 16 11 17 10 18 4 20 20 22 17 24
REMARK H PARENT 10 19 4 21 20 23 17 25
REMARK Flexibility Score: inf
ROOT
ATOM      1  C   UNL     1      20.654  -1.598  -7.437  1.00  0.00     0.180 A 
ATOM      2  C   UNL     1      19.349  -1.987  -7.784  1.00  0.00     0.208 A 
ATOM      3  C   UNL     1      18.383  -0.995  -8.016  1.00  0.00     0.238 A 
ATOM      4  O   UNL     1      17.230  -1.347  -8.380  1.00  0.00    -0.285 OA
ATOM      5  C   UNL     1      18.729   0.371  -7.883  1.00  0.00     0.111 A 
ATOM      6  C   UNL     1      17.821   1.459  -8.055  1.00  0.00     0.134 A 
ATOM      7  C   UNL     1      18.303   2.773  -8.028  1.00  0.00     0.093 A 
ATOM      8  C   UNL     1      19.650   3.041  -7.768  1.00  0.00     0.123 A 
ATOM      9  C   UNL     1      20.532   1.988  -7.540  1.00  0.00     0.094 A 
ATOM     10  C   UNL     1      20.089   0.665  -7.597  1.00  0.00     0.146 A 
ATOM     11  O   UNL     1      20.966  -0.308  -7.384  1.00  0.00    -0.452 OA
ENDROOT
BRANCH   1  12
ATOM     12  C   UNL     1      21.721  -2.586  -7.152  1.00  0.00     0.021 A 
ATOM     13  C   UNL     1      21.895  -3.126  -5.864  1.00  0.00     0.016 A 
ATOM     14  C   UNL     1      22.924  -4.039  -5.614  1.00  0.00     0.047 A 
ATOM     15  C   UNL     1      23.798  -4.413  -6.639  1.00  0.00     0.115 A 
ATOM     16  C   UNL     1      22.616  -2.951  -8.171  1.00  0.00     0.016 A 
ATOM     17  C   UNL     1      23.644  -3.865  -7.919  1.00  0.00     0.047 A 
BRANCH  15  18
ATOM     18  O   UNL     1      24.818  -5.325  -6.375  1.00  0.00    -0.508 OA
ATOM     19  H   UNL     1      25.235  -5.401  -5.454  1.00  0.00     0.293 HD
ENDBRANCH  15  18
ENDBRANCH   1  12
BRANCH   2  20
ATOM     20  O   UNL     1      19.034  -3.340  -7.932  1.00  0.00    -0.502 OA
ATOM     21  H   UNL     1      19.618  -4.079  -7.557  1.00  0.00     0.293 HD
ENDBRANCH   2  20
BRANCH   6  22
ATOM     22  O   UNL     1      16.442   1.304  -8.228  1.00  0.00    -0.507 OA
ATOM     23  H   UNL     1      15.842   0.776  -7.612  1.00  0.00     0.293 HD
ENDBRANCH   6  22
BRANCH   8  24
ATOM     24  O   UNL     1      20.118   4.352  -7.727  1.00  0.00    -0.508 OA
ATOM     25  H   UNL     1      19.487   5.138  -7.618  1.00  0.00     0.293 HD
ENDBRANCH   8  24
TORSDOF 5
ENDMDL
MODEL 7
REMARK VINA RESULT:    -5.625      6.017      8.488
REMARK INTER + INTRA:          -6.782
REMARK INTER:                  -6.554
REMARK INTRA:                  -0.228
REMARK UNBOUND:                -0.171
REMARK SMILES O=c1c(O)c(-c2ccc(O)cc2)oc2cc(O)cc(O)c12
REMARK SMILES IDX 5 1 3 2 2 3 1 4 21 5 19 6 18 7 16 8 15 9 14 10 13 11 6 12
REMARK SMILES IDX 7 13 8 14 9 15 12 16 11 17 10 18 4 20 20 22 17 24
REMARK H PARENT 10 19 4 21 20 23 17 25
REMARK Flexibility Score: inf
ROOT
ATOM      1  C   UNL     1      18.202  -1.979  -8.822  1.00  0.00     0.180 A 
ATOM      2  C   UNL     1      17.565  -0.730  -8.721  1.00  0.00     0.208 A 
ATOM      3  C   UNL     1      16.538  -0.414  -9.626  1.00  0.00     0.238 A 
ATOM      4  O   UNL     1      15.935   0.683  -9.497  1.00  0.00    -0.285 OA
ATOM      5  C   UNL     1      16.173  -1.345 -10.629  1.00  0.00     0.111 A 
ATOM      6  C   UNL     1      15.174  -1.115 -11.623  1.00  0.00     0.134 A 
ATOM      7  C   UNL     1      14.803  -2.155 -12.483  1.00  0.00     0.093 A 
ATOM      8  C   UNL     1      15.442  -3.397 -12.429  1.00  0.00     0.123 A 
ATOM      9  C   UNL     1      16.458  -3.611 -11.502  1.00  0.00     0.094 A 
ATOM     10  C   UNL     1      16.825  -2.605 -10.605  1.00  0.00     0.146 A 
ATOM     11  O   UNL     1      17.792  -2.856  -9.731  1.00  0.00    -0.452 OA
ENDROOT
BRANCH   1  12
ATOM     12  C   UNL     1      19.310  -2.373  -7.921  1.00  0.00     0.021 A 
ATOM     13  C   UNL     1      19.071  -2.746  -6.585  1.00  0.00     0.016 A 
ATOM     14  C   UNL     1      20.136  -3.091  -5.747  1.00  0.00     0.047 A 
ATOM     15  C   UNL     1      21.449  -3.054  -6.226  1.00  0.00     0.115 A 
ATOM     16  C   UNL     1      20.634  -2.317  -8.388  1.00  0.00     0.016 A 
ATOM     17  C   UNL     1      21.697  -2.663  -7.548  1.00  0.00     0.047 A 
BRANCH  15  18
ATOM     18  O   UNL     1      22.500  -3.401  -5.379  1.00  0.00    -0.508 OA
ATOM     19  H   UNL     1      22.894  -4.336  -5.379  1.00  0.00     0.293 HD
ENDBRANCH  15  18
ENDBRANCH   1  12
BRANCH   2  20
ATOM     20  O   UNL     1      17.927   0.165  -7.710  1.00  0.00    -0.502 OA
ATOM     21  H   UNL     1      18.181  -0.141  -6.779  1.00  0.00     0.293 HD
ENDBRANCH   2  20
BRANCH   6  22
ATOM     22  O   UNL     1      14.541   0.115 -11.822  1.00  0.00    -0.507 OA
ATOM     23  H   UNL     1      14.104   0.404 -12.686  1.00  0.00     0.293 HD
ENDBRANCH   6  22
BRANCH   8  24
ATOM     24  O   UNL     1      15.078  -4.422 -13.300  1.00  0.00    -0.508 OA
ATOM     25  H   UNL     1      15.666  -4.688 -14.081  1.00  0.00     0.293 HD
ENDBRANCH   8  24
TORSDOF 5
ENDMDL
MODEL 8
REMARK VINA RESULT:    -5.579      4.805      6.841
REMARK INTER + INTRA:          -6.728
REMARK INTER:                  -6.510
REMARK INTRA:                  -0.218
REMARK UNBOUND:                -0.171
REMARK SMILES O=c1c(O)c(-c2ccc(O)cc2)oc2cc(O)cc(O)c12
REMARK SMILES IDX 5 1 3 2 2 3 1 4 21 5 19 6 18 7 16 8 15 9 14 10 13 11 6 12
REMARK SMILES IDX 7 13 8 14 9 15 12 16 11 17 10 18 4 20 20 22 17 24
REMARK H PARENT 10 19 4 21 20 23 17 25
REMARK Flexibility Score: inf
ROOT
ATOM      1  C   UNL     1      15.588  -1.157 -11.879  1.00  0.00     0.180 A 
ATOM      2  C   UNL     1      15.381  -2.525 -11.627  1.00  0.00     0.208 A 
ATOM      3  C   UNL     1      15.997  -3.111 -10.510  1.00  0.00     0.238 A 
ATOM      4  O   UNL     1      15.765  -4.323 -10.258  1.00  0.00    -0.285 OA
ATOM      5  C   UNL     1      16.822  -2.328  -9.668  1.00  0.00     0.111 A 
ATOM      6  C   UNL     1      17.527  -2.827  -8.531  1.00  0.00     0.134 A 
ATOM      7  C   UNL     1      18.209  -1.936  -7.694  1.00  0.00     0.093 A 
ATOM      8  C   UNL     1      18.268  -0.571  -7.991  1.00  0.00     0.123 A 
ATOM      9  C   UNL     1      17.633  -0.084  -9.131  1.00  0.00     0.094 A 
ATOM     10  C   UNL     1      16.913  -0.943  -9.964  1.00  0.00     0.146 A 
ATOM     11  O   UNL     1      16.315  -0.435 -11.034  1.00  0.00    -0.452 OA
ENDROOT
BRANCH   1  12
ATOM     12  C   UNL     1      14.994  -0.474 -13.051  1.00  0.00     0.021 A 
ATOM     13  C   UNL     1      15.782  -0.089 -14.152  1.00  0.00     0.016 A 
ATOM     14  C   UNL     1      15.203   0.577 -15.237  1.00  0.00     0.047 A 
ATOM     15  C   UNL     1      13.837   0.877 -15.231  1.00  0.00     0.115 A 
ATOM     16  C   UNL     1      13.628  -0.149 -13.044  1.00  0.00     0.016 A 
ATOM     17  C   UNL     1      13.051   0.516 -14.130  1.00  0.00     0.047 A 
BRANCH  15  18
ATOM     18  O   UNL     1      13.274   1.540 -16.319  1.00  0.00    -0.508 OA
ATOM     19  H   UNL     1      13.849   1.920 -17.063  1.00  0.00     0.293 HD
ENDBRANCH  15  18
ENDBRANCH   1  12
BRANCH   2  20
ATOM     20  O   UNL     1      14.545  -3.274 -12.459  1.00  0.00    -0.502 OA
ATOM     21  H   UNL     1      14.869  -3.691 -13.323  1.00  0.00     0.293 HD
ENDBRANCH   2  20
BRANCH   6  22
ATOM     22  O   UNL     1      17.610  -4.182  -8.197  1.00  0.00    -0.507 OA
ATOM     23  H   UNL     1      17.580  -4.941  -8.863  1.00  0.00     0.293 HD
ENDBRANCH   6  22
BRANCH   8  24
ATOM     24  O   UNL     1      18.963   0.307  -7.162  1.00  0.00    -0.508 OA
ATOM     25  H   UNL     1      18.509   1.109  -6.740  1.00  0.00     0.293 HD
ENDBRANCH   8  24
TORSDOF 5
ENDMDL
MODEL 9
REMARK VINA RESULT:    -5.475      9.387     11.911
REMARK INTER + INTRA:          -6.606
REMARK INTER:                  -6.309
REMARK INTRA:                  -0.297
REMARK UNBOUND:                -0.171
REMARK SMILES O=c1c(O)c(-c2ccc(O)cc2)oc2cc(O)cc(O)c12
REMARK SMILES IDX 5 1 3 2 2 3 1 4 21 5 19 6 18 7 16 8 15 9 14 10 13 11 6 12
REMARK SMILES IDX 7 13 8 14 9 15 12 16 11 17 10 18 4 20 20 22 17 24
REMARK H PARENT 10 19 4 21 20 23 17 25
REMARK Flexibility Score: inf
ROOT
ATOM      1  C   UNL     1      12.565   2.944  -7.991  1.00  0.00     0.180 A 
ATOM      2  C   UNL     1      13.640   3.712  -7.510  1.00  0.00     0.208 A 
ATOM      3  C   UNL     1      13.703   4.010  -6.139  1.00  0.00     0.238 A 
ATOM      4  O   UNL     1      14.695   4.652  -5.705  1.00  0.00    -0.285 OA
ATOM      5  C   UNL     1      12.683   3.551  -5.271  1.00  0.00     0.111 A 
ATOM      6  C   UNL     1      12.624   3.827  -3.871  1.00  0.00     0.134 A 
ATOM      7  C   UNL     1      11.642   3.213  -3.086  1.00  0.00     0.093 A 
ATOM      8  C   UNL     1      10.674   2.384  -3.662  1.00  0.00     0.123 A 
ATOM      9  C   UNL     1      10.688   2.156  -5.035  1.00  0.00     0.094 A 
ATOM     10  C   UNL     1      11.678   2.725  -5.839  1.00  0.00     0.146 A 
ATOM     11  O   UNL     1      11.660   2.473  -7.142  1.00  0.00    -0.452 OA
ENDROOT
BRANCH   1  12
ATOM     12  C   UNL     1      12.417   2.611  -9.427  1.00  0.00     0.021 A 
ATOM     13  C   UNL     1      11.770   3.486 -10.320  1.00  0.00     0.016 A 
ATOM     14  C   UNL     1      11.620   3.138 -11.666  1.00  0.00     0.047 A 
ATOM     15  C   UNL     1      12.101   1.911 -12.134  1.00  0.00     0.115 A 
ATOM     16  C   UNL     1      12.877   1.371  -9.901  1.00  0.00     0.016 A 
ATOM     17  C   UNL     1      12.727   1.026 -11.247  1.00  0.00     0.047 A 
BRANCH  15  18
ATOM     18  O   UNL     1      11.946   1.579 -13.478  1.00  0.00    -0.508 OA
ATOM     19  H   UNL     1      12.302   0.707 -13.853  1.00  0.00     0.293 HD
ENDBRANCH  15  18
ENDBRANCH   1  12
BRANCH   2  20
ATOM     20  O   UNL     1      14.646   4.137  -8.381  1.00  0.00    -0.502 OA
ATOM     21  H   UNL     1      14.994   3.556  -9.135  1.00  0.00     0.293 HD
ENDBRANCH   2  20
BRANCH   6  22
ATOM     22  O   UNL     1      13.484   4.712  -3.214  1.00  0.00    -0.507 OA
ATOM     23  H   UNL     1      13.939   5.501  -3.649  1.00  0.00     0.293 HD
ENDBRANCH   6  22
BRANCH   8  24
ATOM     24  O   UNL     1       9.690   1.789  -2.875  1.00  0.00    -0.508 OA
ATOM     25  H   UNL     1       8.834   1.428  -3.279  1.00  0.00     0.293 HD
ENDBRANCH   8  24
TORSDOF 5
ENDMDL
