MODEL 1
REMARK VINA RESULT:    -2.113      0.000      0.000
REMARK INTER + INTRA:          -3.667
REMARK INTER:                  -3.842
REMARK INTRA:                   0.175
REMARK UNBOUND:                 0.175
REMARK SMILES CCCCCCCCCCCCCCCC(=O)[O-]
REMARK SMILES IDX 9 1 10 2 11 3 12 4 13 5 14 6 15 7 16 8 17 9 18 10 8 11 7 12
REMARK SMILES IDX 6 13 5 14 4 15 3 16 2 17 1 18
REMARK H PARENT
REMARK Flexibility Score: inf
ROOT
ATOM      1  C   UNL     1       3.050  77.350   5.155  1.00  0.00     0.000 C 
ENDROOT
BRANCH   1   2
ATOM      2  C   UNL     1       4.560  77.258   4.868  1.00  0.00     0.000 C 
BRANCH   2   3
ATOM      3  C   UNL     1       4.872  77.046   3.377  1.00  0.00     0.000 C 
BRANCH   3   4
ATOM      4  C   UNL     1       5.990  77.972   2.871  1.00  0.00     0.000 C 
BRANCH   4   5
ATOM      5  C   UNL     1       7.366  77.288   2.853  1.00  0.00     0.000 C 
BRANCH   5   6
ATOM      6  C   UNL     1       8.425  78.171   3.529  1.00  0.00     0.006 C 
BRANCH   6   7
ATOM      7  C   UNL     1       7.932  78.756   4.860  1.00  0.00     0.053 C 
BRANCH   7   8
ATOM      8  C   UNL     1       7.653  77.684   5.868  1.00  0.00     0.041 C 
ATOM      9  O   UNL     1       8.540  76.837   6.153  1.00  0.00    -0.550 OA
ATOM     10  O   UNL     1       6.426  77.640   6.516  1.00  0.00    -0.550 OA
ENDBRANCH   7   8
ENDBRANCH   6   7
ENDBRANCH   5   6
ENDBRANCH   4   5
ENDBRANCH   3   4
ENDBRANCH   2   3
ENDBRANCH   1   2
BRANCH   1  11
ATOM     11  C   UNL     1       2.670  77.465   6.645  1.00  0.00     0.000 C 
BRANCH  11  12
ATOM     12  C   UNL     1       2.722  78.889   7.224  1.00  0.00    -0.000 C 
BRANCH  12  13
ATOM     13  C   UNL     1       3.758  79.038   8.353  1.00  0.00    -0.000 C 
BRANCH  13  14
ATOM     14  C   UNL     1       3.362  78.242   9.613  1.00  0.00    -0.000 C 
BRANCH  14  15
ATOM     15  C   UNL     1       3.151  79.121  10.858  1.00  0.00    -0.000 C 
BRANCH  15  16
ATOM     16  C   UNL     1       3.925  78.615  12.084  1.00  0.00    -0.000 C 
BRANCH  16  17
ATOM     17  C   UNL     1       4.580  77.246  11.843  1.00  0.00    -0.003 C 
ATOM     18  C   UNL     1       6.107  77.315  11.814  1.00  0.00     0.004 C 
ENDBRANCH  16  17
ENDBRANCH  15  16
ENDBRANCH  14  15
ENDBRANCH  13  14
ENDBRANCH  12  13
ENDBRANCH  11  12
ENDBRANCH   1  11
TORSDOF 14
ENDMDL
MODEL 2
REMARK VINA RESULT:    -2.092      2.119      6.650
REMARK INTER + INTRA:          -3.629
REMARK INTER:                  -3.223
REMARK INTRA:                  -0.406
REMARK UNBOUND:                 0.175
REMARK SMILES CCCCCCCCCCCCCCCC(=O)[O-]
REMARK SMILES IDX 9 1 10 2 11 3 12 4 13 5 14 6 15 7 16 8 17 9 18 10 8 11 7 12
REMARK SMILES IDX 6 13 5 14 4 15 3 16 2 17 1 18
REMARK H PARENT
REMARK Flexibility Score: inf
ROOT
ATOM      1  C   UNL     1       2.385  77.137   6.641  1.00  0.00     0.000 C 
ENDROOT
BRANCH   1   2
ATOM      2  C   UNL     1       3.393  77.284   7.796  1.00  0.00     0.000 C 
BRANCH   2   3
ATOM      3  C   UNL     1       3.721  78.751   8.119  1.00  0.00     0.000 C 
BRANCH   3   4
ATOM      4  C   UNL     1       3.412  79.117   9.579  1.00  0.00     0.000 C 
BRANCH   4   5
ATOM      5  C   UNL     1       3.345  77.888  10.499  1.00  0.00     0.000 C 
BRANCH   5   6
ATOM      6  C   UNL     1       3.600  78.283  11.960  1.00  0.00     0.006 C 
BRANCH   6   7
ATOM      7  C   UNL     1       4.882  79.111  12.124  1.00  0.00     0.053 C 
BRANCH   7   8
ATOM      8  C   UNL     1       6.110  78.261  12.004  1.00  0.00     0.041 C 
ATOM      9  O   UNL     1       6.011  77.006  11.973  1.00  0.00    -0.550 OA
ATOM     10  O   UNL     1       7.360  78.856  11.891  1.00  0.00    -0.550 OA
ENDBRANCH   7   8
ENDBRANCH   6   7
ENDBRANCH   5   6
ENDBRANCH   4   5
ENDBRANCH   3   4
ENDBRANCH   2   3
ENDBRANCH   1   2
BRANCH   1  11
ATOM     11  C   UNL     1       2.750  77.896   5.349  1.00  0.00     0.000 C 
BRANCH  11  12
ATOM     12  C   UNL     1       3.583  77.094   4.334  1.00  0.00    -0.000 C 
BRANCH  12  13
ATOM     13  C   UNL     1       5.024  77.616   4.199  1.00  0.00    -0.000 C 
BRANCH  13  14
ATOM     14  C   UNL     1       5.615  77.335   2.801  1.00  0.00    -0.000 C 
BRANCH  14  15
ATOM     15  C   UNL     1       7.152  77.377   2.762  1.00  0.00    -0.000 C 
BRANCH  15  16
ATOM     16  C   UNL     1       7.738  78.536   3.583  1.00  0.00    -0.000 C 
BRANCH  16  17
ATOM     17  C   UNL     1       8.487  78.051   4.834  1.00  0.00    -0.003 C 
ATOM     18  C   UNL     1       7.545  77.602   5.952  1.00  0.00     0.004 C 
ENDBRANCH  16  17
ENDBRANCH  15  16
ENDBRANCH  14  15
ENDBRANCH  13  14
ENDBRANCH  12  13
ENDBRANCH  11  12
ENDBRANCH   1  11
TORSDOF 14
ENDMDL
MODEL 3
REMARK VINA RESULT:    -1.752     21.415     23.804
REMARK INTER + INTRA:          -3.010
REMARK INTER:                  -2.752
REMARK INTRA:                  -0.258
REMARK UNBOUND:                 0.175
REMARK SMILES CCCCCCCCCCCCCCCC(=O)[O-]
REMARK SMILES IDX 9 1 10 2 11 3 12 4 13 5 14 6 15 7 16 8 17 9 18 10 8 11 7 12
REMARK SMILES IDX 6 13 5 14 4 15 3 16 2 17 1 18
REMARK H PARENT
REMARK Flexibility Score: inf
ROOT
ATOM      1  C   UNL     1       0.547  60.944  -3.712  1.00  0.00     0.000 C 
ENDROOT
BRANCH   1   2
ATOM      2  C   UNL     1      -0.469  60.347  -2.720  1.00  0.00     0.000 C 
BRANCH   2   3
ATOM      3  C   UNL     1      -1.495  59.424  -3.398  1.00  0.00     0.000 C 
BRANCH   3   4
ATOM      4  C   UNL     1      -2.912  59.599  -2.829  1.00  0.00     0.000 C 
BRANCH   4   5
ATOM      5  C   UNL     1      -4.006  59.147  -3.810  1.00  0.00     0.000 C 
BRANCH   5   6
ATOM      6  C   UNL     1      -3.509  59.229  -5.260  1.00  0.00     0.006 C 
BRANCH   6   7
ATOM      7  C   UNL     1      -3.797  60.595  -5.897  1.00  0.00     0.053 C 
BRANCH   7   8
ATOM      8  C   UNL     1      -3.963  60.491  -7.382  1.00  0.00     0.041 C 
ATOM      9  O   UNL     1      -4.862  61.151  -7.967  1.00  0.00    -0.550 OA
ATOM     10  O   UNL     1      -3.103  59.691  -8.124  1.00  0.00    -0.550 OA
ENDBRANCH   7   8
ENDBRANCH   6   7
ENDBRANCH   5   6
ENDBRANCH   4   5
ENDBRANCH   3   4
ENDBRANCH   2   3
ENDBRANCH   1   2
BRANCH   1  11
ATOM     11  C   UNL     1       0.846  60.073  -4.950  1.00  0.00     0.000 C 
BRANCH  11  12
ATOM     12  C   UNL     1       2.226  59.394  -4.950  1.00  0.00    -0.000 C 
BRANCH  12  13
ATOM     13  C   UNL     1       2.637  58.876  -6.341  1.00  0.00    -0.000 C 
BRANCH  13  14
ATOM     14  C   UNL     1       1.931  59.644  -7.478  1.00  0.00    -0.000 C 
BRANCH  14  15
ATOM     15  C   UNL     1       2.799  60.746  -8.109  1.00  0.00    -0.000 C 
BRANCH  15  16
ATOM     16  C   UNL     1       4.296  60.571  -7.808  1.00  0.00    -0.000 C 
BRANCH  16  17
ATOM     17  C   UNL     1       4.798  59.154  -8.124  1.00  0.00    -0.003 C 
ATOM     18  C   UNL     1       6.322  59.042  -8.085  1.00  0.00     0.004 C 
ENDBRANCH  16  17
ENDBRANCH  15  16
ENDBRANCH  14  15
ENDBRANCH  13  14
ENDBRANCH  12  13
ENDBRANCH  11  12
ENDBRANCH   1  11
TORSDOF 14
ENDMDL
MODEL 4
REMARK VINA RESULT:    -1.493     22.102     23.219
REMARK INTER + INTRA:          -2.540
REMARK INTER:                  -1.696
REMARK INTRA:                  -0.844
REMARK UNBOUND:                 0.175
REMARK SMILES CCCCCCCCCCCCCCCC(=O)[O-]
REMARK SMILES IDX 9 1 10 2 11 3 12 4 13 5 14 6 15 7 16 8 17 9 18 10 8 11 7 12
REMARK SMILES IDX 6 13 5 14 4 15 3 16 2 17 1 18
REMARK H PARENT
REMARK Flexibility Score: inf
ROOT
ATOM      1  C   UNL     1       1.676  59.874  -5.336  1.00  0.00     0.000 C 
ENDROOT
BRANCH   1   2
ATOM      2  C   UNL     1       1.568  59.595  -6.847  1.00  0.00     0.000 C 
BRANCH   2   3
ATOM      3  C   UNL     1       2.644  60.326  -7.668  1.00  0.00     0.000 C 
BRANCH   3   4
ATOM      4  C   UNL     1       3.774  59.391  -8.124  1.00  0.00     0.000 C 
BRANCH   4   5
ATOM      5  C   UNL     1       5.168  60.020  -7.964  1.00  0.00     0.000 C 
BRANCH   5   6
ATOM      6  C   UNL     1       6.146  59.028  -7.319  1.00  0.00     0.006 C 
BRANCH   6   7
ATOM      7  C   UNL     1       7.462  58.917  -8.102  1.00  0.00     0.053 C 
BRANCH   7   8
ATOM      8  C   UNL     1       8.594  59.583  -7.382  1.00  0.00     0.041 C 
ATOM      9  O   UNL     1       8.788  59.356  -6.159  1.00  0.00    -0.550 OA
ATOM     10  O   UNL     1       9.454  60.428  -8.071  1.00  0.00    -0.550 OA
ENDBRANCH   7   8
ENDBRANCH   6   7
ENDBRANCH   5   6
ENDBRANCH   4   5
ENDBRANCH   3   4
ENDBRANCH   2   3
ENDBRANCH   1   2
BRANCH   1  11
ATOM     11  C   UNL     1       0.336  59.889  -4.573  1.00  0.00     0.000 C 
BRANCH  11  12
ATOM     12  C   UNL     1      -0.733  58.923  -5.114  1.00  0.00    -0.000 C 
BRANCH  12  13
ATOM     13  C   UNL     1      -2.142  59.228  -4.574  1.00  0.00    -0.000 C 
BRANCH  13  14
ATOM     14  C   UNL     1      -2.367  60.739  -4.359  1.00  0.00    -0.000 C 
BRANCH  14  15
ATOM     15  C   UNL     1      -3.724  61.241  -4.882  1.00  0.00    -0.000 C 
BRANCH  15  16
ATOM     16  C   UNL     1      -3.808  61.245  -6.416  1.00  0.00    -0.000 C 
BRANCH  16  17
ATOM     17  C   UNL     1      -4.835  60.236  -6.952  1.00  0.00    -0.003 C 
ATOM     18  C   UNL     1      -4.184  59.045  -7.657  1.00  0.00     0.004 C 
ENDBRANCH  16  17
ENDBRANCH  15  16
ENDBRANCH  14  15
ENDBRANCH  13  14
ENDBRANCH  12  13
ENDBRANCH  11  12
ENDBRANCH   1  11
TORSDOF 14
ENDMDL
MODEL 5
REMARK VINA RESULT:    -0.316      1.981      6.156
REMARK INTER + INTRA:          -0.399
REMARK INTER:                  -0.008
REMARK INTRA:                  -0.391
REMARK UNBOUND:                 0.175
REMARK SMILES CCCCCCCCCCCCCCCC(=O)[O-]
REMARK SMILES IDX 9 1 10 2 11 3 12 4 13 5 14 6 15 7 16 8 17 9 18 10 8 11 7 12
REMARK SMILES IDX 6 13 5 14 4 15 3 16 2 17 1 18
REMARK H PARENT
REMARK Flexibility Score: inf
ROOT
ATOM      1  C   UNL     1       4.207  77.350   5.087  1.00  0.00     0.000 C 
ENDROOT
BRANCH   1   2
ATOM      2  C   UNL     1       2.693  77.604   5.206  1.00  0.00     0.000 C 
BRANCH   2   3
ATOM      3  C   UNL     1       2.290  78.188   6.570  1.00  0.00     0.000 C 
BRANCH   3   4
ATOM      4  C   UNL     1       3.069  77.556   7.735  1.00  0.00     0.000 C 
BRANCH   4   5
ATOM      5  C   UNL     1       3.965  78.567   8.468  1.00  0.00     0.000 C 
BRANCH   5   6
ATOM      6  C   UNL     1       3.288  79.072   9.749  1.00  0.00     0.006 C 
BRANCH   6   7
ATOM      7  C   UNL     1       4.256  79.121  10.939  1.00  0.00     0.053 C 
BRANCH   7   8
ATOM      8  C   UNL     1       4.695  77.750  11.354  1.00  0.00     0.041 C 
ATOM      9  O   UNL     1       5.913  77.434  11.308  1.00  0.00    -0.550 OA
ATOM     10  O   UNL     1       3.764  76.833  11.822  1.00  0.00    -0.550 OA
ENDBRANCH   7   8
ENDBRANCH   6   7
ENDBRANCH   5   6
ENDBRANCH   4   5
ENDBRANCH   3   4
ENDBRANCH   2   3
ENDBRANCH   1   2
BRANCH   1  11
ATOM     11  C   UNL     1       4.714  77.051   3.662  1.00  0.00     0.000 C 
BRANCH  11  12
ATOM     12  C   UNL     1       5.452  78.213   2.975  1.00  0.00    -0.000 C 
BRANCH  12  13
ATOM     13  C   UNL     1       6.887  77.845   2.556  1.00  0.00    -0.000 C 
BRANCH  13  14
ATOM     14  C   UNL     1       7.919  78.883   3.044  1.00  0.00    -0.000 C 
BRANCH  14  15
ATOM     15  C   UNL     1       8.114  78.889   4.570  1.00  0.00    -0.000 C 
BRANCH  15  16
ATOM     16  C   UNL     1       8.737  77.587   5.096  1.00  0.00    -0.000 C 
BRANCH  16  17
ATOM     17  C   UNL     1       8.061  77.088   6.382  1.00  0.00    -0.003 C 
ATOM     18  C   UNL     1       6.574  77.439   6.445  1.00  0.00     0.004 C 
ENDBRANCH  16  17
ENDBRANCH  15  16
ENDBRANCH  14  15
ENDBRANCH  13  14
ENDBRANCH  12  13
ENDBRANCH  11  12
ENDBRANCH   1  11
TORSDOF 14
ENDMDL
MODEL 6
REMARK VINA RESULT:     0.427     19.749     22.382
REMARK INTER + INTRA:           0.951
REMARK INTER:                   1.560
REMARK INTRA:                  -0.609
REMARK UNBOUND:                 0.175
REMARK SMILES CCCCCCCCCCCCCCCC(=O)[O-]
REMARK SMILES IDX 9 1 10 2 11 3 12 4 13 5 14 6 15 7 16 8 17 9 18 10 8 11 7 12
REMARK SMILES IDX 6 13 5 14 4 15 3 16 2 17 1 18
REMARK H PARENT
REMARK Flexibility Score: inf
ROOT
ATOM      1  C   UNL     1      -3.353  60.817  -4.203  1.00  0.00     0.000 C 
ENDROOT
BRANCH   1   2
ATOM      2  C   UNL     1      -3.276  59.429  -3.541  1.00  0.00     0.000 C 
BRANCH   2   3
ATOM      3  C   UNL     1      -1.832  58.980  -3.260  1.00  0.00     0.000 C 
BRANCH   3   4
ATOM      4  C   UNL     1      -0.800  60.066  -3.602  1.00  0.00     0.000 C 
BRANCH   4   5
ATOM      5  C   UNL     1      -0.334  60.854  -2.367  1.00  0.00     0.000 C 
BRANCH   5   6
ATOM      6  C   UNL     1       0.938  60.234  -1.770  1.00  0.00     0.006 C 
BRANCH   6   7
ATOM      7  C   UNL     1       1.089  60.545  -0.274  1.00  0.00     0.053 C 
BRANCH   7   8
ATOM      8  C   UNL     1       1.541  61.953  -0.043  1.00  0.00     0.041 C 
ATOM      9  O   UNL     1       2.143  62.260   1.020  1.00  0.00    -0.550 OA
ATOM     10  O   UNL     1       1.328  62.921  -1.016  1.00  0.00    -0.550 OA
ENDBRANCH   7   8
ENDBRANCH   6   7
ENDBRANCH   5   6
ENDBRANCH   4   5
ENDBRANCH   3   4
ENDBRANCH   2   3
ENDBRANCH   1   2
BRANCH   1  11
ATOM     11  C   UNL     1      -3.954  60.835  -5.623  1.00  0.00     0.000 C 
BRANCH  11  12
ATOM     12  C   UNL     1      -4.175  59.450  -6.255  1.00  0.00    -0.000 C 
BRANCH  12  13
ATOM     13  C   UNL     1      -3.812  59.410  -7.751  1.00  0.00    -0.000 C 
BRANCH  13  14
ATOM     14  C   UNL     1      -2.331  59.044  -7.979  1.00  0.00    -0.000 C 
BRANCH  14  15
ATOM     15  C   UNL     1      -1.380  59.638  -6.926  1.00  0.00    -0.000 C 
BRANCH  15  16
ATOM     16  C   UNL     1      -0.050  58.875  -6.826  1.00  0.00    -0.000 C 
BRANCH  16  17
ATOM     17  C   UNL     1       1.123  59.785  -6.430  1.00  0.00    -0.003 C 
ATOM     18  C   UNL     1       2.214  59.045  -5.656  1.00  0.00     0.004 C 
ENDBRANCH  16  17
ENDBRANCH  15  16
ENDBRANCH  14  15
ENDBRANCH  13  14
ENDBRANCH  12  13
ENDBRANCH  11  12
ENDBRANCH   1  11
TORSDOF 14
ENDMDL
