MODEL 1
REMARK VINA RESULT:    -6.392      0.000      0.000
REMARK INTER + INTRA:          -7.640
REMARK INTER:                  -7.513
REMARK INTRA:                  -0.127
REMARK UNBOUND:                -0.127
REMARK SMILES O=C([O-])C=Cc1ccc(O)c(O)c1
REMARK SMILES IDX 6 1 13 2 7 3 11 4 8 5 9 6 5 7 4 8 2 9 1 10 3 11 12 12 10 14
REMARK H PARENT 12 13 10 15
REMARK Flexibility Score: inf
ROOT
ATOM      1  C   UNL     1      12.883 -12.660  28.496  1.00  0.00    -0.022 A 
ATOM      2  C   UNL     1      13.268 -11.942  29.646  1.00  0.00     0.058 A 
ATOM      3  C   UNL     1      11.627 -12.399  27.923  1.00  0.00     0.012 A 
ATOM      4  C   UNL     1      12.422 -10.967  30.194  1.00  0.00     0.157 A 
ATOM      5  C   UNL     1      10.785 -11.426  28.469  1.00  0.00     0.051 A 
ATOM      6  C   UNL     1      11.181 -10.705  29.602  1.00  0.00     0.157 A 
ENDROOT
BRANCH   1   7
ATOM      7  C   UNL     1      13.735 -13.709  27.886  1.00  0.00     0.010 C 
ATOM      8  C   UNL     1      14.580 -14.481  28.584  1.00  0.00     0.025 C 
BRANCH   8   9
ATOM      9  C   UNL     1      15.416 -15.504  27.936  1.00  0.00     0.064 C 
ATOM     10  O   UNL     1      15.902 -15.279  26.797  1.00  0.00    -0.545 OA
ATOM     11  O   UNL     1      15.682 -16.716  28.564  1.00  0.00    -0.545 OA
ENDBRANCH   8   9
ENDBRANCH   1   7
BRANCH   4  12
ATOM     12  O   UNL     1      12.806 -10.255  31.329  1.00  0.00    -0.504 OA
ATOM     13  H   UNL     1      12.640  -9.258  31.412  1.00  0.00     0.293 HD
ENDBRANCH   4  12
BRANCH   6  14
ATOM     14  O   UNL     1      10.345  -9.733  30.147  1.00  0.00    -0.504 OA
ATOM     15  H   UNL     1      10.652  -8.774  30.262  1.00  0.00     0.293 HD
ENDBRANCH   6  14
TORSDOF 4
ENDMDL
MODEL 2
REMARK VINA RESULT:    -6.275      1.179      5.880
REMARK INTER + INTRA:          -7.503
REMARK INTER:                  -7.373
REMARK INTRA:                  -0.130
REMARK UNBOUND:                -0.127
REMARK SMILES O=C([O-])C=Cc1ccc(O)c(O)c1
REMARK SMILES IDX 6 1 13 2 7 3 11 4 8 5 9 6 5 7 4 8 2 9 1 10 3 11 12 12 10 14
REMARK H PARENT 12 13 10 15
REMARK Flexibility Score: inf
ROOT
ATOM      1  C   UNL     1      14.196 -12.948  28.993  1.00  0.00    -0.022 A 
ATOM      2  C   UNL     1      14.374 -14.120  29.754  1.00  0.00     0.058 A 
ATOM      3  C   UNL     1      14.692 -12.910  27.679  1.00  0.00     0.012 A 
ATOM      4  C   UNL     1      15.015 -15.239  29.201  1.00  0.00     0.157 A 
ATOM      5  C   UNL     1      15.329 -14.026  27.128  1.00  0.00     0.051 A 
ATOM      6  C   UNL     1      15.488 -15.193  27.884  1.00  0.00     0.157 A 
ENDROOT
BRANCH   1   7
ATOM      7  C   UNL     1      13.537 -11.735  29.536  1.00  0.00     0.010 C 
ATOM      8  C   UNL     1      12.244 -11.440  29.343  1.00  0.00     0.025 C 
BRANCH   8   9
ATOM      9  C   UNL     1      11.633 -10.219  29.892  1.00  0.00     0.064 C 
ATOM     10  O   UNL     1      10.390 -10.051  29.801  1.00  0.00    -0.545 OA
ATOM     11  O   UNL     1      12.409  -9.246  30.513  1.00  0.00    -0.545 OA
ENDBRANCH   8   9
ENDBRANCH   1   7
BRANCH   4  12
ATOM     12  O   UNL     1      15.187 -16.399  29.954  1.00  0.00    -0.504 OA
ATOM     13  H   UNL     1      14.419 -16.818  30.466  1.00  0.00     0.293 HD
ENDBRANCH   4  12
BRANCH   6  14
ATOM     14  O   UNL     1      16.121 -16.307  27.337  1.00  0.00    -0.504 OA
ATOM     15  H   UNL     1      17.046 -16.591  27.635  1.00  0.00     0.293 HD
ENDBRANCH   6  14
TORSDOF 4
ENDMDL
MODEL 3
REMARK VINA RESULT:    -6.260      0.941      1.888
REMARK INTER + INTRA:          -7.486
REMARK INTER:                  -7.336
REMARK INTRA:                  -0.149
REMARK UNBOUND:                -0.127
REMARK SMILES O=C([O-])C=Cc1ccc(O)c(O)c1
REMARK SMILES IDX 6 1 13 2 7 3 11 4 8 5 9 6 5 7 4 8 2 9 1 10 3 11 12 12 10 14
REMARK H PARENT 12 13 10 15
REMARK Flexibility Score: inf
ROOT
ATOM      1  C   UNL     1      13.401 -12.671  28.789  1.00  0.00    -0.022 A 
ATOM      2  C   UNL     1      12.241 -12.094  28.235  1.00  0.00     0.058 A 
ATOM      3  C   UNL     1      13.983 -12.072  29.919  1.00  0.00     0.012 A 
ATOM      4  C   UNL     1      11.664 -10.955  28.816  1.00  0.00     0.157 A 
ATOM      5  C   UNL     1      13.406 -10.938  30.498  1.00  0.00     0.051 A 
ATOM      6  C   UNL     1      12.246 -10.379  29.952  1.00  0.00     0.157 A 
ENDROOT
BRANCH   1   7
ATOM      7  C   UNL     1      14.056 -13.867  28.205  1.00  0.00     0.010 C 
ATOM      8  C   UNL     1      14.800 -14.729  28.912  1.00  0.00     0.025 C 
BRANCH   8   9
ATOM      9  C   UNL     1      15.441 -15.897  28.289  1.00  0.00     0.064 C 
ATOM     10  O   UNL     1      15.826 -15.832  27.093  1.00  0.00    -0.545 OA
ATOM     11  O   UNL     1      15.631 -17.075  29.003  1.00  0.00    -0.545 OA
ENDBRANCH   8   9
ENDBRANCH   1   7
BRANCH   4  12
ATOM     12  O   UNL     1      10.515 -10.387  28.267  1.00  0.00    -0.504 OA
ATOM     13  H   UNL     1      10.565  -9.717  27.508  1.00  0.00     0.293 HD
ENDBRANCH   4  12
BRANCH   6  14
ATOM     14  O   UNL     1      11.667  -9.250  30.528  1.00  0.00    -0.504 OA
ATOM     15  H   UNL     1      11.116  -8.599  29.981  1.00  0.00     0.293 HD
ENDBRANCH   6  14
TORSDOF 4
ENDMDL
MODEL 4
REMARK VINA RESULT:    -6.020     11.504     13.475
REMARK INTER + INTRA:          -7.204
REMARK INTER:                  -7.070
REMARK INTRA:                  -0.133
REMARK UNBOUND:                -0.127
REMARK SMILES O=C([O-])C=Cc1ccc(O)c(O)c1
REMARK SMILES IDX 6 1 13 2 7 3 11 4 8 5 9 6 5 7 4 8 2 9 1 10 3 11 12 12 10 14
REMARK H PARENT 12 13 10 15
REMARK Flexibility Score: inf
ROOT
ATOM      1  C   UNL     1      17.500  -1.666  26.780  1.00  0.00    -0.022 A 
ATOM      2  C   UNL     1      17.308  -2.421  27.953  1.00  0.00     0.058 A 
ATOM      3  C   UNL     1      18.798  -1.546  26.255  1.00  0.00     0.012 A 
ATOM      4  C   UNL     1      18.391  -3.063  28.573  1.00  0.00     0.157 A 
ATOM      5  C   UNL     1      19.876  -2.187  26.872  1.00  0.00     0.051 A 
ATOM      6  C   UNL     1      19.676  -2.949  28.029  1.00  0.00     0.157 A 
ENDROOT
BRANCH   1   7
ATOM      7  C   UNL     1      16.391  -0.959  26.094  1.00  0.00     0.010 C 
ATOM      8  C   UNL     1      16.200   0.366  26.158  1.00  0.00     0.025 C 
BRANCH   8   9
ATOM      9  C   UNL     1      15.079   1.025  25.471  1.00  0.00     0.064 C 
ATOM     10  O   UNL     1      14.364   0.365  24.673  1.00  0.00    -0.545 OA
ATOM     11  O   UNL     1      14.793   2.368  25.691  1.00  0.00    -0.545 OA
ENDBRANCH   8   9
ENDBRANCH   1   7
BRANCH   4  12
ATOM     12  O   UNL     1      18.198  -3.813  29.732  1.00  0.00    -0.504 OA
ATOM     13  H   UNL     1      17.628  -3.470  30.497  1.00  0.00     0.293 HD
ENDBRANCH   4  12
BRANCH   6  14
ATOM     14  O   UNL     1      20.748  -3.591  28.645  1.00  0.00    -0.504 OA
ATOM     15  H   UNL     1      21.443  -3.076  29.172  1.00  0.00     0.293 HD
ENDBRANCH   6  14
TORSDOF 4
ENDMDL
MODEL 5
REMARK VINA RESULT:    -5.993     11.905     13.031
REMARK INTER + INTRA:          -7.172
REMARK INTER:                  -7.045
REMARK INTRA:                  -0.127
REMARK UNBOUND:                -0.127
REMARK SMILES O=C([O-])C=Cc1ccc(O)c(O)c1
REMARK SMILES IDX 6 1 13 2 7 3 11 4 8 5 9 6 5 7 4 8 2 9 1 10 3 11 12 12 10 14
REMARK H PARENT 12 13 10 15
REMARK Flexibility Score: inf
ROOT
ATOM      1  C   UNL     1      15.854  -0.503  26.721  1.00  0.00    -0.022 A 
ATOM      2  C   UNL     1      15.847   0.670  27.501  1.00  0.00     0.058 A 
ATOM      3  C   UNL     1      15.357  -0.448  25.408  1.00  0.00     0.012 A 
ATOM      4  C   UNL     1      15.375   1.879  26.966  1.00  0.00     0.157 A 
ATOM      5  C   UNL     1      14.889   0.757  24.875  1.00  0.00     0.051 A 
ATOM      6  C   UNL     1      14.900   1.922  25.650  1.00  0.00     0.157 A 
ENDROOT
BRANCH   1   7
ATOM      7  C   UNL     1      16.330  -1.807  27.245  1.00  0.00     0.010 C 
ATOM      8  C   UNL     1      17.601  -2.224  27.161  1.00  0.00     0.025 C 
BRANCH   8   9
ATOM      9  C   UNL     1      18.028  -3.531  27.683  1.00  0.00     0.064 C 
ATOM     10  O   UNL     1      17.627  -4.585  27.126  1.00  0.00    -0.545 OA
ATOM     11  O   UNL     1      18.872  -3.621  28.785  1.00  0.00    -0.545 OA
ENDBRANCH   8   9
ENDBRANCH   1   7
BRANCH   4  12
ATOM     12  O   UNL     1      15.373   3.040  27.738  1.00  0.00    -0.504 OA
ATOM     13  H   UNL     1      16.022   3.797  27.558  1.00  0.00     0.293 HD
ENDBRANCH   4  12
BRANCH   6  14
ATOM     14  O   UNL     1      14.436   3.125  25.121  1.00  0.00    -0.504 OA
ATOM     15  H   UNL     1      14.068   3.858  25.716  1.00  0.00     0.293 HD
ENDBRANCH   6  14
TORSDOF 4
ENDMDL
MODEL 6
REMARK VINA RESULT:    -5.898      1.163      6.008
REMARK INTER + INTRA:          -7.060
REMARK INTER:                  -6.927
REMARK INTRA:                  -0.133
REMARK UNBOUND:                -0.127
REMARK SMILES O=C([O-])C=Cc1ccc(O)c(O)c1
REMARK SMILES IDX 6 1 13 2 7 3 11 4 8 5 9 6 5 7 4 8 2 9 1 10 3 11 12 12 10 14
REMARK H PARENT 12 13 10 15
REMARK Flexibility Score: inf
ROOT
ATOM      1  C   UNL     1      14.172 -12.823  29.172  1.00  0.00    -0.022 A 
ATOM      2  C   UNL     1      14.631 -13.113  27.873  1.00  0.00     0.058 A 
ATOM      3  C   UNL     1      14.351 -13.780  30.185  1.00  0.00     0.012 A 
ATOM      4  C   UNL     1      15.279 -14.328  27.600  1.00  0.00     0.157 A 
ATOM      5  C   UNL     1      14.998 -14.989  29.914  1.00  0.00     0.051 A 
ATOM      6  C   UNL     1      15.466 -15.265  28.624  1.00  0.00     0.157 A 
ENDROOT
BRANCH   1   7
ATOM      7  C   UNL     1      13.470 -11.559  29.508  1.00  0.00     0.010 C 
ATOM      8  C   UNL     1      12.149 -11.471  29.708  1.00  0.00     0.025 C 
BRANCH   8   9
ATOM      9  C   UNL     1      11.492 -10.194  30.028  1.00  0.00     0.064 C 
ATOM     10  O   UNL     1      12.172  -9.249  30.506  1.00  0.00    -0.545 OA
ATOM     11  O   UNL     1      10.131 -10.013  29.809  1.00  0.00    -0.545 OA
ENDBRANCH   8   9
ENDBRANCH   1   7
BRANCH   4  12
ATOM     12  O   UNL     1      15.736 -14.612  26.315  1.00  0.00    -0.504 OA
ATOM     13  H   UNL     1      16.448 -14.046  25.868  1.00  0.00     0.293 HD
ENDBRANCH   4  12
BRANCH   6  14
ATOM     14  O   UNL     1      16.113 -16.468  28.350  1.00  0.00    -0.504 OA
ATOM     15  H   UNL     1      15.759 -17.114  27.655  1.00  0.00     0.293 HD
ENDBRANCH   6  14
TORSDOF 4
ENDMDL
MODEL 7
REMARK VINA RESULT:    -5.801     11.241     13.426
REMARK INTER + INTRA:          -6.945
REMARK INTER:                  -6.823
REMARK INTRA:                  -0.122
REMARK UNBOUND:                -0.127
REMARK SMILES O=C([O-])C=Cc1ccc(O)c(O)c1
REMARK SMILES IDX 6 1 13 2 7 3 11 4 8 5 9 6 5 7 4 8 2 9 1 10 3 11 12 12 10 14
REMARK H PARENT 12 13 10 15
REMARK Flexibility Score: inf
ROOT
ATOM      1  C   UNL     1      16.120  -1.230  27.685  1.00  0.00    -0.022 A 
ATOM      2  C   UNL     1      17.173  -1.949  27.086  1.00  0.00     0.058 A 
ATOM      3  C   UNL     1      15.806  -1.481  29.031  1.00  0.00     0.012 A 
ATOM      4  C   UNL     1      17.912  -2.882  27.829  1.00  0.00     0.157 A 
ATOM      5  C   UNL     1      16.544  -2.411  29.771  1.00  0.00     0.051 A 
ATOM      6  C   UNL     1      17.599  -3.109  29.175  1.00  0.00     0.157 A 
ENDROOT
BRANCH   1   7
ATOM      7  C   UNL     1      15.302  -0.242  26.940  1.00  0.00     0.010 C 
ATOM      8  C   UNL     1      15.738   0.977  26.594  1.00  0.00     0.025 C 
BRANCH   8   9
ATOM      9  C   UNL     1      14.888   1.930  25.864  1.00  0.00     0.064 C 
ATOM     10  O   UNL     1      14.517   1.662  24.692  1.00  0.00    -0.545 OA
ATOM     11  O   UNL     1      14.484   3.125  26.450  1.00  0.00    -0.545 OA
ENDBRANCH   8   9
ENDBRANCH   1   7
BRANCH   4  12
ATOM     12  O   UNL     1      18.956  -3.590  27.236  1.00  0.00    -0.504 OA
ATOM     13  H   UNL     1      19.515  -4.251  27.763  1.00  0.00     0.293 HD
ENDBRANCH   4  12
BRANCH   6  14
ATOM     14  O   UNL     1      18.338  -4.035  29.910  1.00  0.00    -0.504 OA
ATOM     15  H   UNL     1      19.210  -3.781  30.357  1.00  0.00     0.293 HD
ENDBRANCH   6  14
TORSDOF 4
ENDMDL
MODEL 8
REMARK VINA RESULT:    -5.377     11.417     12.793
REMARK INTER + INTRA:          -6.448
REMARK INTER:                  -6.318
REMARK INTRA:                  -0.129
REMARK UNBOUND:                -0.127
REMARK SMILES O=C([O-])C=Cc1ccc(O)c(O)c1
REMARK SMILES IDX 6 1 13 2 7 3 11 4 8 5 9 6 5 7 4 8 2 9 1 10 3 11 12 12 10 14
REMARK H PARENT 12 13 10 15
REMARK Flexibility Score: inf
ROOT
ATOM      1  C   UNL     1      16.009  -0.771  27.450  1.00  0.00    -0.022 A 
ATOM      2  C   UNL     1      15.563  -1.041  26.141  1.00  0.00     0.058 A 
ATOM      3  C   UNL     1      15.927   0.544  27.937  1.00  0.00     0.012 A 
ATOM      4  C   UNL     1      15.024  -0.018  25.346  1.00  0.00     0.157 A 
ATOM      5  C   UNL     1      15.388   1.563  27.145  1.00  0.00     0.051 A 
ATOM      6  C   UNL     1      14.933   1.284  25.851  1.00  0.00     0.157 A 
ENDROOT
BRANCH   1   7
ATOM      7  C   UNL     1      16.598  -1.815  28.325  1.00  0.00     0.010 C 
ATOM      8  C   UNL     1      17.849  -2.275  28.196  1.00  0.00     0.025 C 
BRANCH   8   9
ATOM      9  C   UNL     1      18.389  -3.320  29.079  1.00  0.00     0.064 C 
ATOM     10  O   UNL     1      17.628  -3.897  29.899  1.00  0.00    -0.545 OA
ATOM     11  O   UNL     1      19.730  -3.685  29.023  1.00  0.00    -0.545 OA
ENDBRANCH   8   9
ENDBRANCH   1   7
BRANCH   4  12
ATOM     12  O   UNL     1      14.581  -0.288  24.053  1.00  0.00    -0.504 OA
ATOM     13  H   UNL     1      14.266   0.452  23.435  1.00  0.00     0.293 HD
ENDBRANCH   4  12
BRANCH   6  14
ATOM     14  O   UNL     1      14.393   2.297  25.060  1.00  0.00    -0.504 OA
ATOM     15  H   UNL     1      13.392   2.400  24.941  1.00  0.00     0.293 HD
ENDBRANCH   6  14
TORSDOF 4
ENDMDL
MODEL 9
REMARK VINA RESULT:    -3.636      3.748      5.201
REMARK INTER + INTRA:          -4.401
REMARK INTER:                  -4.276
REMARK INTRA:                  -0.124
REMARK UNBOUND:                -0.127
REMARK SMILES O=C([O-])C=Cc1ccc(O)c(O)c1
REMARK SMILES IDX 6 1 13 2 7 3 11 4 8 5 9 6 5 7 4 8 2 9 1 10 3 11 12 12 10 14
REMARK H PARENT 12 13 10 15
REMARK Flexibility Score: inf
ROOT
ATOM      1  C   UNL     1      13.115 -10.222  28.293  1.00  0.00    -0.022 A 
ATOM      2  C   UNL     1      11.757  -9.907  28.498  1.00  0.00     0.058 A 
ATOM      3  C   UNL     1      13.679 -11.293  29.005  1.00  0.00     0.012 A 
ATOM      4  C   UNL     1      10.976 -10.668  29.381  1.00  0.00     0.157 A 
ATOM      5  C   UNL     1      12.899 -12.051  29.883  1.00  0.00     0.051 A 
ATOM      6  C   UNL     1      11.547 -11.744  30.071  1.00  0.00     0.157 A 
ENDROOT
BRANCH   1   7
ATOM      7  C   UNL     1      13.987  -9.441  27.380  1.00  0.00     0.010 C 
ATOM      8  C   UNL     1      13.583  -8.348  26.720  1.00  0.00     0.025 C 
BRANCH   8   9
ATOM      9  C   UNL     1      14.479  -7.610  25.815  1.00  0.00     0.064 C 
ATOM     10  O   UNL     1      15.224  -6.707  26.277  1.00  0.00    -0.545 OA
ATOM     11  O   UNL     1      14.517  -7.896  24.455  1.00  0.00    -0.545 OA
ENDBRANCH   8   9
ENDBRANCH   1   7
BRANCH   4  12
ATOM     12  O   UNL     1       9.631 -10.357  29.581  1.00  0.00    -0.504 OA
ATOM     13  H   UNL     1       9.049 -10.902  30.206  1.00  0.00     0.293 HD
ENDBRANCH   4  12
BRANCH   6  14
ATOM     14  O   UNL     1      10.766 -12.499  30.944  1.00  0.00    -0.504 OA
ATOM     15  H   UNL     1      11.148 -12.884  31.799  1.00  0.00     0.293 HD
ENDBRANCH   6  14
TORSDOF 4
ENDMDL
