MODEL 1
REMARK VINA RESULT:    -7.714      0.000      0.000
REMARK INTER + INTRA:         -12.100
REMARK INTER:                 -10.195
REMARK INTRA:                  -1.906
REMARK UNBOUND:                -1.906
REMARK SMILES CC[C@@H](C=C[C@@H](C)[C@@H]1CC[C@@H]2C3=CC[C@H]4C[C@H](O)CC[C@]4(C)[C@H]3CC[C@]21C)C(C)C
REMARK SMILES IDX 6 1 7 2 5 3 4 4 3 5 2 6 1 7 28 8 29 9 30 10 8 11 9 12 26 13
REMARK SMILES IDX 10 14 11 15 25 16 27 17 12 18 24 19 23 20 13 21 21 22 14 23
REMARK SMILES IDX 15 24 20 25 22 26 16 27 19 28 17 29 18 30
REMARK H PARENT 18 31
REMARK Flexibility Score: inf
ROOT
ATOM      1  C   UNL     1     183.406 173.193 179.467  1.00  0.00     0.012 C 
ATOM      2  C   UNL     1     184.340 171.984 179.599  1.00  0.00     0.012 C 
ENDROOT
BRANCH   1   3
ATOM      3  C   UNL     1     183.640 173.874 178.128  1.00  0.00    -0.028 C 
ATOM      4  C   UNL     1     182.704 174.081 177.176  1.00  0.00    -0.027 C 
BRANCH   4   5
ATOM      5  C   UNL     1     181.251 173.637 177.256  1.00  0.00     0.014 C 
BRANCH   5   6
ATOM      6  C   UNL     1     181.130 172.226 176.614  1.00  0.00     0.004 C 
ATOM      7  C   UNL     1     180.908 171.119 177.648  1.00  0.00     0.004 C 
ENDBRANCH   5   6
BRANCH   5   8
ATOM      8  C   UNL     1     180.332 174.692 176.555  1.00  0.00    -0.011 C 
ATOM      9  C   UNL     1     178.839 174.347 176.686  1.00  0.00     0.008 C 
ATOM     10  C   UNL     1     180.560 176.109 177.114  1.00  0.00     0.008 C 
ENDBRANCH   5   8
ENDBRANCH   4   5
ENDBRANCH   1   3
BRANCH   1  11
ATOM     11  C   UNL     1     183.463 174.136 180.719  1.00  0.00     0.002 C 
ATOM     12  C   UNL     1     183.411 173.386 182.072  1.00  0.00     0.005 C 
ATOM     13  C   UNL     1     182.449 175.311 180.886  1.00  0.00    -0.023 C 
ATOM     14  C   UNL     1     182.803 174.355 183.096  1.00  0.00     0.009 C 
ATOM     15  C   UNL     1     182.714 175.685 182.355  1.00  0.00     0.021 C 
ATOM     16  C   UNL     1     182.728 176.564 179.990  1.00  0.00     0.008 C 
ATOM     17  C   UNL     1     180.982 174.825 180.675  1.00  0.00     0.012 C 
ATOM     18  C   UNL     1     181.763 176.762 182.835  1.00  0.00    -0.067 C 
ATOM     19  C   UNL     1     182.549 177.935 180.709  1.00  0.00     0.009 C 
ATOM     20  C   UNL     1     181.508 177.923 181.871  1.00  0.00     0.021 C 
ATOM     21  C   UNL     1     181.264 176.767 184.091  1.00  0.00    -0.027 C 
ATOM     22  C   UNL     1     181.370 179.280 182.644  1.00  0.00    -0.023 C 
ATOM     23  C   UNL     1     180.556 177.955 184.698  1.00  0.00     0.031 C 
ATOM     24  C   UNL     1     180.216 179.064 183.681  1.00  0.00     0.002 C 
ATOM     25  C   UNL     1     180.948 180.419 181.671  1.00  0.00     0.010 C 
ATOM     26  C   UNL     1     182.715 179.657 183.334  1.00  0.00     0.012 C 
ATOM     27  C   UNL     1     179.790 180.360 184.404  1.00  0.00     0.036 C 
ATOM     28  C   UNL     1     180.541 181.712 182.399  1.00  0.00     0.032 C 
ATOM     29  C   UNL     1     179.414 181.470 183.409  1.00  0.00     0.114 C 
BRANCH  29  30
ATOM     30  O   UNL     1     178.235 181.137 182.721  1.00  0.00    -0.393 OA
ATOM     31  H   UNL     1     177.863 180.329 183.162  1.00  0.00     0.210 HD
ENDBRANCH  29  30
ENDBRANCH   1  11
TORSDOF 6
ENDMDL
MODEL 2
REMARK VINA RESULT:    -7.157      1.861      3.136
REMARK INTER + INTRA:         -11.363
REMARK INTER:                  -9.586
REMARK INTRA:                  -1.777
REMARK UNBOUND:                -1.906
REMARK SMILES CC[C@@H](C=C[C@@H](C)[C@@H]1CC[C@@H]2C3=CC[C@H]4C[C@H](O)CC[C@]4(C)[C@H]3CC[C@]21C)C(C)C
REMARK SMILES IDX 6 1 7 2 5 3 4 4 3 5 2 6 1 7 28 8 29 9 30 10 8 11 9 12 26 13
REMARK SMILES IDX 10 14 11 15 25 16 27 17 12 18 24 19 23 20 13 21 21 22 14 23
REMARK SMILES IDX 15 24 20 25 22 26 16 27 19 28 17 29 18 30
REMARK H PARENT 18 31
REMARK Flexibility Score: inf
ROOT
ATOM      1  C   UNL     1     183.240 172.002 180.248  1.00  0.00     0.012 C 
ATOM      2  C   UNL     1     184.393 171.384 179.448  1.00  0.00     0.012 C 
ENDROOT
BRANCH   1   3
ATOM      3  C   UNL     1     181.922 171.390 179.798  1.00  0.00    -0.028 C 
ATOM      4  C   UNL     1     181.251 171.707 178.670  1.00  0.00    -0.027 C 
BRANCH   4   5
ATOM      5  C   UNL     1     181.674 172.763 177.660  1.00  0.00     0.014 C 
BRANCH   5   6
ATOM      6  C   UNL     1     180.508 173.776 177.486  1.00  0.00     0.004 C 
ATOM      7  C   UNL     1     180.786 175.125 178.155  1.00  0.00     0.004 C 
ENDBRANCH   5   6
BRANCH   5   8
ATOM      8  C   UNL     1     182.075 172.079 176.310  1.00  0.00    -0.011 C 
ATOM      9  C   UNL     1     181.142 172.475 175.153  1.00  0.00     0.008 C 
ATOM     10  C   UNL     1     183.525 172.414 175.909  1.00  0.00     0.008 C 
ENDBRANCH   5   8
ENDBRANCH   4   5
ENDBRANCH   1   3
BRANCH   1  11
ATOM     11  C   UNL     1     183.284 173.570 180.254  1.00  0.00     0.002 C 
ATOM     12  C   UNL     1     184.582 174.162 179.654  1.00  0.00     0.005 C 
ATOM     13  C   UNL     1     183.062 174.374 181.573  1.00  0.00    -0.023 C 
ATOM     14  C   UNL     1     184.793 175.532 180.314  1.00  0.00     0.009 C 
ATOM     15  C   UNL     1     183.516 175.770 181.113  1.00  0.00     0.021 C 
ATOM     16  C   UNL     1     181.576 174.462 182.057  1.00  0.00     0.008 C 
ATOM     17  C   UNL     1     183.962 173.830 182.725  1.00  0.00     0.012 C 
ATOM     18  C   UNL     1     183.508 176.763 182.258  1.00  0.00    -0.067 C 
ATOM     19  C   UNL     1     181.141 175.866 182.578  1.00  0.00     0.009 C 
ATOM     20  C   UNL     1     182.297 176.712 183.192  1.00  0.00     0.021 C 
ATOM     21  C   UNL     1     184.451 177.724 182.377  1.00  0.00    -0.027 C 
ATOM     22  C   UNL     1     181.883 178.152 183.658  1.00  0.00    -0.023 C 
ATOM     23  C   UNL     1     184.325 178.898 183.320  1.00  0.00     0.031 C 
ATOM     24  C   UNL     1     183.160 178.769 184.322  1.00  0.00     0.002 C 
ATOM     25  C   UNL     1     180.761 178.072 184.733  1.00  0.00     0.010 C 
ATOM     26  C   UNL     1     181.385 178.997 182.448  1.00  0.00     0.012 C 
ATOM     27  C   UNL     1     182.893 180.115 185.029  1.00  0.00     0.036 C 
ATOM     28  C   UNL     1     180.490 179.421 185.421  1.00  0.00     0.032 C 
ATOM     29  C   UNL     1     181.757 180.002 186.059  1.00  0.00     0.114 C 
BRANCH  29  30
ATOM     30  O   UNL     1     182.148 179.195 187.139  1.00  0.00    -0.393 OA
ATOM     31  H   UNL     1     183.113 179.370 187.295  1.00  0.00     0.210 HD
ENDBRANCH  29  30
ENDBRANCH   1  11
TORSDOF 6
ENDMDL
MODEL 3
REMARK VINA RESULT:    -6.832      2.891      8.202
REMARK INTER + INTRA:         -10.934
REMARK INTER:                 -10.095
REMARK INTRA:                  -0.839
REMARK UNBOUND:                -1.906
REMARK SMILES CC[C@@H](C=C[C@@H](C)[C@@H]1CC[C@@H]2C3=CC[C@H]4C[C@H](O)CC[C@]4(C)[C@H]3CC[C@]21C)C(C)C
REMARK SMILES IDX 6 1 7 2 5 3 4 4 3 5 2 6 1 7 28 8 29 9 30 10 8 11 9 12 26 13
REMARK SMILES IDX 10 14 11 15 25 16 27 17 12 18 24 19 23 20 13 21 21 22 14 23
REMARK SMILES IDX 15 24 20 25 22 26 16 27 19 28 17 29 18 30
REMARK H PARENT 18 31
REMARK Flexibility Score: inf
ROOT
ATOM      1  C   UNL     1     180.958 180.568 184.701  1.00  0.00     0.012 C 
ATOM      2  C   UNL     1     180.645 180.812 186.182  1.00  0.00     0.012 C 
ENDROOT
BRANCH   1   3
ATOM      3  C   UNL     1     179.660 180.394 183.927  1.00  0.00    -0.028 C 
ATOM      4  C   UNL     1     179.047 181.348 183.193  1.00  0.00    -0.027 C 
BRANCH   4   5
ATOM      5  C   UNL     1     179.526 182.783 183.036  1.00  0.00     0.014 C 
BRANCH   5   6
ATOM      6  C   UNL     1     178.283 183.711 182.936  1.00  0.00     0.004 C 
ATOM      7  C   UNL     1     178.145 184.653 184.134  1.00  0.00     0.004 C 
ENDBRANCH   5   6
BRANCH   5   8
ATOM      8  C   UNL     1     180.458 182.899 181.783  1.00  0.00    -0.011 C 
ATOM      9  C   UNL     1     181.949 182.838 182.155  1.00  0.00     0.008 C 
ATOM     10  C   UNL     1     180.163 181.796 180.749  1.00  0.00     0.008 C 
ENDBRANCH   5   8
ENDBRANCH   4   5
ENDBRANCH   1   3
BRANCH   1  11
ATOM     11  C   UNL     1     182.022 179.436 184.490  1.00  0.00     0.002 C 
ATOM     12  C   UNL     1     183.460 179.962 184.264  1.00  0.00     0.005 C 
ATOM     13  C   UNL     1     181.828 178.347 183.390  1.00  0.00    -0.023 C 
ATOM     14  C   UNL     1     184.198 178.901 183.434  1.00  0.00     0.009 C 
ATOM     15  C   UNL     1     183.233 177.721 183.384  1.00  0.00     0.021 C 
ATOM     16  C   UNL     1     180.782 177.233 183.731  1.00  0.00     0.008 C 
ATOM     17  C   UNL     1     181.484 178.991 182.011  1.00  0.00     0.012 C 
ATOM     18  C   UNL     1     183.371 176.671 182.299  1.00  0.00    -0.067 C 
ATOM     19  C   UNL     1     181.219 175.786 183.349  1.00  0.00     0.009 C 
ATOM     20  C   UNL     1     182.194 175.708 182.133  1.00  0.00     0.021 C 
ATOM     21  C   UNL     1     184.517 176.511 181.601  1.00  0.00    -0.027 C 
ATOM     22  C   UNL     1     182.692 174.262 181.783  1.00  0.00    -0.023 C 
ATOM     23  C   UNL     1     184.796 175.310 180.728  1.00  0.00     0.031 C 
ATOM     24  C   UNL     1     183.563 174.414 180.490  1.00  0.00     0.002 C 
ATOM     25  C   UNL     1     181.485 173.337 181.455  1.00  0.00     0.010 C 
ATOM     26  C   UNL     1     183.503 173.659 182.969  1.00  0.00     0.012 C 
ATOM     27  C   UNL     1     183.979 173.063 179.869  1.00  0.00     0.036 C 
ATOM     28  C   UNL     1     181.909 171.987 180.852  1.00  0.00     0.032 C 
ATOM     29  C   UNL     1     182.762 172.165 179.591  1.00  0.00     0.114 C 
BRANCH  29  30
ATOM     30  O   UNL     1     181.971 172.710 178.566  1.00  0.00    -0.393 OA
ATOM     31  H   UNL     1     182.588 172.973 177.834  1.00  0.00     0.210 HD
ENDBRANCH  29  30
ENDBRANCH   1  11
TORSDOF 6
ENDMDL
MODEL 4
REMARK VINA RESULT:    -6.782      1.810      3.650
REMARK INTER + INTRA:         -10.868
REMARK INTER:                  -8.961
REMARK INTRA:                  -1.907
REMARK UNBOUND:                -1.906
REMARK SMILES CC[C@@H](C=C[C@@H](C)[C@@H]1CC[C@@H]2C3=CC[C@H]4C[C@H](O)CC[C@]4(C)[C@H]3CC[C@]21C)C(C)C
REMARK SMILES IDX 6 1 7 2 5 3 4 4 3 5 2 6 1 7 28 8 29 9 30 10 8 11 9 12 26 13
REMARK SMILES IDX 10 14 11 15 25 16 27 17 12 18 24 19 23 20 13 21 21 22 14 23
REMARK SMILES IDX 15 24 20 25 22 26 16 27 19 28 17 29 18 30
REMARK H PARENT 18 31
REMARK Flexibility Score: inf
ROOT
ATOM      1  C   UNL     1     183.698 173.395 179.362  1.00  0.00     0.012 C 
ATOM      2  C   UNL     1     184.269 171.995 179.618  1.00  0.00     0.012 C 
ENDROOT
BRANCH   1   3
ATOM      3  C   UNL     1     184.396 174.019 178.164  1.00  0.00    -0.028 C 
ATOM      4  C   UNL     1     185.645 174.532 178.159  1.00  0.00    -0.027 C 
BRANCH   4   5
ATOM      5  C   UNL     1     186.570 174.612 179.364  1.00  0.00     0.014 C 
BRANCH   5   6
ATOM      6  C   UNL     1     186.753 176.107 179.748  1.00  0.00     0.004 C 
ATOM      7  C   UNL     1     186.525 176.372 181.238  1.00  0.00     0.004 C 
ENDBRANCH   5   6
BRANCH   5   8
ATOM      8  C   UNL     1     187.930 173.908 179.040  1.00  0.00    -0.011 C 
ATOM      9  C   UNL     1     188.114 172.599 179.824  1.00  0.00     0.008 C 
ATOM     10  C   UNL     1     188.070 173.605 177.536  1.00  0.00     0.008 C 
ENDBRANCH   5   8
ENDBRANCH   4   5
ENDBRANCH   1   3
BRANCH   1  11
ATOM     11  C   UNL     1     183.669 174.278 180.658  1.00  0.00     0.002 C 
ATOM     12  C   UNL     1     183.549 173.465 181.969  1.00  0.00     0.005 C 
ATOM     13  C   UNL     1     182.632 175.433 180.819  1.00  0.00    -0.023 C 
ATOM     14  C   UNL     1     182.870 174.378 182.999  1.00  0.00     0.009 C 
ATOM     15  C   UNL     1     182.806 175.740 182.316  1.00  0.00     0.021 C 
ATOM     16  C   UNL     1     182.945 176.730 180.000  1.00  0.00     0.008 C 
ATOM     17  C   UNL     1     181.186 174.942 180.500  1.00  0.00     0.012 C 
ATOM     18  C   UNL     1     181.814 176.783 182.790  1.00  0.00    -0.067 C 
ATOM     19  C   UNL     1     182.706 178.063 180.770  1.00  0.00     0.009 C 
ATOM     20  C   UNL     1     181.599 177.985 181.867  1.00  0.00     0.021 C 
ATOM     21  C   UNL     1     181.244 176.724 184.014  1.00  0.00    -0.027 C 
ATOM     22  C   UNL     1     181.398 179.303 182.693  1.00  0.00    -0.023 C 
ATOM     23  C   UNL     1     180.485 177.874 184.633  1.00  0.00     0.031 C 
ATOM     24  C   UNL     1     180.190 179.026 183.650  1.00  0.00     0.002 C 
ATOM     25  C   UNL     1     181.018 180.481 181.751  1.00  0.00     0.010 C 
ATOM     26  C   UNL     1     182.696 179.662 183.477  1.00  0.00     0.012 C 
ATOM     27  C   UNL     1     179.705 180.282 184.405  1.00  0.00     0.036 C 
ATOM     28  C   UNL     1     180.552 181.734 182.513  1.00  0.00     0.032 C 
ATOM     29  C   UNL     1     179.372 181.433 183.442  1.00  0.00     0.114 C 
BRANCH  29  30
ATOM     30  O   UNL     1     178.240 181.120 182.672  1.00  0.00    -0.393 OA
ATOM     31  H   UNL     1     177.566 181.827 182.850  1.00  0.00     0.210 HD
ENDBRANCH  29  30
ENDBRANCH   1  11
TORSDOF 6
ENDMDL
MODEL 5
REMARK VINA RESULT:    -6.771      1.322      2.066
REMARK INTER + INTRA:         -10.854
REMARK INTER:                  -9.026
REMARK INTRA:                  -1.827
REMARK UNBOUND:                -1.906
REMARK SMILES CC[C@@H](C=C[C@@H](C)[C@@H]1CC[C@@H]2C3=CC[C@H]4C[C@H](O)CC[C@]4(C)[C@H]3CC[C@]21C)C(C)C
REMARK SMILES IDX 6 1 7 2 5 3 4 4 3 5 2 6 1 7 28 8 29 9 30 10 8 11 9 12 26 13
REMARK SMILES IDX 10 14 11 15 25 16 27 17 12 18 24 19 23 20 13 21 21 22 14 23
REMARK SMILES IDX 15 24 20 25 22 26 16 27 19 28 17 29 18 30
REMARK H PARENT 18 31
REMARK Flexibility Score: inf
ROOT
ATOM      1  C   UNL     1     183.509 173.373 179.359  1.00  0.00     0.012 C 
ATOM      2  C   UNL     1     183.223 171.901 179.674  1.00  0.00     0.012 C 
ENDROOT
BRANCH   1   3
ATOM      3  C   UNL     1     184.743 173.475 178.475  1.00  0.00    -0.028 C 
ATOM      4  C   UNL     1     184.945 174.395 177.508  1.00  0.00    -0.027 C 
BRANCH   4   5
ATOM      5  C   UNL     1     183.956 175.479 177.102  1.00  0.00     0.014 C 
BRANCH   5   6
ATOM      6  C   UNL     1     182.846 174.831 176.227  1.00  0.00     0.004 C 
ATOM      7  C   UNL     1     181.436 175.243 176.655  1.00  0.00     0.004 C 
ENDBRANCH   5   6
BRANCH   5   8
ATOM      8  C   UNL     1     184.707 176.632 176.355  1.00  0.00    -0.011 C 
ATOM      9  C   UNL     1     184.510 176.569 174.832  1.00  0.00     0.008 C 
ATOM     10  C   UNL     1     184.258 178.020 176.852  1.00  0.00     0.008 C 
ENDBRANCH   5   8
ENDBRANCH   4   5
ENDBRANCH   1   3
BRANCH   1  11
ATOM     11  C   UNL     1     183.528 174.271 180.645  1.00  0.00     0.002 C 
ATOM     12  C   UNL     1     183.444 173.473 181.968  1.00  0.00     0.005 C 
ATOM     13  C   UNL     1     182.505 175.436 180.826  1.00  0.00    -0.023 C 
ATOM     14  C   UNL     1     182.805 174.402 183.009  1.00  0.00     0.009 C 
ATOM     15  C   UNL     1     182.729 175.757 182.314  1.00  0.00     0.021 C 
ATOM     16  C   UNL     1     182.802 176.721 179.984  1.00  0.00     0.008 C 
ATOM     17  C   UNL     1     181.046 174.953 180.559  1.00  0.00     0.012 C 
ATOM     18  C   UNL     1     181.761 176.813 182.807  1.00  0.00    -0.067 C 
ATOM     19  C   UNL     1     182.598 178.065 180.747  1.00  0.00     0.009 C 
ATOM     20  C   UNL     1     181.527 178.007 181.879  1.00  0.00     0.021 C 
ATOM     21  C   UNL     1     181.230 176.771 184.049  1.00  0.00    -0.027 C 
ATOM     22  C   UNL     1     181.362 179.335 182.696  1.00  0.00    -0.023 C 
ATOM     23  C   UNL     1     180.500 177.935 184.679  1.00  0.00     0.031 C 
ATOM     24  C   UNL     1     180.183 179.078 183.694  1.00  0.00     0.002 C 
ATOM     25  C   UNL     1     180.961 180.507 181.754  1.00  0.00     0.010 C 
ATOM     26  C   UNL     1     182.687 179.692 183.435  1.00  0.00     0.012 C 
ATOM     27  C   UNL     1     179.732 180.346 184.451  1.00  0.00     0.036 C 
ATOM     28  C   UNL     1     180.530 181.771 182.516  1.00  0.00     0.032 C 
ATOM     29  C   UNL     1     179.377 181.489 183.486  1.00  0.00     0.114 C 
BRANCH  29  30
ATOM     30  O   UNL     1     178.219 181.177 182.756  1.00  0.00    -0.393 OA
ATOM     31  H   UNL     1     177.700 182.019 182.664  1.00  0.00     0.210 HD
ENDBRANCH  29  30
ENDBRANCH   1  11
TORSDOF 6
ENDMDL
MODEL 6
REMARK VINA RESULT:    -6.768      3.413      8.082
REMARK INTER + INTRA:         -10.850
REMARK INTER:                  -8.991
REMARK INTRA:                  -1.859
REMARK UNBOUND:                -1.906
REMARK SMILES CC[C@@H](C=C[C@@H](C)[C@@H]1CC[C@@H]2C3=CC[C@H]4C[C@H](O)CC[C@]4(C)[C@H]3CC[C@]21C)C(C)C
REMARK SMILES IDX 6 1 7 2 5 3 4 4 3 5 2 6 1 7 28 8 29 9 30 10 8 11 9 12 26 13
REMARK SMILES IDX 10 14 11 15 25 16 27 17 12 18 24 19 23 20 13 21 21 22 14 23
REMARK SMILES IDX 15 24 20 25 22 26 16 27 19 28 17 29 18 30
REMARK H PARENT 18 31
REMARK Flexibility Score: inf
ROOT
ATOM      1  C   UNL     1     181.118 181.607 184.981  1.00  0.00     0.012 C 
ATOM      2  C   UNL     1     179.801 182.153 185.544  1.00  0.00     0.012 C 
ENDROOT
BRANCH   1   3
ATOM      3  C   UNL     1     181.862 182.719 184.257  1.00  0.00    -0.028 C 
ATOM      4  C   UNL     1     181.506 183.266 183.075  1.00  0.00    -0.027 C 
BRANCH   4   5
ATOM      5  C   UNL     1     180.311 182.843 182.233  1.00  0.00     0.014 C 
BRANCH   5   6
ATOM      6  C   UNL     1     180.837 182.189 180.924  1.00  0.00     0.004 C 
ATOM      7  C   UNL     1     180.281 180.782 180.697  1.00  0.00     0.004 C 
ENDBRANCH   5   6
BRANCH   5   8
ATOM      8  C   UNL     1     179.391 184.079 181.954  1.00  0.00    -0.011 C 
ATOM      9  C   UNL     1     178.034 183.971 182.667  1.00  0.00     0.008 C 
ATOM     10  C   UNL     1     180.066 185.399 182.376  1.00  0.00     0.008 C 
ENDBRANCH   5   8
ENDBRANCH   4   5
ENDBRANCH   1   3
BRANCH   1  11
ATOM     11  C   UNL     1     180.919 180.287 184.158  1.00  0.00     0.002 C 
ATOM     12  C   UNL     1     179.807 179.365 184.712  1.00  0.00     0.005 C 
ATOM     13  C   UNL     1     182.118 179.327 183.878  1.00  0.00    -0.023 C 
ATOM     14  C   UNL     1     180.169 177.931 184.298  1.00  0.00     0.009 C 
ATOM     15  C   UNL     1     181.357 178.096 183.356  1.00  0.00     0.021 C 
ATOM     16  C   UNL     1     183.114 179.810 182.771  1.00  0.00     0.008 C 
ATOM     17  C   UNL     1     182.900 179.003 185.189  1.00  0.00     0.012 C 
ATOM     18  C   UNL     1     182.291 176.932 183.099  1.00  0.00    -0.067 C 
ATOM     19  C   UNL     1     183.588 178.696 181.789  1.00  0.00     0.009 C 
ATOM     20  C   UNL     1     183.613 177.263 182.403  1.00  0.00     0.021 C 
ATOM     21  C   UNL     1     181.929 175.655 183.353  1.00  0.00    -0.027 C 
ATOM     22  C   UNL     1     184.026 176.127 181.402  1.00  0.00    -0.023 C 
ATOM     23  C   UNL     1     182.702 174.457 182.851  1.00  0.00     0.031 C 
ATOM     24  C   UNL     1     184.078 174.811 182.251  1.00  0.00     0.002 C 
ATOM     25  C   UNL     1     185.446 176.398 180.829  1.00  0.00     0.010 C 
ATOM     26  C   UNL     1     183.001 176.029 180.232  1.00  0.00     0.012 C 
ATOM     27  C   UNL     1     184.667 173.609 181.482  1.00  0.00     0.036 C 
ATOM     28  C   UNL     1     186.018 175.200 180.050  1.00  0.00     0.032 C 
ATOM     29  C   UNL     1     186.055 173.928 180.903  1.00  0.00     0.114 C 
BRANCH  29  30
ATOM     30  O   UNL     1     186.996 174.084 181.934  1.00  0.00    -0.393 OA
ATOM     31  H   UNL     1     187.620 173.315 181.873  1.00  0.00     0.210 HD
ENDBRANCH  29  30
ENDBRANCH   1  11
TORSDOF 6
ENDMDL
MODEL 7
REMARK VINA RESULT:    -6.728      2.786      8.191
REMARK INTER + INTRA:         -10.797
REMARK INTER:                  -9.192
REMARK INTRA:                  -1.605
REMARK UNBOUND:                -1.906
REMARK SMILES CC[C@@H](C=C[C@@H](C)[C@@H]1CC[C@@H]2C3=CC[C@H]4C[C@H](O)CC[C@]4(C)[C@H]3CC[C@]21C)C(C)C
REMARK SMILES IDX 6 1 7 2 5 3 4 4 3 5 2 6 1 7 28 8 29 9 30 10 8 11 9 12 26 13
REMARK SMILES IDX 10 14 11 15 25 16 27 17 12 18 24 19 23 20 13 21 21 22 14 23
REMARK SMILES IDX 15 24 20 25 22 26 16 27 19 28 17 29 18 30
REMARK H PARENT 18 31
REMARK Flexibility Score: inf
ROOT
ATOM      1  C   UNL     1     180.250 181.339 183.477  1.00  0.00     0.012 C 
ATOM      2  C   UNL     1     180.321 181.808 184.935  1.00  0.00     0.012 C 
ENDROOT
BRANCH   1   3
ATOM      3  C   UNL     1     179.167 182.115 182.743  1.00  0.00    -0.028 C 
ATOM      4  C   UNL     1     179.373 183.160 181.914  1.00  0.00    -0.027 C 
BRANCH   4   5
ATOM      5  C   UNL     1     180.726 183.776 181.589  1.00  0.00     0.014 C 
BRANCH   5   6
ATOM      6  C   UNL     1     180.524 185.290 181.302  1.00  0.00     0.004 C 
ATOM      7  C   UNL     1     181.463 186.181 182.119  1.00  0.00     0.004 C 
ENDBRANCH   5   6
BRANCH   5   8
ATOM      8  C   UNL     1     181.379 183.022 180.382  1.00  0.00    -0.011 C 
ATOM      9  C   UNL     1     181.632 183.948 179.182  1.00  0.00     0.008 C 
ATOM     10  C   UNL     1     182.710 182.356 180.778  1.00  0.00     0.008 C 
ENDBRANCH   5   8
ENDBRANCH   4   5
ENDBRANCH   1   3
BRANCH   1  11
ATOM     11  C   UNL     1     180.160 179.778 183.351  1.00  0.00     0.002 C 
ATOM     12  C   UNL     1     179.931 179.053 184.699  1.00  0.00     0.005 C 
ATOM     13  C   UNL     1     181.295 178.962 182.657  1.00  0.00    -0.023 C 
ATOM     14  C   UNL     1     180.527 177.645 184.555  1.00  0.00     0.009 C 
ATOM     15  C   UNL     1     180.894 177.537 183.079  1.00  0.00     0.021 C 
ATOM     16  C   UNL     1     181.311 179.038 181.094  1.00  0.00     0.008 C 
ATOM     17  C   UNL     1     182.697 179.351 183.221  1.00  0.00     0.012 C 
ATOM     18  C   UNL     1     181.913 176.514 182.621  1.00  0.00    -0.067 C 
ATOM     19  C   UNL     1     181.581 177.682 180.376  1.00  0.00     0.009 C 
ATOM     20  C   UNL     1     182.449 176.679 181.197  1.00  0.00     0.021 C 
ATOM     21  C   UNL     1     182.238 175.442 183.376  1.00  0.00    -0.027 C 
ATOM     22  C   UNL     1     182.670 175.286 180.510  1.00  0.00    -0.023 C 
ATOM     23  C   UNL     1     183.018 174.260 182.848  1.00  0.00     0.031 C 
ATOM     24  C   UNL     1     183.637 174.495 181.455  1.00  0.00     0.002 C 
ATOM     25  C   UNL     1     183.368 175.465 179.132  1.00  0.00     0.010 C 
ATOM     26  C   UNL     1     181.311 174.550 180.314  1.00  0.00     0.012 C 
ATOM     27  C   UNL     1     184.138 173.168 180.846  1.00  0.00     0.036 C 
ATOM     28  C   UNL     1     183.850 174.135 178.525  1.00  0.00     0.032 C 
ATOM     29  C   UNL     1     184.791 173.382 179.471  1.00  0.00     0.114 C 
BRANCH  29  30
ATOM     30  O   UNL     1     185.992 174.098 179.601  1.00  0.00    -0.393 OA
ATOM     31  H   UNL     1     186.159 174.208 180.574  1.00  0.00     0.210 HD
ENDBRANCH  29  30
ENDBRANCH   1  11
TORSDOF 6
ENDMDL
MODEL 8
REMARK VINA RESULT:    -6.692      2.879      5.052
REMARK INTER + INTRA:         -10.749
REMARK INTER:                  -9.539
REMARK INTRA:                  -1.210
REMARK UNBOUND:                -1.906
REMARK SMILES CC[C@@H](C=C[C@@H](C)[C@@H]1CC[C@@H]2C3=CC[C@H]4C[C@H](O)CC[C@]4(C)[C@H]3CC[C@]21C)C(C)C
REMARK SMILES IDX 6 1 7 2 5 3 4 4 3 5 2 6 1 7 28 8 29 9 30 10 8 11 9 12 26 13
REMARK SMILES IDX 10 14 11 15 25 16 27 17 12 18 24 19 23 20 13 21 21 22 14 23
REMARK SMILES IDX 15 24 20 25 22 26 16 27 19 28 17 29 18 30
REMARK H PARENT 18 31
REMARK Flexibility Score: inf
ROOT
ATOM      1  C   UNL     1     181.710 175.946 180.625  1.00  0.00     0.012 C 
ATOM      2  C   UNL     1     181.249 175.814 179.169  1.00  0.00     0.012 C 
ENDROOT
BRANCH   1   3
ATOM      3  C   UNL     1     180.977 174.929 181.486  1.00  0.00    -0.028 C 
ATOM      4  C   UNL     1     181.273 173.614 181.576  1.00  0.00    -0.027 C 
BRANCH   4   5
ATOM      5  C   UNL     1     182.374 172.903 180.803  1.00  0.00     0.014 C 
BRANCH   5   6
ATOM      6  C   UNL     1     181.942 171.428 180.573  1.00  0.00     0.004 C 
ATOM      7  C   UNL     1     182.386 170.882 179.214  1.00  0.00     0.004 C 
ENDBRANCH   5   6
BRANCH   5   8
ATOM      8  C   UNL     1     183.728 173.014 181.580  1.00  0.00    -0.011 C 
ATOM      9  C   UNL     1     184.750 173.902 180.852  1.00  0.00     0.008 C 
ATOM     10  C   UNL     1     183.524 173.565 183.005  1.00  0.00     0.008 C 
ENDBRANCH   5   8
ENDBRANCH   4   5
ENDBRANCH   1   3
BRANCH   1  11
ATOM     11  C   UNL     1     181.656 177.426 181.141  1.00  0.00     0.002 C 
ATOM     12  C   UNL     1     182.277 178.453 180.165  1.00  0.00     0.005 C 
ATOM     13  C   UNL     1     182.240 177.811 182.536  1.00  0.00    -0.023 C 
ATOM     14  C   UNL     1     182.767 179.635 181.013  1.00  0.00     0.009 C 
ATOM     15  C   UNL     1     182.235 179.345 182.412  1.00  0.00     0.021 C 
ATOM     16  C   UNL     1     181.360 177.403 183.764  1.00  0.00     0.008 C 
ATOM     17  C   UNL     1     183.688 177.258 182.715  1.00  0.00     0.012 C 
ATOM     18  C   UNL     1     182.870 180.004 183.620  1.00  0.00    -0.067 C 
ATOM     19  C   UNL     1     181.252 178.485 184.881  1.00  0.00     0.009 C 
ATOM     20  C   UNL     1     182.491 179.427 184.986  1.00  0.00     0.021 C 
ATOM     21  C   UNL     1     183.630 181.116 183.511  1.00  0.00    -0.027 C 
ATOM     22  C   UNL     1     182.363 180.562 186.062  1.00  0.00    -0.023 C 
ATOM     23  C   UNL     1     184.039 181.962 184.694  1.00  0.00     0.031 C 
ATOM     24  C   UNL     1     183.740 181.308 186.059  1.00  0.00     0.002 C 
ATOM     25  C   UNL     1     182.142 179.947 187.474  1.00  0.00     0.010 C 
ATOM     26  C   UNL     1     181.180 181.515 185.717  1.00  0.00     0.012 C 
ATOM     27  C   UNL     1     183.884 182.335 187.202  1.00  0.00     0.036 C 
ATOM     28  C   UNL     1     182.270 180.982 188.606  1.00  0.00     0.032 C 
ATOM     29  C   UNL     1     183.624 181.697 188.577  1.00  0.00     0.114 C 
BRANCH  29  30
ATOM     30  O   UNL     1     184.642 180.784 188.897  1.00  0.00    -0.393 OA
ATOM     31  H   UNL     1     184.383 179.913 188.496  1.00  0.00     0.210 HD
ENDBRANCH  29  30
ENDBRANCH   1  11
TORSDOF 6
ENDMDL
MODEL 9
REMARK VINA RESULT:    -6.625      2.805      8.747
REMARK INTER + INTRA:         -10.661
REMARK INTER:                  -9.305
REMARK INTRA:                  -1.356
REMARK UNBOUND:                -1.906
REMARK SMILES CC[C@@H](C=C[C@@H](C)[C@@H]1CC[C@@H]2C3=CC[C@H]4C[C@H](O)CC[C@]4(C)[C@H]3CC[C@]21C)C(C)C
REMARK SMILES IDX 6 1 7 2 5 3 4 4 3 5 2 6 1 7 28 8 29 9 30 10 8 11 9 12 26 13
REMARK SMILES IDX 10 14 11 15 25 16 27 17 12 18 24 19 23 20 13 21 21 22 14 23
REMARK SMILES IDX 15 24 20 25 22 26 16 27 19 28 17 29 18 30
REMARK H PARENT 18 31
REMARK Flexibility Score: inf
ROOT
ATOM      1  C   UNL     1     180.351 181.759 184.181  1.00  0.00     0.012 C 
ATOM      2  C   UNL     1     180.710 183.249 184.208  1.00  0.00     0.012 C 
ENDROOT
BRANCH   1   3
ATOM      3  C   UNL     1     179.814 181.339 185.540  1.00  0.00    -0.028 C 
ATOM      4  C   UNL     1     180.563 181.029 186.621  1.00  0.00    -0.027 C 
BRANCH   4   5
ATOM      5  C   UNL     1     182.083 181.010 186.664  1.00  0.00     0.014 C 
BRANCH   5   6
ATOM      6  C   UNL     1     182.568 179.565 186.356  1.00  0.00     0.004 C 
ATOM      7  C   UNL     1     183.914 179.530 185.630  1.00  0.00     0.004 C 
ENDBRANCH   5   6
BRANCH   5   8
ATOM      8  C   UNL     1     182.584 181.522 188.056  1.00  0.00    -0.011 C 
ATOM      9  C   UNL     1     182.842 180.373 189.044  1.00  0.00     0.008 C 
ATOM     10  C   UNL     1     183.871 182.359 187.927  1.00  0.00     0.008 C 
ENDBRANCH   5   8
ENDBRANCH   4   5
ENDBRANCH   1   3
BRANCH   1  11
ATOM     11  C   UNL     1     181.514 180.872 183.614  1.00  0.00     0.002 C 
ATOM     12  C   UNL     1     182.510 181.642 182.715  1.00  0.00     0.005 C 
ATOM     13  C   UNL     1     181.210 179.560 182.824  1.00  0.00    -0.023 C 
ATOM     14  C   UNL     1     183.115 180.621 181.742  1.00  0.00     0.009 C 
ATOM     15  C   UNL     1     182.604 179.273 182.239  1.00  0.00     0.021 C 
ATOM     16  C   UNL     1     180.771 178.340 183.700  1.00  0.00     0.008 C 
ATOM     17  C   UNL     1     180.159 179.809 181.698  1.00  0.00     0.012 C 
ATOM     18  C   UNL     1     182.583 178.077 181.310  1.00  0.00    -0.067 C 
ATOM     19  C   UNL     1     181.412 176.979 183.294  1.00  0.00     0.009 C 
ATOM     20  C   UNL     1     181.777 176.864 181.782  1.00  0.00     0.021 C 
ATOM     21  C   UNL     1     183.333 178.031 180.186  1.00  0.00    -0.027 C 
ATOM     22  C   UNL     1     182.484 175.524 181.376  1.00  0.00    -0.023 C 
ATOM     23  C   UNL     1     183.564 176.766 179.393  1.00  0.00     0.031 C 
ATOM     24  C   UNL     1     182.661 175.590 179.821  1.00  0.00     0.002 C 
ATOM     25  C   UNL     1     181.575 174.307 181.715  1.00  0.00     0.010 C 
ATOM     26  C   UNL     1     183.847 175.377 182.116  1.00  0.00     0.012 C 
ATOM     27  C   UNL     1     183.158 174.265 179.204  1.00  0.00     0.036 C 
ATOM     28  C   UNL     1     182.086 172.988 181.109  1.00  0.00     0.032 C 
ATOM     29  C   UNL     1     182.253 173.083 179.589  1.00  0.00     0.114 C 
BRANCH  29  30
ATOM     30  O   UNL     1     180.990 173.212 178.988  1.00  0.00    -0.393 OA
ATOM     31  H   UNL     1     180.663 174.126 179.199  1.00  0.00     0.210 HD
ENDBRANCH  29  30
ENDBRANCH   1  11
TORSDOF 6
ENDMDL
