MODEL 1
REMARK VINA RESULT:    -4.227      0.000      0.000
REMARK INTER + INTRA:          -7.237
REMARK INTER:                  -5.834
REMARK INTRA:                  -1.403
REMARK UNBOUND:                -1.403
REMARK SMILES CC[C@H](CC[C@H](C)[C@@H]1CC[C@H]2[C@H]3CC=C4C[C@H](O)CC[C@@]4(C)[C@H]3CC[C@]21C)C(C)C
REMARK SMILES IDX 5 1 4 2 3 3 2 4 1 5 28 6 29 7 30 8 6 9 7 10 8 11 9 12 26 13
REMARK SMILES IDX 10 14 11 15 25 16 27 17 12 18 24 19 23 20 13 21 21 22 14 23
REMARK SMILES IDX 15 24 20 25 22 26 16 27 19 28 17 29 18 30
REMARK H PARENT 18 31
REMARK Flexibility Score: inf
ROOT
ATOM      1  C   UNL     1      38.617  13.351 105.162  1.00  0.00     0.004 C 
ENDROOT
BRANCH   1   2
ATOM      2  C   UNL     1      39.946  13.722 104.473  1.00  0.00     0.004 C 
BRANCH   2   3
ATOM      3  C   UNL     1      41.196  13.378 105.347  1.00  0.00    -0.009 C 
BRANCH   3   4
ATOM      4  C   UNL     1      40.753  12.831 106.736  1.00  0.00     0.000 C 
ATOM      5  C   UNL     1      41.141  11.371 107.016  1.00  0.00     0.004 C 
ENDBRANCH   3   4
BRANCH   3   6
ATOM      6  C   UNL     1      42.234  12.468 104.603  1.00  0.00    -0.014 C 
ATOM      7  C   UNL     1      41.942  12.383 103.089  1.00  0.00     0.007 C 
ATOM      8  C   UNL     1      43.679  12.982 104.772  1.00  0.00     0.007 C 
ENDBRANCH   3   6
ENDBRANCH   2   3
ENDBRANCH   1   2
BRANCH   1   9
ATOM      9  C   UNL     1      38.118  11.910 104.813  1.00  0.00    -0.011 C 
ATOM     10  C   UNL     1      38.463  11.621 103.338  1.00  0.00     0.008 C 
BRANCH   9  11
ATOM     11  C   UNL     1      36.579  11.738 105.092  1.00  0.00    -0.002 C 
ATOM     12  C   UNL     1      35.878  13.065 105.387  1.00  0.00     0.005 C 
ATOM     13  C   UNL     1      36.125  10.802 106.273  1.00  0.00    -0.026 C 
ATOM     14  C   UNL     1      34.511  12.673 105.899  1.00  0.00     0.005 C 
ATOM     15  C   UNL     1      34.758  11.418 106.740  1.00  0.00    -0.001 C 
ATOM     16  C   UNL     1      35.958   9.333 105.793  1.00  0.00     0.007 C 
ATOM     17  C   UNL     1      37.119  10.841 107.468  1.00  0.00     0.012 C 
ATOM     18  C   UNL     1      33.549  10.440 106.827  1.00  0.00     0.000 C 
ATOM     19  C   UNL     1      35.144   8.435 106.744  1.00  0.00     0.005 C 
ATOM     20  C   UNL     1      33.987   9.133 107.527  1.00  0.00     0.003 C 
ATOM     21  C   UNL     1      32.805  10.155 105.495  1.00  0.00     0.031 C 
ATOM     22  C   UNL     1      32.750   8.192 107.778  1.00  0.00    -0.008 C 
ATOM     23  C   UNL     1      32.009   8.868 105.475  1.00  0.00    -0.027 C 
ATOM     24  C   UNL     1      32.032   7.931 106.453  1.00  0.00    -0.065 C 
ATOM     25  C   UNL     1      33.215   6.852 108.448  1.00  0.00     0.014 C 
ATOM     26  C   UNL     1      31.741   8.879 108.742  1.00  0.00     0.016 C 
ATOM     27  C   UNL     1      31.114   6.733 106.330  1.00  0.00     0.063 C 
ATOM     28  C   UNL     1      32.173   5.727 108.377  1.00  0.00     0.033 C 
ATOM     29  C   UNL     1      31.751   5.475 106.924  1.00  0.00     0.118 C 
BRANCH  29  30
ATOM     30  O   UNL     1      30.826   4.423 106.869  1.00  0.00    -0.393 OA
ATOM     31  H   UNL     1      31.159   3.783 106.187  1.00  0.00     0.210 HD
ENDBRANCH  29  30
ENDBRANCH   9  11
ENDBRANCH   1   9
TORSDOF 7
ENDMDL
MODEL 2
REMARK VINA RESULT:    -4.044      0.670      1.404
REMARK INTER + INTRA:          -6.985
REMARK INTER:                  -5.476
REMARK INTRA:                  -1.509
REMARK UNBOUND:                -1.403
REMARK SMILES CC[C@H](CC[C@H](C)[C@@H]1CC[C@H]2[C@H]3CC=C4C[C@H](O)CC[C@@]4(C)[C@H]3CC[C@]21C)C(C)C
REMARK SMILES IDX 5 1 4 2 3 3 2 4 1 5 28 6 29 7 30 8 6 9 7 10 8 11 9 12 26 13
REMARK SMILES IDX 10 14 11 15 25 16 27 17 12 18 24 19 23 20 13 21 21 22 14 23
REMARK SMILES IDX 15 24 20 25 22 26 16 27 19 28 17 29 18 30
REMARK H PARENT 18 31
REMARK Flexibility Score: inf
ROOT
ATOM      1  C   UNL     1      38.509  13.583 105.095  1.00  0.00     0.004 C 
ENDROOT
BRANCH   1   2
ATOM      2  C   UNL     1      39.815  13.683 105.910  1.00  0.00     0.004 C 
BRANCH   2   3
ATOM      3  C   UNL     1      41.035  13.033 105.179  1.00  0.00    -0.009 C 
BRANCH   3   4
ATOM      4  C   UNL     1      42.072  14.124 104.779  1.00  0.00     0.000 C 
ATOM      5  C   UNL     1      43.536  13.662 104.774  1.00  0.00     0.004 C 
ENDBRANCH   3   4
BRANCH   3   6
ATOM      6  C   UNL     1      41.650  11.826 105.967  1.00  0.00    -0.014 C 
ATOM      7  C   UNL     1      40.923  11.583 107.307  1.00  0.00     0.007 C 
ATOM      8  C   UNL     1      41.585  10.514 105.157  1.00  0.00     0.007 C 
ENDBRANCH   3   6
ENDBRANCH   2   3
ENDBRANCH   1   2
BRANCH   1   9
ATOM      9  C   UNL     1      38.075  12.110 104.795  1.00  0.00    -0.011 C 
ATOM     10  C   UNL     1      38.420  11.793 103.326  1.00  0.00     0.008 C 
BRANCH   9  11
ATOM     11  C   UNL     1      36.550  11.874 105.097  1.00  0.00    -0.002 C 
ATOM     12  C   UNL     1      35.795  13.173 105.385  1.00  0.00     0.005 C 
ATOM     13  C   UNL     1      36.151  10.934 106.294  1.00  0.00    -0.026 C 
ATOM     14  C   UNL     1      34.453  12.728 105.920  1.00  0.00     0.005 C 
ATOM     15  C   UNL     1      34.765  11.495 106.772  1.00  0.00    -0.001 C 
ATOM     16  C   UNL     1      36.042   9.453 105.832  1.00  0.00     0.007 C 
ATOM     17  C   UNL     1      37.158  11.030 107.475  1.00  0.00     0.012 C 
ATOM     18  C   UNL     1      33.601  10.466 106.885  1.00  0.00     0.000 C 
ATOM     19  C   UNL     1      35.281   8.532 106.804  1.00  0.00     0.005 C 
ATOM     20  C   UNL     1      34.105   9.188 107.595  1.00  0.00     0.003 C 
ATOM     21  C   UNL     1      32.853  10.134 105.567  1.00  0.00     0.031 C 
ATOM     22  C   UNL     1      32.913   8.197 107.872  1.00  0.00    -0.008 C 
ATOM     23  C   UNL     1      32.115   8.813 105.571  1.00  0.00    -0.027 C 
ATOM     24  C   UNL     1      32.191   7.890 106.560  1.00  0.00    -0.065 C 
ATOM     25  C   UNL     1      33.444   6.886 108.551  1.00  0.00     0.014 C 
ATOM     26  C   UNL     1      31.888   8.850 108.841  1.00  0.00     0.016 C 
ATOM     27  C   UNL     1      31.325   6.651 106.462  1.00  0.00     0.063 C 
ATOM     28  C   UNL     1      32.452   5.717 108.506  1.00  0.00     0.033 C 
ATOM     29  C   UNL     1      32.023   5.429 107.061  1.00  0.00     0.118 C 
BRANCH  29  30
ATOM     30  O   UNL     1      31.145   4.337 107.031  1.00  0.00    -0.393 OA
ATOM     31  H   UNL     1      30.517   4.494 106.278  1.00  0.00     0.210 HD
ENDBRANCH  29  30
ENDBRANCH   9  11
ENDBRANCH   1   9
TORSDOF 7
ENDMDL
MODEL 3
REMARK VINA RESULT:    -2.824      2.890      8.519
REMARK INTER + INTRA:          -5.300
REMARK INTER:                  -5.295
REMARK INTRA:                  -0.005
REMARK UNBOUND:                -1.403
REMARK SMILES CC[C@H](CC[C@H](C)[C@@H]1CC[C@H]2[C@H]3CC=C4C[C@H](O)CC[C@@]4(C)[C@H]3CC[C@]21C)C(C)C
REMARK SMILES IDX 5 1 4 2 3 3 2 4 1 5 28 6 29 7 30 8 6 9 7 10 8 11 9 12 26 13
REMARK SMILES IDX 10 14 11 15 25 16 27 17 12 18 24 19 23 20 13 21 21 22 14 23
REMARK SMILES IDX 15 24 20 25 22 26 16 27 19 28 17 29 18 30
REMARK H PARENT 18 31
REMARK Flexibility Score: inf
ROOT
ATOM      1  C   UNL     1      31.951   9.142 105.554  1.00  0.00     0.004 C 
ENDROOT
BRANCH   1   2
ATOM      2  C   UNL     1      31.276   7.964 106.285  1.00  0.00     0.004 C 
BRANCH   2   3
ATOM      3  C   UNL     1      32.284   7.120 107.132  1.00  0.00    -0.009 C 
BRANCH   3   4
ATOM      4  C   UNL     1      32.627   7.857 108.460  1.00  0.00     0.000 C 
ATOM      5  C   UNL     1      31.418   8.238 109.326  1.00  0.00     0.004 C 
ENDBRANCH   3   4
BRANCH   3   6
ATOM      6  C   UNL     1      31.828   5.633 107.327  1.00  0.00    -0.014 C 
ATOM      7  C   UNL     1      31.078   5.095 106.089  1.00  0.00     0.007 C 
ATOM      8  C   UNL     1      33.022   4.693 107.594  1.00  0.00     0.007 C 
ENDBRANCH   3   6
ENDBRANCH   2   3
ENDBRANCH   1   2
BRANCH   1   9
ATOM      9  C   UNL     1      31.411  10.541 105.999  1.00  0.00    -0.011 C 
ATOM     10  C   UNL     1      30.141  10.854 105.182  1.00  0.00     0.008 C 
BRANCH   9  11
ATOM     11  C   UNL     1      32.497  11.668 105.837  1.00  0.00    -0.002 C 
ATOM     12  C   UNL     1      32.005  12.847 104.996  1.00  0.00     0.005 C 
ATOM     13  C   UNL     1      33.882  11.296 105.190  1.00  0.00    -0.026 C 
ATOM     14  C   UNL     1      33.245  13.666 104.719  1.00  0.00     0.005 C 
ATOM     15  C   UNL     1      34.354  12.631 104.512  1.00  0.00    -0.001 C 
ATOM     16  C   UNL     1      34.893  10.812 106.268  1.00  0.00     0.007 C 
ATOM     17  C   UNL     1      33.743  10.205 104.091  1.00  0.00     0.012 C 
ATOM     18  C   UNL     1      35.787  13.125 104.873  1.00  0.00     0.000 C 
ATOM     19  C   UNL     1      36.365  10.812 105.814  1.00  0.00     0.005 C 
ATOM     20  C   UNL     1      36.776  11.939 104.814  1.00  0.00     0.003 C 
ATOM     21  C   UNL     1      35.920  13.917 106.201  1.00  0.00     0.031 C 
ATOM     22  C   UNL     1      38.257  12.436 105.012  1.00  0.00    -0.008 C 
ATOM     23  C   UNL     1      37.314  13.938 106.791  1.00  0.00    -0.027 C 
ATOM     24  C   UNL     1      38.360  13.216 106.323  1.00  0.00    -0.065 C 
ATOM     25  C   UNL     1      39.245  11.218 104.994  1.00  0.00     0.014 C 
ATOM     26  C   UNL     1      38.661  13.391 103.853  1.00  0.00     0.016 C 
ATOM     27  C   UNL     1      39.718  13.408 106.967  1.00  0.00     0.063 C 
ATOM     28  C   UNL     1      40.635  11.537 105.560  1.00  0.00     0.033 C 
ATOM     29  C   UNL     1      40.521  12.106 106.980  1.00  0.00     0.118 C 
BRANCH  29  30
ATOM     30  O   UNL     1      41.799  12.360 107.498  1.00  0.00    -0.393 OA
ATOM     31  H   UNL     1      42.385  12.570 106.726  1.00  0.00     0.210 HD
ENDBRANCH  29  30
ENDBRANCH   9  11
ENDBRANCH   1   9
TORSDOF 7
ENDMDL
MODEL 4
REMARK VINA RESULT:    -2.817      2.887      8.611
REMARK INTER + INTRA:          -5.290
REMARK INTER:                  -5.221
REMARK INTRA:                  -0.069
REMARK UNBOUND:                -1.403
REMARK SMILES CC[C@H](CC[C@H](C)[C@@H]1CC[C@H]2[C@H]3CC=C4C[C@H](O)CC[C@@]4(C)[C@H]3CC[C@]21C)C(C)C
REMARK SMILES IDX 5 1 4 2 3 3 2 4 1 5 28 6 29 7 30 8 6 9 7 10 8 11 9 12 26 13
REMARK SMILES IDX 10 14 11 15 25 16 27 17 12 18 24 19 23 20 13 21 21 22 14 23
REMARK SMILES IDX 15 24 20 25 22 26 16 27 19 28 17 29 18 30
REMARK H PARENT 18 31
REMARK Flexibility Score: inf
ROOT
ATOM      1  C   UNL     1      31.980   8.962 105.708  1.00  0.00     0.004 C 
ENDROOT
BRANCH   1   2
ATOM      2  C   UNL     1      30.933   7.831 105.751  1.00  0.00     0.004 C 
BRANCH   2   3
ATOM      3  C   UNL     1      31.001   6.994 107.070  1.00  0.00    -0.009 C 
BRANCH   3   4
ATOM      4  C   UNL     1      31.013   5.471 106.746  1.00  0.00     0.000 C 
ATOM      5  C   UNL     1      31.314   5.117 105.282  1.00  0.00     0.004 C 
ENDBRANCH   3   4
BRANCH   3   6
ATOM      6  C   UNL     1      32.154   7.452 108.029  1.00  0.00    -0.014 C 
ATOM      7  C   UNL     1      31.605   8.102 109.318  1.00  0.00     0.007 C 
ATOM      8  C   UNL     1      33.058   6.275 108.449  1.00  0.00     0.007 C 
ENDBRANCH   3   6
ENDBRANCH   2   3
ENDBRANCH   1   2
BRANCH   1   9
ATOM      9  C   UNL     1      31.389  10.370 106.053  1.00  0.00    -0.011 C 
ATOM     10  C   UNL     1      30.148  10.604 105.168  1.00  0.00     0.008 C 
BRANCH   9  11
ATOM     11  C   UNL     1      32.454  11.514 105.873  1.00  0.00    -0.002 C 
ATOM     12  C   UNL     1      31.933  12.681 105.034  1.00  0.00     0.005 C 
ATOM     13  C   UNL     1      33.838  11.162 105.212  1.00  0.00    -0.026 C 
ATOM     14  C   UNL     1      33.156  13.519 104.739  1.00  0.00     0.005 C 
ATOM     15  C   UNL     1      34.279  12.502 104.522  1.00  0.00    -0.001 C 
ATOM     16  C   UNL     1      34.869  10.699 106.279  1.00  0.00     0.007 C 
ATOM     17  C   UNL     1      33.703  10.065 104.118  1.00  0.00     0.012 C 
ATOM     18  C   UNL     1      35.708  13.021 104.865  1.00  0.00     0.000 C 
ATOM     19  C   UNL     1      36.335  10.722 105.808  1.00  0.00     0.005 C 
ATOM     20  C   UNL     1      36.715  11.851 104.798  1.00  0.00     0.003 C 
ATOM     21  C   UNL     1      35.843  13.821 106.188  1.00  0.00     0.031 C 
ATOM     22  C   UNL     1      38.190  12.374 104.977  1.00  0.00    -0.008 C 
ATOM     23  C   UNL     1      37.243  13.867 106.761  1.00  0.00    -0.027 C 
ATOM     24  C   UNL     1      38.296  13.161 106.283  1.00  0.00    -0.065 C 
ATOM     25  C   UNL     1      39.198  11.172 104.952  1.00  0.00     0.014 C 
ATOM     26  C   UNL     1      38.564  13.331 103.810  1.00  0.00     0.016 C 
ATOM     27  C   UNL     1      39.657  13.378 106.911  1.00  0.00     0.063 C 
ATOM     28  C   UNL     1      40.590  11.517 105.500  1.00  0.00     0.033 C 
ATOM     29  C   UNL     1      40.482  12.089 106.919  1.00  0.00     0.118 C 
BRANCH  29  30
ATOM     30  O   UNL     1      41.762  12.367 107.422  1.00  0.00    -0.393 OA
ATOM     31  H   UNL     1      42.392  12.292 106.658  1.00  0.00     0.210 HD
ENDBRANCH  29  30
ENDBRANCH   9  11
ENDBRANCH   1   9
TORSDOF 7
ENDMDL
MODEL 5
REMARK VINA RESULT:    -2.664      2.920      8.960
REMARK INTER + INTRA:          -5.079
REMARK INTER:                  -4.498
REMARK INTRA:                  -0.581
REMARK UNBOUND:                -1.403
REMARK SMILES CC[C@H](CC[C@H](C)[C@@H]1CC[C@H]2[C@H]3CC=C4C[C@H](O)CC[C@@]4(C)[C@H]3CC[C@]21C)C(C)C
REMARK SMILES IDX 5 1 4 2 3 3 2 4 1 5 28 6 29 7 30 8 6 9 7 10 8 11 9 12 26 13
REMARK SMILES IDX 10 14 11 15 25 16 27 17 12 18 24 19 23 20 13 21 21 22 14 23
REMARK SMILES IDX 15 24 20 25 22 26 16 27 19 28 17 29 18 30
REMARK H PARENT 18 31
REMARK Flexibility Score: inf
ROOT
ATOM      1  C   UNL     1      32.172   8.229 108.172  1.00  0.00     0.004 C 
ENDROOT
BRANCH   1   2
ATOM      2  C   UNL     1      31.202   7.031 108.154  1.00  0.00     0.004 C 
BRANCH   2   3
ATOM      3  C   UNL     1      30.794   6.607 106.706  1.00  0.00    -0.009 C 
BRANCH   3   4
ATOM      4  C   UNL     1      31.476   7.533 105.656  1.00  0.00     0.000 C 
ATOM      5  C   UNL     1      30.603   8.684 105.135  1.00  0.00     0.004 C 
ENDBRANCH   3   4
BRANCH   3   6
ATOM      6  C   UNL     1      30.997   5.076 106.434  1.00  0.00    -0.014 C 
ATOM      7  C   UNL     1      31.804   4.824 105.142  1.00  0.00     0.007 C 
ATOM      8  C   UNL     1      31.740   4.377 107.592  1.00  0.00     0.007 C 
ENDBRANCH   3   6
ENDBRANCH   2   3
ENDBRANCH   1   2
BRANCH   1   9
ATOM      9  C   UNL     1      33.580   7.898 107.576  1.00  0.00    -0.011 C 
ATOM     10  C   UNL     1      34.079   6.585 108.212  1.00  0.00     0.008 C 
BRANCH   9  11
ATOM     11  C   UNL     1      34.602   9.073 107.794  1.00  0.00    -0.002 C 
ATOM     12  C   UNL     1      34.124  10.089 108.833  1.00  0.00     0.005 C 
ATOM     13  C   UNL     1      35.011   9.960 106.561  1.00  0.00    -0.026 C 
ATOM     14  C   UNL     1      35.075  11.256 108.696  1.00  0.00     0.005 C 
ATOM     15  C   UNL     1      35.351  11.356 107.194  1.00  0.00    -0.001 C 
ATOM     16  C   UNL     1      36.233   9.355 105.815  1.00  0.00     0.007 C 
ATOM     17  C   UNL     1      33.837  10.145 105.557  1.00  0.00     0.012 C 
ATOM     18  C   UNL     1      36.734  11.969 106.821  1.00  0.00     0.000 C 
ATOM     19  C   UNL     1      36.951  10.330 104.862  1.00  0.00     0.005 C 
ATOM     20  C   UNL     1      36.972  11.830 105.301  1.00  0.00     0.003 C 
ATOM     21  C   UNL     1      37.949  11.458 107.641  1.00  0.00     0.031 C 
ATOM     22  C   UNL     1      38.284  12.586 104.869  1.00  0.00    -0.008 C 
ATOM     23  C   UNL     1      39.292  11.641 106.967  1.00  0.00    -0.027 C 
ATOM     24  C   UNL     1      39.463  12.068 105.693  1.00  0.00    -0.065 C 
ATOM     25  C   UNL     1      38.537  12.398 103.332  1.00  0.00     0.014 C 
ATOM     26  C   UNL     1      38.139  14.109 105.143  1.00  0.00     0.016 C 
ATOM     27  C   UNL     1      40.874  12.283 105.186  1.00  0.00     0.063 C 
ATOM     28  C   UNL     1      39.963  12.752 102.889  1.00  0.00     0.033 C 
ATOM     29  C   UNL     1      40.992  11.950 103.697  1.00  0.00     0.118 C 
BRANCH  29  30
ATOM     30  O   UNL     1      42.288  12.255 103.259  1.00  0.00    -0.393 OA
ATOM     31  H   UNL     1      42.194  12.722 102.388  1.00  0.00     0.210 HD
ENDBRANCH  29  30
ENDBRANCH   9  11
ENDBRANCH   1   9
TORSDOF 7
ENDMDL
