MODEL 1
REMARK VINA RESULT:    -7.360      0.000      0.000
REMARK INTER + INTRA:          -8.916
REMARK INTER:                  -8.651
REMARK INTRA:                  -0.264
REMARK UNBOUND:                -0.264
REMARK SMILES O=c1cc(-c2ccc(O)c(O)c2)oc2cc(O)cc(O)c12
REMARK SMILES IDX 4 1 3 2 2 3 1 4 21 5 19 6 18 7 16 8 15 9 14 10 13 11 5 12
REMARK SMILES IDX 6 13 7 14 8 15 12 16 10 17 9 18 11 20 20 22 17 24
REMARK H PARENT 9 19 11 21 20 23 17 25
REMARK Flexibility Score: inf
ROOT
ATOM      1  C   UNL     1      18.233 -11.351  19.039  1.00  0.00     0.138 A 
ATOM      2  C   UNL     1      17.667 -10.155  18.580  1.00  0.00     0.100 A 
ATOM      3  C   UNL     1      17.777  -8.998  19.353  1.00  0.00     0.197 A 
ATOM      4  O   UNL     1      17.210  -7.953  18.941  1.00  0.00    -0.289 OA
ATOM      5  C   UNL     1      18.491  -9.033  20.575  1.00  0.00     0.107 A 
ATOM      6  C   UNL     1      18.700  -7.908  21.429  1.00  0.00     0.134 A 
ATOM      7  C   UNL     1      19.339  -8.089  22.662  1.00  0.00     0.093 A 
ATOM      8  C   UNL     1      19.828  -9.339  23.046  1.00  0.00     0.123 A 
ATOM      9  C   UNL     1      19.674 -10.432  22.197  1.00  0.00     0.094 A 
ATOM     10  C   UNL     1      19.011 -10.293  20.975  1.00  0.00     0.146 A 
ATOM     11  O   UNL     1      18.870 -11.366  20.204  1.00  0.00    -0.456 OA
ENDROOT
BRANCH   1  12
ATOM     12  C   UNL     1      18.148 -12.611  18.256  1.00  0.00     0.021 A 
ATOM     13  C   UNL     1      17.030 -13.463  18.344  1.00  0.00     0.016 A 
ATOM     14  C   UNL     1      16.983 -14.648  17.602  1.00  0.00     0.051 A 
ATOM     15  C   UNL     1      18.051 -15.005  16.771  1.00  0.00     0.157 A 
ATOM     16  C   UNL     1      19.222 -12.985  17.428  1.00  0.00     0.062 A 
ATOM     17  C   UNL     1      19.173 -14.173  16.686  1.00  0.00     0.158 A 
BRANCH  15  18
ATOM     18  O   UNL     1      18.005 -16.184  16.031  1.00  0.00    -0.504 OA
ATOM     19  H   UNL     1      17.131 -16.664  15.851  1.00  0.00     0.293 HD
ENDBRANCH  15  18
BRANCH  17  20
ATOM     20  O   UNL     1      20.237 -14.533  15.859  1.00  0.00    -0.504 OA
ATOM     21  H   UNL     1      21.190 -14.268  16.077  1.00  0.00     0.293 HD
ENDBRANCH  17  20
ENDBRANCH   1  12
BRANCH   6  22
ATOM     22  O   UNL     1      18.322  -6.600  21.109  1.00  0.00    -0.507 OA
ATOM     23  H   UNL     1      18.529  -6.134  20.239  1.00  0.00     0.293 HD
ENDBRANCH   6  22
BRANCH   8  24
ATOM     24  O   UNL     1      20.477  -9.504  24.268  1.00  0.00    -0.508 OA
ATOM     25  H   UNL     1      21.086  -8.788  24.645  1.00  0.00     0.293 HD
ENDBRANCH   8  24
TORSDOF 5
ENDMDL
MODEL 2
REMARK VINA RESULT:    -7.085      1.097      1.726
REMARK INTER + INTRA:          -8.592
REMARK INTER:                  -8.323
REMARK INTRA:                  -0.270
REMARK UNBOUND:                -0.264
REMARK SMILES O=c1cc(-c2ccc(O)c(O)c2)oc2cc(O)cc(O)c12
REMARK SMILES IDX 4 1 3 2 2 3 1 4 21 5 19 6 18 7 16 8 15 9 14 10 13 11 5 12
REMARK SMILES IDX 6 13 7 14 8 15 12 16 10 17 9 18 11 20 20 22 17 24
REMARK H PARENT 9 19 11 21 20 23 17 25
REMARK Flexibility Score: inf
ROOT
ATOM      1  C   UNL     1      18.751 -11.026  18.066  1.00  0.00     0.138 A 
ATOM      2  C   UNL     1      18.017  -9.863  17.797  1.00  0.00     0.100 A 
ATOM      3  C   UNL     1      17.911  -8.872  18.773  1.00  0.00     0.197 A 
ATOM      4  O   UNL     1      17.198  -7.866  18.522  1.00  0.00    -0.289 OA
ATOM      5  C   UNL     1      18.575  -9.030  20.013  1.00  0.00     0.107 A 
ATOM      6  C   UNL     1      18.568  -8.071  21.070  1.00  0.00     0.134 A 
ATOM      7  C   UNL     1      19.181  -8.384  22.290  1.00  0.00     0.093 A 
ATOM      8  C   UNL     1      19.852  -9.595  22.470  1.00  0.00     0.123 A 
ATOM      9  C   UNL     1      19.908 -10.517  21.428  1.00  0.00     0.094 A 
ATOM     10  C   UNL     1      19.276 -10.250  20.211  1.00  0.00     0.146 A 
ATOM     11  O   UNL     1      19.339 -11.165  19.249  1.00  0.00    -0.456 OA
ENDROOT
BRANCH   1  12
ATOM     12  C   UNL     1      18.899 -12.111  17.064  1.00  0.00     0.021 A 
ATOM     13  C   UNL     1      19.706 -11.957  15.920  1.00  0.00     0.016 A 
ATOM     14  C   UNL     1      19.819 -12.992  14.987  1.00  0.00     0.051 A 
ATOM     15  C   UNL     1      19.123 -14.193  15.176  1.00  0.00     0.157 A 
ATOM     16  C   UNL     1      18.194 -13.315  17.237  1.00  0.00     0.062 A 
ATOM     17  C   UNL     1      18.307 -14.353  16.302  1.00  0.00     0.158 A 
BRANCH  15  18
ATOM     18  O   UNL     1      19.234 -15.226  14.248  1.00  0.00    -0.504 OA
ATOM     19  H   UNL     1      18.698 -16.081  14.340  1.00  0.00     0.293 HD
ENDBRANCH  15  18
BRANCH  17  20
ATOM     20  O   UNL     1      17.612 -15.548  16.485  1.00  0.00    -0.504 OA
ATOM     21  H   UNL     1      17.686 -16.311  15.823  1.00  0.00     0.293 HD
ENDBRANCH  17  20
ENDBRANCH   1  12
BRANCH   6  22
ATOM     22  O   UNL     1      17.997  -6.798  20.969  1.00  0.00    -0.507 OA
ATOM     23  H   UNL     1      18.422  -5.944  21.295  1.00  0.00     0.293 HD
ENDBRANCH   6  22
BRANCH   8  24
ATOM     24  O   UNL     1      20.472  -9.890  23.683  1.00  0.00    -0.508 OA
ATOM     25  H   UNL     1      20.338 -10.783  24.143  1.00  0.00     0.293 HD
ENDBRANCH   8  24
TORSDOF 5
ENDMDL
MODEL 3
REMARK VINA RESULT:    -7.000      1.891      3.572
REMARK INTER + INTRA:          -8.492
REMARK INTER:                  -8.174
REMARK INTRA:                  -0.318
REMARK UNBOUND:                -0.264
REMARK SMILES O=c1cc(-c2ccc(O)c(O)c2)oc2cc(O)cc(O)c12
REMARK SMILES IDX 4 1 3 2 2 3 1 4 21 5 19 6 18 7 16 8 15 9 14 10 13 11 5 12
REMARK SMILES IDX 6 13 7 14 8 15 12 16 10 17 9 18 11 20 20 22 17 24
REMARK H PARENT 9 19 11 21 20 23 17 25
REMARK Flexibility Score: inf
ROOT
ATOM      1  C   UNL     1      18.939 -12.315  18.549  1.00  0.00     0.138 A 
ATOM      2  C   UNL     1      19.295 -11.980  19.862  1.00  0.00     0.100 A 
ATOM      3  C   UNL     1      18.868 -10.768  20.405  1.00  0.00     0.197 A 
ATOM      4  O   UNL     1      19.251 -10.470  21.566  1.00  0.00    -0.289 OA
ATOM      5  C   UNL     1      18.047  -9.904  19.641  1.00  0.00     0.107 A 
ATOM      6  C   UNL     1      17.522  -8.659  20.102  1.00  0.00     0.134 A 
ATOM      7  C   UNL     1      16.803  -7.844  19.218  1.00  0.00     0.093 A 
ATOM      8  C   UNL     1      16.540  -8.255  17.910  1.00  0.00     0.123 A 
ATOM      9  C   UNL     1      17.005  -9.490  17.466  1.00  0.00     0.094 A 
ATOM     10  C   UNL     1      17.755 -10.311  18.311  1.00  0.00     0.146 A 
ATOM     11  O   UNL     1      18.195 -11.473  17.841  1.00  0.00    -0.456 OA
ENDROOT
BRANCH   1  12
ATOM     12  C   UNL     1      19.364 -13.593  17.922  1.00  0.00     0.021 A 
ATOM     13  C   UNL     1      20.171 -14.521  18.607  1.00  0.00     0.016 A 
ATOM     14  C   UNL     1      20.564 -15.712  17.988  1.00  0.00     0.051 A 
ATOM     15  C   UNL     1      20.166 -15.990  16.674  1.00  0.00     0.157 A 
ATOM     16  C   UNL     1      18.981 -13.875  16.599  1.00  0.00     0.062 A 
ATOM     17  C   UNL     1      19.375 -15.069  15.978  1.00  0.00     0.158 A 
BRANCH  15  18
ATOM     18  O   UNL     1      20.556 -17.176  16.055  1.00  0.00    -0.504 OA
ATOM     19  H   UNL     1      20.393 -18.078  16.487  1.00  0.00     0.293 HD
ENDBRANCH  15  18
BRANCH  17  20
ATOM     20  O   UNL     1      18.984 -15.347  14.669  1.00  0.00    -0.504 OA
ATOM     21  H   UNL     1      19.613 -15.209  13.887  1.00  0.00     0.293 HD
ENDBRANCH  17  20
ENDBRANCH   1  12
BRANCH   6  22
ATOM     22  O   UNL     1      17.657  -8.189  21.413  1.00  0.00    -0.507 OA
ATOM     23  H   UNL     1      17.170  -8.559  22.214  1.00  0.00     0.293 HD
ENDBRANCH   6  22
BRANCH   8  24
ATOM     24  O   UNL     1      15.810  -7.443  17.044  1.00  0.00    -0.508 OA
ATOM     25  H   UNL     1      14.958  -6.984  17.341  1.00  0.00     0.293 HD
ENDBRANCH   8  24
TORSDOF 5
ENDMDL
MODEL 4
REMARK VINA RESULT:    -6.977      1.428      7.188
REMARK INTER + INTRA:          -8.465
REMARK INTER:                  -8.197
REMARK INTRA:                  -0.269
REMARK UNBOUND:                -0.264
REMARK SMILES O=c1cc(-c2ccc(O)c(O)c2)oc2cc(O)cc(O)c12
REMARK SMILES IDX 4 1 3 2 2 3 1 4 21 5 19 6 18 7 16 8 15 9 14 10 13 11 5 12
REMARK SMILES IDX 6 13 7 14 8 15 12 16 10 17 9 18 11 20 20 22 17 24
REMARK H PARENT 9 19 11 21 20 23 17 25
REMARK Flexibility Score: inf
ROOT
ATOM      1  C   UNL     1      18.679 -11.765  19.521  1.00  0.00     0.138 A 
ATOM      2  C   UNL     1      17.674 -12.728  19.678  1.00  0.00     0.100 A 
ATOM      3  C   UNL     1      17.425 -13.640  18.651  1.00  0.00     0.197 A 
ATOM      4  O   UNL     1      16.478 -14.456  18.799  1.00  0.00    -0.289 OA
ATOM      5  C   UNL     1      18.214 -13.610  17.476  1.00  0.00     0.107 A 
ATOM      6  C   UNL     1      18.075 -14.512  16.378  1.00  0.00     0.134 A 
ATOM      7  C   UNL     1      18.849 -14.320  15.227  1.00  0.00     0.093 A 
ATOM      8  C   UNL     1      19.796 -13.297  15.156  1.00  0.00     0.123 A 
ATOM      9  C   UNL     1      19.975 -12.443  16.241  1.00  0.00     0.094 A 
ATOM     10  C   UNL     1      19.195 -12.586  17.391  1.00  0.00     0.146 A 
ATOM     11  O   UNL     1      19.385 -11.737  18.396  1.00  0.00    -0.456 OA
ENDROOT
BRANCH   1  12
ATOM     12  C   UNL     1      18.988 -10.773  20.582  1.00  0.00     0.021 A 
ATOM     13  C   UNL     1      19.677 -11.134  21.756  1.00  0.00     0.016 A 
ATOM     14  C   UNL     1      19.945 -10.180  22.742  1.00  0.00     0.051 A 
ATOM     15  C   UNL     1      19.524  -8.855  22.578  1.00  0.00     0.157 A 
ATOM     16  C   UNL     1      18.558  -9.442  20.432  1.00  0.00     0.062 A 
ATOM     17  C   UNL     1      18.827  -8.487  21.422  1.00  0.00     0.158 A 
BRANCH  15  18
ATOM     18  O   UNL     1      19.791  -7.903  23.559  1.00  0.00    -0.504 OA
ATOM     19  H   UNL     1      20.652  -7.918  24.092  1.00  0.00     0.293 HD
ENDBRANCH  15  18
BRANCH  17  20
ATOM     20  O   UNL     1      18.405  -7.167  21.262  1.00  0.00    -0.504 OA
ATOM     21  H   UNL     1      17.484  -6.866  21.557  1.00  0.00     0.293 HD
ENDBRANCH  17  20
ENDBRANCH   1  12
BRANCH   6  22
ATOM     22  O   UNL     1      17.216 -15.616  16.375  1.00  0.00    -0.507 OA
ATOM     23  H   UNL     1      17.087 -16.252  17.146  1.00  0.00     0.293 HD
ENDBRANCH   6  22
BRANCH   8  24
ATOM     24  O   UNL     1      20.572 -13.125  14.011  1.00  0.00    -0.508 OA
ATOM     25  H   UNL     1      21.456 -13.606  13.893  1.00  0.00     0.293 HD
ENDBRANCH   8  24
TORSDOF 5
ENDMDL
MODEL 5
REMARK VINA RESULT:    -6.977      1.736      7.373
REMARK INTER + INTRA:          -8.465
REMARK INTER:                  -8.202
REMARK INTRA:                  -0.262
REMARK UNBOUND:                -0.264
REMARK SMILES O=c1cc(-c2ccc(O)c(O)c2)oc2cc(O)cc(O)c12
REMARK SMILES IDX 4 1 3 2 2 3 1 4 21 5 19 6 18 7 16 8 15 9 14 10 13 11 5 12
REMARK SMILES IDX 6 13 7 14 8 15 12 16 10 17 9 18 11 20 20 22 17 24
REMARK H PARENT 9 19 11 21 20 23 17 25
REMARK Flexibility Score: inf
ROOT
ATOM      1  C   UNL     1      18.288 -11.381  18.167  1.00  0.00     0.138 A 
ATOM      2  C   UNL     1      17.586 -12.508  18.615  1.00  0.00     0.100 A 
ATOM      3  C   UNL     1      17.608 -13.681  17.860  1.00  0.00     0.197 A 
ATOM      4  O   UNL     1      16.923 -14.657  18.260  1.00  0.00    -0.289 OA
ATOM      5  C   UNL     1      18.368 -13.737  16.667  1.00  0.00     0.107 A 
ATOM      6  C   UNL     1      18.494 -14.889  15.833  1.00  0.00     0.134 A 
ATOM      7  C   UNL     1      19.195 -14.792  14.624  1.00  0.00     0.093 A 
ATOM      8  C   UNL     1      19.823 -13.603  14.248  1.00  0.00     0.123 A 
ATOM      9  C   UNL     1      19.749 -12.488  15.078  1.00  0.00     0.094 A 
ATOM     10  C   UNL     1      19.029 -12.541  16.274  1.00  0.00     0.146 A 
ATOM     11  O   UNL     1      18.968 -11.448  17.028  1.00  0.00    -0.456 OA
ENDROOT
BRANCH   1  12
ATOM     12  C   UNL     1      18.301 -10.109  18.932  1.00  0.00     0.021 A 
ATOM     13  C   UNL     1      17.406  -9.061  18.642  1.00  0.00     0.016 A 
ATOM     14  C   UNL     1      17.449  -7.870  19.373  1.00  0.00     0.051 A 
ATOM     15  C   UNL     1      18.389  -7.701  20.396  1.00  0.00     0.157 A 
ATOM     16  C   UNL     1      19.251  -9.925  19.953  1.00  0.00     0.062 A 
ATOM     17  C   UNL     1      19.294  -8.730  20.685  1.00  0.00     0.158 A 
BRANCH  15  18
ATOM     18  O   UNL     1      18.433  -6.516  21.126  1.00  0.00    -0.504 OA
ATOM     19  H   UNL     1      17.591  -6.003  21.357  1.00  0.00     0.293 HD
ENDBRANCH  15  18
BRANCH  17  20
ATOM     20  O   UNL     1      20.232  -8.558  21.702  1.00  0.00    -0.504 OA
ATOM     21  H   UNL     1      21.159  -8.197  21.512  1.00  0.00     0.293 HD
ENDBRANCH  17  20
ENDBRANCH   1  12
BRANCH   6  22
ATOM     22  O   UNL     1      17.974 -16.147  16.153  1.00  0.00    -0.507 OA
ATOM     23  H   UNL     1      17.200 -16.313  16.776  1.00  0.00     0.293 HD
ENDBRANCH   6  22
BRANCH   8  24
ATOM     24  O   UNL     1      20.531 -13.522  13.050  1.00  0.00    -0.508 OA
ATOM     25  H   UNL     1      21.275 -12.848  12.920  1.00  0.00     0.293 HD
ENDBRANCH   8  24
TORSDOF 5
ENDMDL
MODEL 6
REMARK VINA RESULT:    -6.596      1.955      7.065
REMARK INTER + INTRA:          -8.017
REMARK INTER:                  -7.715
REMARK INTRA:                  -0.303
REMARK UNBOUND:                -0.264
REMARK SMILES O=c1cc(-c2ccc(O)c(O)c2)oc2cc(O)cc(O)c12
REMARK SMILES IDX 4 1 3 2 2 3 1 4 21 5 19 6 18 7 16 8 15 9 14 10 13 11 5 12
REMARK SMILES IDX 6 13 7 14 8 15 12 16 10 17 9 18 11 20 20 22 17 24
REMARK H PARENT 9 19 11 21 20 23 17 25
REMARK Flexibility Score: inf
ROOT
ATOM      1  C   UNL     1      19.223 -11.609  18.042  1.00  0.00     0.138 A 
ATOM      2  C   UNL     1      19.049 -11.188  16.717  1.00  0.00     0.100 A 
ATOM      3  C   UNL     1      19.220 -12.101  15.675  1.00  0.00     0.197 A 
ATOM      4  O   UNL     1      19.113 -11.680  14.494  1.00  0.00    -0.289 OA
ATOM      5  C   UNL     1      19.531 -13.451  15.965  1.00  0.00     0.107 A 
ATOM      6  C   UNL     1      19.694 -14.479  14.988  1.00  0.00     0.134 A 
ATOM      7  C   UNL     1      20.098 -15.757  15.392  1.00  0.00     0.093 A 
ATOM      8  C   UNL     1      20.288 -16.061  16.741  1.00  0.00     0.123 A 
ATOM      9  C   UNL     1      20.083 -15.079  17.707  1.00  0.00     0.094 A 
ATOM     10  C   UNL     1      19.713 -13.785  17.335  1.00  0.00     0.146 A 
ATOM     11  O   UNL     1      19.545 -12.874  18.288  1.00  0.00    -0.456 OA
ENDROOT
BRANCH   1  12
ATOM     12  C   UNL     1      19.050 -10.681  19.189  1.00  0.00     0.021 A 
ATOM     13  C   UNL     1      18.104  -9.638  19.162  1.00  0.00     0.016 A 
ATOM     14  C   UNL     1      17.971  -8.774  20.253  1.00  0.00     0.051 A 
ATOM     15  C   UNL     1      18.783  -8.930  21.382  1.00  0.00     0.157 A 
ATOM     16  C   UNL     1      19.870 -10.822  20.322  1.00  0.00     0.062 A 
ATOM     17  C   UNL     1      19.736  -9.954  21.416  1.00  0.00     0.158 A 
BRANCH  15  18
ATOM     18  O   UNL     1      18.651  -8.070  22.471  1.00  0.00    -0.504 OA
ATOM     19  H   UNL     1      19.418  -7.905  23.111  1.00  0.00     0.293 HD
ENDBRANCH  15  18
BRANCH  17  20
ATOM     20  O   UNL     1      20.547 -10.106  22.540  1.00  0.00    -0.504 OA
ATOM     21  H   UNL     1      20.156 -10.310  23.452  1.00  0.00     0.293 HD
ENDBRANCH  17  20
ENDBRANCH   1  12
BRANCH   6  22
ATOM     22  O   UNL     1      19.453 -14.305  13.621  1.00  0.00    -0.507 OA
ATOM     23  H   UNL     1      19.638 -13.461  13.103  1.00  0.00     0.293 HD
ENDBRANCH   6  22
BRANCH   8  24
ATOM     24  O   UNL     1      20.675 -17.341  17.134  1.00  0.00    -0.508 OA
ATOM     25  H   UNL     1      20.039 -17.960  17.623  1.00  0.00     0.293 HD
ENDBRANCH   8  24
TORSDOF 5
ENDMDL
MODEL 7
REMARK VINA RESULT:    -6.572      1.599      2.696
REMARK INTER + INTRA:          -7.989
REMARK INTER:                  -7.689
REMARK INTRA:                  -0.300
REMARK UNBOUND:                -0.264
REMARK SMILES O=c1cc(-c2ccc(O)c(O)c2)oc2cc(O)cc(O)c12
REMARK SMILES IDX 4 1 3 2 2 3 1 4 21 5 19 6 18 7 16 8 15 9 14 10 13 11 5 12
REMARK SMILES IDX 6 13 7 14 8 15 12 16 10 17 9 18 11 20 20 22 17 24
REMARK H PARENT 9 19 11 21 20 23 17 25
REMARK Flexibility Score: inf
ROOT
ATOM      1  C   UNL     1      19.196 -11.380  19.029  1.00  0.00     0.138 A 
ATOM      2  C   UNL     1      19.093 -11.788  20.365  1.00  0.00     0.100 A 
ATOM      3  C   UNL     1      19.263 -10.854  21.387  1.00  0.00     0.197 A 
ATOM      4  O   UNL     1      19.221 -11.262  22.577  1.00  0.00    -0.289 OA
ATOM      5  C   UNL     1      19.500  -9.495  21.068  1.00  0.00     0.107 A 
ATOM      6  C   UNL     1      19.653  -8.447  22.026  1.00  0.00     0.134 A 
ATOM      7  C   UNL     1      19.983  -7.158  21.589  1.00  0.00     0.093 A 
ATOM      8  C   UNL     1      20.106  -6.865  20.230  1.00  0.00     0.123 A 
ATOM      9  C   UNL     1      19.908  -7.869  19.285  1.00  0.00     0.094 A 
ATOM     10  C   UNL     1      19.612  -9.173  19.689  1.00  0.00     0.146 A 
ATOM     11  O   UNL     1      19.450 -10.105  18.755  1.00  0.00    -0.456 OA
ENDROOT
BRANCH   1  12
ATOM     12  C   UNL     1      19.021 -12.331  17.902  1.00  0.00     0.021 A 
ATOM     13  C   UNL     1      18.085 -13.382  17.957  1.00  0.00     0.016 A 
ATOM     14  C   UNL     1      17.950 -14.268  16.885  1.00  0.00     0.051 A 
ATOM     15  C   UNL     1      18.751 -14.126  15.745  1.00  0.00     0.157 A 
ATOM     16  C   UNL     1      19.830 -12.204  16.758  1.00  0.00     0.062 A 
ATOM     17  C   UNL     1      19.694 -13.094  15.683  1.00  0.00     0.158 A 
BRANCH  15  18
ATOM     18  O   UNL     1      18.617 -15.007  14.674  1.00  0.00    -0.504 OA
ATOM     19  H   UNL     1      18.898 -15.978  14.749  1.00  0.00     0.293 HD
ENDBRANCH  15  18
BRANCH  17  20
ATOM     20  O   UNL     1      20.493 -12.957  14.548  1.00  0.00    -0.504 OA
ATOM     21  H   UNL     1      21.438 -12.597  14.606  1.00  0.00     0.293 HD
ENDBRANCH  17  20
ENDBRANCH   1  12
BRANCH   6  22
ATOM     22  O   UNL     1      19.473  -8.612  23.403  1.00  0.00    -0.507 OA
ATOM     23  H   UNL     1      18.721  -9.128  23.831  1.00  0.00     0.293 HD
ENDBRANCH   6  22
BRANCH   8  24
ATOM     24  O   UNL     1      20.418  -5.575  19.806  1.00  0.00    -0.508 OA
ATOM     25  H   UNL     1      19.841  -5.084  19.134  1.00  0.00     0.293 HD
ENDBRANCH   8  24
TORSDOF 5
ENDMDL
MODEL 8
REMARK VINA RESULT:    -6.570      1.563      3.223
REMARK INTER + INTRA:          -7.986
REMARK INTER:                  -7.723
REMARK INTRA:                  -0.263
REMARK UNBOUND:                -0.264
REMARK SMILES O=c1cc(-c2ccc(O)c(O)c2)oc2cc(O)cc(O)c12
REMARK SMILES IDX 4 1 3 2 2 3 1 4 21 5 19 6 18 7 16 8 15 9 14 10 13 11 5 12
REMARK SMILES IDX 6 13 7 14 8 15 12 16 10 17 9 18 11 20 20 22 17 24
REMARK H PARENT 9 19 11 21 20 23 17 25
REMARK Flexibility Score: inf
ROOT
ATOM      1  C   UNL     1      19.805 -12.072  18.576  1.00  0.00     0.138 A 
ATOM      2  C   UNL     1      20.613 -12.530  19.625  1.00  0.00     0.100 A 
ATOM      3  C   UNL     1      20.716 -11.778  20.796  1.00  0.00     0.197 A 
ATOM      4  O   UNL     1      21.493 -12.187  21.697  1.00  0.00    -0.289 OA
ATOM      5  C   UNL     1      19.976 -10.579  20.931  1.00  0.00     0.107 A 
ATOM      6  C   UNL     1      19.974  -9.748  22.093  1.00  0.00     0.134 A 
ATOM      7  C   UNL     1      19.278  -8.534  22.070  1.00  0.00     0.093 A 
ATOM      8  C   UNL     1      18.535  -8.148  20.952  1.00  0.00     0.123 A 
ATOM      9  C   UNL     1      18.489  -8.975  19.833  1.00  0.00     0.094 A 
ATOM     10  C   UNL     1      19.201 -10.177  19.810  1.00  0.00     0.146 A 
ATOM     11  O   UNL     1      19.145 -10.927  18.715  1.00  0.00    -0.456 OA
ENDROOT
BRANCH   1  12
ATOM     12  C   UNL     1      19.656 -12.832  17.310  1.00  0.00     0.021 A 
ATOM     13  C   UNL     1      20.079 -12.304  16.075  1.00  0.00     0.016 A 
ATOM     14  C   UNL     1      19.916 -13.040  14.897  1.00  0.00     0.051 A 
ATOM     15  C   UNL     1      19.324 -14.307  14.930  1.00  0.00     0.157 A 
ATOM     16  C   UNL     1      19.049 -14.101  17.332  1.00  0.00     0.062 A 
ATOM     17  C   UNL     1      18.887 -14.838  16.150  1.00  0.00     0.158 A 
BRANCH  15  18
ATOM     18  O   UNL     1      19.162 -15.042  13.758  1.00  0.00    -0.504 OA
ATOM     19  H   UNL     1      18.266 -15.100  13.287  1.00  0.00     0.293 HD
ENDBRANCH  15  18
BRANCH  17  20
ATOM     20  O   UNL     1      18.293 -16.099  16.180  1.00  0.00    -0.504 OA
ATOM     21  H   UNL     1      18.703 -16.889  15.697  1.00  0.00     0.293 HD
ENDBRANCH  17  20
ENDBRANCH   1  12
BRANCH   6  22
ATOM     22  O   UNL     1      20.616 -10.076  23.291  1.00  0.00    -0.507 OA
ATOM     23  H   UNL     1      20.967  -9.410  23.961  1.00  0.00     0.293 HD
ENDBRANCH   6  22
BRANCH   8  24
ATOM     24  O   UNL     1      17.833  -6.944  20.946  1.00  0.00    -0.508 OA
ATOM     25  H   UNL     1      17.162  -6.719  21.671  1.00  0.00     0.293 HD
ENDBRANCH   8  24
TORSDOF 5
ENDMDL
