MODEL 1
REMARK VINA RESULT:    13.677      0.000      0.000
REMARK INTER + INTRA:          32.100
REMARK INTER:                  31.267
REMARK INTRA:                   0.833
REMARK UNBOUND:                 0.833
REMARK SMILES CCCCCCCCCCCCCCCCCCCCCCCC(=O)[O-]
REMARK SMILES IDX 13 1 14 2 15 3 16 4 17 5 18 6 19 7 20 8 21 9 22 10 23 11
REMARK SMILES IDX 24 12 25 13 26 14 12 15 11 16 10 17 9 18 8 19 7 20 6 21 5 22
REMARK SMILES IDX 4 23 3 24 2 25 1 26
REMARK H PARENT
REMARK Flexibility Score: inf
ROOT
ATOM      1  C   UNL     1       7.915 -25.421 -18.701  1.00  0.00     0.000 C 
ENDROOT
BRANCH   1   2
ATOM      2  C   UNL     1       8.492 -25.094 -17.309  1.00  0.00     0.000 C 
BRANCH   2   3
ATOM      3  C   UNL     1       7.469 -25.126 -16.158  1.00  0.00     0.000 C 
BRANCH   3   4
ATOM      4  C   UNL     1       5.994 -25.224 -16.597  1.00  0.00     0.000 C 
BRANCH   4   5
ATOM      5  C   UNL     1       4.968 -25.255 -15.449  1.00  0.00     0.000 C 
BRANCH   5   6
ATOM      6  C   UNL     1       3.758 -26.156 -15.749  1.00  0.00     0.000 C 
BRANCH   6   7
ATOM      7  C   UNL     1       3.024 -26.612 -14.475  1.00  0.00     0.000 C 
BRANCH   7   8
ATOM      8  C   UNL     1       3.508 -25.952 -13.171  1.00  0.00     0.000 C 
BRANCH   8   9
ATOM      9  C   UNL     1       3.503 -24.415 -13.241  1.00  0.00     0.000 C 
BRANCH   9  10
ATOM     10  C   UNL     1       4.864 -23.804 -12.852  1.00  0.00     0.006 C 
BRANCH  10  11
ATOM     11  C   UNL     1       5.522 -23.005 -13.990  1.00  0.00     0.053 C 
BRANCH  11  12
ATOM     12  C   UNL     1       6.549 -22.039 -13.489  1.00  0.00     0.041 C 
ATOM     13  O   UNL     1       6.195 -20.927 -13.013  1.00  0.00    -0.550 OA
ATOM     14  O   UNL     1       7.900 -22.353 -13.578  1.00  0.00    -0.550 OA
ENDBRANCH  11  12
ENDBRANCH  10  11
ENDBRANCH   9  10
ENDBRANCH   8   9
ENDBRANCH   7   8
ENDBRANCH   6   7
ENDBRANCH   5   6
ENDBRANCH   4   5
ENDBRANCH   3   4
ENDBRANCH   2   3
ENDBRANCH   1   2
BRANCH   1  15
ATOM     15  C   UNL     1       8.471 -24.562 -19.854  1.00  0.00     0.000 C 
BRANCH  15  16
ATOM     16  C   UNL     1       9.997 -24.636 -20.046  1.00  0.00     0.000 C 
BRANCH  16  17
ATOM     17  C   UNL     1      10.468 -24.677 -21.512  1.00  0.00     0.000 C 
BRANCH  17  18
ATOM     18  C   UNL     1       9.800 -23.617 -22.413  1.00  0.00    -0.000 C 
BRANCH  18  19
ATOM     19  C   UNL     1      10.653 -23.265 -23.644  1.00  0.00    -0.000 C 
BRANCH  19  20
ATOM     20  C   UNL     1      12.063 -22.767 -23.277  1.00  0.00    -0.000 C 
BRANCH  20  21
ATOM     21  C   UNL     1      13.068 -22.745 -24.443  1.00  0.00    -0.000 C 
BRANCH  21  22
ATOM     22  C   UNL     1      12.471 -23.273 -25.757  1.00  0.00    -0.000 C 
BRANCH  22  23
ATOM     23  C   UNL     1      13.223 -24.522 -26.240  1.00  0.00    -0.000 C 
BRANCH  23  24
ATOM     24  C   UNL     1      14.752 -24.381 -26.128  1.00  0.00    -0.000 C 
BRANCH  24  25
ATOM     25  C   UNL     1      15.494 -24.279 -27.472  1.00  0.00    -0.003 C 
ATOM     26  C   UNL     1      16.808 -23.506 -27.373  1.00  0.00     0.004 C 
ENDBRANCH  24  25
ENDBRANCH  23  24
ENDBRANCH  22  23
ENDBRANCH  21  22
ENDBRANCH  20  21
ENDBRANCH  19  20
ENDBRANCH  18  19
ENDBRANCH  17  18
ENDBRANCH  16  17
ENDBRANCH  15  16
ENDBRANCH   1  15
TORSDOF 22
ENDMDL
MODEL 2
REMARK VINA RESULT:    13.862      5.930     10.919
REMARK INTER + INTRA:          32.522
REMARK INTER:                  33.848
REMARK INTRA:                  -1.326
REMARK UNBOUND:                 0.833
REMARK SMILES CCCCCCCCCCCCCCCCCCCCCCCC(=O)[O-]
REMARK SMILES IDX 13 1 14 2 15 3 16 4 17 5 18 6 19 7 20 8 21 9 22 10 23 11
REMARK SMILES IDX 24 12 25 13 26 14 12 15 11 16 10 17 9 18 8 19 7 20 6 21 5 22
REMARK SMILES IDX 4 23 3 24 2 25 1 26
REMARK H PARENT
REMARK Flexibility Score: inf
ROOT
ATOM      1  C   UNL     1       6.359 -21.934 -13.792  1.00  0.00     0.000 C 
ENDROOT
BRANCH   1   2
ATOM      2  C   UNL     1       6.470 -23.171 -12.880  1.00  0.00     0.000 C 
BRANCH   2   3
ATOM      3  C   UNL     1       5.133 -23.873 -12.572  1.00  0.00     0.000 C 
BRANCH   3   4
ATOM      4  C   UNL     1       4.210 -24.084 -13.789  1.00  0.00     0.000 C 
BRANCH   4   5
ATOM      5  C   UNL     1       4.055 -25.545 -14.251  1.00  0.00     0.000 C 
BRANCH   5   6
ATOM      6  C   UNL     1       4.583 -25.783 -15.676  1.00  0.00     0.000 C 
BRANCH   6   7
ATOM      7  C   UNL     1       5.757 -24.857 -16.039  1.00  0.00     0.000 C 
BRANCH   7   8
ATOM      8  C   UNL     1       6.849 -25.500 -16.913  1.00  0.00     0.000 C 
BRANCH   8   9
ATOM      9  C   UNL     1       8.257 -24.959 -16.608  1.00  0.00     0.000 C 
BRANCH   9  10
ATOM     10  C   UNL     1       9.071 -24.681 -17.887  1.00  0.00     0.006 C 
BRANCH  10  11
ATOM     11  C   UNL     1       8.239 -24.786 -19.176  1.00  0.00     0.053 C 
BRANCH  11  12
ATOM     12  C   UNL     1       9.017 -24.391 -20.392  1.00  0.00     0.041 C 
ATOM     13  O   UNL     1      10.165 -24.868 -20.592  1.00  0.00    -0.550 OA
ATOM     14  O   UNL     1       8.486 -23.472 -21.288  1.00  0.00    -0.550 OA
ENDBRANCH  11  12
ENDBRANCH  10  11
ENDBRANCH   9  10
ENDBRANCH   8   9
ENDBRANCH   7   8
ENDBRANCH   6   7
ENDBRANCH   5   6
ENDBRANCH   4   5
ENDBRANCH   3   4
ENDBRANCH   2   3
ENDBRANCH   1   2
BRANCH   1  15
ATOM     15  C   UNL     1       5.754 -20.683 -13.124  1.00  0.00     0.000 C 
BRANCH  15  16
ATOM     16  C   UNL     1       5.209 -19.622 -14.097  1.00  0.00     0.000 C 
BRANCH  16  17
ATOM     17  C   UNL     1       4.321 -18.540 -13.453  1.00  0.00     0.000 C 
BRANCH  17  18
ATOM     18  C   UNL     1       4.111 -17.295 -14.340  1.00  0.00    -0.000 C 
BRANCH  18  19
ATOM     19  C   UNL     1       2.656 -16.793 -14.319  1.00  0.00    -0.000 C 
BRANCH  19  20
ATOM     20  C   UNL     1       2.489 -15.406 -14.965  1.00  0.00    -0.000 C 
BRANCH  20  21
ATOM     21  C   UNL     1       1.457 -15.342 -16.106  1.00  0.00    -0.000 C 
BRANCH  21  22
ATOM     22  C   UNL     1       1.864 -14.372 -17.227  1.00  0.00    -0.000 C 
BRANCH  22  23
ATOM     23  C   UNL     1       3.129 -14.863 -17.947  1.00  0.00    -0.000 C 
BRANCH  23  24
ATOM     24  C   UNL     1       3.423 -14.082 -19.240  1.00  0.00    -0.000 C 
BRANCH  24  25
ATOM     25  C   UNL     1       3.341 -12.551 -19.105  1.00  0.00    -0.003 C 
ATOM     26  C   UNL     1       4.357 -11.983 -18.115  1.00  0.00     0.004 C 
ENDBRANCH  24  25
ENDBRANCH  23  24
ENDBRANCH  22  23
ENDBRANCH  21  22
ENDBRANCH  20  21
ENDBRANCH  19  20
ENDBRANCH  18  19
ENDBRANCH  17  18
ENDBRANCH  16  17
ENDBRANCH  15  16
ENDBRANCH   1  15
TORSDOF 22
ENDMDL
MODEL 3
REMARK VINA RESULT:    13.949      1.349      2.047
REMARK INTER + INTRA:          32.721
REMARK INTER:                  32.441
REMARK INTRA:                   0.280
REMARK UNBOUND:                 0.833
REMARK SMILES CCCCCCCCCCCCCCCCCCCCCCCC(=O)[O-]
REMARK SMILES IDX 13 1 14 2 15 3 16 4 17 5 18 6 19 7 20 8 21 9 22 10 23 11
REMARK SMILES IDX 24 12 25 13 26 14 12 15 11 16 10 17 9 18 8 19 7 20 6 21 5 22
REMARK SMILES IDX 4 23 3 24 2 25 1 26
REMARK H PARENT
REMARK Flexibility Score: inf
ROOT
ATOM      1  C   UNL     1       8.759 -24.379 -19.910  1.00  0.00     0.000 C 
ENDROOT
BRANCH   1   2
ATOM      2  C   UNL     1       7.922 -25.377 -19.086  1.00  0.00     0.000 C 
BRANCH   2   3
ATOM      3  C   UNL     1       8.007 -25.190 -17.560  1.00  0.00     0.000 C 
BRANCH   3   4
ATOM      4  C   UNL     1       6.860 -25.837 -16.757  1.00  0.00     0.000 C 
BRANCH   4   5
ATOM      5  C   UNL     1       5.935 -24.850 -16.021  1.00  0.00     0.000 C 
BRANCH   5   6
ATOM      6  C   UNL     1       4.444 -25.189 -16.183  1.00  0.00     0.000 C 
BRANCH   6   7
ATOM      7  C   UNL     1       3.949 -26.214 -15.147  1.00  0.00     0.000 C 
BRANCH   7   8
ATOM      8  C   UNL     1       3.491 -25.616 -13.804  1.00  0.00     0.000 C 
BRANCH   8   9
ATOM      9  C   UNL     1       4.667 -25.207 -12.899  1.00  0.00     0.000 C 
BRANCH   9  10
ATOM     10  C   UNL     1       4.760 -23.679 -12.712  1.00  0.00     0.006 C 
BRANCH  10  11
ATOM     11  C   UNL     1       5.346 -22.948 -13.931  1.00  0.00     0.053 C 
BRANCH  11  12
ATOM     12  C   UNL     1       6.390 -21.946 -13.549  1.00  0.00     0.041 C 
ATOM     13  O   UNL     1       7.552 -22.325 -13.246  1.00  0.00    -0.550 OA
ATOM     14  O   UNL     1       6.070 -20.595 -13.498  1.00  0.00    -0.550 OA
ENDBRANCH  11  12
ENDBRANCH  10  11
ENDBRANCH   9  10
ENDBRANCH   8   9
ENDBRANCH   7   8
ENDBRANCH   6   7
ENDBRANCH   5   6
ENDBRANCH   4   5
ENDBRANCH   3   4
ENDBRANCH   2   3
ENDBRANCH   1   2
BRANCH   1  15
ATOM     15  C   UNL     1      10.244 -24.759 -20.081  1.00  0.00     0.000 C 
BRANCH  15  16
ATOM     16  C   UNL     1      10.747 -24.789 -21.536  1.00  0.00     0.000 C 
BRANCH  16  17
ATOM     17  C   UNL     1      10.426 -23.529 -22.362  1.00  0.00     0.000 C 
BRANCH  17  18
ATOM     18  C   UNL     1      10.950 -23.584 -23.814  1.00  0.00    -0.000 C 
BRANCH  18  19
ATOM     19  C   UNL     1      12.446 -23.238 -23.915  1.00  0.00    -0.000 C 
BRANCH  19  20
ATOM     20  C   UNL     1      12.891 -22.910 -25.352  1.00  0.00    -0.000 C 
BRANCH  20  21
ATOM     21  C   UNL     1      13.466 -24.101 -26.140  1.00  0.00    -0.000 C 
BRANCH  21  22
ATOM     22  C   UNL     1      15.002 -24.151 -26.113  1.00  0.00    -0.000 C 
BRANCH  22  23
ATOM     23  C   UNL     1      15.601 -23.181 -27.142  1.00  0.00    -0.000 C 
BRANCH  23  24
ATOM     24  C   UNL     1      14.600 -22.110 -27.611  1.00  0.00    -0.000 C 
BRANCH  24  25
ATOM     25  C   UNL     1      15.238 -20.806 -28.123  1.00  0.00    -0.003 C 
ATOM     26  C   UNL     1      14.479 -19.556 -27.683  1.00  0.00     0.004 C 
ENDBRANCH  24  25
ENDBRANCH  23  24
ENDBRANCH  22  23
ENDBRANCH  21  22
ENDBRANCH  20  21
ENDBRANCH  19  20
ENDBRANCH  18  19
ENDBRANCH  17  18
ENDBRANCH  16  17
ENDBRANCH  15  16
ENDBRANCH   1  15
TORSDOF 22
ENDMDL
MODEL 4
REMARK VINA RESULT:    14.008      5.857      9.764
REMARK INTER + INTRA:          32.856
REMARK INTER:                  33.296
REMARK INTRA:                  -0.440
REMARK UNBOUND:                 0.833
REMARK SMILES CCCCCCCCCCCCCCCCCCCCCCCC(=O)[O-]
REMARK SMILES IDX 13 1 14 2 15 3 16 4 17 5 18 6 19 7 20 8 21 9 22 10 23 11
REMARK SMILES IDX 24 12 25 13 26 14 12 15 11 16 10 17 9 18 8 19 7 20 6 21 5 22
REMARK SMILES IDX 4 23 3 24 2 25 1 26
REMARK H PARENT
REMARK Flexibility Score: inf
ROOT
ATOM      1  C   UNL     1       6.494 -21.830 -13.457  1.00  0.00     0.000 C 
ENDROOT
BRANCH   1   2
ATOM      2  C   UNL     1       5.330 -20.938 -13.932  1.00  0.00     0.000 C 
BRANCH   2   3
ATOM      3  C   UNL     1       5.453 -19.451 -13.549  1.00  0.00     0.000 C 
BRANCH   3   4
ATOM      4  C   UNL     1       4.113 -18.700 -13.402  1.00  0.00     0.000 C 
BRANCH   4   5
ATOM      5  C   UNL     1       4.025 -17.361 -14.158  1.00  0.00     0.000 C 
BRANCH   5   6
ATOM      6  C   UNL     1       2.577 -16.922 -14.434  1.00  0.00     0.000 C 
BRANCH   6   7
ATOM      7  C   UNL     1       2.487 -15.507 -15.033  1.00  0.00     0.000 C 
BRANCH   7   8
ATOM      8  C   UNL     1       1.480 -15.349 -16.187  1.00  0.00     0.000 C 
BRANCH   8   9
ATOM      9  C   UNL     1       1.946 -14.344 -17.255  1.00  0.00     0.000 C 
BRANCH   9  10
ATOM     10  C   UNL     1       2.857 -14.992 -18.317  1.00  0.00     0.006 C 
BRANCH  10  11
ATOM     11  C   UNL     1       4.081 -14.134 -18.676  1.00  0.00     0.053 C 
BRANCH  11  12
ATOM     12  C   UNL     1       3.741 -12.683 -18.814  1.00  0.00     0.041 C 
ATOM     13  O   UNL     1       4.380 -11.818 -18.158  1.00  0.00    -0.550 OA
ATOM     14  O   UNL     1       2.699 -12.289 -19.643  1.00  0.00    -0.550 OA
ENDBRANCH  11  12
ENDBRANCH  10  11
ENDBRANCH   9  10
ENDBRANCH   8   9
ENDBRANCH   7   8
ENDBRANCH   6   7
ENDBRANCH   5   6
ENDBRANCH   4   5
ENDBRANCH   3   4
ENDBRANCH   2   3
ENDBRANCH   1   2
BRANCH   1  15
ATOM     15  C   UNL     1       6.124 -23.305 -13.206  1.00  0.00     0.000 C 
BRANCH  15  16
ATOM     16  C   UNL     1       4.621 -23.577 -13.012  1.00  0.00     0.000 C 
BRANCH  16  17
ATOM     17  C   UNL     1       4.236 -25.065 -12.900  1.00  0.00     0.000 C 
BRANCH  17  18
ATOM     18  C   UNL     1       3.468 -25.604 -14.126  1.00  0.00    -0.000 C 
BRANCH  18  19
ATOM     19  C   UNL     1       4.404 -26.008 -15.279  1.00  0.00    -0.000 C 
BRANCH  19  20
ATOM     20  C   UNL     1       5.204 -24.821 -15.847  1.00  0.00    -0.000 C 
BRANCH  20  21
ATOM     21  C   UNL     1       6.699 -25.101 -16.082  1.00  0.00    -0.000 C 
BRANCH  21  22
ATOM     22  C   UNL     1       6.976 -25.775 -17.436  1.00  0.00    -0.000 C 
BRANCH  22  23
ATOM     23  C   UNL     1       8.224 -25.178 -18.102  1.00  0.00    -0.000 C 
BRANCH  23  24
ATOM     24  C   UNL     1       8.055 -24.975 -19.619  1.00  0.00    -0.000 C 
BRANCH  24  25
ATOM     25  C   UNL     1       9.167 -24.149 -20.290  1.00  0.00    -0.003 C 
ATOM     26  C   UNL     1      10.293 -25.012 -20.857  1.00  0.00     0.004 C 
ENDBRANCH  24  25
ENDBRANCH  23  24
ENDBRANCH  22  23
ENDBRANCH  21  22
ENDBRANCH  20  21
ENDBRANCH  19  20
ENDBRANCH  18  19
ENDBRANCH  17  18
ENDBRANCH  16  17
ENDBRANCH  15  16
ENDBRANCH   1  15
TORSDOF 22
ENDMDL
MODEL 5
REMARK VINA RESULT:    14.231      5.472      9.386
REMARK INTER + INTRA:          33.366
REMARK INTER:                  32.988
REMARK INTRA:                   0.378
REMARK UNBOUND:                 0.833
REMARK SMILES CCCCCCCCCCCCCCCCCCCCCCCC(=O)[O-]
REMARK SMILES IDX 13 1 14 2 15 3 16 4 17 5 18 6 19 7 20 8 21 9 22 10 23 11
REMARK SMILES IDX 24 12 25 13 26 14 12 15 11 16 10 17 9 18 8 19 7 20 6 21 5 22
REMARK SMILES IDX 4 23 3 24 2 25 1 26
REMARK H PARENT
REMARK Flexibility Score: inf
ROOT
ATOM      1  C   UNL     1       6.219 -22.902 -13.334  1.00  0.00     0.000 C 
ENDROOT
BRANCH   1   2
ATOM      2  C   UNL     1       5.503 -21.685 -13.953  1.00  0.00     0.000 C 
BRANCH   2   3
ATOM      3  C   UNL     1       5.732 -20.352 -13.216  1.00  0.00     0.000 C 
BRANCH   3   4
ATOM      4  C   UNL     1       5.201 -19.101 -13.945  1.00  0.00     0.000 C 
BRANCH   4   5
ATOM      5  C   UNL     1       3.848 -18.569 -13.437  1.00  0.00     0.000 C 
BRANCH   5   6
ATOM      6  C   UNL     1       3.719 -17.042 -13.562  1.00  0.00     0.000 C 
BRANCH   6   7
ATOM      7  C   UNL     1       3.207 -16.598 -14.944  1.00  0.00     0.000 C 
BRANCH   7   8
ATOM      8  C   UNL     1       2.007 -15.633 -14.916  1.00  0.00     0.000 C 
BRANCH   8   9
ATOM      9  C   UNL     1       1.393 -15.401 -16.308  1.00  0.00     0.000 C 
BRANCH   9  10
ATOM     10  C   UNL     1       2.000 -14.175 -17.021  1.00  0.00     0.006 C 
BRANCH  10  11
ATOM     11  C   UNL     1       3.221 -14.516 -17.891  1.00  0.00     0.053 C 
BRANCH  11  12
ATOM     12  C   UNL     1       3.104 -13.970 -19.279  1.00  0.00     0.041 C 
ATOM     13  O   UNL     1       3.001 -14.753 -20.261  1.00  0.00    -0.550 OA
ATOM     14  O   UNL     1       3.139 -12.598 -19.492  1.00  0.00    -0.550 OA
ENDBRANCH  11  12
ENDBRANCH  10  11
ENDBRANCH   9  10
ENDBRANCH   8   9
ENDBRANCH   7   8
ENDBRANCH   6   7
ENDBRANCH   5   6
ENDBRANCH   4   5
ENDBRANCH   3   4
ENDBRANCH   2   3
ENDBRANCH   1   2
BRANCH   1  15
ATOM     15  C   UNL     1       5.284 -23.980 -12.750  1.00  0.00     0.000 C 
BRANCH  15  16
ATOM     16  C   UNL     1       3.873 -24.023 -13.365  1.00  0.00     0.000 C 
BRANCH  16  17
ATOM     17  C   UNL     1       3.303 -25.437 -13.590  1.00  0.00     0.000 C 
BRANCH  17  18
ATOM     18  C   UNL     1       4.123 -26.290 -14.582  1.00  0.00    -0.000 C 
BRANCH  18  19
ATOM     19  C   UNL     1       4.632 -25.474 -15.783  1.00  0.00    -0.000 C 
BRANCH  19  20
ATOM     20  C   UNL     1       5.990 -24.799 -15.519  1.00  0.00    -0.000 C 
BRANCH  20  21
ATOM     21  C   UNL     1       6.843 -24.546 -16.776  1.00  0.00    -0.000 C 
BRANCH  21  22
ATOM     22  C   UNL     1       7.273 -25.844 -17.478  1.00  0.00    -0.000 C 
BRANCH  22  23
ATOM     23  C   UNL     1       7.617 -25.584 -18.952  1.00  0.00    -0.000 C 
BRANCH  23  24
ATOM     24  C   UNL     1       8.767 -24.576 -19.130  1.00  0.00    -0.000 C 
BRANCH  24  25
ATOM     25  C   UNL     1       9.407 -24.564 -20.530  1.00  0.00    -0.003 C 
ATOM     26  C   UNL     1       8.815 -23.496 -21.449  1.00  0.00     0.004 C 
ENDBRANCH  24  25
ENDBRANCH  23  24
ENDBRANCH  22  23
ENDBRANCH  21  22
ENDBRANCH  20  21
ENDBRANCH  19  20
ENDBRANCH  18  19
ENDBRANCH  17  18
ENDBRANCH  16  17
ENDBRANCH  15  16
ENDBRANCH   1  15
TORSDOF 22
ENDMDL
MODEL 6
REMARK VINA RESULT:    14.772      2.292      3.212
REMARK INTER + INTRA:          34.604
REMARK INTER:                  34.259
REMARK INTRA:                   0.346
REMARK UNBOUND:                 0.833
REMARK SMILES CCCCCCCCCCCCCCCCCCCCCCCC(=O)[O-]
REMARK SMILES IDX 13 1 14 2 15 3 16 4 17 5 18 6 19 7 20 8 21 9 22 10 23 11
REMARK SMILES IDX 24 12 25 13 26 14 12 15 11 16 10 17 9 18 8 19 7 20 6 21 5 22
REMARK SMILES IDX 4 23 3 24 2 25 1 26
REMARK H PARENT
REMARK Flexibility Score: inf
ROOT
ATOM      1  C   UNL     1       7.640 -25.796 -18.203  1.00  0.00     0.000 C 
ENDROOT
BRANCH   1   2
ATOM      2  C   UNL     1       7.619 -25.058 -16.849  1.00  0.00     0.000 C 
BRANCH   2   3
ATOM      3  C   UNL     1       6.270 -25.103 -16.107  1.00  0.00     0.000 C 
BRANCH   3   4
ATOM      4  C   UNL     1       5.354 -23.883 -16.339  1.00  0.00     0.000 C 
BRANCH   4   5
ATOM      5  C   UNL     1       5.127 -22.988 -15.107  1.00  0.00     0.000 C 
BRANCH   5   6
ATOM      6  C   UNL     1       6.396 -22.798 -14.260  1.00  0.00     0.000 C 
BRANCH   6   7
ATOM      7  C   UNL     1       6.138 -22.963 -12.752  1.00  0.00     0.000 C 
BRANCH   7   8
ATOM      8  C   UNL     1       4.675 -23.255 -12.368  1.00  0.00     0.000 C 
BRANCH   8   9
ATOM      9  C   UNL     1       4.303 -24.741 -12.516  1.00  0.00     0.000 C 
BRANCH   9  10
ATOM     10  C   UNL     1       3.885 -25.103 -13.956  1.00  0.00     0.006 C 
BRANCH  10  11
ATOM     11  C   UNL     1       3.747 -26.616 -14.189  1.00  0.00     0.053 C 
BRANCH  11  12
ATOM     12  C   UNL     1       2.785 -26.939 -15.289  1.00  0.00     0.041 C 
ATOM     13  O   UNL     1       3.070 -26.656 -16.483  1.00  0.00    -0.550 OA
ATOM     14  O   UNL     1       1.561 -27.525 -14.992  1.00  0.00    -0.550 OA
ENDBRANCH  11  12
ENDBRANCH  10  11
ENDBRANCH   9  10
ENDBRANCH   8   9
ENDBRANCH   7   8
ENDBRANCH   6   7
ENDBRANCH   5   6
ENDBRANCH   4   5
ENDBRANCH   3   4
ENDBRANCH   2   3
ENDBRANCH   1   2
BRANCH   1  15
ATOM     15  C   UNL     1       7.754 -24.883 -19.440  1.00  0.00     0.000 C 
BRANCH  15  16
ATOM     16  C   UNL     1       9.179 -24.392 -19.760  1.00  0.00     0.000 C 
BRANCH  16  17
ATOM     17  C   UNL     1      10.004 -25.330 -20.661  1.00  0.00     0.000 C 
BRANCH  17  18
ATOM     18  C   UNL     1      10.959 -24.590 -21.623  1.00  0.00    -0.000 C 
BRANCH  18  19
ATOM     19  C   UNL     1      10.211 -23.691 -22.623  1.00  0.00    -0.000 C 
BRANCH  19  20
ATOM     20  C   UNL     1      11.041 -23.369 -23.879  1.00  0.00    -0.000 C 
BRANCH  20  21
ATOM     21  C   UNL     1      12.465 -22.853 -23.601  1.00  0.00    -0.000 C 
BRANCH  21  22
ATOM     22  C   UNL     1      13.294 -22.668 -24.881  1.00  0.00    -0.000 C 
BRANCH  22  23
ATOM     23  C   UNL     1      12.911 -23.712 -25.940  1.00  0.00    -0.000 C 
BRANCH  23  24
ATOM     24  C   UNL     1      14.064 -24.675 -26.278  1.00  0.00    -0.000 C 
BRANCH  24  25
ATOM     25  C   UNL     1      15.466 -24.040 -26.253  1.00  0.00    -0.003 C 
ATOM     26  C   UNL     1      16.128 -24.000 -27.629  1.00  0.00     0.004 C 
ENDBRANCH  24  25
ENDBRANCH  23  24
ENDBRANCH  22  23
ENDBRANCH  21  22
ENDBRANCH  20  21
ENDBRANCH  19  20
ENDBRANCH  18  19
ENDBRANCH  17  18
ENDBRANCH  16  17
ENDBRANCH  15  16
ENDBRANCH   1  15
TORSDOF 22
ENDMDL
MODEL 7
REMARK VINA RESULT:    15.083      4.436     12.749
REMARK INTER + INTRA:          35.316
REMARK INTER:                  36.651
REMARK INTRA:                  -1.335
REMARK UNBOUND:                 0.833
REMARK SMILES CCCCCCCCCCCCCCCCCCCCCCCC(=O)[O-]
REMARK SMILES IDX 13 1 14 2 15 3 16 4 17 5 18 6 19 7 20 8 21 9 22 10 23 11
REMARK SMILES IDX 24 12 25 13 26 14 12 15 11 16 10 17 9 18 8 19 7 20 6 21 5 22
REMARK SMILES IDX 4 23 3 24 2 25 1 26
REMARK H PARENT
REMARK Flexibility Score: inf
ROOT
ATOM      1  C   UNL     1       7.629 -25.848 -18.234  1.00  0.00     0.000 C 
ENDROOT
BRANCH   1   2
ATOM      2  C   UNL     1       7.812 -24.976 -19.492  1.00  0.00     0.000 C 
BRANCH   2   3
ATOM      3  C   UNL     1       9.276 -24.706 -19.887  1.00  0.00     0.000 C 
BRANCH   3   4
ATOM      4  C   UNL     1       9.465 -23.922 -21.201  1.00  0.00     0.000 C 
BRANCH   4   5
ATOM      5  C   UNL     1      10.684 -24.339 -22.045  1.00  0.00     0.000 C 
BRANCH   5   6
ATOM      6  C   UNL     1      10.814 -23.537 -23.351  1.00  0.00     0.000 C 
BRANCH   6   7
ATOM      7  C   UNL     1      12.067 -22.645 -23.381  1.00  0.00     0.000 C 
BRANCH   7   8
ATOM      8  C   UNL     1      12.940 -22.787 -24.642  1.00  0.00     0.000 C 
BRANCH   8   9
ATOM      9  C   UNL     1      12.460 -23.909 -25.579  1.00  0.00     0.000 C 
BRANCH   9  10
ATOM     10  C   UNL     1      13.612 -24.524 -26.399  1.00  0.00     0.006 C 
BRANCH  10  11
ATOM     11  C   UNL     1      14.655 -23.491 -26.856  1.00  0.00     0.053 C 
BRANCH  11  12
ATOM     12  C   UNL     1      16.059 -23.958 -26.632  1.00  0.00     0.041 C 
ATOM     13  O   UNL     1      16.850 -24.078 -27.604  1.00  0.00    -0.550 OA
ATOM     14  O   UNL     1      16.483 -24.292 -25.352  1.00  0.00    -0.550 OA
ENDBRANCH  11  12
ENDBRANCH  10  11
ENDBRANCH   9  10
ENDBRANCH   8   9
ENDBRANCH   7   8
ENDBRANCH   6   7
ENDBRANCH   5   6
ENDBRANCH   4   5
ENDBRANCH   3   4
ENDBRANCH   2   3
ENDBRANCH   1   2
BRANCH   1  15
ATOM     15  C   UNL     1       7.866 -25.120 -16.896  1.00  0.00     0.000 C 
BRANCH  15  16
ATOM     16  C   UNL     1       6.724 -25.248 -15.871  1.00  0.00     0.000 C 
BRANCH  16  17
ATOM     17  C   UNL     1       5.451 -24.449 -16.211  1.00  0.00     0.000 C 
BRANCH  17  18
ATOM     18  C   UNL     1       4.161 -25.297 -16.205  1.00  0.00    -0.000 C 
BRANCH  18  19
ATOM     19  C   UNL     1       4.175 -26.386 -15.117  1.00  0.00    -0.000 C 
BRANCH  19  20
ATOM     20  C   UNL     1       2.937 -26.337 -14.204  1.00  0.00    -0.000 C 
BRANCH  20  21
ATOM     21  C   UNL     1       3.093 -25.464 -12.945  1.00  0.00    -0.000 C 
BRANCH  21  22
ATOM     22  C   UNL     1       4.453 -24.752 -12.876  1.00  0.00    -0.000 C 
BRANCH  22  23
ATOM     23  C   UNL     1       4.274 -23.228 -12.822  1.00  0.00    -0.000 C 
BRANCH  23  24
ATOM     24  C   UNL     1       5.072 -22.492 -13.914  1.00  0.00    -0.000 C 
BRANCH  24  25
ATOM     25  C   UNL     1       6.354 -21.797 -13.421  1.00  0.00    -0.003 C 
ATOM     26  C   UNL     1       7.614 -22.629 -13.659  1.00  0.00     0.004 C 
ENDBRANCH  24  25
ENDBRANCH  23  24
ENDBRANCH  22  23
ENDBRANCH  21  22
ENDBRANCH  20  21
ENDBRANCH  19  20
ENDBRANCH  18  19
ENDBRANCH  17  18
ENDBRANCH  16  17
ENDBRANCH  15  16
ENDBRANCH   1  15
TORSDOF 22
ENDMDL
MODEL 8
REMARK VINA RESULT:    15.089      0.953      2.104
REMARK INTER + INTRA:          35.327
REMARK INTER:                  35.999
REMARK INTRA:                  -0.671
REMARK UNBOUND:                 0.833
REMARK SMILES CCCCCCCCCCCCCCCCCCCCCCCC(=O)[O-]
REMARK SMILES IDX 13 1 14 2 15 3 16 4 17 5 18 6 19 7 20 8 21 9 22 10 23 11
REMARK SMILES IDX 24 12 25 13 26 14 12 15 11 16 10 17 9 18 8 19 7 20 6 21 5 22
REMARK SMILES IDX 4 23 3 24 2 25 1 26
REMARK H PARENT
REMARK Flexibility Score: inf
ROOT
ATOM      1  C   UNL     1       8.489 -25.327 -16.437  1.00  0.00     0.000 C 
ENDROOT
BRANCH   1   2
ATOM      2  C   UNL     1       7.046 -25.845 -16.280  1.00  0.00     0.000 C 
BRANCH   2   3
ATOM      3  C   UNL     1       5.985 -24.751 -16.056  1.00  0.00     0.000 C 
BRANCH   3   4
ATOM      4  C   UNL     1       4.523 -25.241 -16.088  1.00  0.00     0.000 C 
BRANCH   4   5
ATOM      5  C   UNL     1       4.159 -26.290 -15.021  1.00  0.00     0.000 C 
BRANCH   5   6
ATOM      6  C   UNL     1       3.385 -25.693 -13.833  1.00  0.00     0.000 C 
BRANCH   6   7
ATOM      7  C   UNL     1       4.310 -25.080 -12.766  1.00  0.00     0.000 C 
BRANCH   7   8
ATOM      8  C   UNL     1       4.057 -23.593 -12.460  1.00  0.00     0.000 C 
BRANCH   8   9
ATOM      9  C   UNL     1       3.675 -22.780 -13.709  1.00  0.00     0.000 C 
BRANCH   9  10
ATOM     10  C   UNL     1       4.910 -22.285 -14.490  1.00  0.00     0.006 C 
BRANCH  10  11
ATOM     11  C   UNL     1       5.964 -21.608 -13.599  1.00  0.00     0.053 C 
BRANCH  11  12
ATOM     12  C   UNL     1       7.113 -22.514 -13.283  1.00  0.00     0.041 C 
ATOM     13  O   UNL     1       8.202 -22.396 -13.905  1.00  0.00    -0.550 OA
ATOM     14  O   UNL     1       6.970 -23.509 -12.324  1.00  0.00    -0.550 OA
ENDBRANCH  11  12
ENDBRANCH  10  11
ENDBRANCH   9  10
ENDBRANCH   8   9
ENDBRANCH   7   8
ENDBRANCH   6   7
ENDBRANCH   5   6
ENDBRANCH   4   5
ENDBRANCH   3   4
ENDBRANCH   2   3
ENDBRANCH   1   2
BRANCH   1  15
ATOM     15  C   UNL     1       8.722 -24.404 -17.650  1.00  0.00     0.000 C 
BRANCH  15  16
ATOM     16  C   UNL     1       8.019 -24.842 -18.949  1.00  0.00     0.000 C 
BRANCH  16  17
ATOM     17  C   UNL     1       8.758 -24.471 -20.248  1.00  0.00     0.000 C 
BRANCH  17  18
ATOM     18  C   UNL     1      10.261 -24.822 -20.233  1.00  0.00    -0.000 C 
BRANCH  18  19
ATOM     19  C   UNL     1      10.874 -24.857 -21.644  1.00  0.00    -0.000 C 
BRANCH  19  20
ATOM     20  C   UNL     1      10.273 -23.799 -22.587  1.00  0.00    -0.000 C 
BRANCH  20  21
ATOM     21  C   UNL     1      11.111 -23.498 -23.842  1.00  0.00    -0.000 C 
BRANCH  21  22
ATOM     22  C   UNL     1      12.303 -22.570 -23.558  1.00  0.00    -0.000 C 
BRANCH  22  23
ATOM     23  C   UNL     1      13.382 -22.712 -24.641  1.00  0.00    -0.000 C 
BRANCH  23  24
ATOM     24  C   UNL     1      12.880 -23.454 -25.893  1.00  0.00    -0.000 C 
BRANCH  24  25
ATOM     25  C   UNL     1      13.816 -24.563 -26.407  1.00  0.00    -0.003 C 
ATOM     26  C   UNL     1      15.275 -24.117 -26.501  1.00  0.00     0.004 C 
ENDBRANCH  24  25
ENDBRANCH  23  24
ENDBRANCH  22  23
ENDBRANCH  21  22
ENDBRANCH  20  21
ENDBRANCH  19  20
ENDBRANCH  18  19
ENDBRANCH  17  18
ENDBRANCH  16  17
ENDBRANCH  15  16
ENDBRANCH   1  15
TORSDOF 22
ENDMDL
MODEL 9
REMARK VINA RESULT:    15.223      2.068      3.100
REMARK INTER + INTRA:          35.634
REMARK INTER:                  37.030
REMARK INTRA:                  -1.395
REMARK UNBOUND:                 0.833
REMARK SMILES CCCCCCCCCCCCCCCCCCCCCCCC(=O)[O-]
REMARK SMILES IDX 13 1 14 2 15 3 16 4 17 5 18 6 19 7 20 8 21 9 22 10 23 11
REMARK SMILES IDX 24 12 25 13 26 14 12 15 11 16 10 17 9 18 8 19 7 20 6 21 5 22
REMARK SMILES IDX 4 23 3 24 2 25 1 26
REMARK H PARENT
REMARK Flexibility Score: inf
ROOT
ATOM      1  C   UNL     1       9.400 -24.719 -20.302  1.00  0.00     0.000 C 
ENDROOT
BRANCH   1   2
ATOM      2  C   UNL     1       8.147 -24.364 -19.476  1.00  0.00     0.000 C 
BRANCH   2   3
ATOM      3  C   UNL     1       7.636 -25.488 -18.556  1.00  0.00     0.000 C 
BRANCH   3   4
ATOM      4  C   UNL     1       8.059 -25.366 -17.077  1.00  0.00     0.000 C 
BRANCH   4   5
ATOM      5  C   UNL     1       6.909 -25.457 -16.056  1.00  0.00     0.000 C 
BRANCH   5   6
ATOM      6  C   UNL     1       5.632 -24.739 -16.525  1.00  0.00     0.000 C 
BRANCH   6   7
ATOM      7  C   UNL     1       4.346 -25.422 -16.025  1.00  0.00     0.000 C 
BRANCH   7   8
ATOM      8  C   UNL     1       4.458 -26.091 -14.643  1.00  0.00     0.000 C 
BRANCH   8   9
ATOM      9  C   UNL     1       3.506 -25.476 -13.602  1.00  0.00     0.000 C 
BRANCH   9  10
ATOM     10  C   UNL     1       3.912 -24.041 -13.209  1.00  0.00     0.006 C 
BRANCH  10  11
ATOM     11  C   UNL     1       5.413 -23.891 -12.911  1.00  0.00     0.053 C 
BRANCH  11  12
ATOM     12  C   UNL     1       6.006 -22.680 -13.561  1.00  0.00     0.041 C 
ATOM     13  O   UNL     1       5.382 -22.085 -14.479  1.00  0.00    -0.550 OA
ATOM     14  O   UNL     1       7.262 -22.229 -13.175  1.00  0.00    -0.550 OA
ENDBRANCH  11  12
ENDBRANCH  10  11
ENDBRANCH   9  10
ENDBRANCH   8   9
ENDBRANCH   7   8
ENDBRANCH   6   7
ENDBRANCH   5   6
ENDBRANCH   4   5
ENDBRANCH   3   4
ENDBRANCH   2   3
ENDBRANCH   1   2
BRANCH   1  15
ATOM     15  C   UNL     1       9.515 -23.991 -21.656  1.00  0.00     0.000 C 
BRANCH  15  16
ATOM     16  C   UNL     1      10.934 -23.944 -22.253  1.00  0.00     0.000 C 
BRANCH  16  17
ATOM     17  C   UNL     1      11.036 -23.282 -23.640  1.00  0.00     0.000 C 
BRANCH  17  18
ATOM     18  C   UNL     1      12.478 -22.916 -24.053  1.00  0.00    -0.000 C 
BRANCH  18  19
ATOM     19  C   UNL     1      12.940 -23.666 -25.314  1.00  0.00    -0.000 C 
BRANCH  19  20
ATOM     20  C   UNL     1      13.284 -22.724 -26.482  1.00  0.00    -0.000 C 
BRANCH  20  21
ATOM     21  C   UNL     1      14.744 -22.797 -26.966  1.00  0.00    -0.000 C 
BRANCH  21  22
ATOM     22  C   UNL     1      15.122 -21.639 -27.903  1.00  0.00    -0.000 C 
BRANCH  22  23
ATOM     23  C   UNL     1      13.951 -20.659 -28.066  1.00  0.00    -0.000 C 
BRANCH  23  24
ATOM     24  C   UNL     1      14.341 -19.202 -27.757  1.00  0.00    -0.000 C 
BRANCH  24  25
ATOM     25  C   UNL     1      14.317 -18.828 -26.264  1.00  0.00    -0.003 C 
ATOM     26  C   UNL     1      13.311 -17.725 -25.941  1.00  0.00     0.004 C 
ENDBRANCH  24  25
ENDBRANCH  23  24
ENDBRANCH  22  23
ENDBRANCH  21  22
ENDBRANCH  20  21
ENDBRANCH  19  20
ENDBRANCH  18  19
ENDBRANCH  17  18
ENDBRANCH  16  17
ENDBRANCH  15  16
ENDBRANCH   1  15
TORSDOF 22
ENDMDL
