MODEL 1
REMARK VINA RESULT:    -4.966      0.000      0.000
REMARK INTER + INTRA:          -6.135
REMARK INTER:                  -5.837
REMARK INTRA:                  -0.298
REMARK UNBOUND:                -0.298
REMARK SMILES O=c1c(O)c(-c2ccc(O)cc2)oc2cc(O)cc(O)c12
REMARK SMILES IDX 5 1 3 2 2 3 1 4 21 5 19 6 18 7 16 8 15 9 14 10 13 11 6 12
REMARK SMILES IDX 7 13 8 14 9 15 12 16 11 17 10 18 4 20 20 22 17 24
REMARK H PARENT 10 19 4 21 20 23 17 25
REMARK Flexibility Score: inf
ROOT
ATOM      1  C   UNL     1     145.214 151.708 138.158  1.00  0.00     0.180 A 
ATOM      2  C   UNL     1     143.887 152.170 138.131  1.00  0.00     0.208 A 
ATOM      3  C   UNL     1     142.839 151.243 138.248  1.00  0.00     0.238 A 
ATOM      4  O   UNL     1     141.656 151.668 138.277  1.00  0.00    -0.285 OA
ATOM      5  C   UNL     1     143.131 149.863 138.376  1.00  0.00     0.111 A 
ATOM      6  C   UNL     1     142.148 148.832 138.461  1.00  0.00     0.134 A 
ATOM      7  C   UNL     1     142.550 147.514 138.716  1.00  0.00     0.093 A 
ATOM      8  C   UNL     1     143.903 147.182 138.823  1.00  0.00     0.123 A 
ATOM      9  C   UNL     1     144.872 148.172 138.682  1.00  0.00     0.094 A 
ATOM     10  C   UNL     1     144.501 149.501 138.464  1.00  0.00     0.146 A 
ATOM     11  O   UNL     1     145.456 150.415 138.345  1.00  0.00    -0.452 OA
ENDROOT
BRANCH   1  12
ATOM     12  C   UNL     1     146.371 152.622 138.015  1.00  0.00     0.021 A 
ATOM     13  C   UNL     1     146.871 152.978 136.749  1.00  0.00     0.016 A 
ATOM     14  C   UNL     1     147.980 153.824 136.641  1.00  0.00     0.047 A 
ATOM     15  C   UNL     1     148.610 154.311 137.789  1.00  0.00     0.115 A 
ATOM     16  C   UNL     1     147.022 153.099 139.166  1.00  0.00     0.016 A 
ATOM     17  C   UNL     1     148.130 153.944 139.053  1.00  0.00     0.047 A 
BRANCH  15  18
ATOM     18  O   UNL     1     149.712 155.153 137.664  1.00  0.00    -0.508 OA
ATOM     19  H   UNL     1     150.625 154.796 137.408  1.00  0.00     0.293 HD
ENDBRANCH  15  18
ENDBRANCH   1  12
BRANCH   2  20
ATOM     20  O   UNL     1     143.622 153.538 138.026  1.00  0.00    -0.502 OA
ATOM     21  H   UNL     1     143.146 154.058 138.753  1.00  0.00     0.293 HD
ENDBRANCH   2  20
BRANCH   6  22
ATOM     22  O   UNL     1     140.779 149.041 138.277  1.00  0.00    -0.507 OA
ATOM     23  H   UNL     1     140.053 148.436 138.630  1.00  0.00     0.293 HD
ENDBRANCH   6  22
BRANCH   8  24
ATOM     24  O   UNL     1     144.294 145.866 139.062  1.00  0.00    -0.508 OA
ATOM     25  H   UNL     1     145.231 145.544 138.846  1.00  0.00     0.293 HD
ENDBRANCH   8  24
TORSDOF 5
ENDMDL
MODEL 2
REMARK VINA RESULT:    -4.958      5.494      7.883
REMARK INTER + INTRA:          -6.125
REMARK INTER:                  -5.827
REMARK INTRA:                  -0.299
REMARK UNBOUND:                -0.298
REMARK SMILES O=c1c(O)c(-c2ccc(O)cc2)oc2cc(O)cc(O)c12
REMARK SMILES IDX 5 1 3 2 2 3 1 4 21 5 19 6 18 7 16 8 15 9 14 10 13 11 6 12
REMARK SMILES IDX 7 13 8 14 9 15 12 16 11 17 10 18 4 20 20 22 17 24
REMARK H PARENT 10 19 4 21 20 23 17 25
REMARK Flexibility Score: inf
ROOT
ATOM      1  C   UNL     1     143.860 145.244 138.167  1.00  0.00     0.180 A 
ATOM      2  C   UNL     1     143.398 143.917 138.125  1.00  0.00     0.208 A 
ATOM      3  C   UNL     1     144.325 142.869 138.246  1.00  0.00     0.238 A 
ATOM      4  O   UNL     1     143.900 141.686 138.261  1.00  0.00    -0.285 OA
ATOM      5  C   UNL     1     145.703 143.160 138.392  1.00  0.00     0.111 A 
ATOM      6  C   UNL     1     146.733 142.177 138.483  1.00  0.00     0.134 A 
ATOM      7  C   UNL     1     148.047 142.578 138.757  1.00  0.00     0.093 A 
ATOM      8  C   UNL     1     148.378 143.930 138.878  1.00  0.00     0.123 A 
ATOM      9  C   UNL     1     147.389 144.900 138.732  1.00  0.00     0.094 A 
ATOM     10  C   UNL     1     146.063 144.530 138.495  1.00  0.00     0.146 A 
ATOM     11  O   UNL     1     145.150 145.486 138.372  1.00  0.00    -0.452 OA
ENDROOT
BRANCH   1  12
ATOM     12  C   UNL     1     142.948 146.402 138.021  1.00  0.00     0.021 A 
ATOM     13  C   UNL     1     142.615 146.918 136.756  1.00  0.00     0.016 A 
ATOM     14  C   UNL     1     141.770 148.027 136.645  1.00  0.00     0.047 A 
ATOM     15  C   UNL     1     141.261 148.642 137.792  1.00  0.00     0.115 A 
ATOM     16  C   UNL     1     142.449 147.039 139.171  1.00  0.00     0.016 A 
ATOM     17  C   UNL     1     141.604 148.147 139.056  1.00  0.00     0.047 A 
BRANCH  15  18
ATOM     18  O   UNL     1     140.419 149.745 137.665  1.00  0.00    -0.508 OA
ATOM     19  H   UNL     1     140.778 150.692 137.710  1.00  0.00     0.293 HD
ENDBRANCH  15  18
ENDBRANCH   1  12
BRANCH   2  20
ATOM     20  O   UNL     1     142.032 143.653 138.001  1.00  0.00    -0.502 OA
ATOM     21  H   UNL     1     141.348 144.000 138.662  1.00  0.00     0.293 HD
ENDBRANCH   2  20
BRANCH   6  22
ATOM     22  O   UNL     1     146.526 140.809 138.286  1.00  0.00    -0.507 OA
ATOM     23  H   UNL     1     146.976 140.078 138.816  1.00  0.00     0.293 HD
ENDBRANCH   6  22
BRANCH   8  24
ATOM     24  O   UNL     1     149.690 144.320 139.136  1.00  0.00    -0.508 OA
ATOM     25  H   UNL     1     149.947 144.777 140.004  1.00  0.00     0.293 HD
ENDBRANCH   8  24
TORSDOF 5
ENDMDL
MODEL 3
REMARK VINA RESULT:    -4.955      7.425     11.161
REMARK INTER + INTRA:          -6.122
REMARK INTER:                  -5.821
REMARK INTRA:                  -0.300
REMARK UNBOUND:                -0.298
REMARK SMILES O=c1c(O)c(-c2ccc(O)cc2)oc2cc(O)cc(O)c12
REMARK SMILES IDX 5 1 3 2 2 3 1 4 21 5 19 6 18 7 16 8 15 9 14 10 13 11 6 12
REMARK SMILES IDX 7 13 8 14 9 15 12 16 11 17 10 18 4 20 20 22 17 24
REMARK H PARENT 10 19 4 21 20 23 17 25
REMARK Flexibility Score: inf
ROOT
ATOM      1  C   UNL     1     150.330 143.880 138.161  1.00  0.00     0.180 A 
ATOM      2  C   UNL     1     151.656 143.415 138.136  1.00  0.00     0.208 A 
ATOM      3  C   UNL     1     152.705 144.341 138.259  1.00  0.00     0.238 A 
ATOM      4  O   UNL     1     153.888 143.913 138.290  1.00  0.00    -0.285 OA
ATOM      5  C   UNL     1     152.416 145.720 138.389  1.00  0.00     0.111 A 
ATOM      6  C   UNL     1     153.400 146.749 138.480  1.00  0.00     0.134 A 
ATOM      7  C   UNL     1     153.000 148.067 138.737  1.00  0.00     0.093 A 
ATOM      8  C   UNL     1     151.648 148.402 138.842  1.00  0.00     0.123 A 
ATOM      9  C   UNL     1     150.677 147.414 138.696  1.00  0.00     0.094 A 
ATOM     10  C   UNL     1     151.046 146.085 138.474  1.00  0.00     0.146 A 
ATOM     11  O   UNL     1     150.089 145.173 138.351  1.00  0.00    -0.452 OA
ENDROOT
BRANCH   1  12
ATOM     12  C   UNL     1     149.172 142.969 138.013  1.00  0.00     0.021 A 
ATOM     13  C   UNL     1     148.645 142.654 136.747  1.00  0.00     0.016 A 
ATOM     14  C   UNL     1     147.535 141.810 136.634  1.00  0.00     0.047 A 
ATOM     15  C   UNL     1     146.931 141.283 137.779  1.00  0.00     0.115 A 
ATOM     16  C   UNL     1     148.546 142.452 139.161  1.00  0.00     0.016 A 
ATOM     17  C   UNL     1     147.438 141.608 139.044  1.00  0.00     0.047 A 
BRANCH  15  18
ATOM     18  O   UNL     1     145.828 140.443 137.650  1.00  0.00    -0.508 OA
ATOM     19  H   UNL     1     145.800 139.710 136.950  1.00  0.00     0.293 HD
ENDBRANCH  15  18
ENDBRANCH   1  12
BRANCH   2  20
ATOM     20  O   UNL     1     151.919 142.047 138.028  1.00  0.00    -0.502 OA
ATOM     21  H   UNL     1     152.650 141.590 138.559  1.00  0.00     0.293 HD
ENDBRANCH   2  20
BRANCH   6  22
ATOM     22  O   UNL     1     154.770 146.538 138.298  1.00  0.00    -0.507 OA
ATOM     23  H   UNL     1     155.211 145.632 138.260  1.00  0.00     0.293 HD
ENDBRANCH   6  22
BRANCH   8  24
ATOM     24  O   UNL     1     151.258 149.718 139.083  1.00  0.00    -0.508 OA
ATOM     25  H   UNL     1     150.798 150.274 138.371  1.00  0.00     0.293 HD
ENDBRANCH   8  24
TORSDOF 5
ENDMDL
MODEL 4
REMARK VINA RESULT:    -4.948      5.555      7.933
REMARK INTER + INTRA:          -6.114
REMARK INTER:                  -5.816
REMARK INTRA:                  -0.298
REMARK UNBOUND:                -0.298
REMARK SMILES O=c1c(O)c(-c2ccc(O)cc2)oc2cc(O)cc(O)c12
REMARK SMILES IDX 5 1 3 2 2 3 1 4 21 5 19 6 18 7 16 8 15 9 14 10 13 11 6 12
REMARK SMILES IDX 7 13 8 14 9 15 12 16 11 17 10 18 4 20 20 22 17 24
REMARK H PARENT 10 19 4 21 20 23 17 25
REMARK Flexibility Score: inf
ROOT
ATOM      1  C   UNL     1     151.729 150.296 138.150  1.00  0.00     0.180 A 
ATOM      2  C   UNL     1     152.195 151.622 138.129  1.00  0.00     0.208 A 
ATOM      3  C   UNL     1     151.269 152.671 138.242  1.00  0.00     0.238 A 
ATOM      4  O   UNL     1     151.697 153.854 138.277  1.00  0.00    -0.285 OA
ATOM      5  C   UNL     1     149.888 152.383 138.360  1.00  0.00     0.111 A 
ATOM      6  C   UNL     1     148.859 153.368 138.441  1.00  0.00     0.134 A 
ATOM      7  C   UNL     1     147.539 152.969 138.686  1.00  0.00     0.093 A 
ATOM      8  C   UNL     1     147.202 151.617 138.788  1.00  0.00     0.123 A 
ATOM      9  C   UNL     1     148.190 150.646 138.652  1.00  0.00     0.094 A 
ATOM     10  C   UNL     1     149.522 151.014 138.443  1.00  0.00     0.146 A 
ATOM     11  O   UNL     1     150.435 150.056 138.328  1.00  0.00    -0.452 OA
ENDROOT
BRANCH   1  12
ATOM     12  C   UNL     1     152.641 149.137 138.010  1.00  0.00     0.021 A 
ATOM     13  C   UNL     1     153.006 148.640 136.746  1.00  0.00     0.016 A 
ATOM     14  C   UNL     1     153.849 147.530 136.640  1.00  0.00     0.047 A 
ATOM     15  C   UNL     1     154.325 146.894 137.790  1.00  0.00     0.115 A 
ATOM     16  C   UNL     1     153.107 148.480 139.163  1.00  0.00     0.016 A 
ATOM     17  C   UNL     1     153.950 147.371 139.053  1.00  0.00     0.047 A 
BRANCH  15  18
ATOM     18  O   UNL     1     155.166 145.791 137.668  1.00  0.00    -0.508 OA
ATOM     19  H   UNL     1     154.949 144.908 138.117  1.00  0.00     0.293 HD
ENDBRANCH  15  18
ENDBRANCH   1  12
BRANCH   2  20
ATOM     20  O   UNL     1     153.564 151.884 138.033  1.00  0.00    -0.502 OA
ATOM     21  H   UNL     1     153.992 152.247 137.190  1.00  0.00     0.293 HD
ENDBRANCH   2  20
BRANCH   6  22
ATOM     22  O   UNL     1     149.073 154.738 138.261  1.00  0.00    -0.507 OA
ATOM     23  H   UNL     1     149.709 155.136 137.586  1.00  0.00     0.293 HD
ENDBRANCH   6  22
BRANCH   8  24
ATOM     24  O   UNL     1     145.884 151.228 139.018  1.00  0.00    -0.508 OA
ATOM     25  H   UNL     1     145.652 150.520 139.704  1.00  0.00     0.293 HD
ENDBRANCH   8  24
TORSDOF 5
ENDMDL
MODEL 5
REMARK VINA RESULT:    -4.861      1.726      6.637
REMARK INTER + INTRA:          -6.012
REMARK INTER:                  -5.726
REMARK INTRA:                  -0.286
REMARK UNBOUND:                -0.298
REMARK SMILES O=c1c(O)c(-c2ccc(O)cc2)oc2cc(O)cc(O)c12
REMARK SMILES IDX 5 1 3 2 2 3 1 4 21 5 19 6 18 7 16 8 15 9 14 10 13 11 6 12
REMARK SMILES IDX 7 13 8 14 9 15 12 16 11 17 10 18 4 20 20 22 17 24
REMARK H PARENT 10 19 4 21 20 23 17 25
REMARK Flexibility Score: inf
ROOT
ATOM      1  C   UNL     1     143.605 148.937 138.581  1.00  0.00     0.180 A 
ATOM      2  C   UNL     1     142.625 149.943 138.525  1.00  0.00     0.208 A 
ATOM      3  C   UNL     1     143.022 151.287 138.614  1.00  0.00     0.238 A 
ATOM      4  O   UNL     1     142.147 152.184 138.509  1.00  0.00    -0.285 OA
ATOM      5  C   UNL     1     144.392 151.607 138.775  1.00  0.00     0.111 A 
ATOM      6  C   UNL     1     144.903 152.932 138.918  1.00  0.00     0.134 A 
ATOM      7  C   UNL     1     146.288 153.139 138.940  1.00  0.00     0.093 A 
ATOM      8  C   UNL     1     147.178 152.064 138.891  1.00  0.00     0.123 A 
ATOM      9  C   UNL     1     146.688 150.762 138.812  1.00  0.00     0.094 A 
ATOM     10  C   UNL     1     145.312 150.526 138.751  1.00  0.00     0.146 A 
ATOM     11  O   UNL     1     144.887 149.271 138.666  1.00  0.00    -0.452 OA
ENDROOT
BRANCH   1  12
ATOM     12  C   UNL     1     143.261 147.497 138.518  1.00  0.00     0.021 A 
ATOM     13  C   UNL     1     143.122 146.830 137.288  1.00  0.00     0.016 A 
ATOM     14  C   UNL     1     142.773 145.476 137.254  1.00  0.00     0.047 A 
ATOM     15  C   UNL     1     142.545 144.777 138.443  1.00  0.00     0.115 A 
ATOM     16  C   UNL     1     143.010 146.793 139.709  1.00  0.00     0.016 A 
ATOM     17  C   UNL     1     142.662 145.440 139.671  1.00  0.00     0.047 A 
BRANCH  15  18
ATOM     18  O   UNL     1     142.200 143.429 138.393  1.00  0.00    -0.508 OA
ATOM     19  H   UNL     1     141.450 143.053 138.962  1.00  0.00     0.293 HD
ENDBRANCH  15  18
ENDBRANCH   1  12
BRANCH   2  20
ATOM     20  O   UNL     1     141.281 149.605 138.344  1.00  0.00    -0.502 OA
ATOM     21  H   UNL     1     140.555 149.901 138.984  1.00  0.00     0.293 HD
ENDBRANCH   2  20
BRANCH   6  22
ATOM     22  O   UNL     1     144.100 154.066 139.068  1.00  0.00    -0.507 OA
ATOM     23  H   UNL     1     144.376 154.904 139.556  1.00  0.00     0.293 HD
ENDBRANCH   6  22
BRANCH   8  24
ATOM     24  O   UNL     1     148.554 152.278 138.929  1.00  0.00    -0.508 OA
ATOM     25  H   UNL     1     149.153 152.018 138.153  1.00  0.00     0.293 HD
ENDBRANCH   8  24
TORSDOF 5
ENDMDL
MODEL 6
REMARK VINA RESULT:    -4.858      3.980      7.006
REMARK INTER + INTRA:          -6.008
REMARK INTER:                  -5.721
REMARK INTRA:                  -0.287
REMARK UNBOUND:                -0.298
REMARK SMILES O=c1c(O)c(-c2ccc(O)cc2)oc2cc(O)cc(O)c12
REMARK SMILES IDX 5 1 3 2 2 3 1 4 21 5 19 6 18 7 16 8 15 9 14 10 13 11 6 12
REMARK SMILES IDX 7 13 8 14 9 15 12 16 11 17 10 18 4 20 20 22 17 24
REMARK H PARENT 10 19 4 21 20 23 17 25
REMARK Flexibility Score: inf
ROOT
ATOM      1  C   UNL     1     148.865 152.074 138.562  1.00  0.00     0.180 A 
ATOM      2  C   UNL     1     149.924 152.992 138.466  1.00  0.00     0.208 A 
ATOM      3  C   UNL     1     151.244 152.516 138.515  1.00  0.00     0.238 A 
ATOM      4  O   UNL     1     152.188 153.336 138.375  1.00  0.00    -0.285 OA
ATOM      5  C   UNL     1     151.488 151.130 138.674  1.00  0.00     0.111 A 
ATOM      6  C   UNL     1     152.784 150.542 138.776  1.00  0.00     0.134 A 
ATOM      7  C   UNL     1     152.910 149.147 138.800  1.00  0.00     0.093 A 
ATOM      8  C   UNL     1     151.783 148.322 138.792  1.00  0.00     0.123 A 
ATOM      9  C   UNL     1     150.511 148.889 138.752  1.00  0.00     0.094 A 
ATOM     10  C   UNL     1     150.355 150.276 138.691  1.00  0.00     0.146 A 
ATOM     11  O   UNL     1     149.125 150.774 138.644  1.00  0.00    -0.452 OA
ENDROOT
BRANCH   1  12
ATOM     12  C   UNL     1     147.446 152.502 138.543  1.00  0.00     0.021 A 
ATOM     13  C   UNL     1     146.748 152.672 137.334  1.00  0.00     0.016 A 
ATOM     14  C   UNL     1     145.416 153.100 137.342  1.00  0.00     0.047 A 
ATOM     15  C   UNL     1     144.772 153.378 138.552  1.00  0.00     0.115 A 
ATOM     16  C   UNL     1     146.799 152.803 139.754  1.00  0.00     0.016 A 
ATOM     17  C   UNL     1     145.468 153.231 139.758  1.00  0.00     0.047 A 
BRANCH  15  18
ATOM     18  O   UNL     1     143.446 153.802 138.543  1.00  0.00    -0.508 OA
ATOM     19  H   UNL     1     143.037 154.245 137.728  1.00  0.00     0.293 HD
ENDBRANCH  15  18
ENDBRANCH   1  12
BRANCH   2  20
ATOM     20  O   UNL     1     149.661 154.353 138.288  1.00  0.00    -0.502 OA
ATOM     21  H   UNL     1     149.800 155.035 139.024  1.00  0.00     0.293 HD
ENDBRANCH   2  20
BRANCH   6  22
ATOM     22  O   UNL     1     153.969 151.277 138.885  1.00  0.00    -0.507 OA
ATOM     23  H   UNL     1     154.340 151.877 138.164  1.00  0.00     0.293 HD
ENDBRANCH   6  22
BRANCH   8  24
ATOM     24  O   UNL     1     151.916 146.936 138.831  1.00  0.00    -0.508 OA
ATOM     25  H   UNL     1     151.646 146.400 139.647  1.00  0.00     0.293 HD
ENDBRANCH   8  24
TORSDOF 5
ENDMDL
MODEL 7
REMARK VINA RESULT:    -4.849      7.120      8.782
REMARK INTER + INTRA:          -5.998
REMARK INTER:                  -5.713
REMARK INTRA:                  -0.285
REMARK UNBOUND:                -0.298
REMARK SMILES O=c1c(O)c(-c2ccc(O)cc2)oc2cc(O)cc(O)c12
REMARK SMILES IDX 5 1 3 2 2 3 1 4 21 5 19 6 18 7 16 8 15 9 14 10 13 11 6 12
REMARK SMILES IDX 7 13 8 14 9 15 12 16 11 17 10 18 4 20 20 22 17 24
REMARK H PARENT 10 19 4 21 20 23 17 25
REMARK Flexibility Score: inf
ROOT
ATOM      1  C   UNL     1     152.054 146.722 138.565  1.00  0.00     0.180 A 
ATOM      2  C   UNL     1     152.981 145.670 138.476  1.00  0.00     0.208 A 
ATOM      3  C   UNL     1     152.516 144.346 138.524  1.00  0.00     0.238 A 
ATOM      4  O   UNL     1     153.344 143.409 138.390  1.00  0.00    -0.285 OA
ATOM      5  C   UNL     1     151.132 144.090 138.676  1.00  0.00     0.111 A 
ATOM      6  C   UNL     1     150.554 142.790 138.777  1.00  0.00     0.134 A 
ATOM      7  C   UNL     1     149.160 142.653 138.794  1.00  0.00     0.093 A 
ATOM      8  C   UNL     1     148.326 143.773 138.780  1.00  0.00     0.123 A 
ATOM      9  C   UNL     1     148.882 145.049 138.741  1.00  0.00     0.094 A 
ATOM     10  C   UNL     1     150.268 145.217 138.687  1.00  0.00     0.146 A 
ATOM     11  O   UNL     1     150.756 146.451 138.640  1.00  0.00    -0.452 OA
ENDROOT
BRANCH   1  12
ATOM     12  C   UNL     1     152.470 148.144 138.547  1.00  0.00     0.021 A 
ATOM     13  C   UNL     1     152.653 148.838 137.337  1.00  0.00     0.016 A 
ATOM     14  C   UNL     1     153.070 150.174 137.346  1.00  0.00     0.047 A 
ATOM     15  C   UNL     1     153.324 150.825 138.556  1.00  0.00     0.115 A 
ATOM     16  C   UNL     1     152.748 148.799 139.759  1.00  0.00     0.016 A 
ATOM     17  C   UNL     1     153.164 150.133 139.764  1.00  0.00     0.047 A 
BRANCH  15  18
ATOM     18  O   UNL     1     153.737 152.155 138.548  1.00  0.00    -0.508 OA
ATOM     19  H   UNL     1     153.267 152.852 137.982  1.00  0.00     0.293 HD
ENDBRANCH  15  18
ENDBRANCH   1  12
BRANCH   2  20
ATOM     20  O   UNL     1     154.341 145.944 138.305  1.00  0.00    -0.502 OA
ATOM     21  H   UNL     1     154.721 146.289 137.432  1.00  0.00     0.293 HD
ENDBRANCH   2  20
BRANCH   6  22
ATOM     22  O   UNL     1     151.298 141.612 138.891  1.00  0.00    -0.507 OA
ATOM     23  H   UNL     1     151.082 140.855 139.522  1.00  0.00     0.293 HD
ENDBRANCH   6  22
BRANCH   8  24
ATOM     24  O   UNL     1     146.940 143.628 138.812  1.00  0.00    -0.508 OA
ATOM     25  H   UNL     1     146.432 143.216 138.037  1.00  0.00     0.293 HD
ENDBRANCH   8  24
TORSDOF 5
ENDMDL
MODEL 8
REMARK VINA RESULT:    -4.831      5.339      8.458
REMARK INTER + INTRA:          -5.977
REMARK INTER:                  -5.689
REMARK INTRA:                  -0.288
REMARK UNBOUND:                -0.298
REMARK SMILES O=c1c(O)c(-c2ccc(O)cc2)oc2cc(O)cc(O)c12
REMARK SMILES IDX 5 1 3 2 2 3 1 4 21 5 19 6 18 7 16 8 15 9 14 10 13 11 6 12
REMARK SMILES IDX 7 13 8 14 9 15 12 16 11 17 10 18 4 20 20 22 17 24
REMARK H PARENT 10 19 4 21 20 23 17 25
REMARK Flexibility Score: inf
ROOT
ATOM      1  C   UNL     1     146.662 143.546 138.584  1.00  0.00     0.180 A 
ATOM      2  C   UNL     1     145.687 142.540 138.466  1.00  0.00     0.208 A 
ATOM      3  C   UNL     1     144.330 142.896 138.531  1.00  0.00     0.238 A 
ATOM      4  O   UNL     1     143.462 142.000 138.371  1.00  0.00    -0.285 OA
ATOM      5  C   UNL     1     143.966 144.250 138.728  1.00  0.00     0.111 A 
ATOM      6  C   UNL     1     142.623 144.718 138.849  1.00  0.00     0.134 A 
ATOM      7  C   UNL     1     142.375 146.095 138.911  1.00  0.00     0.093 A 
ATOM      8  C   UNL     1     143.424 147.017 138.923  1.00  0.00     0.123 A 
ATOM      9  C   UNL     1     144.741 146.566 138.865  1.00  0.00     0.094 A 
ATOM     10  C   UNL     1     145.019 145.201 138.765  1.00  0.00     0.146 A 
ATOM     11  O   UNL     1     146.288 144.814 138.702  1.00  0.00    -0.452 OA
ENDROOT
BRANCH   1  12
ATOM     12  C   UNL     1     148.112 143.245 138.551  1.00  0.00     0.021 A 
ATOM     13  C   UNL     1     148.821 143.186 137.337  1.00  0.00     0.016 A 
ATOM     14  C   UNL     1     150.185 142.876 137.330  1.00  0.00     0.047 A 
ATOM     15  C   UNL     1     150.853 142.609 138.528  1.00  0.00     0.115 A 
ATOM     16  C   UNL     1     148.786 142.954 139.750  1.00  0.00     0.016 A 
ATOM     17  C   UNL     1     150.149 142.646 139.739  1.00  0.00     0.047 A 
BRANCH  15  18
ATOM     18  O   UNL     1     152.211 142.304 138.505  1.00  0.00    -0.508 OA
ATOM     19  H   UNL     1     152.902 142.934 138.897  1.00  0.00     0.293 HD
ENDBRANCH  15  18
ENDBRANCH   1  12
BRANCH   2  20
ATOM     20  O   UNL     1     146.068 141.213 138.250  1.00  0.00    -0.502 OA
ATOM     21  H   UNL     1     146.854 140.788 138.727  1.00  0.00     0.293 HD
ENDBRANCH   2  20
BRANCH   6  22
ATOM     22  O   UNL     1     141.509 143.878 138.940  1.00  0.00    -0.507 OA
ATOM     23  H   UNL     1     141.248 143.193 138.248  1.00  0.00     0.293 HD
ENDBRANCH   6  22
BRANCH   8  24
ATOM     24  O   UNL     1     143.169 148.384 139.000  1.00  0.00    -0.508 OA
ATOM     25  H   UNL     1     143.027 148.945 138.168  1.00  0.00     0.293 HD
ENDBRANCH   8  24
TORSDOF 5
ENDMDL
MODEL 9
REMARK VINA RESULT:    -4.803      4.956      7.500
REMARK INTER + INTRA:          -5.943
REMARK INTER:                  -5.655
REMARK INTRA:                  -0.289
REMARK UNBOUND:                -0.298
REMARK SMILES O=c1c(O)c(-c2ccc(O)cc2)oc2cc(O)cc(O)c12
REMARK SMILES IDX 5 1 3 2 2 3 1 4 21 5 19 6 18 7 16 8 15 9 14 10 13 11 6 12
REMARK SMILES IDX 7 13 8 14 9 15 12 16 11 17 10 18 4 20 20 22 17 24
REMARK H PARENT 10 19 4 21 20 23 17 25
REMARK Flexibility Score: inf
ROOT
ATOM      1  C   UNL     1     144.633 145.920 138.127  1.00  0.00     0.180 A 
ATOM      2  C   UNL     1     145.931 146.414 138.342  1.00  0.00     0.208 A 
ATOM      3  C   UNL     1     146.994 145.505 138.469  1.00  0.00     0.238 A 
ATOM      4  O   UNL     1     148.161 145.955 138.607  1.00  0.00    -0.285 OA
ATOM      5  C   UNL     1     146.743 144.114 138.396  1.00  0.00     0.111 A 
ATOM      6  C   UNL     1     147.738 143.102 138.552  1.00  0.00     0.134 A 
ATOM      7  C   UNL     1     147.399 141.761 138.331  1.00  0.00     0.093 A 
ATOM      8  C   UNL     1     146.088 141.390 138.024  1.00  0.00     0.123 A 
ATOM      9  C   UNL     1     145.098 142.365 137.928  1.00  0.00     0.094 A 
ATOM     10  C   UNL     1     145.412 143.714 138.108  1.00  0.00     0.146 A 
ATOM     11  O   UNL     1     144.440 144.612 137.998  1.00  0.00    -0.452 OA
ENDROOT
BRANCH   1  12
ATOM     12  C   UNL     1     143.459 146.815 138.008  1.00  0.00     0.021 A 
ATOM     13  C   UNL     1     143.067 147.349 136.767  1.00  0.00     0.016 A 
ATOM     14  C   UNL     1     141.969 148.211 136.684  1.00  0.00     0.047 A 
ATOM     15  C   UNL     1     141.259 148.561 137.836  1.00  0.00     0.115 A 
ATOM     16  C   UNL     1     142.753 147.188 139.165  1.00  0.00     0.016 A 
ATOM     17  C   UNL     1     141.655 148.049 139.078  1.00  0.00     0.047 A 
BRANCH  15  18
ATOM     18  O   UNL     1     140.167 149.419 137.736  1.00  0.00    -0.508 OA
ATOM     19  H   UNL     1     139.522 149.367 136.956  1.00  0.00     0.293 HD
ENDBRANCH  15  18
ENDBRANCH   1  12
BRANCH   2  20
ATOM     20  O   UNL     1     146.160 147.792 138.389  1.00  0.00    -0.502 OA
ATOM     21  H   UNL     1     146.988 148.192 138.813  1.00  0.00     0.293 HD
ENDBRANCH   2  20
BRANCH   6  22
ATOM     22  O   UNL     1     149.054 143.356 138.947  1.00  0.00    -0.507 OA
ATOM     23  H   UNL     1     149.868 142.902 138.560  1.00  0.00     0.293 HD
ENDBRANCH   6  22
BRANCH   8  24
ATOM     24  O   UNL     1     145.756 140.053 137.820  1.00  0.00    -0.508 OA
ATOM     25  H   UNL     1     144.938 139.784 137.286  1.00  0.00     0.293 HD
ENDBRANCH   8  24
TORSDOF 5
ENDMDL
