MODEL 1
REMARK VINA RESULT:    -3.520      0.000      0.000
REMARK INTER + INTRA:          -8.182
REMARK INTER:                  -5.989
REMARK INTRA:                  -2.194
REMARK UNBOUND:                -2.194
REMARK SMILES CCCCCCCCCCCCCC(=O)[O-]
REMARK SMILES IDX 8 1 9 2 10 3 11 4 12 5 13 6 14 7 15 8 16 9 7 10 6 11 5 12
REMARK SMILES IDX 4 13 3 14 2 15 1 16
REMARK H PARENT
REMARK Flexibility Score: inf
ROOT
ATOM      1  C   UNL     1      30.120  16.189  56.513  1.00  0.00     0.000 C 
ENDROOT
BRANCH   1   2
ATOM      2  C   UNL     1      30.843  17.458  56.031  1.00  0.00     0.000 C 
BRANCH   2   3
ATOM      3  C   UNL     1      30.857  17.614  54.495  1.00  0.00     0.000 C 
BRANCH   3   4
ATOM      4  C   UNL     1      29.648  18.413  53.980  1.00  0.00     0.000 C 
BRANCH   4   5
ATOM      5  C   UNL     1      28.642  17.549  53.199  1.00  0.00     0.006 C 
BRANCH   5   6
ATOM      6  C   UNL     1      27.243  17.490  53.837  1.00  0.00     0.053 C 
BRANCH   6   7
ATOM      7  C   UNL     1      26.281  18.447  53.200  1.00  0.00     0.041 C 
ATOM      8  O   UNL     1      25.186  18.031  52.739  1.00  0.00    -0.550 OA
ATOM      9  O   UNL     1      26.575  19.804  53.150  1.00  0.00    -0.550 OA
ENDBRANCH   6   7
ENDBRANCH   5   6
ENDBRANCH   4   5
ENDBRANCH   3   4
ENDBRANCH   2   3
ENDBRANCH   1   2
BRANCH   1  10
ATOM     10  C   UNL     1      28.735  16.483  57.113  1.00  0.00     0.000 C 
BRANCH  10  11
ATOM     11  C   UNL     1      28.616  17.919  57.649  1.00  0.00    -0.000 C 
BRANCH  11  12
ATOM     12  C   UNL     1      27.341  18.625  57.167  1.00  0.00    -0.000 C 
BRANCH  12  13
ATOM     13  C   UNL     1      27.664  20.011  56.593  1.00  0.00    -0.000 C 
BRANCH  13  14
ATOM     14  C   UNL     1      29.015  20.521  57.117  1.00  0.00    -0.000 C 
BRANCH  14  15
ATOM     15  C   UNL     1      29.735  21.429  56.108  1.00  0.00    -0.003 C 
ATOM     16  C   UNL     1      28.811  21.928  54.998  1.00  0.00     0.004 C 
ENDBRANCH  14  15
ENDBRANCH  13  14
ENDBRANCH  12  13
ENDBRANCH  11  12
ENDBRANCH  10  11
ENDBRANCH   1  10
TORSDOF 12
ENDMDL
MODEL 2
REMARK VINA RESULT:    -3.512      2.160      3.720
REMARK INTER + INTRA:          -8.170
REMARK INTER:                  -5.902
REMARK INTRA:                  -2.269
REMARK UNBOUND:                -2.194
REMARK SMILES CCCCCCCCCCCCCC(=O)[O-]
REMARK SMILES IDX 8 1 9 2 10 3 11 4 12 5 13 6 14 7 15 8 16 9 7 10 6 11 5 12
REMARK SMILES IDX 4 13 3 14 2 15 1 16
REMARK H PARENT
REMARK Flexibility Score: inf
ROOT
ATOM      1  C   UNL     1      31.277  19.181  54.550  1.00  0.00     0.000 C 
ENDROOT
BRANCH   1   2
ATOM      2  C   UNL     1      30.850  17.705  54.629  1.00  0.00     0.000 C 
BRANCH   2   3
ATOM      3  C   UNL     1      30.620  17.207  56.072  1.00  0.00     0.000 C 
BRANCH   3   4
ATOM      4  C   UNL     1      29.239  16.554  56.250  1.00  0.00     0.000 C 
BRANCH   4   5
ATOM      5  C   UNL     1      28.564  16.920  57.583  1.00  0.00     0.006 C 
BRANCH   5   6
ATOM      6  C   UNL     1      27.032  17.030  57.498  1.00  0.00     0.053 C 
BRANCH   6   7
ATOM      7  C   UNL     1      26.406  15.831  56.850  1.00  0.00     0.041 C 
ATOM      8  O   UNL     1      25.928  15.917  55.689  1.00  0.00    -0.550 OA
ATOM      9  O   UNL     1      26.386  14.610  57.512  1.00  0.00    -0.550 OA
ENDBRANCH   6   7
ENDBRANCH   5   6
ENDBRANCH   4   5
ENDBRANCH   3   4
ENDBRANCH   2   3
ENDBRANCH   1   2
BRANCH   1  10
ATOM     10  C   UNL     1      31.175  19.905  55.903  1.00  0.00     0.000 C 
BRANCH  10  11
ATOM     11  C   UNL     1      30.035  20.935  55.937  1.00  0.00    -0.000 C 
BRANCH  11  12
ATOM     12  C   UNL     1      28.981  20.615  57.006  1.00  0.00    -0.000 C 
BRANCH  12  13
ATOM     13  C   UNL     1      27.614  20.340  56.365  1.00  0.00    -0.000 C 
BRANCH  13  14
ATOM     14  C   UNL     1      27.737  20.224  54.838  1.00  0.00    -0.000 C 
BRANCH  14  15
ATOM     15  C   UNL     1      27.096  18.939  54.292  1.00  0.00    -0.003 C 
ATOM     16  C   UNL     1      27.674  18.517  52.941  1.00  0.00     0.004 C 
ENDBRANCH  14  15
ENDBRANCH  13  14
ENDBRANCH  12  13
ENDBRANCH  11  12
ENDBRANCH  10  11
ENDBRANCH   1  10
TORSDOF 12
ENDMDL
MODEL 3
REMARK VINA RESULT:    -3.477      2.137      4.290
REMARK INTER + INTRA:          -8.109
REMARK INTER:                  -5.958
REMARK INTRA:                  -2.151
REMARK UNBOUND:                -2.194
REMARK SMILES CCCCCCCCCCCCCC(=O)[O-]
REMARK SMILES IDX 8 1 9 2 10 3 11 4 12 5 13 6 14 7 15 8 16 9 7 10 6 11 5 12
REMARK SMILES IDX 4 13 3 14 2 15 1 16
REMARK H PARENT
REMARK Flexibility Score: inf
ROOT
ATOM      1  C   UNL     1      30.488  19.774  55.705  1.00  0.00     0.000 C 
ENDROOT
BRANCH   1   2
ATOM      2  C   UNL     1      29.420  20.880  55.671  1.00  0.00     0.000 C 
BRANCH   2   3
ATOM      3  C   UNL     1      28.222  20.609  56.607  1.00  0.00     0.000 C 
BRANCH   3   4
ATOM      4  C   UNL     1      28.369  19.282  57.370  1.00  0.00     0.000 C 
BRANCH   4   5
ATOM      5  C   UNL     1      27.126  18.380  57.259  1.00  0.00     0.006 C 
BRANCH   5   6
ATOM      6  C   UNL     1      27.370  16.925  57.694  1.00  0.00     0.053 C 
BRANCH   6   7
ATOM      7  C   UNL     1      26.471  15.956  56.987  1.00  0.00     0.041 C 
ATOM      8  O   UNL     1      25.897  16.290  55.918  1.00  0.00    -0.550 OA
ATOM      9  O   UNL     1      26.297  14.671  57.486  1.00  0.00    -0.550 OA
ENDBRANCH   6   7
ENDBRANCH   5   6
ENDBRANCH   4   5
ENDBRANCH   3   4
ENDBRANCH   2   3
ENDBRANCH   1   2
BRANCH   1  10
ATOM     10  C   UNL     1      30.422  18.843  54.482  1.00  0.00     0.000 C 
BRANCH  10  11
ATOM     11  C   UNL     1      30.164  17.378  54.868  1.00  0.00    -0.000 C 
BRANCH  11  12
ATOM     12  C   UNL     1      28.975  16.769  54.111  1.00  0.00    -0.000 C 
BRANCH  12  13
ATOM     13  C   UNL     1      28.542  17.674  52.949  1.00  0.00    -0.000 C 
BRANCH  13  14
ATOM     14  C   UNL     1      27.025  17.913  52.975  1.00  0.00    -0.000 C 
BRANCH  14  15
ATOM     15  C   UNL     1      26.650  19.256  53.621  1.00  0.00    -0.003 C 
ATOM     16  C   UNL     1      27.171  20.457  52.832  1.00  0.00     0.004 C 
ENDBRANCH  14  15
ENDBRANCH  13  14
ENDBRANCH  12  13
ENDBRANCH  11  12
ENDBRANCH  10  11
ENDBRANCH   1  10
TORSDOF 12
ENDMDL
MODEL 4
REMARK VINA RESULT:    -3.438      1.205      2.918
REMARK INTER + INTRA:          -8.043
REMARK INTER:                  -5.841
REMARK INTRA:                  -2.202
REMARK UNBOUND:                -2.194
REMARK SMILES CCCCCCCCCCCCCC(=O)[O-]
REMARK SMILES IDX 8 1 9 2 10 3 11 4 12 5 13 6 14 7 15 8 16 9 7 10 6 11 5 12
REMARK SMILES IDX 4 13 3 14 2 15 1 16
REMARK H PARENT
REMARK Flexibility Score: inf
ROOT
ATOM      1  C   UNL     1      28.555  17.619  57.878  1.00  0.00     0.000 C 
ENDROOT
BRANCH   1   2
ATOM      2  C   UNL     1      27.263  18.380  57.536  1.00  0.00     0.000 C 
BRANCH   2   3
ATOM      3  C   UNL     1      26.463  17.745  56.378  1.00  0.00     0.000 C 
BRANCH   3   4
ATOM      4  C   UNL     1      26.388  18.666  55.149  1.00  0.00     0.000 C 
BRANCH   4   5
ATOM      5  C   UNL     1      26.938  18.013  53.869  1.00  0.00     0.006 C 
BRANCH   5   6
ATOM      6  C   UNL     1      27.596  19.005  52.895  1.00  0.00     0.053 C 
BRANCH   6   7
ATOM      7  C   UNL     1      26.743  20.212  52.642  1.00  0.00     0.041 C 
ATOM      8  O   UNL     1      27.161  21.358  52.954  1.00  0.00    -0.550 OA
ATOM      9  O   UNL     1      25.505  20.077  52.028  1.00  0.00    -0.550 OA
ENDBRANCH   6   7
ENDBRANCH   5   6
ENDBRANCH   4   5
ENDBRANCH   3   4
ENDBRANCH   2   3
ENDBRANCH   1   2
BRANCH   1  10
ATOM     10  C   UNL     1      28.716  16.321  57.069  1.00  0.00     0.000 C 
BRANCH  10  11
ATOM     11  C   UNL     1      30.140  16.138  56.521  1.00  0.00    -0.000 C 
BRANCH  11  12
ATOM     12  C   UNL     1      30.840  17.476  56.240  1.00  0.00    -0.000 C 
BRANCH  12  13
ATOM     13  C   UNL     1      30.610  17.922  54.790  1.00  0.00    -0.000 C 
BRANCH  13  14
ATOM     14  C   UNL     1      30.694  19.451  54.667  1.00  0.00    -0.000 C 
BRANCH  14  15
ATOM     15  C   UNL     1      30.356  20.169  55.983  1.00  0.00    -0.003 C 
ATOM     16  C   UNL     1      29.158  21.108  55.854  1.00  0.00     0.004 C 
ENDBRANCH  14  15
ENDBRANCH  13  14
ENDBRANCH  12  13
ENDBRANCH  11  12
ENDBRANCH  10  11
ENDBRANCH   1  10
TORSDOF 12
ENDMDL
MODEL 5
REMARK VINA RESULT:    -3.407      1.297      2.004
REMARK INTER + INTRA:          -7.992
REMARK INTER:                  -5.943
REMARK INTRA:                  -2.048
REMARK UNBOUND:                -2.194
REMARK SMILES CCCCCCCCCCCCCC(=O)[O-]
REMARK SMILES IDX 8 1 9 2 10 3 11 4 12 5 13 6 14 7 15 8 16 9 7 10 6 11 5 12
REMARK SMILES IDX 4 13 3 14 2 15 1 16
REMARK H PARENT
REMARK Flexibility Score: inf
ROOT
ATOM      1  C   UNL     1      27.915  15.981  57.127  1.00  0.00     0.000 C 
ENDROOT
BRANCH   1   2
ATOM      2  C   UNL     1      29.293  16.266  56.506  1.00  0.00     0.000 C 
BRANCH   2   3
ATOM      3  C   UNL     1      29.314  16.132  54.967  1.00  0.00     0.000 C 
BRANCH   3   4
ATOM      4  C   UNL     1      27.961  16.497  54.333  1.00  0.00     0.000 C 
BRANCH   4   5
ATOM      5  C   UNL     1      27.962  17.883  53.663  1.00  0.00     0.006 C 
BRANCH   5   6
ATOM      6  C   UNL     1      26.629  18.640  53.794  1.00  0.00     0.053 C 
BRANCH   6   7
ATOM      7  C   UNL     1      26.572  19.858  52.921  1.00  0.00     0.041 C 
ATOM      8  O   UNL     1      25.560  20.077  52.206  1.00  0.00    -0.550 OA
ATOM      9  O   UNL     1      27.619  20.770  52.926  1.00  0.00    -0.550 OA
ENDBRANCH   6   7
ENDBRANCH   5   6
ENDBRANCH   4   5
ENDBRANCH   3   4
ENDBRANCH   2   3
ENDBRANCH   1   2
BRANCH   1  10
ATOM     10  C   UNL     1      27.319  17.205  57.844  1.00  0.00     0.000 C 
BRANCH  10  11
ATOM     11  C   UNL     1      28.315  18.371  57.947  1.00  0.00    -0.000 C 
BRANCH  11  12
ATOM     12  C   UNL     1      27.932  19.555  57.047  1.00  0.00    -0.000 C 
BRANCH  12  13
ATOM     13  C   UNL     1      29.092  20.552  56.928  1.00  0.00    -0.000 C 
BRANCH  13  14
ATOM     14  C   UNL     1      29.809  20.401  55.577  1.00  0.00    -0.000 C 
BRANCH  14  15
ATOM     15  C   UNL     1      31.062  19.516  55.670  1.00  0.00    -0.003 C 
ATOM     16  C   UNL     1      31.535  19.014  54.306  1.00  0.00     0.004 C 
ENDBRANCH  14  15
ENDBRANCH  13  14
ENDBRANCH  12  13
ENDBRANCH  11  12
ENDBRANCH  10  11
ENDBRANCH   1  10
TORSDOF 12
ENDMDL
MODEL 6
REMARK VINA RESULT:    -3.404      2.223      4.272
REMARK INTER + INTRA:          -7.986
REMARK INTER:                  -5.890
REMARK INTRA:                  -2.097
REMARK UNBOUND:                -2.194
REMARK SMILES CCCCCCCCCCCCCC(=O)[O-]
REMARK SMILES IDX 8 1 9 2 10 3 11 4 12 5 13 6 14 7 15 8 16 9 7 10 6 11 5 12
REMARK SMILES IDX 4 13 3 14 2 15 1 16
REMARK H PARENT
REMARK Flexibility Score: inf
ROOT
ATOM      1  C   UNL     1      28.687  18.419  53.455  1.00  0.00     0.000 C 
ENDROOT
BRANCH   1   2
ATOM      2  C   UNL     1      27.682  19.576  53.578  1.00  0.00     0.000 C 
BRANCH   2   3
ATOM      3  C   UNL     1      28.296  20.865  54.168  1.00  0.00     0.000 C 
BRANCH   3   4
ATOM      4  C   UNL     1      29.178  20.581  55.395  1.00  0.00     0.000 C 
BRANCH   4   5
ATOM      5  C   UNL     1      28.377  20.481  56.705  1.00  0.00     0.006 C 
BRANCH   5   6
ATOM      6  C   UNL     1      28.481  19.111  57.397  1.00  0.00     0.053 C 
BRANCH   6   7
ATOM      7  C   UNL     1      27.173  18.377  57.415  1.00  0.00     0.041 C 
ATOM      8  O   UNL     1      27.036  17.347  58.127  1.00  0.00    -0.550 OA
ATOM      9  O   UNL     1      26.096  18.850  56.678  1.00  0.00    -0.550 OA
ENDBRANCH   6   7
ENDBRANCH   5   6
ENDBRANCH   4   5
ENDBRANCH   3   4
ENDBRANCH   2   3
ENDBRANCH   1   2
BRANCH   1  10
ATOM     10  C   UNL     1      28.199  17.130  54.140  1.00  0.00     0.000 C 
BRANCH  10  11
ATOM     11  C   UNL     1      29.300  16.449  54.969  1.00  0.00    -0.000 C 
BRANCH  11  12
ATOM     12  C   UNL     1      30.700  16.992  54.649  1.00  0.00    -0.000 C 
BRANCH  12  13
ATOM     13  C   UNL     1      31.423  17.434  55.929  1.00  0.00    -0.000 C 
BRANCH  13  14
ATOM     14  C   UNL     1      32.164  18.762  55.709  1.00  0.00    -0.000 C 
BRANCH  14  15
ATOM     15  C   UNL     1      32.402  19.066  54.222  1.00  0.00    -0.003 C 
ATOM     16  C   UNL     1      33.867  18.919  53.815  1.00  0.00     0.004 C 
ENDBRANCH  14  15
ENDBRANCH  13  14
ENDBRANCH  12  13
ENDBRANCH  11  12
ENDBRANCH  10  11
ENDBRANCH   1  10
TORSDOF 12
ENDMDL
MODEL 7
REMARK VINA RESULT:    -3.396      1.241      3.983
REMARK INTER + INTRA:          -7.973
REMARK INTER:                  -5.786
REMARK INTRA:                  -2.187
REMARK UNBOUND:                -2.194
REMARK SMILES CCCCCCCCCCCCCC(=O)[O-]
REMARK SMILES IDX 8 1 9 2 10 3 11 4 12 5 13 6 14 7 15 8 16 9 7 10 6 11 5 12
REMARK SMILES IDX 4 13 3 14 2 15 1 16
REMARK H PARENT
REMARK Flexibility Score: inf
ROOT
ATOM      1  C   UNL     1      28.382  20.383  56.779  1.00  0.00     0.000 C 
ENDROOT
BRANCH   1   2
ATOM      2  C   UNL     1      28.416  19.012  57.475  1.00  0.00     0.000 C 
BRANCH   2   3
ATOM      3  C   UNL     1      27.168  18.147  57.194  1.00  0.00     0.000 C 
BRANCH   3   4
ATOM      4  C   UNL     1      26.217  18.809  56.182  1.00  0.00     0.000 C 
BRANCH   4   5
ATOM      5  C   UNL     1      26.105  18.030  54.860  1.00  0.00     0.006 C 
BRANCH   5   6
ATOM      6  C   UNL     1      27.111  18.477  53.785  1.00  0.00     0.053 C 
BRANCH   6   7
ATOM      7  C   UNL     1      26.721  19.773  53.138  1.00  0.00     0.041 C 
ATOM      8  O   UNL     1      25.621  19.873  52.536  1.00  0.00    -0.550 OA
ATOM      9  O   UNL     1      27.555  20.880  53.235  1.00  0.00    -0.550 OA
ENDBRANCH   6   7
ENDBRANCH   5   6
ENDBRANCH   4   5
ENDBRANCH   3   4
ENDBRANCH   2   3
ENDBRANCH   1   2
BRANCH   1  10
ATOM     10  C   UNL     1      29.759  20.817  56.249  1.00  0.00     0.000 C 
BRANCH  10  11
ATOM     11  C   UNL     1      30.318  19.851  55.193  1.00  0.00    -0.000 C 
BRANCH  11  12
ATOM     12  C   UNL     1      31.647  19.212  55.621  1.00  0.00    -0.000 C 
BRANCH  12  13
ATOM     13  C   UNL     1      31.610  17.690  55.433  1.00  0.00    -0.000 C 
BRANCH  13  14
ATOM     14  C   UNL     1      30.370  17.266  54.632  1.00  0.00    -0.000 C 
BRANCH  14  15
ATOM     15  C   UNL     1      29.652  16.058  55.254  1.00  0.00    -0.003 C 
ATOM     16  C   UNL     1      30.040  15.826  56.713  1.00  0.00     0.004 C 
ENDBRANCH  14  15
ENDBRANCH  13  14
ENDBRANCH  12  13
ENDBRANCH  11  12
ENDBRANCH  10  11
ENDBRANCH   1  10
TORSDOF 12
ENDMDL
MODEL 8
REMARK VINA RESULT:    -3.374      3.153      5.043
REMARK INTER + INTRA:          -7.934
REMARK INTER:                  -5.846
REMARK INTRA:                  -2.088
REMARK UNBOUND:                -2.194
REMARK SMILES CCCCCCCCCCCCCC(=O)[O-]
REMARK SMILES IDX 8 1 9 2 10 3 11 4 12 5 13 6 14 7 15 8 16 9 7 10 6 11 5 12
REMARK SMILES IDX 4 13 3 14 2 15 1 16
REMARK H PARENT
REMARK Flexibility Score: inf
ROOT
ATOM      1  C   UNL     1      27.216  19.466  54.948  1.00  0.00     0.000 C 
ENDROOT
BRANCH   1   2
ATOM      2  C   UNL     1      28.643  19.733  54.442  1.00  0.00     0.000 C 
BRANCH   2   3
ATOM      3  C   UNL     1      29.511  20.531  55.439  1.00  0.00     0.000 C 
BRANCH   3   4
ATOM      4  C   UNL     1      30.897  19.896  55.642  1.00  0.00     0.000 C 
BRANCH   4   5
ATOM      5  C   UNL     1      31.388  19.111  54.412  1.00  0.00     0.006 C 
BRANCH   5   6
ATOM      6  C   UNL     1      32.843  18.623  54.523  1.00  0.00     0.053 C 
BRANCH   6   7
ATOM      7  C   UNL     1      33.183  18.141  55.902  1.00  0.00     0.041 C 
ATOM      8  O   UNL     1      32.699  17.062  56.332  1.00  0.00    -0.550 OA
ATOM      9  O   UNL     1      34.065  18.863  56.696  1.00  0.00    -0.550 OA
ENDBRANCH   6   7
ENDBRANCH   5   6
ENDBRANCH   4   5
ENDBRANCH   3   4
ENDBRANCH   2   3
ENDBRANCH   1   2
BRANCH   1  10
ATOM     10  C   UNL     1      27.097  19.567  56.478  1.00  0.00     0.000 C 
BRANCH  10  11
ATOM     11  C   UNL     1      26.794  18.213  57.138  1.00  0.00    -0.000 C 
BRANCH  11  12
ATOM     12  C   UNL     1      27.843  17.821  58.188  1.00  0.00    -0.000 C 
BRANCH  12  13
ATOM     13  C   UNL     1      29.139  17.346  57.518  1.00  0.00    -0.000 C 
BRANCH  13  14
ATOM     14  C   UNL     1      28.923  16.013  56.786  1.00  0.00    -0.000 C 
BRANCH  14  15
ATOM     15  C   UNL     1      29.336  16.078  55.307  1.00  0.00    -0.003 C 
ATOM     16  C   UNL     1      28.156  15.891  54.354  1.00  0.00     0.004 C 
ENDBRANCH  14  15
ENDBRANCH  13  14
ENDBRANCH  12  13
ENDBRANCH  11  12
ENDBRANCH  10  11
ENDBRANCH   1  10
TORSDOF 12
ENDMDL
MODEL 9
REMARK VINA RESULT:    -3.364      2.496      4.690
REMARK INTER + INTRA:          -7.918
REMARK INTER:                  -6.503
REMARK INTRA:                  -1.416
REMARK UNBOUND:                -2.194
REMARK SMILES CCCCCCCCCCCCCC(=O)[O-]
REMARK SMILES IDX 8 1 9 2 10 3 11 4 12 5 13 6 14 7 15 8 16 9 7 10 6 11 5 12
REMARK SMILES IDX 4 13 3 14 2 15 1 16
REMARK H PARENT
REMARK Flexibility Score: inf
ROOT
ATOM      1  C   UNL     1      28.305  15.741  56.847  1.00  0.00     0.000 C 
ENDROOT
BRANCH   1   2
ATOM      2  C   UNL     1      27.067  16.475  57.387  1.00  0.00     0.000 C 
BRANCH   2   3
ATOM      3  C   UNL     1      27.339  17.949  57.761  1.00  0.00     0.000 C 
BRANCH   3   4
ATOM      4  C   UNL     1      26.716  18.930  56.754  1.00  0.00     0.000 C 
BRANCH   4   5
ATOM      5  C   UNL     1      27.747  19.877  56.116  1.00  0.00     0.006 C 
BRANCH   5   6
ATOM      6  C   UNL     1      28.907  20.257  57.052  1.00  0.00     0.053 C 
BRANCH   6   7
ATOM      7  C   UNL     1      29.717  21.404  56.526  1.00  0.00     0.041 C 
ATOM      8  O   UNL     1      30.752  21.781  57.136  1.00  0.00    -0.550 OA
ATOM      9  O   UNL     1      29.351  22.033  55.342  1.00  0.00    -0.550 OA
ENDBRANCH   6   7
ENDBRANCH   5   6
ENDBRANCH   4   5
ENDBRANCH   3   4
ENDBRANCH   2   3
ENDBRANCH   1   2
BRANCH   1  10
ATOM     10  C   UNL     1      29.612  16.513  57.094  1.00  0.00     0.000 C 
BRANCH  10  11
ATOM     11  C   UNL     1      30.614  16.364  55.938  1.00  0.00    -0.000 C 
BRANCH  11  12
ATOM     12  C   UNL     1      30.566  17.546  54.959  1.00  0.00    -0.000 C 
BRANCH  12  13
ATOM     13  C   UNL     1      31.684  18.553  55.259  1.00  0.00    -0.000 C 
BRANCH  13  14
ATOM     14  C   UNL     1      32.332  19.057  53.960  1.00  0.00    -0.000 C 
BRANCH  14  15
ATOM     15  C   UNL     1      33.867  18.999  54.005  1.00  0.00    -0.003 C 
ATOM     16  C   UNL     1      34.393  18.141  55.155  1.00  0.00     0.004 C 
ENDBRANCH  14  15
ENDBRANCH  13  14
ENDBRANCH  12  13
ENDBRANCH  11  12
ENDBRANCH  10  11
ENDBRANCH   1  10
TORSDOF 12
ENDMDL
