MODEL 1
REMARK VINA RESULT:     0.756      0.000      0.000
REMARK INTER + INTRA:           1.114
REMARK INTER:                   0.822
REMARK INTRA:                   0.292
REMARK UNBOUND:                 0.292
REMARK SMILES CC1(C)CC[C@]2(C(=O)[O-])CC[C@]3(C)C(=CC[C@H]4[C@@]5(C)CC[C@H](O)C(C)(C)[C@H]5CC[C@]43C)[C@@H]2C1
REMARK SMILES IDX 6 1 5 2 10 3 32 4 4 5 11 6 14 7 33 8 2 9 12 10 15 11 1 12
REMARK SMILES IDX 3 13 13 14 30 15 16 16 17 17 29 18 31 19 18 20 28 21 27 22
REMARK SMILES IDX 20 23 19 24 24 25 21 26 22 27 25 28 26 29 7 30 8 31 9 32
REMARK SMILES IDX 23 33
REMARK H PARENT 23 34
REMARK Flexibility Score: inf
ROOT
ATOM      1  C   UNL     1     -10.999  -8.441  -1.567  1.00  0.00     0.017 C 
ATOM      2  C   UNL     1     -11.652  -8.575  -2.990  1.00  0.00     0.014 C 
ATOM      3  C   UNL     1     -12.119  -8.550  -0.497  1.00  0.00     0.014 C 
ATOM      4  C   UNL     1     -10.246  -7.067  -1.447  1.00  0.00     0.028 C 
ATOM      5  C   UNL     1     -10.890  -7.790  -4.070  1.00  0.00     0.007 C 
ATOM      6  C   UNL     1     -11.673  -8.176   0.934  1.00  0.00     0.013 C 
ATOM      7  C   UNL     1      -9.937  -6.696   0.013  1.00  0.00    -0.064 C 
ATOM      8  C   UNL     1     -10.935  -5.949  -2.257  1.00  0.00     0.015 C 
ATOM      9  C   UNL     1     -10.894  -6.250  -3.792  1.00  0.00    -0.035 C 
ATOM     10  C   UNL     1     -11.041  -6.744   1.086  1.00  0.00    -0.006 C 
ATOM     11  C   UNL     1      -8.635  -6.643   0.342  1.00  0.00    -0.027 C 
ATOM     12  C   UNL     1      -9.625  -5.624  -4.413  1.00  0.00     0.011 C 
ATOM     13  C   UNL     1     -12.125  -5.605  -4.468  1.00  0.00     0.011 C 
ATOM     14  C   UNL     1     -12.125  -5.663   0.757  1.00  0.00     0.017 C 
ATOM     15  C   UNL     1     -10.489  -6.481   2.599  1.00  0.00    -0.020 C 
ATOM     16  C   UNL     1      -8.102  -6.639   1.728  1.00  0.00     0.032 C 
ATOM     17  C   UNL     1      -9.084  -7.148   2.823  1.00  0.00     0.006 C 
ATOM     18  C   UNL     1     -10.307  -4.947   2.896  1.00  0.00     0.008 C 
ATOM     19  C   UNL     1     -11.556  -7.065   3.590  1.00  0.00     0.012 C 
ATOM     20  C   UNL     1      -8.487  -7.000   4.326  1.00  0.00    -0.025 C 
ATOM     21  C   UNL     1      -9.256  -4.551   3.972  1.00  0.00     0.005 C 
ATOM     22  C   UNL     1      -8.962  -5.645   5.034  1.00  0.00     0.003 C 
ATOM     23  C   UNL     1      -6.916  -7.084   4.294  1.00  0.00     0.010 C 
ATOM     24  C   UNL     1      -8.987  -8.232   5.149  1.00  0.00     0.012 C 
ATOM     25  C   UNL     1      -8.096  -5.144   6.288  1.00  0.00    -0.006 C 
ATOM     26  C   UNL     1      -6.212  -6.747   5.604  1.00  0.00     0.033 C 
ATOM     27  C   UNL     1      -6.571  -5.320   6.031  1.00  0.00     0.120 C 
ATOM     28  C   UNL     1      -8.346  -3.641   6.598  1.00  0.00     0.014 C 
ATOM     29  C   UNL     1      -8.532  -5.900   7.578  1.00  0.00     0.014 C 
ENDROOT
BRANCH   1  30
ATOM     30  C   UNL     1     -10.036  -9.611  -1.360  1.00  0.00     0.048 C 
ATOM     31  O   UNL     1      -9.406 -10.124  -2.323  1.00  0.00    -0.550 OA
ATOM     32  O   UNL     1      -9.802 -10.098  -0.077  1.00  0.00    -0.550 OA
ENDBRANCH   1  30
BRANCH  27  33
ATOM     33  O   UNL     1      -5.799  -4.920   7.142  1.00  0.00    -0.393 OA
ATOM     34  H   UNL     1      -4.885  -5.291   7.039  1.00  0.00     0.210 HD
ENDBRANCH  27  33
TORSDOF 2
ENDMDL
MODEL 2
REMARK VINA RESULT:     2.381      1.909      8.201
REMARK INTER + INTRA:           2.882
REMARK INTER:                   2.546
REMARK INTRA:                   0.336
REMARK UNBOUND:                 0.292
REMARK SMILES CC1(C)CC[C@]2(C(=O)[O-])CC[C@]3(C)C(=CC[C@H]4[C@@]5(C)CC[C@H](O)C(C)(C)[C@H]5CC[C@]43C)[C@@H]2C1
REMARK SMILES IDX 6 1 5 2 10 3 32 4 4 5 11 6 14 7 33 8 2 9 12 10 15 11 1 12
REMARK SMILES IDX 3 13 13 14 30 15 16 16 17 17 29 18 31 19 18 20 28 21 27 22
REMARK SMILES IDX 20 23 19 24 24 25 21 26 22 27 25 28 26 29 7 30 8 31 9 32
REMARK SMILES IDX 23 33
REMARK H PARENT 23 34
REMARK Flexibility Score: inf
ROOT
ATOM      1  C   UNL     1      -9.509  -5.223   4.649  1.00  0.00     0.017 C 
ATOM      2  C   UNL     1      -9.140  -5.050   6.166  1.00  0.00     0.014 C 
ATOM      3  C   UNL     1     -10.870  -5.964   4.553  1.00  0.00     0.014 C 
ATOM      4  C   UNL     1      -8.382  -6.030   3.909  1.00  0.00     0.028 C 
ATOM      5  C   UNL     1      -7.622  -5.042   6.412  1.00  0.00     0.007 C 
ATOM      6  C   UNL     1     -11.239  -6.440   3.130  1.00  0.00     0.013 C 
ATOM      7  C   UNL     1      -8.852  -6.578   2.551  1.00  0.00    -0.064 C 
ATOM      8  C   UNL     1      -7.717  -7.079   4.824  1.00  0.00     0.015 C 
ATOM      9  C   UNL     1      -6.954  -6.399   6.010  1.00  0.00    -0.035 C 
ATOM     10  C   UNL     1     -10.172  -7.363   2.435  1.00  0.00    -0.006 C 
ATOM     11  C   UNL     1      -8.232  -6.076   1.469  1.00  0.00    -0.027 C 
ATOM     12  C   UNL     1      -5.487  -6.135   5.603  1.00  0.00     0.011 C 
ATOM     13  C   UNL     1      -6.949  -7.354   7.224  1.00  0.00     0.011 C 
ATOM     14  C   UNL     1     -10.046  -8.702   3.237  1.00  0.00     0.017 C 
ATOM     15  C   UNL     1     -10.585  -7.717   0.896  1.00  0.00    -0.020 C 
ATOM     16  C   UNL     1      -8.722  -6.189   0.072  1.00  0.00     0.032 C 
ATOM     17  C   UNL     1     -10.232  -6.537  -0.079  1.00  0.00     0.006 C 
ATOM     18  C   UNL     1      -9.819  -8.983   0.362  1.00  0.00     0.008 C 
ATOM     19  C   UNL     1     -12.125  -8.016   0.886  1.00  0.00     0.012 C 
ATOM     20  C   UNL     1     -10.674  -6.772  -1.625  1.00  0.00    -0.025 C 
ATOM     21  C   UNL     1      -9.603  -9.087  -1.174  1.00  0.00     0.005 C 
ATOM     22  C   UNL     1     -10.641  -8.318  -2.035  1.00  0.00     0.003 C 
ATOM     23  C   UNL     1      -9.755  -5.927  -2.583  1.00  0.00     0.010 C 
ATOM     24  C   UNL     1     -12.125  -6.210  -1.783  1.00  0.00     0.012 C 
ATOM     25  C   UNL     1     -10.584  -8.648  -3.604  1.00  0.00    -0.006 C 
ATOM     26  C   UNL     1      -9.917  -6.214  -4.072  1.00  0.00     0.033 C 
ATOM     27  C   UNL     1      -9.611  -7.690  -4.351  1.00  0.00     0.120 C 
ATOM     28  C   UNL     1     -10.103 -10.102  -3.871  1.00  0.00     0.014 C 
ATOM     29  C   UNL     1     -12.014  -8.576  -4.220  1.00  0.00     0.014 C 
ENDROOT
BRANCH   1  30
ATOM     30  C   UNL     1      -9.685  -3.837   4.028  1.00  0.00     0.048 C 
ATOM     31  O   UNL     1      -9.691  -3.671   2.778  1.00  0.00    -0.550 OA
ATOM     32  O   UNL     1      -9.896  -2.731   4.846  1.00  0.00    -0.550 OA
ENDBRANCH   1  30
BRANCH  27  33
ATOM     33  O   UNL     1      -9.581  -7.943  -5.737  1.00  0.00    -0.393 OA
ATOM     34  H   UNL     1     -10.470  -8.285  -6.013  1.00  0.00     0.210 HD
ENDBRANCH  27  33
TORSDOF 2
ENDMDL
