MODEL 1
REMARK VINA RESULT:    -3.283      0.000      0.000
REMARK INTER + INTRA:         -11.694
REMARK INTER:                  -7.506
REMARK INTRA:                  -4.188
REMARK UNBOUND:                -4.188
REMARK SMILES CCCCCCCCCCCCCCCCCCCCCCCC(=O)[O-]
REMARK SMILES IDX 13 1 14 2 15 3 16 4 17 5 18 6 19 7 20 8 21 9 22 10 23 11
REMARK SMILES IDX 24 12 25 13 26 14 12 15 11 16 10 17 9 18 8 19 7 20 6 21 5 22
REMARK SMILES IDX 4 23 3 24 2 25 1 26
REMARK H PARENT
REMARK Flexibility Score: inf
ROOT
ATOM      1  C   UNL     1      60.373  30.700  60.743  1.00  0.00     0.000 C 
ENDROOT
BRANCH   1   2
ATOM      2  C   UNL     1      61.370  30.698  61.912  1.00  0.00     0.000 C 
BRANCH   2   3
ATOM      3  C   UNL     1      62.633  29.871  61.610  1.00  0.00     0.000 C 
BRANCH   3   4
ATOM      4  C   UNL     1      63.927  30.697  61.484  1.00  0.00     0.000 C 
BRANCH   4   5
ATOM      5  C   UNL     1      64.381  30.985  60.040  1.00  0.00     0.000 C 
BRANCH   5   6
ATOM      6  C   UNL     1      64.573  32.486  59.740  1.00  0.00     0.000 C 
BRANCH   6   7
ATOM      7  C   UNL     1      63.643  32.984  58.622  1.00  0.00     0.000 C 
BRANCH   7   8
ATOM      8  C   UNL     1      62.275  33.388  59.185  1.00  0.00     0.000 C 
BRANCH   8   9
ATOM      9  C   UNL     1      62.415  34.006  60.583  1.00  0.00     0.000 C 
BRANCH   9  10
ATOM     10  C   UNL     1      61.950  35.469  60.637  1.00  0.00     0.006 C 
BRANCH  10  11
ATOM     11  C   UNL     1      63.007  36.409  61.244  1.00  0.00     0.053 C 
BRANCH  11  12
ATOM     12  C   UNL     1      64.408  35.916  61.024  1.00  0.00     0.041 C 
ATOM     13  O   UNL     1      65.057  35.365  61.954  1.00  0.00    -0.550 OA
ATOM     14  O   UNL     1      65.022  36.128  59.795  1.00  0.00    -0.550 OA
ENDBRANCH  11  12
ENDBRANCH  10  11
ENDBRANCH   9  10
ENDBRANCH   8   9
ENDBRANCH   7   8
ENDBRANCH   6   7
ENDBRANCH   5   6
ENDBRANCH   4   5
ENDBRANCH   3   4
ENDBRANCH   2   3
ENDBRANCH   1   2
BRANCH   1  15
ATOM     15  C   UNL     1      59.828  29.290  60.478  1.00  0.00     0.000 C 
BRANCH  15  16
ATOM     16  C   UNL     1      60.076  28.874  59.019  1.00  0.00     0.000 C 
BRANCH  16  17
ATOM     17  C   UNL     1      61.008  29.840  58.273  1.00  0.00     0.000 C 
BRANCH  17  18
ATOM     18  C   UNL     1      62.308  29.167  57.797  1.00  0.00    -0.000 C 
BRANCH  18  19
ATOM     19  C   UNL     1      62.472  27.743  58.369  1.00  0.00    -0.000 C 
BRANCH  19  20
ATOM     20  C   UNL     1      63.824  27.503  59.061  1.00  0.00    -0.000 C 
BRANCH  20  21
ATOM     21  C   UNL     1      63.723  26.525  60.244  1.00  0.00    -0.000 C 
BRANCH  21  22
ATOM     22  C   UNL     1      62.268  26.191  60.625  1.00  0.00    -0.000 C 
BRANCH  22  23
ATOM     23  C   UNL     1      61.901  26.434  62.103  1.00  0.00    -0.000 C 
BRANCH  23  24
ATOM     24  C   UNL     1      60.815  25.502  62.675  1.00  0.00    -0.000 C 
BRANCH  24  25
ATOM     25  C   UNL     1      61.338  24.408  63.622  1.00  0.00    -0.003 C 
ATOM     26  C   UNL     1      62.862  24.343  63.672  1.00  0.00     0.004 C 
ENDBRANCH  24  25
ENDBRANCH  23  24
ENDBRANCH  22  23
ENDBRANCH  21  22
ENDBRANCH  20  21
ENDBRANCH  19  20
ENDBRANCH  18  19
ENDBRANCH  17  18
ENDBRANCH  16  17
ENDBRANCH  15  16
ENDBRANCH   1  15
TORSDOF 22
ENDMDL
MODEL 2
REMARK VINA RESULT:    -3.140      3.220      7.469
REMARK INTER + INTRA:         -11.366
REMARK INTER:                  -6.733
REMARK INTRA:                  -4.633
REMARK UNBOUND:                -4.188
REMARK SMILES CCCCCCCCCCCCCCCCCCCCCCCC(=O)[O-]
REMARK SMILES IDX 13 1 14 2 15 3 16 4 17 5 18 6 19 7 20 8 21 9 22 10 23 11
REMARK SMILES IDX 24 12 25 13 26 14 12 15 11 16 10 17 9 18 8 19 7 20 6 21 5 22
REMARK SMILES IDX 4 23 3 24 2 25 1 26
REMARK H PARENT
REMARK Flexibility Score: inf
ROOT
ATOM      1  C   UNL     1      63.864  29.795  57.417  1.00  0.00     0.000 C 
ENDROOT
BRANCH   1   2
ATOM      2  C   UNL     1      62.486  29.318  57.899  1.00  0.00     0.000 C 
BRANCH   2   3
ATOM      3  C   UNL     1      62.513  27.876  58.436  1.00  0.00     0.000 C 
BRANCH   3   4
ATOM      4  C   UNL     1      63.812  27.102  58.136  1.00  0.00     0.000 C 
BRANCH   4   5
ATOM      5  C   UNL     1      64.661  26.747  59.371  1.00  0.00     0.000 C 
BRANCH   5   6
ATOM      6  C   UNL     1      63.846  26.658  60.678  1.00  0.00     0.000 C 
BRANCH   6   7
ATOM      7  C   UNL     1      63.632  25.207  61.138  1.00  0.00     0.000 C 
BRANCH   7   8
ATOM      8  C   UNL     1      62.301  25.059  61.885  1.00  0.00     0.000 C 
BRANCH   8   9
ATOM      9  C   UNL     1      61.489  26.361  61.828  1.00  0.00     0.000 C 
BRANCH   9  10
ATOM     10  C   UNL     1      60.233  26.242  60.951  1.00  0.00     0.006 C 
BRANCH  10  11
ATOM     11  C   UNL     1      59.627  27.609  60.589  1.00  0.00     0.053 C 
BRANCH  11  12
ATOM     12  C   UNL     1      58.200  27.742  61.037  1.00  0.00     0.041 C 
ATOM     13  O   UNL     1      57.444  28.625  60.548  1.00  0.00    -0.550 OA
ATOM     14  O   UNL     1      57.723  26.921  62.053  1.00  0.00    -0.550 OA
ENDBRANCH  11  12
ENDBRANCH  10  11
ENDBRANCH   9  10
ENDBRANCH   8   9
ENDBRANCH   7   8
ENDBRANCH   6   7
ENDBRANCH   5   6
ENDBRANCH   4   5
ENDBRANCH   3   4
ENDBRANCH   2   3
ENDBRANCH   1   2
BRANCH   1  15
ATOM     15  C   UNL     1      64.356  30.990  58.245  1.00  0.00     0.000 C 
BRANCH  15  16
ATOM     16  C   UNL     1      65.597  30.612  59.069  1.00  0.00     0.000 C 
BRANCH  16  17
ATOM     17  C   UNL     1      65.255  30.212  60.512  1.00  0.00     0.000 C 
BRANCH  17  18
ATOM     18  C   UNL     1      64.000  30.925  61.048  1.00  0.00    -0.000 C 
BRANCH  18  19
ATOM     19  C   UNL     1      62.922  29.928  61.526  1.00  0.00    -0.000 C 
BRANCH  19  20
ATOM     20  C   UNL     1      61.590  30.592  61.913  1.00  0.00    -0.000 C 
BRANCH  20  21
ATOM     21  C   UNL     1      60.792  31.084  60.693  1.00  0.00    -0.000 C 
BRANCH  21  22
ATOM     22  C   UNL     1      60.918  32.602  60.465  1.00  0.00    -0.000 C 
BRANCH  22  23
ATOM     23  C   UNL     1      61.605  33.015  59.146  1.00  0.00    -0.000 C 
BRANCH  23  24
ATOM     24  C   UNL     1      62.591  34.194  59.258  1.00  0.00    -0.000 C 
BRANCH  24  25
ATOM     25  C   UNL     1      62.950  34.600  60.698  1.00  0.00    -0.003 C 
ATOM     26  C   UNL     1      64.424  34.380  61.028  1.00  0.00     0.004 C 
ENDBRANCH  24  25
ENDBRANCH  23  24
ENDBRANCH  22  23
ENDBRANCH  21  22
ENDBRANCH  20  21
ENDBRANCH  19  20
ENDBRANCH  18  19
ENDBRANCH  17  18
ENDBRANCH  16  17
ENDBRANCH  15  16
ENDBRANCH   1  15
TORSDOF 22
ENDMDL
MODEL 3
REMARK VINA RESULT:    -3.130      3.871      7.359
REMARK INTER + INTRA:         -11.344
REMARK INTER:                  -6.750
REMARK INTRA:                  -4.594
REMARK UNBOUND:                -4.188
REMARK SMILES CCCCCCCCCCCCCCCCCCCCCCCC(=O)[O-]
REMARK SMILES IDX 13 1 14 2 15 3 16 4 17 5 18 6 19 7 20 8 21 9 22 10 23 11
REMARK SMILES IDX 24 12 25 13 26 14 12 15 11 16 10 17 9 18 8 19 7 20 6 21 5 22
REMARK SMILES IDX 4 23 3 24 2 25 1 26
REMARK H PARENT
REMARK Flexibility Score: inf
ROOT
ATOM      1  C   UNL     1      62.205  30.538  57.094  1.00  0.00     0.000 C 
ENDROOT
BRANCH   1   2
ATOM      2  C   UNL     1      62.750  29.276  57.780  1.00  0.00     0.000 C 
BRANCH   2   3
ATOM      3  C   UNL     1      64.255  29.374  58.089  1.00  0.00     0.000 C 
BRANCH   3   4
ATOM      4  C   UNL     1      64.632  29.072  59.553  1.00  0.00     0.000 C 
BRANCH   4   5
ATOM      5  C   UNL     1      65.106  30.290  60.370  1.00  0.00     0.000 C 
BRANCH   5   6
ATOM      6  C   UNL     1      64.009  30.901  61.265  1.00  0.00     0.000 C 
BRANCH   6   7
ATOM      7  C   UNL     1      62.796  29.970  61.424  1.00  0.00     0.000 C 
BRANCH   7   8
ATOM      8  C   UNL     1      61.512  30.777  61.654  1.00  0.00     0.000 C 
BRANCH   8   9
ATOM      9  C   UNL     1      60.468  30.472  60.570  1.00  0.00     0.000 C 
BRANCH   9  10
ATOM     10  C   UNL     1      60.048  28.994  60.546  1.00  0.00     0.006 C 
BRANCH  10  11
ATOM     11  C   UNL     1      58.541  28.806  60.299  1.00  0.00     0.053 C 
BRANCH  11  12
ATOM     12  C   UNL     1      57.953  27.714  61.145  1.00  0.00     0.041 C 
ATOM     13  O   UNL     1      56.794  27.821  61.630  1.00  0.00    -0.550 OA
ATOM     14  O   UNL     1      58.721  26.597  61.451  1.00  0.00    -0.550 OA
ENDBRANCH  11  12
ENDBRANCH  10  11
ENDBRANCH   9  10
ENDBRANCH   8   9
ENDBRANCH   7   8
ENDBRANCH   6   7
ENDBRANCH   5   6
ENDBRANCH   4   5
ENDBRANCH   3   4
ENDBRANCH   2   3
ENDBRANCH   1   2
BRANCH   1  15
ATOM     15  C   UNL     1      62.725  31.808  57.780  1.00  0.00     0.000 C 
BRANCH  15  16
ATOM     16  C   UNL     1      63.144  32.859  56.739  1.00  0.00     0.000 C 
BRANCH  16  17
ATOM     17  C   UNL     1      64.096  33.920  57.314  1.00  0.00     0.000 C 
BRANCH  17  18
ATOM     18  C   UNL     1      64.804  33.453  58.599  1.00  0.00    -0.000 C 
BRANCH  18  19
ATOM     19  C   UNL     1      65.071  34.619  59.575  1.00  0.00    -0.000 C 
BRANCH  19  20
ATOM     20  C   UNL     1      64.303  34.509  60.902  1.00  0.00    -0.000 C 
BRANCH  20  21
ATOM     21  C   UNL     1      62.939  35.221  60.861  1.00  0.00    -0.000 C 
BRANCH  21  22
ATOM     22  C   UNL     1      61.772  34.266  60.546  1.00  0.00    -0.000 C 
BRANCH  22  23
ATOM     23  C   UNL     1      60.561  34.915  59.845  1.00  0.00    -0.000 C 
BRANCH  23  24
ATOM     24  C   UNL     1      60.707  35.109  58.323  1.00  0.00    -0.000 C 
BRANCH  24  25
ATOM     25  C   UNL     1      59.697  34.321  57.472  1.00  0.00    -0.003 C 
ATOM     26  C   UNL     1      59.252  33.018  58.131  1.00  0.00     0.004 C 
ENDBRANCH  24  25
ENDBRANCH  23  24
ENDBRANCH  22  23
ENDBRANCH  21  22
ENDBRANCH  20  21
ENDBRANCH  19  20
ENDBRANCH  18  19
ENDBRANCH  17  18
ENDBRANCH  16  17
ENDBRANCH  15  16
ENDBRANCH   1  15
TORSDOF 22
ENDMDL
MODEL 4
REMARK VINA RESULT:    -3.096      4.010      7.742
REMARK INTER + INTRA:         -11.266
REMARK INTER:                  -7.347
REMARK INTRA:                  -3.919
REMARK UNBOUND:                -4.188
REMARK SMILES CCCCCCCCCCCCCCCCCCCCCCCC(=O)[O-]
REMARK SMILES IDX 13 1 14 2 15 3 16 4 17 5 18 6 19 7 20 8 21 9 22 10 23 11
REMARK SMILES IDX 24 12 25 13 26 14 12 15 11 16 10 17 9 18 8 19 7 20 6 21 5 22
REMARK SMILES IDX 4 23 3 24 2 25 1 26
REMARK H PARENT
REMARK Flexibility Score: inf
ROOT
ATOM      1  C   UNL     1      61.171  30.331  61.656  1.00  0.00     0.000 C 
ENDROOT
BRANCH   1   2
ATOM      2  C   UNL     1      62.618  29.928  61.340  1.00  0.00     0.000 C 
BRANCH   2   3
ATOM      3  C   UNL     1      62.713  28.553  60.654  1.00  0.00     0.000 C 
BRANCH   3   4
ATOM      4  C   UNL     1      62.398  27.355  61.570  1.00  0.00     0.000 C 
BRANCH   4   5
ATOM      5  C   UNL     1      61.077  26.624  61.261  1.00  0.00     0.000 C 
BRANCH   5   6
ATOM      6  C   UNL     1      60.894  26.282  59.767  1.00  0.00     0.000 C 
BRANCH   6   7
ATOM      7  C   UNL     1      59.502  26.668  59.243  1.00  0.00     0.000 C 
BRANCH   7   8
ATOM      8  C   UNL     1      59.436  28.165  58.914  1.00  0.00     0.000 C 
BRANCH   8   9
ATOM      9  C   UNL     1      58.174  28.804  59.509  1.00  0.00     0.000 C 
BRANCH   9  10
ATOM     10  C   UNL     1      57.991  28.484  61.001  1.00  0.00     0.006 C 
BRANCH  10  11
ATOM     11  C   UNL     1      56.516  28.281  61.391  1.00  0.00     0.053 C 
BRANCH  11  12
ATOM     12  C   UNL     1      55.956  26.989  60.870  1.00  0.00     0.041 C 
ATOM     13  O   UNL     1      56.563  25.898  61.049  1.00  0.00    -0.550 OA
ATOM     14  O   UNL     1      54.784  27.004  60.124  1.00  0.00    -0.550 OA
ENDBRANCH  11  12
ENDBRANCH  10  11
ENDBRANCH   9  10
ENDBRANCH   8   9
ENDBRANCH   7   8
ENDBRANCH   6   7
ENDBRANCH   5   6
ENDBRANCH   4   5
ENDBRANCH   3   4
ENDBRANCH   2   3
ENDBRANCH   1   2
BRANCH   1  15
ATOM     15  C   UNL     1      60.810  31.666  60.990  1.00  0.00     0.000 C 
BRANCH  15  16
ATOM     16  C   UNL     1      60.807  31.529  59.458  1.00  0.00     0.000 C 
BRANCH  16  17
ATOM     17  C   UNL     1      61.192  32.833  58.743  1.00  0.00     0.000 C 
BRANCH  17  18
ATOM     18  C   UNL     1      60.622  34.085  59.435  1.00  0.00    -0.000 C 
BRANCH  18  19
ATOM     19  C   UNL     1      61.642  35.243  59.480  1.00  0.00    -0.000 C 
BRANCH  19  20
ATOM     20  C   UNL     1      62.245  35.486  60.873  1.00  0.00    -0.000 C 
BRANCH  20  21
ATOM     21  C   UNL     1      63.760  35.754  60.828  1.00  0.00    -0.000 C 
BRANCH  21  22
ATOM     22  C   UNL     1      64.596  34.562  61.330  1.00  0.00    -0.000 C 
BRANCH  22  23
ATOM     23  C   UNL     1      64.251  33.200  60.692  1.00  0.00    -0.000 C 
BRANCH  23  24
ATOM     24  C   UNL     1      64.869  32.948  59.302  1.00  0.00    -0.000 C 
BRANCH  24  25
ATOM     25  C   UNL     1      65.233  31.481  59.014  1.00  0.00    -0.003 C 
ATOM     26  C   UNL     1      64.255  30.802  58.059  1.00  0.00     0.004 C 
ENDBRANCH  24  25
ENDBRANCH  23  24
ENDBRANCH  22  23
ENDBRANCH  21  22
ENDBRANCH  20  21
ENDBRANCH  19  20
ENDBRANCH  18  19
ENDBRANCH  17  18
ENDBRANCH  16  17
ENDBRANCH  15  16
ENDBRANCH   1  15
TORSDOF 22
ENDMDL
MODEL 5
REMARK VINA RESULT:    -3.037      8.583     10.976
REMARK INTER + INTRA:         -11.131
REMARK INTER:                  -6.584
REMARK INTRA:                  -4.546
REMARK UNBOUND:                -4.188
REMARK SMILES CCCCCCCCCCCCCCCCCCCCCCCC(=O)[O-]
REMARK SMILES IDX 13 1 14 2 15 3 16 4 17 5 18 6 19 7 20 8 21 9 22 10 23 11
REMARK SMILES IDX 24 12 25 13 26 14 12 15 11 16 10 17 9 18 8 19 7 20 6 21 5 22
REMARK SMILES IDX 4 23 3 24 2 25 1 26
REMARK H PARENT
REMARK Flexibility Score: inf
ROOT
ATOM      1  C   UNL     1      60.509  26.029  53.657  1.00  0.00     0.000 C 
ENDROOT
BRANCH   1   2
ATOM      2  C   UNL     1      60.885  27.518  53.669  1.00  0.00     0.000 C 
BRANCH   2   3
ATOM      3  C   UNL     1      62.039  27.845  52.704  1.00  0.00     0.000 C 
BRANCH   3   4
ATOM      4  C   UNL     1      62.994  26.669  52.422  1.00  0.00     0.000 C 
BRANCH   4   5
ATOM      5  C   UNL     1      64.124  26.971  51.418  1.00  0.00     0.000 C 
BRANCH   5   6
ATOM      6  C   UNL     1      63.789  26.563  49.968  1.00  0.00     0.000 C 
BRANCH   6   7
ATOM      7  C   UNL     1      63.202  27.725  49.152  1.00  0.00     0.000 C 
BRANCH   7   8
ATOM      8  C   UNL     1      64.315  28.616  48.587  1.00  0.00     0.000 C 
BRANCH   8   9
ATOM      9  C   UNL     1      64.137  30.073  49.037  1.00  0.00     0.000 C 
BRANCH   9  10
ATOM     10  C   UNL     1      63.050  30.235  50.112  1.00  0.00     0.006 C 
BRANCH  10  11
ATOM     11  C   UNL     1      62.282  31.562  49.986  1.00  0.00     0.053 C 
BRANCH  11  12
ATOM     12  C   UNL     1      63.194  32.755  49.978  1.00  0.00     0.041 C 
ATOM     13  O   UNL     1      63.832  33.093  51.011  1.00  0.00    -0.550 OA
ATOM     14  O   UNL     1      63.286  33.536  48.832  1.00  0.00    -0.550 OA
ENDBRANCH  11  12
ENDBRANCH  10  11
ENDBRANCH   9  10
ENDBRANCH   8   9
ENDBRANCH   7   8
ENDBRANCH   6   7
ENDBRANCH   5   6
ENDBRANCH   4   5
ENDBRANCH   3   4
ENDBRANCH   2   3
ENDBRANCH   1   2
BRANCH   1  15
ATOM     15  C   UNL     1      59.020  25.838  53.342  1.00  0.00     0.000 C 
BRANCH  15  16
ATOM     16  C   UNL     1      58.833  24.985  52.077  1.00  0.00     0.000 C 
BRANCH  16  17
ATOM     17  C   UNL     1      60.160  24.668  51.371  1.00  0.00     0.000 C 
BRANCH  17  18
ATOM     18  C   UNL     1      60.309  25.397  50.024  1.00  0.00    -0.000 C 
BRANCH  18  19
ATOM     19  C   UNL     1      59.175  26.417  49.784  1.00  0.00    -0.000 C 
BRANCH  19  20
ATOM     20  C   UNL     1      59.671  27.810  49.360  1.00  0.00    -0.000 C 
BRANCH  20  21
ATOM     21  C   UNL     1      59.401  28.888  50.423  1.00  0.00    -0.000 C 
BRANCH  21  22
ATOM     22  C   UNL     1      58.105  28.639  51.217  1.00  0.00    -0.000 C 
BRANCH  22  23
ATOM     23  C   UNL     1      56.831  29.261  50.610  1.00  0.00    -0.000 C 
BRANCH  23  24
ATOM     24  C   UNL     1      55.566  28.384  50.688  1.00  0.00    -0.000 C 
BRANCH  24  25
ATOM     25  C   UNL     1      55.806  26.951  51.195  1.00  0.00    -0.003 C 
ATOM     26  C   UNL     1      55.525  25.890  50.134  1.00  0.00     0.004 C 
ENDBRANCH  24  25
ENDBRANCH  23  24
ENDBRANCH  22  23
ENDBRANCH  21  22
ENDBRANCH  20  21
ENDBRANCH  19  20
ENDBRANCH  18  19
ENDBRANCH  17  18
ENDBRANCH  16  17
ENDBRANCH  15  16
ENDBRANCH   1  15
TORSDOF 22
ENDMDL
MODEL 6
REMARK VINA RESULT:    -3.022      9.400     11.261
REMARK INTER + INTRA:         -11.098
REMARK INTER:                  -7.089
REMARK INTRA:                  -4.009
REMARK UNBOUND:                -4.188
REMARK SMILES CCCCCCCCCCCCCCCCCCCCCCCC(=O)[O-]
REMARK SMILES IDX 13 1 14 2 15 3 16 4 17 5 18 6 19 7 20 8 21 9 22 10 23 11
REMARK SMILES IDX 24 12 25 13 26 14 12 15 11 16 10 17 9 18 8 19 7 20 6 21 5 22
REMARK SMILES IDX 4 23 3 24 2 25 1 26
REMARK H PARENT
REMARK Flexibility Score: inf
ROOT
ATOM      1  C   UNL     1      56.107  29.242  50.748  1.00  0.00     0.000 C 
ENDROOT
BRANCH   1   2
ATOM      2  C   UNL     1      57.266  29.803  51.584  1.00  0.00     0.000 C 
BRANCH   2   3
ATOM      3  C   UNL     1      58.621  29.174  51.216  1.00  0.00     0.000 C 
BRANCH   3   4
ATOM      4  C   UNL     1      58.872  29.028  49.702  1.00  0.00     0.000 C 
BRANCH   4   5
ATOM      5  C   UNL     1      59.642  27.759  49.287  1.00  0.00     0.000 C 
BRANCH   5   6
ATOM      6  C   UNL     1      60.180  26.943  50.480  1.00  0.00     0.000 C 
BRANCH   6   7
ATOM      7  C   UNL     1      61.699  26.725  50.405  1.00  0.00     0.000 C 
BRANCH   7   8
ATOM      8  C   UNL     1      62.401  27.952  49.810  1.00  0.00     0.000 C 
BRANCH   8   9
ATOM      9  C   UNL     1      63.298  28.632  50.852  1.00  0.00     0.000 C 
BRANCH   9  10
ATOM     10  C   UNL     1      62.715  29.957  51.368  1.00  0.00     0.006 C 
BRANCH  10  11
ATOM     11  C   UNL     1      62.066  30.797  50.254  1.00  0.00     0.053 C 
BRANCH  11  12
ATOM     12  C   UNL     1      62.522  32.228  50.274  1.00  0.00     0.041 C 
ATOM     13  O   UNL     1      62.771  32.816  51.362  1.00  0.00    -0.550 OA
ATOM     14  O   UNL     1      62.611  32.934  49.080  1.00  0.00    -0.550 OA
ENDBRANCH  11  12
ENDBRANCH  10  11
ENDBRANCH   9  10
ENDBRANCH   8   9
ENDBRANCH   7   8
ENDBRANCH   6   7
ENDBRANCH   5   6
ENDBRANCH   4   5
ENDBRANCH   3   4
ENDBRANCH   2   3
ENDBRANCH   1   2
BRANCH   1  15
ATOM     15  C   UNL     1      54.755  29.762  51.256  1.00  0.00     0.000 C 
BRANCH  15  16
ATOM     16  C   UNL     1      53.593  29.069  50.526  1.00  0.00     0.000 C 
BRANCH  16  17
ATOM     17  C   UNL     1      53.963  27.671  50.009  1.00  0.00     0.000 C 
BRANCH  17  18
ATOM     18  C   UNL     1      53.511  26.545  50.957  1.00  0.00    -0.000 C 
BRANCH  18  19
ATOM     19  C   UNL     1      54.422  25.302  50.864  1.00  0.00    -0.000 C 
BRANCH  19  20
ATOM     20  C   UNL     1      55.719  25.540  50.072  1.00  0.00    -0.000 C 
BRANCH  20  21
ATOM     21  C   UNL     1      56.936  25.780  50.981  1.00  0.00    -0.000 C 
BRANCH  21  22
ATOM     22  C   UNL     1      57.051  24.747  52.118  1.00  0.00    -0.000 C 
BRANCH  22  23
ATOM     23  C   UNL     1      57.308  25.336  53.520  1.00  0.00    -0.000 C 
BRANCH  23  24
ATOM     24  C   UNL     1      57.049  26.849  53.656  1.00  0.00    -0.000 C 
BRANCH  24  25
ATOM     25  C   UNL     1      55.578  27.233  53.896  1.00  0.00    -0.003 C 
ATOM     26  C   UNL     1      54.837  26.227  54.774  1.00  0.00     0.004 C 
ENDBRANCH  24  25
ENDBRANCH  23  24
ENDBRANCH  22  23
ENDBRANCH  21  22
ENDBRANCH  20  21
ENDBRANCH  19  20
ENDBRANCH  18  19
ENDBRANCH  17  18
ENDBRANCH  16  17
ENDBRANCH  15  16
ENDBRANCH   1  15
TORSDOF 22
ENDMDL
MODEL 7
REMARK VINA RESULT:    -2.979      8.572     11.151
REMARK INTER + INTRA:         -10.999
REMARK INTER:                  -6.739
REMARK INTRA:                  -4.260
REMARK UNBOUND:                -4.188
REMARK SMILES CCCCCCCCCCCCCCCCCCCCCCCC(=O)[O-]
REMARK SMILES IDX 13 1 14 2 15 3 16 4 17 5 18 6 19 7 20 8 21 9 22 10 23 11
REMARK SMILES IDX 24 12 25 13 26 14 12 15 11 16 10 17 9 18 8 19 7 20 6 21 5 22
REMARK SMILES IDX 4 23 3 24 2 25 1 26
REMARK H PARENT
REMARK Flexibility Score: inf
ROOT
ATOM      1  C   UNL     1      57.444  25.529  51.422  1.00  0.00     0.000 C 
ENDROOT
BRANCH   1   2
ATOM      2  C   UNL     1      58.826  25.198  50.841  1.00  0.00     0.000 C 
BRANCH   2   3
ATOM      3  C   UNL     1      59.203  26.107  49.657  1.00  0.00     0.000 C 
BRANCH   3   4
ATOM      4  C   UNL     1      60.433  27.003  49.900  1.00  0.00     0.000 C 
BRANCH   4   5
ATOM      5  C   UNL     1      60.135  28.513  49.980  1.00  0.00     0.000 C 
BRANCH   5   6
ATOM      6  C   UNL     1      58.675  28.875  49.637  1.00  0.00     0.000 C 
BRANCH   6   7
ATOM      7  C   UNL     1      57.950  29.560  50.806  1.00  0.00     0.000 C 
BRANCH   7   8
ATOM      8  C   UNL     1      58.622  29.222  52.142  1.00  0.00     0.000 C 
BRANCH   8   9
ATOM      9  C   UNL     1      59.058  30.497  52.878  1.00  0.00     0.000 C 
BRANCH   9  10
ATOM     10  C   UNL     1      57.937  31.101  53.739  1.00  0.00     0.006 C 
BRANCH  10  11
ATOM     11  C   UNL     1      57.649  32.573  53.395  1.00  0.00     0.053 C 
BRANCH  11  12
ATOM     12  C   UNL     1      56.294  33.017  53.865  1.00  0.00     0.041 C 
ATOM     13  O   UNL     1      55.932  32.845  55.061  1.00  0.00    -0.550 OA
ATOM     14  O   UNL     1      55.402  33.570  52.954  1.00  0.00    -0.550 OA
ENDBRANCH  11  12
ENDBRANCH  10  11
ENDBRANCH   9  10
ENDBRANCH   8   9
ENDBRANCH   7   8
ENDBRANCH   6   7
ENDBRANCH   5   6
ENDBRANCH   4   5
ENDBRANCH   3   4
ENDBRANCH   2   3
ENDBRANCH   1   2
BRANCH   1  15
ATOM     15  C   UNL     1      56.389  25.639  50.313  1.00  0.00     0.000 C 
BRANCH  15  16
ATOM     16  C   UNL     1      55.638  26.977  50.403  1.00  0.00     0.000 C 
BRANCH  16  17
ATOM     17  C   UNL     1      54.146  26.846  50.060  1.00  0.00     0.000 C 
BRANCH  17  18
ATOM     18  C   UNL     1      53.385  28.178  50.189  1.00  0.00    -0.000 C 
BRANCH  18  19
ATOM     19  C   UNL     1      54.321  29.355  50.538  1.00  0.00    -0.000 C 
BRANCH  19  20
ATOM     20  C   UNL     1      53.787  30.265  51.656  1.00  0.00    -0.000 C 
BRANCH  20  21
ATOM     21  C   UNL     1      54.486  30.025  53.005  1.00  0.00    -0.000 C 
BRANCH  21  22
ATOM     22  C   UNL     1      53.778  28.964  53.869  1.00  0.00    -0.000 C 
BRANCH  22  23
ATOM     23  C   UNL     1      54.492  27.599  53.951  1.00  0.00    -0.000 C 
BRANCH  23  24
ATOM     24  C   UNL     1      56.032  27.658  53.944  1.00  0.00    -0.000 C 
BRANCH  24  25
ATOM     25  C   UNL     1      56.684  27.631  55.337  1.00  0.00    -0.003 C 
ATOM     26  C   UNL     1      57.896  26.706  55.408  1.00  0.00     0.004 C 
ENDBRANCH  24  25
ENDBRANCH  23  24
ENDBRANCH  22  23
ENDBRANCH  21  22
ENDBRANCH  20  21
ENDBRANCH  19  20
ENDBRANCH  18  19
ENDBRANCH  17  18
ENDBRANCH  16  17
ENDBRANCH  15  16
ENDBRANCH   1  15
TORSDOF 22
ENDMDL
MODEL 8
REMARK VINA RESULT:    -2.970      9.342     11.523
REMARK INTER + INTRA:         -10.979
REMARK INTER:                  -7.015
REMARK INTRA:                  -3.964
REMARK UNBOUND:                -4.188
REMARK SMILES CCCCCCCCCCCCCCCCCCCCCCCC(=O)[O-]
REMARK SMILES IDX 13 1 14 2 15 3 16 4 17 5 18 6 19 7 20 8 21 9 22 10 23 11
REMARK SMILES IDX 24 12 25 13 26 14 12 15 11 16 10 17 9 18 8 19 7 20 6 21 5 22
REMARK SMILES IDX 4 23 3 24 2 25 1 26
REMARK H PARENT
REMARK Flexibility Score: inf
ROOT
ATOM      1  C   UNL     1      58.408  26.936  53.562  1.00  0.00     0.000 C 
ENDROOT
BRANCH   1   2
ATOM      2  C   UNL     1      58.862  25.661  52.836  1.00  0.00     0.000 C 
BRANCH   2   3
ATOM      3  C   UNL     1      57.827  25.163  51.810  1.00  0.00     0.000 C 
BRANCH   3   4
ATOM      4  C   UNL     1      58.232  25.365  50.338  1.00  0.00     0.000 C 
BRANCH   4   5
ATOM      5  C   UNL     1      59.670  25.875  50.119  1.00  0.00     0.000 C 
BRANCH   5   6
ATOM      6  C   UNL     1      59.739  27.291  49.512  1.00  0.00     0.000 C 
BRANCH   6   7
ATOM      7  C   UNL     1      61.019  28.040  49.913  1.00  0.00     0.000 C 
BRANCH   7   8
ATOM      8  C   UNL     1      61.048  28.310  51.422  1.00  0.00     0.000 C 
BRANCH   8   9
ATOM      9  C   UNL     1      61.018  29.817  51.713  1.00  0.00     0.000 C 
BRANCH   9  10
ATOM     10  C   UNL     1      61.521  30.662  50.532  1.00  0.00     0.006 C 
BRANCH  10  11
ATOM     11  C   UNL     1      62.983  31.109  50.698  1.00  0.00     0.053 C 
BRANCH  11  12
ATOM     12  C   UNL     1      63.434  32.022  49.594  1.00  0.00     0.041 C 
ATOM     13  O   UNL     1      64.637  32.042  49.217  1.00  0.00    -0.550 OA
ATOM     14  O   UNL     1      62.524  32.905  49.024  1.00  0.00    -0.550 OA
ENDBRANCH  11  12
ENDBRANCH  10  11
ENDBRANCH   9  10
ENDBRANCH   8   9
ENDBRANCH   7   8
ENDBRANCH   6   7
ENDBRANCH   5   6
ENDBRANCH   4   5
ENDBRANCH   3   4
ENDBRANCH   2   3
ENDBRANCH   1   2
BRANCH   1  15
ATOM     15  C   UNL     1      56.879  27.067  53.545  1.00  0.00     0.000 C 
BRANCH  15  16
ATOM     16  C   UNL     1      56.456  28.481  53.117  1.00  0.00     0.000 C 
BRANCH  16  17
ATOM     17  C   UNL     1      57.296  29.028  51.953  1.00  0.00     0.000 C 
BRANCH  17  18
ATOM     18  C   UNL     1      56.596  28.880  50.589  1.00  0.00    -0.000 C 
BRANCH  18  19
ATOM     19  C   UNL     1      55.079  29.153  50.679  1.00  0.00    -0.000 C 
BRANCH  19  20
ATOM     20  C   UNL     1      54.206  27.961  50.252  1.00  0.00    -0.000 C 
BRANCH  20  21
ATOM     21  C   UNL     1      55.012  26.661  50.090  1.00  0.00    -0.000 C 
BRANCH  21  22
ATOM     22  C   UNL     1      54.174  25.502  49.516  1.00  0.00    -0.000 C 
BRANCH  22  23
ATOM     23  C   UNL     1      53.659  24.484  50.554  1.00  0.00    -0.000 C 
BRANCH  23  24
ATOM     24  C   UNL     1      54.095  24.747  52.009  1.00  0.00    -0.000 C 
BRANCH  24  25
ATOM     25  C   UNL     1      52.997  25.329  52.916  1.00  0.00    -0.003 C 
ATOM     26  C   UNL     1      53.516  25.731  54.294  1.00  0.00     0.004 C 
ENDBRANCH  24  25
ENDBRANCH  23  24
ENDBRANCH  22  23
ENDBRANCH  21  22
ENDBRANCH  20  21
ENDBRANCH  19  20
ENDBRANCH  18  19
ENDBRANCH  17  18
ENDBRANCH  16  17
ENDBRANCH  15  16
ENDBRANCH   1  15
TORSDOF 22
ENDMDL
MODEL 9
REMARK VINA RESULT:    -2.924      9.384     11.970
REMARK INTER + INTRA:         -10.872
REMARK INTER:                  -6.765
REMARK INTRA:                  -4.107
REMARK UNBOUND:                -4.188
REMARK SMILES CCCCCCCCCCCCCCCCCCCCCCCC(=O)[O-]
REMARK SMILES IDX 13 1 14 2 15 3 16 4 17 5 18 6 19 7 20 8 21 9 22 10 23 11
REMARK SMILES IDX 24 12 25 13 26 14 12 15 11 16 10 17 9 18 8 19 7 20 6 21 5 22
REMARK SMILES IDX 4 23 3 24 2 25 1 26
REMARK H PARENT
REMARK Flexibility Score: inf
ROOT
ATOM      1  C   UNL     1      61.071  28.685  52.930  1.00  0.00     0.000 C 
ENDROOT
BRANCH   1   2
ATOM      2  C   UNL     1      62.222  29.173  52.039  1.00  0.00     0.000 C 
BRANCH   2   3
ATOM      3  C   UNL     1      61.896  30.498  51.325  1.00  0.00     0.000 C 
BRANCH   3   4
ATOM      4  C   UNL     1      62.740  30.774  50.066  1.00  0.00     0.000 C 
BRANCH   4   5
ATOM      5  C   UNL     1      64.009  29.911  49.927  1.00  0.00     0.000 C 
BRANCH   5   6
ATOM      6  C   UNL     1      64.168  29.264  48.536  1.00  0.00     0.000 C 
BRANCH   6   7
ATOM      7  C   UNL     1      64.647  27.805  48.618  1.00  0.00     0.000 C 
BRANCH   7   8
ATOM      8  C   UNL     1      64.879  27.386  50.075  1.00  0.00     0.000 C 
BRANCH   8   9
ATOM      9  C   UNL     1      64.326  25.978  50.338  1.00  0.00     0.000 C 
BRANCH   9  10
ATOM     10  C   UNL     1      62.791  25.942  50.397  1.00  0.00     0.006 C 
BRANCH  10  11
ATOM     11  C   UNL     1      62.259  25.233  51.654  1.00  0.00     0.053 C 
BRANCH  11  12
ATOM     12  C   UNL     1      61.733  23.858  51.359  1.00  0.00     0.041 C 
ATOM     13  O   UNL     1      62.043  23.258  50.294  1.00  0.00    -0.550 OA
ATOM     14  O   UNL     1      60.841  23.263  52.244  1.00  0.00    -0.550 OA
ENDBRANCH  11  12
ENDBRANCH  10  11
ENDBRANCH   9  10
ENDBRANCH   8   9
ENDBRANCH   7   8
ENDBRANCH   6   7
ENDBRANCH   5   6
ENDBRANCH   4   5
ENDBRANCH   3   4
ENDBRANCH   2   3
ENDBRANCH   1   2
BRANCH   1  15
ATOM     15  C   UNL     1      59.986  29.761  53.072  1.00  0.00     0.000 C 
BRANCH  15  16
ATOM     16  C   UNL     1      58.600  29.190  52.730  1.00  0.00     0.000 C 
BRANCH  16  17
ATOM     17  C   UNL     1      57.898  29.967  51.606  1.00  0.00     0.000 C 
BRANCH  17  18
ATOM     18  C   UNL     1      57.708  29.129  50.328  1.00  0.00    -0.000 C 
BRANCH  18  19
ATOM     19  C   UNL     1      58.987  29.082  49.465  1.00  0.00    -0.000 C 
BRANCH  19  20
ATOM     20  C   UNL     1      59.794  27.782  49.618  1.00  0.00    -0.000 C 
BRANCH  20  21
ATOM     21  C   UNL     1      58.907  26.525  49.597  1.00  0.00    -0.000 C 
BRANCH  21  22
ATOM     22  C   UNL     1      58.659  25.941  51.000  1.00  0.00    -0.000 C 
BRANCH  22  23
ATOM     23  C   UNL     1      57.179  25.683  51.354  1.00  0.00    -0.000 C 
BRANCH  23  24
ATOM     24  C   UNL     1      56.204  25.700  50.161  1.00  0.00    -0.000 C 
BRANCH  24  25
ATOM     25  C   UNL     1      54.758  26.087  50.516  1.00  0.00    -0.003 C 
ATOM     26  C   UNL     1      54.464  27.568  50.286  1.00  0.00     0.004 C 
ENDBRANCH  24  25
ENDBRANCH  23  24
ENDBRANCH  22  23
ENDBRANCH  21  22
ENDBRANCH  20  21
ENDBRANCH  19  20
ENDBRANCH  18  19
ENDBRANCH  17  18
ENDBRANCH  16  17
ENDBRANCH  15  16
ENDBRANCH   1  15
TORSDOF 22
ENDMDL
