MODEL 1
REMARK VINA RESULT:    -2.424      0.000      0.000
REMARK INTER + INTRA:          -5.360
REMARK INTER:                  -4.125
REMARK INTRA:                  -1.236
REMARK UNBOUND:                -1.236
REMARK SMILES CCCCCCCCCCCCCC(=O)[O-]
REMARK SMILES IDX 8 1 9 2 10 3 11 4 12 5 13 6 14 7 15 8 16 9 7 10 6 11 5 12
REMARK SMILES IDX 4 13 3 14 2 15 1 16
REMARK H PARENT
REMARK Flexibility Score: inf
ROOT
ATOM      1  C   UNL     1      -4.362  -8.604   1.841  1.00  0.00     0.000 C 
ENDROOT
BRANCH   1   2
ATOM      2  C   UNL     1      -3.956  -9.487   3.027  1.00  0.00     0.000 C 
BRANCH   2   3
ATOM      3  C   UNL     1      -2.922  -8.780   3.911  1.00  0.00     0.000 C 
BRANCH   3   4
ATOM      4  C   UNL     1      -1.508  -9.305   3.631  1.00  0.00     0.000 C 
BRANCH   4   5
ATOM      5  C   UNL     1      -0.475  -8.611   4.531  1.00  0.00     0.006 C 
BRANCH   5   6
ATOM      6  C   UNL     1      -1.010  -7.301   5.125  1.00  0.00     0.053 C 
BRANCH   6   7
ATOM      7  C   UNL     1      -0.314  -6.106   4.550  1.00  0.00     0.041 C 
ATOM      8  O   UNL     1      -0.718  -4.945   4.820  1.00  0.00    -0.550 OA
ATOM      9  O   UNL     1       0.761  -6.277   3.688  1.00  0.00    -0.550 OA
ENDBRANCH   6   7
ENDBRANCH   5   6
ENDBRANCH   4   5
ENDBRANCH   3   4
ENDBRANCH   2   3
ENDBRANCH   1   2
BRANCH   1  10
ATOM     10  C   UNL     1      -5.691  -9.079   1.233  1.00  0.00     0.000 C 
BRANCH  10  11
ATOM     11  C   UNL     1      -6.828  -9.145   2.267  1.00  0.00    -0.000 C 
BRANCH  11  12
ATOM     12  C   UNL     1      -7.112  -7.782   2.921  1.00  0.00    -0.000 C 
BRANCH  12  13
ATOM     13  C   UNL     1      -6.788  -7.769   4.423  1.00  0.00    -0.000 C 
BRANCH  13  14
ATOM     14  C   UNL     1      -6.036  -6.499   4.858  1.00  0.00    -0.000 C 
BRANCH  14  15
ATOM     15  C   UNL     1      -5.275  -5.839   3.696  1.00  0.00    -0.003 C 
ATOM     16  C   UNL     1      -5.494  -4.329   3.631  1.00  0.00     0.004 C 
ENDBRANCH  14  15
ENDBRANCH  13  14
ENDBRANCH  12  13
ENDBRANCH  11  12
ENDBRANCH  10  11
ENDBRANCH   1  10
TORSDOF 12
ENDMDL
MODEL 2
REMARK VINA RESULT:    -2.379      3.070      5.823
REMARK INTER + INTRA:          -5.283
REMARK INTER:                  -4.100
REMARK INTRA:                  -1.183
REMARK UNBOUND:                -1.236
REMARK SMILES CCCCCCCCCCCCCC(=O)[O-]
REMARK SMILES IDX 8 1 9 2 10 3 11 4 12 5 13 6 14 7 15 8 16 9 7 10 6 11 5 12
REMARK SMILES IDX 4 13 3 14 2 15 1 16
REMARK H PARENT
REMARK Flexibility Score: inf
ROOT
ATOM      1  C   UNL     1      -3.657  -8.482   4.850  1.00  0.00     0.000 C 
ENDROOT
BRANCH   1   2
ATOM      2  C   UNL     1      -5.058  -8.818   4.324  1.00  0.00     0.000 C 
BRANCH   2   3
ATOM      3  C   UNL     1      -5.425 -10.275   4.627  1.00  0.00     0.000 C 
BRANCH   3   4
ATOM      4  C   UNL     1      -6.411 -10.822   3.588  1.00  0.00     0.000 C 
BRANCH   4   5
ATOM      5  C   UNL     1      -5.811 -10.764   2.175  1.00  0.00     0.006 C 
BRANCH   5   6
ATOM      6  C   UNL     1      -6.703  -9.989   1.197  1.00  0.00     0.053 C 
BRANCH   6   7
ATOM      7  C   UNL     1      -5.933  -8.941   0.455  1.00  0.00     0.041 C 
ATOM      8  O   UNL     1      -4.899  -8.433   0.963  1.00  0.00    -0.550 OA
ATOM      9  O   UNL     1      -6.377  -8.500  -0.785  1.00  0.00    -0.550 OA
ENDBRANCH   6   7
ENDBRANCH   5   6
ENDBRANCH   4   5
ENDBRANCH   3   4
ENDBRANCH   2   3
ENDBRANCH   1   2
BRANCH   1  10
ATOM     10  C   UNL     1      -2.692  -9.657   4.632  1.00  0.00     0.000 C 
BRANCH  10  11
ATOM     11  C   UNL     1      -2.085  -9.673   3.219  1.00  0.00    -0.000 C 
BRANCH  11  12
ATOM     12  C   UNL     1      -0.803  -8.829   3.117  1.00  0.00    -0.000 C 
BRANCH  12  13
ATOM     13  C   UNL     1      -0.029  -8.769   4.444  1.00  0.00    -0.000 C 
BRANCH  13  14
ATOM     14  C   UNL     1       0.396  -7.338   4.819  1.00  0.00    -0.000 C 
BRANCH  14  15
ATOM     15  C   UNL     1      -0.806  -6.398   5.009  1.00  0.00    -0.003 C 
ATOM     16  C   UNL     1      -0.436  -4.926   4.837  1.00  0.00     0.004 C 
ENDBRANCH  14  15
ENDBRANCH  13  14
ENDBRANCH  12  13
ENDBRANCH  11  12
ENDBRANCH  10  11
ENDBRANCH   1  10
TORSDOF 12
ENDMDL
MODEL 3
REMARK VINA RESULT:    -2.369      1.993      5.224
REMARK INTER + INTRA:          -5.266
REMARK INTER:                  -4.385
REMARK INTRA:                  -0.881
REMARK UNBOUND:                -1.236
REMARK SMILES CCCCCCCCCCCCCC(=O)[O-]
REMARK SMILES IDX 8 1 9 2 10 3 11 4 12 5 13 6 14 7 15 8 16 9 7 10 6 11 5 12
REMARK SMILES IDX 4 13 3 14 2 15 1 16
REMARK H PARENT
REMARK Flexibility Score: inf
ROOT
ATOM      1  C   UNL     1      -3.656 -10.556   3.115  1.00  0.00     0.000 C 
ENDROOT
BRANCH   1   2
ATOM      2  C   UNL     1      -4.438 -10.902   1.842  1.00  0.00     0.000 C 
BRANCH   2   3
ATOM      3  C   UNL     1      -5.285  -9.713   1.375  1.00  0.00     0.000 C 
BRANCH   3   4
ATOM      4  C   UNL     1      -6.564  -9.585   2.212  1.00  0.00     0.000 C 
BRANCH   4   5
ATOM      5  C   UNL     1      -6.924  -8.110   2.444  1.00  0.00     0.006 C 
BRANCH   5   6
ATOM      6  C   UNL     1      -6.435  -7.600   3.806  1.00  0.00     0.053 C 
BRANCH   6   7
ATOM      7  C   UNL     1      -5.264  -6.678   3.665  1.00  0.00     0.041 C 
ATOM      8  O   UNL     1      -4.096  -7.140   3.591  1.00  0.00    -0.550 OA
ATOM      9  O   UNL     1      -5.461  -5.303   3.650  1.00  0.00    -0.550 OA
ENDBRANCH   6   7
ENDBRANCH   5   6
ENDBRANCH   4   5
ENDBRANCH   3   4
ENDBRANCH   2   3
ENDBRANCH   1   2
BRANCH   1  10
ATOM     10  C   UNL     1      -2.163 -10.878   2.947  1.00  0.00     0.000 C 
BRANCH  10  11
ATOM     11  C   UNL     1      -1.408 -10.911   4.286  1.00  0.00    -0.000 C 
BRANCH  11  12
ATOM     12  C   UNL     1      -1.118  -9.503   4.835  1.00  0.00    -0.000 C 
BRANCH  12  13
ATOM     13  C   UNL     1      -0.632  -8.534   3.745  1.00  0.00    -0.000 C 
BRANCH  13  14
ATOM     14  C   UNL     1       0.161  -7.346   4.318  1.00  0.00    -0.000 C 
BRANCH  14  15
ATOM     15  C   UNL     1      -0.725  -6.382   5.125  1.00  0.00    -0.003 C 
ATOM     16  C   UNL     1      -0.464  -4.917   4.782  1.00  0.00     0.004 C 
ENDBRANCH  14  15
ENDBRANCH  13  14
ENDBRANCH  12  13
ENDBRANCH  11  12
ENDBRANCH  10  11
ENDBRANCH   1  10
TORSDOF 12
ENDMDL
MODEL 4
REMARK VINA RESULT:    -2.265      1.188      2.017
REMARK INTER + INTRA:          -5.089
REMARK INTER:                  -4.013
REMARK INTRA:                  -1.076
REMARK UNBOUND:                -1.236
REMARK SMILES CCCCCCCCCCCCCC(=O)[O-]
REMARK SMILES IDX 8 1 9 2 10 3 11 4 12 5 13 6 14 7 15 8 16 9 7 10 6 11 5 12
REMARK SMILES IDX 4 13 3 14 2 15 1 16
REMARK H PARENT
REMARK Flexibility Score: inf
ROOT
ATOM      1  C   UNL     1      -2.587 -10.176   2.889  1.00  0.00     0.000 C 
ENDROOT
BRANCH   1   2
ATOM      2  C   UNL     1      -1.347 -11.074   2.819  1.00  0.00     0.000 C 
BRANCH   2   3
ATOM      3  C   UNL     1      -0.101 -10.334   3.319  1.00  0.00     0.000 C 
BRANCH   3   4
ATOM      4  C   UNL     1      -0.262  -9.911   4.784  1.00  0.00     0.000 C 
BRANCH   4   5
ATOM      5  C   UNL     1       0.408  -8.552   5.042  1.00  0.00     0.006 C 
BRANCH   5   6
ATOM      6  C   UNL     1      -0.601  -7.397   5.031  1.00  0.00     0.053 C 
BRANCH   6   7
ATOM      7  C   UNL     1      -0.045  -6.181   4.357  1.00  0.00     0.041 C 
ATOM      8  O   UNL     1      -0.464  -5.035   4.666  1.00  0.00    -0.550 OA
ATOM      9  O   UNL     1       0.915  -6.316   3.362  1.00  0.00    -0.550 OA
ENDBRANCH   6   7
ENDBRANCH   5   6
ENDBRANCH   4   5
ENDBRANCH   3   4
ENDBRANCH   2   3
ENDBRANCH   1   2
BRANCH   1  10
ATOM     10  C   UNL     1      -3.875 -11.012   2.840  1.00  0.00     0.000 C 
BRANCH  10  11
ATOM     11  C   UNL     1      -4.863 -10.519   1.770  1.00  0.00    -0.000 C 
BRANCH  11  12
ATOM     12  C   UNL     1      -5.132  -9.008   1.866  1.00  0.00    -0.000 C 
BRANCH  12  13
ATOM     13  C   UNL     1      -6.378  -8.682   2.704  1.00  0.00    -0.000 C 
BRANCH  13  14
ATOM     14  C   UNL     1      -6.040  -7.935   4.007  1.00  0.00    -0.000 C 
BRANCH  14  15
ATOM     15  C   UNL     1      -4.706  -7.176   3.920  1.00  0.00    -0.003 C 
ATOM     16  C   UNL     1      -4.877  -5.740   3.427  1.00  0.00     0.004 C 
ENDBRANCH  14  15
ENDBRANCH  13  14
ENDBRANCH  12  13
ENDBRANCH  11  12
ENDBRANCH  10  11
ENDBRANCH   1  10
TORSDOF 12
ENDMDL
MODEL 5
REMARK VINA RESULT:    -2.219      2.020      5.141
REMARK INTER + INTRA:          -5.011
REMARK INTER:                  -4.140
REMARK INTRA:                  -0.871
REMARK UNBOUND:                -1.236
REMARK SMILES CCCCCCCCCCCCCC(=O)[O-]
REMARK SMILES IDX 8 1 9 2 10 3 11 4 12 5 13 6 14 7 15 8 16 9 7 10 6 11 5 12
REMARK SMILES IDX 4 13 3 14 2 15 1 16
REMARK H PARENT
REMARK Flexibility Score: inf
ROOT
ATOM      1  C   UNL     1      -4.251 -10.485   2.657  1.00  0.00     0.000 C 
ENDROOT
BRANCH   1   2
ATOM      2  C   UNL     1      -4.795  -9.154   2.124  1.00  0.00     0.000 C 
BRANCH   2   3
ATOM      3  C   UNL     1      -6.325  -9.183   2.027  1.00  0.00     0.000 C 
BRANCH   3   4
ATOM      4  C   UNL     1      -6.962  -9.312   3.417  1.00  0.00     0.000 C 
BRANCH   4   5
ATOM      5  C   UNL     1      -6.460  -8.205   4.357  1.00  0.00     0.006 C 
BRANCH   5   6
ATOM      6  C   UNL     1      -7.061  -6.836   4.014  1.00  0.00     0.053 C 
BRANCH   6   7
ATOM      7  C   UNL     1      -6.007  -5.777   3.916  1.00  0.00     0.041 C 
ATOM      8  O   UNL     1      -6.294  -4.572   4.145  1.00  0.00    -0.550 OA
ATOM      9  O   UNL     1      -4.714  -6.116   3.539  1.00  0.00    -0.550 OA
ENDBRANCH   6   7
ENDBRANCH   5   6
ENDBRANCH   4   5
ENDBRANCH   3   4
ENDBRANCH   2   3
ENDBRANCH   1   2
BRANCH   1  10
ATOM     10  C   UNL     1      -2.745 -10.385   2.948  1.00  0.00     0.000 C 
BRANCH  10  11
ATOM     11  C   UNL     1      -2.437 -10.259   4.449  1.00  0.00    -0.000 C 
BRANCH  11  12
ATOM     12  C   UNL     1      -0.954  -9.959   4.724  1.00  0.00    -0.000 C 
BRANCH  12  13
ATOM     13  C   UNL     1      -0.472  -8.676   4.029  1.00  0.00    -0.000 C 
BRANCH  13  14
ATOM     14  C   UNL     1      -1.155  -7.411   4.578  1.00  0.00    -0.000 C 
BRANCH  14  15
ATOM     15  C   UNL     1      -0.144  -6.330   4.992  1.00  0.00    -0.003 C 
ATOM     16  C   UNL     1      -0.680  -4.914   4.790  1.00  0.00     0.004 C 
ENDBRANCH  14  15
ENDBRANCH  13  14
ENDBRANCH  12  13
ENDBRANCH  11  12
ENDBRANCH  10  11
ENDBRANCH   1  10
TORSDOF 12
ENDMDL
MODEL 6
REMARK VINA RESULT:    -2.105      3.587      6.320
REMARK INTER + INTRA:          -4.818
REMARK INTER:                  -3.877
REMARK INTRA:                  -0.941
REMARK UNBOUND:                -1.236
REMARK SMILES CCCCCCCCCCCCCC(=O)[O-]
REMARK SMILES IDX 8 1 9 2 10 3 11 4 12 5 13 6 14 7 15 8 16 9 7 10 6 11 5 12
REMARK SMILES IDX 4 13 3 14 2 15 1 16
REMARK H PARENT
REMARK Flexibility Score: inf
ROOT
ATOM      1  C   UNL     1      -1.588 -10.913   2.904  1.00  0.00     0.000 C 
ENDROOT
BRANCH   1   2
ATOM      2  C   UNL     1      -2.474 -10.162   3.907  1.00  0.00     0.000 C 
BRANCH   2   3
ATOM      3  C   UNL     1      -3.918 -10.064   3.400  1.00  0.00     0.000 C 
BRANCH   3   4
ATOM      4  C   UNL     1      -4.450  -8.632   3.529  1.00  0.00     0.000 C 
BRANCH   4   5
ATOM      5  C   UNL     1      -4.890  -8.083   2.164  1.00  0.00     0.006 C 
BRANCH   5   6
ATOM      6  C   UNL     1      -6.305  -8.538   1.783  1.00  0.00     0.053 C 
BRANCH   6   7
ATOM      7  C   UNL     1      -6.294  -9.444   0.591  1.00  0.00     0.041 C 
ATOM      8  O   UNL     1      -6.098 -10.679   0.733  1.00  0.00    -0.550 OA
ATOM      9  O   UNL     1      -6.468  -8.918  -0.683  1.00  0.00    -0.550 OA
ENDBRANCH   6   7
ENDBRANCH   5   6
ENDBRANCH   4   5
ENDBRANCH   3   4
ENDBRANCH   2   3
ENDBRANCH   1   2
BRANCH   1  10
ATOM     10  C   UNL     1      -0.110 -10.845   3.320  1.00  0.00     0.000 C 
BRANCH  10  11
ATOM     11  C   UNL     1       0.078 -10.362   4.768  1.00  0.00    -0.000 C 
BRANCH  11  12
ATOM     12  C   UNL     1       1.407  -9.614   4.972  1.00  0.00    -0.000 C 
BRANCH  12  13
ATOM     13  C   UNL     1       1.213  -8.098   5.125  1.00  0.00    -0.000 C 
BRANCH  13  14
ATOM     14  C   UNL     1       0.126  -7.540   4.188  1.00  0.00    -0.000 C 
BRANCH  14  15
ATOM     15  C   UNL     1      -0.931  -6.715   4.940  1.00  0.00    -0.003 C 
ATOM     16  C   UNL     1      -0.751  -5.211   4.747  1.00  0.00     0.004 C 
ENDBRANCH  14  15
ENDBRANCH  13  14
ENDBRANCH  12  13
ENDBRANCH  11  12
ENDBRANCH  10  11
ENDBRANCH   1  10
TORSDOF 12
ENDMDL
MODEL 7
REMARK VINA RESULT:    -2.072      1.725      2.906
REMARK INTER + INTRA:          -4.761
REMARK INTER:                  -3.619
REMARK INTRA:                  -1.142
REMARK UNBOUND:                -1.236
REMARK SMILES CCCCCCCCCCCCCC(=O)[O-]
REMARK SMILES IDX 8 1 9 2 10 3 11 4 12 5 13 6 14 7 15 8 16 9 7 10 6 11 5 12
REMARK SMILES IDX 4 13 3 14 2 15 1 16
REMARK H PARENT
REMARK Flexibility Score: inf
ROOT
ATOM      1  C   UNL     1      -2.645 -10.018   3.128  1.00  0.00     0.000 C 
ENDROOT
BRANCH   1   2
ATOM      2  C   UNL     1      -1.504 -11.038   3.226  1.00  0.00     0.000 C 
BRANCH   2   3
ATOM      3  C   UNL     1      -0.153 -10.338   3.416  1.00  0.00     0.000 C 
BRANCH   3   4
ATOM      4  C   UNL     1       0.130 -10.081   4.901  1.00  0.00     0.000 C 
BRANCH   4   5
ATOM      5  C   UNL     1       0.634  -8.647   5.125  1.00  0.00     0.006 C 
BRANCH   5   6
ATOM      6  C   UNL     1      -0.509  -7.623   5.125  1.00  0.00     0.053 C 
BRANCH   6   7
ATOM      7  C   UNL     1      -0.106  -6.343   4.462  1.00  0.00     0.041 C 
ATOM      8  O   UNL     1       0.864  -6.320   3.661  1.00  0.00    -0.550 OA
ATOM      9  O   UNL     1      -0.783  -5.166   4.757  1.00  0.00    -0.550 OA
ENDBRANCH   6   7
ENDBRANCH   5   6
ENDBRANCH   4   5
ENDBRANCH   3   4
ENDBRANCH   2   3
ENDBRANCH   1   2
BRANCH   1  10
ATOM     10  C   UNL     1      -3.443  -9.959   4.440  1.00  0.00     0.000 C 
BRANCH  10  11
ATOM     11  C   UNL     1      -4.685 -10.865   4.421  1.00  0.00    -0.000 C 
BRANCH  11  12
ATOM     12  C   UNL     1      -5.786 -10.338   3.484  1.00  0.00    -0.000 C 
BRANCH  12  13
ATOM     13  C   UNL     1      -6.158  -8.876   3.775  1.00  0.00    -0.000 C 
BRANCH  13  14
ATOM     14  C   UNL     1      -6.715  -8.147   2.538  1.00  0.00    -0.000 C 
BRANCH  14  15
ATOM     15  C   UNL     1      -6.509  -8.948   1.242  1.00  0.00    -0.003 C 
ATOM     16  C   UNL     1      -5.255  -8.523   0.481  1.00  0.00     0.004 C 
ENDBRANCH  14  15
ENDBRANCH  13  14
ENDBRANCH  12  13
ENDBRANCH  11  12
ENDBRANCH  10  11
ENDBRANCH   1  10
TORSDOF 12
ENDMDL
MODEL 8
REMARK VINA RESULT:    -0.499      1.550      3.036
REMARK INTER + INTRA:          -2.085
REMARK INTER:                  -0.778
REMARK INTRA:                  -1.307
REMARK UNBOUND:                -1.236
REMARK SMILES CCCCCCCCCCCCCC(=O)[O-]
REMARK SMILES IDX 8 1 9 2 10 3 11 4 12 5 13 6 14 7 15 8 16 9 7 10 6 11 5 12
REMARK SMILES IDX 4 13 3 14 2 15 1 16
REMARK H PARENT
REMARK Flexibility Score: inf
ROOT
ATOM      1  C   UNL     1      -4.135  -7.730   3.636  1.00  0.00     0.000 C 
ENDROOT
BRANCH   1   2
ATOM      2  C   UNL     1      -3.741  -8.424   4.946  1.00  0.00     0.000 C 
BRANCH   2   3
ATOM      3  C   UNL     1      -2.610  -9.432   4.717  1.00  0.00     0.000 C 
BRANCH   3   4
ATOM      4  C   UNL     1      -2.170  -9.442   3.247  1.00  0.00     0.000 C 
BRANCH   4   5
ATOM      5  C   UNL     1      -0.738  -8.908   3.098  1.00  0.00     0.006 C 
BRANCH   5   6
ATOM      6  C   UNL     1      -0.176  -8.376   4.423  1.00  0.00     0.053 C 
BRANCH   6   7
ATOM      7  C   UNL     1      -0.018  -6.887   4.400  1.00  0.00     0.041 C 
ATOM      8  O   UNL     1      -0.745  -6.160   5.125  1.00  0.00    -0.550 OA
ATOM      9  O   UNL     1       0.912  -6.300   3.550  1.00  0.00    -0.550 OA
ENDBRANCH   6   7
ENDBRANCH   5   6
ENDBRANCH   4   5
ENDBRANCH   3   4
ENDBRANCH   2   3
ENDBRANCH   1   2
BRANCH   1  10
ATOM     10  C   UNL     1      -5.660  -7.731   3.451  1.00  0.00     0.000 C 
BRANCH  10  11
ATOM     11  C   UNL     1      -6.364  -8.782   4.325  1.00  0.00    -0.000 C 
BRANCH  11  12
ATOM     12  C   UNL     1      -6.481 -10.148   3.626  1.00  0.00    -0.000 C 
BRANCH  12  13
ATOM     13  C   UNL     1      -6.956 -10.026   2.169  1.00  0.00    -0.000 C 
BRANCH  13  14
ATOM     14  C   UNL     1      -6.174 -10.943   1.211  1.00  0.00    -0.000 C 
BRANCH  14  15
ATOM     15  C   UNL     1      -5.940 -10.294  -0.163  1.00  0.00    -0.003 C 
ATOM     16  C   UNL     1      -5.617  -8.805  -0.064  1.00  0.00     0.004 C 
ENDBRANCH  14  15
ENDBRANCH  13  14
ENDBRANCH  12  13
ENDBRANCH  11  12
ENDBRANCH  10  11
ENDBRANCH   1  10
TORSDOF 12
ENDMDL
