MODEL 1
REMARK VINA RESULT:    -3.833      0.000      0.000
REMARK INTER + INTRA:          -7.534
REMARK INTER:                  -6.073
REMARK INTRA:                  -1.461
REMARK UNBOUND:                -1.461
REMARK SMILES CCCCCCCCCCCC(=O)[O-]
REMARK SMILES IDX 7 1 8 2 9 3 10 4 11 5 12 6 13 7 14 8 6 9 5 10 4 11 3 12 2 13
REMARK SMILES IDX 1 14
REMARK H PARENT
REMARK Flexibility Score: inf
ROOT
ATOM      1  C   UNL     1      28.758   3.211   9.557  1.00  0.00     0.000 C 
ENDROOT
BRANCH   1   2
ATOM      2  C   UNL     1      27.861   3.731  10.694  1.00  0.00     0.000 C 
BRANCH   2   3
ATOM      3  C   UNL     1      26.968   4.909  10.262  1.00  0.00     0.000 C 
BRANCH   3   4
ATOM      4  C   UNL     1      27.177   5.391   8.815  1.00  0.00     0.006 C 
BRANCH   4   5
ATOM      5  C   UNL     1      26.036   6.286   8.311  1.00  0.00     0.053 C 
BRANCH   5   6
ATOM      6  C   UNL     1      26.489   7.709   8.225  1.00  0.00     0.041 C 
ATOM      7  O   UNL     1      25.925   8.596   8.917  1.00  0.00    -0.550 OA
ATOM      8  O   UNL     1      27.566   8.047   7.416  1.00  0.00    -0.550 OA
ENDBRANCH   5   6
ENDBRANCH   4   5
ENDBRANCH   3   4
ENDBRANCH   2   3
ENDBRANCH   1   2
BRANCH   1   9
ATOM      9  C   UNL     1      28.781   1.675   9.479  1.00  0.00     0.000 C 
BRANCH   9  10
ATOM     10  C   UNL     1      28.441   1.146   8.076  1.00  0.00    -0.000 C 
BRANCH  10  11
ATOM     11  C   UNL     1      28.230   2.273   7.050  1.00  0.00    -0.000 C 
BRANCH  11  12
ATOM     12  C   UNL     1      26.765   2.422   6.588  1.00  0.00    -0.000 C 
BRANCH  12  13
ATOM     13  C   UNL     1      25.803   1.556   7.414  1.00  0.00    -0.003 C 
ATOM     14  C   UNL     1      24.953   2.413   8.347  1.00  0.00     0.004 C 
ENDBRANCH  12  13
ENDBRANCH  11  12
ENDBRANCH  10  11
ENDBRANCH   9  10
ENDBRANCH   1   9
TORSDOF 10
ENDMDL
MODEL 2
REMARK VINA RESULT:    -3.664     10.341     11.905
REMARK INTER + INTRA:          -7.267
REMARK INTER:                  -5.991
REMARK INTRA:                  -1.276
REMARK UNBOUND:                -1.461
REMARK SMILES CCCCCCCCCCCC(=O)[O-]
REMARK SMILES IDX 7 1 8 2 9 3 10 4 11 5 12 6 13 7 14 8 6 9 5 10 4 11 3 12 2 13
REMARK SMILES IDX 1 14
REMARK H PARENT
REMARK Flexibility Score: inf
ROOT
ATOM      1  C   UNL     1      22.540   0.519  17.964  1.00  0.00     0.000 C 
ENDROOT
BRANCH   1   2
ATOM      2  C   UNL     1      21.950  -0.803  17.443  1.00  0.00     0.000 C 
BRANCH   2   3
ATOM      3  C   UNL     1      22.262  -1.054  15.956  1.00  0.00     0.000 C 
BRANCH   3   4
ATOM      4  C   UNL     1      23.631  -1.700  15.675  1.00  0.00     0.006 C 
BRANCH   4   5
ATOM      5  C   UNL     1      24.053  -2.704  16.756  1.00  0.00     0.053 C 
BRANCH   5   6
ATOM      6  C   UNL     1      23.672  -4.094  16.354  1.00  0.00     0.041 C 
ATOM      7  O   UNL     1      24.561  -4.927  16.035  1.00  0.00    -0.550 OA
ATOM      8  O   UNL     1      22.340  -4.485  16.380  1.00  0.00    -0.550 OA
ENDBRANCH   5   6
ENDBRANCH   4   5
ENDBRANCH   3   4
ENDBRANCH   2   3
ENDBRANCH   1   2
BRANCH   1   9
ATOM      9  C   UNL     1      23.673   0.298  18.980  1.00  0.00     0.000 C 
BRANCH   9  10
ATOM     10  C   UNL     1      25.063   0.601  18.395  1.00  0.00    -0.000 C 
BRANCH  10  11
ATOM     11  C   UNL     1      25.007   1.560  17.193  1.00  0.00    -0.000 C 
BRANCH  11  12
ATOM     12  C   UNL     1      25.388   3.014  17.544  1.00  0.00    -0.000 C 
BRANCH  12  13
ATOM     13  C   UNL     1      24.183   3.964  17.482  1.00  0.00    -0.003 C 
ATOM     14  C   UNL     1      23.474   4.044  18.831  1.00  0.00     0.004 C 
ENDBRANCH  12  13
ENDBRANCH  11  12
ENDBRANCH  10  11
ENDBRANCH   9  10
ENDBRANCH   1   9
TORSDOF 10
ENDMDL
MODEL 3
REMARK VINA RESULT:    -3.603      1.358      2.088
REMARK INTER + INTRA:          -7.171
REMARK INTER:                  -6.237
REMARK INTRA:                  -0.934
REMARK UNBOUND:                -1.461
REMARK SMILES CCCCCCCCCCCC(=O)[O-]
REMARK SMILES IDX 7 1 8 2 9 3 10 4 11 5 12 6 13 7 14 8 6 9 5 10 4 11 3 12 2 13
REMARK SMILES IDX 1 14
REMARK H PARENT
REMARK Flexibility Score: inf
ROOT
ATOM      1  C   UNL     1      27.890   3.709  10.307  1.00  0.00     0.000 C 
ENDROOT
BRANCH   1   2
ATOM      2  C   UNL     1      26.397   4.081  10.340  1.00  0.00     0.000 C 
BRANCH   2   3
ATOM      3  C   UNL     1      26.158   5.602  10.330  1.00  0.00     0.000 C 
BRANCH   3   4
ATOM      4  C   UNL     1      25.241   6.112   9.204  1.00  0.00     0.006 C 
BRANCH   4   5
ATOM      5  C   UNL     1      26.009   6.493   7.931  1.00  0.00     0.053 C 
BRANCH   5   6
ATOM      6  C   UNL     1      26.605   7.858   8.070  1.00  0.00     0.041 C 
ATOM      7  O   UNL     1      27.637   8.168   7.419  1.00  0.00    -0.550 OA
ATOM      8  O   UNL     1      25.991   8.805   8.881  1.00  0.00    -0.550 OA
ENDBRANCH   5   6
ENDBRANCH   4   5
ENDBRANCH   3   4
ENDBRANCH   2   3
ENDBRANCH   1   2
BRANCH   1   9
ATOM      9  C   UNL     1      28.485   3.782   8.891  1.00  0.00     0.000 C 
BRANCH   9  10
ATOM     10  C   UNL     1      27.653   3.002   7.858  1.00  0.00    -0.000 C 
BRANCH  10  11
ATOM     11  C   UNL     1      28.486   1.967   7.082  1.00  0.00    -0.000 C 
BRANCH  11  12
ATOM     12  C   UNL     1      28.910   0.751   7.933  1.00  0.00    -0.000 C 
BRANCH  12  13
ATOM     13  C   UNL     1      27.703  -0.036   8.466  1.00  0.00    -0.003 C 
ATOM     14  C   UNL     1      26.972  -0.754   7.337  1.00  0.00     0.004 C 
ENDBRANCH  12  13
ENDBRANCH  11  12
ENDBRANCH  10  11
ENDBRANCH   9  10
ENDBRANCH   1   9
TORSDOF 10
ENDMDL
MODEL 4
REMARK VINA RESULT:    -3.603      4.257      6.204
REMARK INTER + INTRA:          -7.170
REMARK INTER:                  -5.675
REMARK INTRA:                  -1.495
REMARK UNBOUND:                -1.461
REMARK SMILES CCCCCCCCCCCC(=O)[O-]
REMARK SMILES IDX 7 1 8 2 9 3 10 4 11 5 12 6 13 7 14 8 6 9 5 10 4 11 3 12 2 13
REMARK SMILES IDX 1 14
REMARK H PARENT
REMARK Flexibility Score: inf
ROOT
ATOM      1  C   UNL     1      25.910   2.069   7.768  1.00  0.00     0.000 C 
ENDROOT
BRANCH   1   2
ATOM      2  C   UNL     1      25.286   1.240   6.632  1.00  0.00     0.000 C 
BRANCH   2   3
ATOM      3  C   UNL     1      25.827  -0.201   6.573  1.00  0.00     0.000 C 
BRANCH   3   4
ATOM      4  C   UNL     1      26.902  -0.452   5.499  1.00  0.00     0.006 C 
BRANCH   4   5
ATOM      5  C   UNL     1      26.948   0.647   4.429  1.00  0.00     0.053 C 
BRANCH   5   6
ATOM      6  C   UNL     1      26.202   0.216   3.206  1.00  0.00     0.041 C 
ATOM      7  O   UNL     1      25.032   0.633   2.997  1.00  0.00    -0.550 OA
ATOM      8  O   UNL     1      26.817  -0.607   2.271  1.00  0.00    -0.550 OA
ENDBRANCH   5   6
ENDBRANCH   4   5
ENDBRANCH   3   4
ENDBRANCH   2   3
ENDBRANCH   1   2
BRANCH   1   9
ATOM      9  C   UNL     1      27.036   2.992   7.273  1.00  0.00     0.000 C 
BRANCH   9  10
ATOM     10  C   UNL     1      28.436   2.463   7.625  1.00  0.00    -0.000 C 
BRANCH  10  11
ATOM     11  C   UNL     1      28.429   1.522   8.842  1.00  0.00    -0.000 C 
BRANCH  11  12
ATOM     12  C   UNL     1      28.991   0.116   8.541  1.00  0.00    -0.000 C 
BRANCH  12  13
ATOM     13  C   UNL     1      28.379  -0.963   9.447  1.00  0.00    -0.003 C 
ATOM     14  C   UNL     1      28.321  -2.311   8.736  1.00  0.00     0.004 C 
ENDBRANCH  12  13
ENDBRANCH  11  12
ENDBRANCH  10  11
ENDBRANCH   9  10
ENDBRANCH   1   9
TORSDOF 10
ENDMDL
MODEL 5
REMARK VINA RESULT:    -3.593      1.539      2.786
REMARK INTER + INTRA:          -7.154
REMARK INTER:                  -6.129
REMARK INTRA:                  -1.025
REMARK UNBOUND:                -1.461
REMARK SMILES CCCCCCCCCCCC(=O)[O-]
REMARK SMILES IDX 7 1 8 2 9 3 10 4 11 5 12 6 13 7 14 8 6 9 5 10 4 11 3 12 2 13
REMARK SMILES IDX 1 14
REMARK H PARENT
REMARK Flexibility Score: inf
ROOT
ATOM      1  C   UNL     1      27.939   3.254   7.768  1.00  0.00     0.000 C 
ENDROOT
BRANCH   1   2
ATOM      2  C   UNL     1      28.798   3.459   9.029  1.00  0.00     0.000 C 
BRANCH   2   3
ATOM      3  C   UNL     1      27.955   3.686  10.298  1.00  0.00     0.000 C 
BRANCH   3   4
ATOM      4  C   UNL     1      26.507   4.146  10.047  1.00  0.00     0.006 C 
BRANCH   4   5
ATOM      5  C   UNL     1      26.282   5.627  10.383  1.00  0.00     0.053 C 
BRANCH   5   6
ATOM      6  C   UNL     1      26.163   6.434   9.130  1.00  0.00     0.041 C 
ATOM      7  O   UNL     1      27.152   6.562   8.361  1.00  0.00    -0.550 OA
ATOM      8  O   UNL     1      24.944   7.004   8.784  1.00  0.00    -0.550 OA
ENDBRANCH   5   6
ENDBRANCH   4   5
ENDBRANCH   3   4
ENDBRANCH   2   3
ENDBRANCH   1   2
BRANCH   1   9
ATOM      9  C   UNL     1      28.461   2.113   6.879  1.00  0.00     0.000 C 
BRANCH   9  10
ATOM     10  C   UNL     1      27.329   1.255   6.290  1.00  0.00    -0.000 C 
BRANCH  10  11
ATOM     11  C   UNL     1      27.035  -0.001   7.129  1.00  0.00    -0.000 C 
BRANCH  11  12
ATOM     12  C   UNL     1      28.284  -0.864   7.408  1.00  0.00    -0.000 C 
BRANCH  12  13
ATOM     13  C   UNL     1      28.377  -1.295   8.880  1.00  0.00    -0.003 C 
ATOM     14  C   UNL     1      28.789  -0.127   9.771  1.00  0.00     0.004 C 
ENDBRANCH  12  13
ENDBRANCH  11  12
ENDBRANCH  10  11
ENDBRANCH   9  10
ENDBRANCH   1   9
TORSDOF 10
ENDMDL
MODEL 6
REMARK VINA RESULT:    -3.584      4.219      6.095
REMARK INTER + INTRA:          -7.140
REMARK INTER:                  -5.989
REMARK INTRA:                  -1.151
REMARK UNBOUND:                -1.461
REMARK SMILES CCCCCCCCCCCC(=O)[O-]
REMARK SMILES IDX 7 1 8 2 9 3 10 4 11 5 12 6 13 7 14 8 6 9 5 10 4 11 3 12 2 13
REMARK SMILES IDX 1 14
REMARK H PARENT
REMARK Flexibility Score: inf
ROOT
ATOM      1  C   UNL     1      28.690   3.808   8.873  1.00  0.00     0.000 C 
ENDROOT
BRANCH   1   2
ATOM      2  C   UNL     1      28.459   2.657   7.879  1.00  0.00     0.000 C 
BRANCH   2   3
ATOM      3  C   UNL     1      27.618   1.511   8.473  1.00  0.00     0.000 C 
BRANCH   3   4
ATOM      4  C   UNL     1      28.415   0.256   8.874  1.00  0.00     0.006 C 
BRANCH   4   5
ATOM      5  C   UNL     1      28.868  -0.577   7.668  1.00  0.00     0.053 C 
BRANCH   5   6
ATOM      6  C   UNL     1      28.107  -1.863   7.607  1.00  0.00     0.041 C 
ATOM      7  O   UNL     1      27.030  -1.933   6.958  1.00  0.00    -0.550 OA
ATOM      8  O   UNL     1      28.614  -3.000   8.224  1.00  0.00    -0.550 OA
ENDBRANCH   5   6
ENDBRANCH   4   5
ENDBRANCH   3   4
ENDBRANCH   2   3
ENDBRANCH   1   2
BRANCH   1   9
ATOM      9  C   UNL     1      27.791   3.703  10.117  1.00  0.00     0.000 C 
BRANCH   9  10
ATOM     10  C   UNL     1      26.881   4.929  10.297  1.00  0.00    -0.000 C 
BRANCH  10  11
ATOM     11  C   UNL     1      26.845   5.832   9.051  1.00  0.00    -0.000 C 
BRANCH  11  12
ATOM     12  C   UNL     1      25.521   5.742   8.262  1.00  0.00    -0.000 C 
BRANCH  12  13
ATOM     13  C   UNL     1      25.692   5.012   6.920  1.00  0.00    -0.003 C 
ATOM     14  C   UNL     1      24.973   3.667   6.930  1.00  0.00     0.004 C 
ENDBRANCH  12  13
ENDBRANCH  11  12
ENDBRANCH  10  11
ENDBRANCH   9  10
ENDBRANCH   1   9
TORSDOF 10
ENDMDL
MODEL 7
REMARK VINA RESULT:    -3.575     10.390     11.906
REMARK INTER + INTRA:          -7.125
REMARK INTER:                  -5.861
REMARK INTRA:                  -1.264
REMARK UNBOUND:                -1.461
REMARK SMILES CCCCCCCCCCCC(=O)[O-]
REMARK SMILES IDX 7 1 8 2 9 3 10 4 11 5 12 6 13 7 14 8 6 9 5 10 4 11 3 12 2 13
REMARK SMILES IDX 1 14
REMARK H PARENT
REMARK Flexibility Score: inf
ROOT
ATOM      1  C   UNL     1      24.993   1.405  17.138  1.00  0.00     0.000 C 
ENDROOT
BRANCH   1   2
ATOM      2  C   UNL     1      25.379   0.374  18.213  1.00  0.00     0.000 C 
BRANCH   2   3
ATOM      3  C   UNL     1      24.761  -1.014  17.962  1.00  0.00     0.000 C 
BRANCH   3   4
ATOM      4  C   UNL     1      23.556  -1.029  17.003  1.00  0.00     0.006 C 
BRANCH   4   5
ATOM      5  C   UNL     1      23.707  -2.051  15.868  1.00  0.00     0.053 C 
BRANCH   5   6
ATOM      6  C   UNL     1      23.359  -3.423  16.351  1.00  0.00     0.041 C 
ATOM      7  O   UNL     1      24.251  -4.307  16.443  1.00  0.00    -0.550 OA
ATOM      8  O   UNL     1      22.060  -3.712  16.748  1.00  0.00    -0.550 OA
ENDBRANCH   5   6
ENDBRANCH   4   5
ENDBRANCH   3   4
ENDBRANCH   2   3
ENDBRANCH   1   2
BRANCH   1   9
ATOM      9  C   UNL     1      25.374   2.841  17.535  1.00  0.00     0.000 C 
BRANCH   9  10
ATOM     10  C   UNL     1      24.161   3.785  17.588  1.00  0.00    -0.000 C 
BRANCH  10  11
ATOM     11  C   UNL     1      23.174   3.424  18.712  1.00  0.00    -0.000 C 
BRANCH  11  12
ATOM     12  C   UNL     1      21.776   3.015  18.200  1.00  0.00    -0.000 C 
BRANCH  12  13
ATOM     13  C   UNL     1      21.413   1.574  18.588  1.00  0.00    -0.003 C 
ATOM     14  C   UNL     1      22.187   1.123  19.822  1.00  0.00     0.004 C 
ENDBRANCH  12  13
ENDBRANCH  11  12
ENDBRANCH  10  11
ENDBRANCH   9  10
ENDBRANCH   1   9
TORSDOF 10
ENDMDL
MODEL 8
REMARK VINA RESULT:    -3.567      9.141     10.446
REMARK INTER + INTRA:          -7.113
REMARK INTER:                  -5.779
REMARK INTRA:                  -1.335
REMARK UNBOUND:                -1.461
REMARK SMILES CCCCCCCCCCCC(=O)[O-]
REMARK SMILES IDX 7 1 8 2 9 3 10 4 11 5 12 6 13 7 14 8 6 9 5 10 4 11 3 12 2 13
REMARK SMILES IDX 1 14
REMARK H PARENT
REMARK Flexibility Score: inf
ROOT
ATOM      1  C   UNL     1      25.298   1.448  17.176  1.00  0.00     0.000 C 
ENDROOT
BRANCH   1   2
ATOM      2  C   UNL     1      24.985   2.947  17.322  1.00  0.00     0.000 C 
BRANCH   2   3
ATOM      3  C   UNL     1      24.557   3.334  18.750  1.00  0.00     0.000 C 
BRANCH   3   4
ATOM      4  C   UNL     1      23.396   4.342  18.835  1.00  0.00     0.006 C 
BRANCH   4   5
ATOM      5  C   UNL     1      22.831   4.721  17.459  1.00  0.00     0.053 C 
BRANCH   5   6
ATOM      6  C   UNL     1      23.059   6.173  17.183  1.00  0.00     0.041 C 
ATOM      7  O   UNL     1      22.549   7.048  17.930  1.00  0.00    -0.550 OA
ATOM      8  O   UNL     1      23.878   6.560  16.129  1.00  0.00    -0.550 OA
ENDBRANCH   5   6
ENDBRANCH   4   5
ENDBRANCH   3   4
ENDBRANCH   2   3
ENDBRANCH   1   2
BRANCH   1   9
ATOM      9  C   UNL     1      25.200   0.692  18.512  1.00  0.00     0.000 C 
BRANCH   9  10
ATOM     10  C   UNL     1      24.349  -0.584  18.411  1.00  0.00    -0.000 C 
BRANCH  10  11
ATOM     11  C   UNL     1      23.124  -0.413  17.496  1.00  0.00    -0.000 C 
BRANCH  11  12
ATOM     12  C   UNL     1      21.797  -0.240  18.265  1.00  0.00    -0.000 C 
BRANCH  12  13
ATOM     13  C   UNL     1      21.485   1.234  18.566  1.00  0.00    -0.003 C 
ATOM     14  C   UNL     1      21.007   1.414  20.003  1.00  0.00     0.004 C 
ENDBRANCH  12  13
ENDBRANCH  11  12
ENDBRANCH  10  11
ENDBRANCH   9  10
ENDBRANCH   1   9
TORSDOF 10
ENDMDL
MODEL 9
REMARK VINA RESULT:    -3.564      3.474      5.023
REMARK INTER + INTRA:          -7.108
REMARK INTER:                  -5.612
REMARK INTRA:                  -1.496
REMARK UNBOUND:                -1.461
REMARK SMILES CCCCCCCCCCCC(=O)[O-]
REMARK SMILES IDX 7 1 8 2 9 3 10 4 11 5 12 6 13 7 14 8 6 9 5 10 4 11 3 12 2 13
REMARK SMILES IDX 1 14
REMARK H PARENT
REMARK Flexibility Score: inf
ROOT
ATOM      1  C   UNL     1      26.895   5.148  10.220  1.00  0.00     0.000 C 
ENDROOT
BRANCH   1   2
ATOM      2  C   UNL     1      27.563   3.771  10.056  1.00  0.00     0.000 C 
BRANCH   2   3
ATOM      3  C   UNL     1      28.589   3.735   8.907  1.00  0.00     0.000 C 
BRANCH   3   4
ATOM      4  C   UNL     1      28.417   2.571   7.914  1.00  0.00     0.006 C 
BRANCH   4   5
ATOM      5  C   UNL     1      27.619   1.398   8.498  1.00  0.00     0.053 C 
BRANCH   5   6
ATOM      6  C   UNL     1      28.539   0.288   8.897  1.00  0.00     0.041 C 
ATOM      7  O   UNL     1      29.125   0.321  10.011  1.00  0.00    -0.550 OA
ATOM      8  O   UNL     1      28.710  -0.807   8.061  1.00  0.00    -0.550 OA
ENDBRANCH   5   6
ENDBRANCH   4   5
ENDBRANCH   3   4
ENDBRANCH   2   3
ENDBRANCH   1   2
BRANCH   1   9
ATOM      9  C   UNL     1      26.788   5.912   8.889  1.00  0.00     0.000 C 
BRANCH   9  10
ATOM     10  C   UNL     1      25.438   5.694   8.187  1.00  0.00    -0.000 C 
BRANCH  10  11
ATOM     11  C   UNL     1      25.527   4.693   7.022  1.00  0.00    -0.000 C 
BRANCH  11  12
ATOM     12  C   UNL     1      24.488   3.554   7.105  1.00  0.00    -0.000 C 
BRANCH  12  13
ATOM     13  C   UNL     1      24.285   3.054   8.543  1.00  0.00    -0.003 C 
ATOM     14  C   UNL     1      22.806   2.828   8.844  1.00  0.00     0.004 C 
ENDBRANCH  12  13
ENDBRANCH  11  12
ENDBRANCH  10  11
ENDBRANCH   9  10
ENDBRANCH   1   9
TORSDOF 10
ENDMDL
