MODEL 1
REMARK VINA RESULT:    -6.412      0.000      0.000
REMARK INTER + INTRA:         -16.432
REMARK INTER:                 -14.659
REMARK INTRA:                  -1.773
REMARK UNBOUND:                -1.773
REMARK SMILES CCCCCCCCCCCCCCCCCCCCCCCC(=O)[O-]
REMARK SMILES IDX 13 1 14 2 15 3 16 4 17 5 18 6 19 7 20 8 21 9 22 10 23 11
REMARK SMILES IDX 24 12 25 13 26 14 12 15 11 16 10 17 9 18 8 19 7 20 6 21 5 22
REMARK SMILES IDX 4 23 3 24 2 25 1 26
REMARK H PARENT
REMARK Flexibility Score: inf
ROOT
ATOM      1  C   UNL     1      87.251 319.803 200.967  1.00  0.00     0.000 C 
ENDROOT
BRANCH   1   2
ATOM      2  C   UNL     1      87.585 320.511 199.643  1.00  0.00     0.000 C 
BRANCH   2   3
ATOM      3  C   UNL     1      87.256 319.657 198.408  1.00  0.00     0.000 C 
BRANCH   3   4
ATOM      4  C   UNL     1      86.589 320.473 197.283  1.00  0.00     0.000 C 
BRANCH   4   5
ATOM      5  C   UNL     1      87.429 320.577 195.994  1.00  0.00     0.000 C 
BRANCH   5   6
ATOM      6  C   UNL     1      86.605 320.891 194.728  1.00  0.00     0.000 C 
BRANCH   6   7
ATOM      7  C   UNL     1      85.100 320.598 194.890  1.00  0.00     0.000 C 
BRANCH   7   8
ATOM      8  C   UNL     1      84.543 319.661 193.803  1.00  0.00     0.000 C 
BRANCH   8   9
ATOM      9  C   UNL     1      85.513 318.513 193.470  1.00  0.00     0.000 C 
BRANCH   9  10
ATOM     10  C   UNL     1      86.143 318.657 192.069  1.00  0.00     0.006 C 
BRANCH  10  11
ATOM     11  C   UNL     1      85.650 317.608 191.062  1.00  0.00     0.053 C 
BRANCH  11  12
ATOM     12  C   UNL     1      86.763 317.047 190.233  1.00  0.00     0.041 C 
ATOM     13  O   UNL     1      87.429 316.061 190.647  1.00  0.00    -0.550 OA
ATOM     14  O   UNL     1      87.055 317.603 188.994  1.00  0.00    -0.550 OA
ENDBRANCH  11  12
ENDBRANCH  10  11
ENDBRANCH   9  10
ENDBRANCH   8   9
ENDBRANCH   7   8
ENDBRANCH   6   7
ENDBRANCH   5   6
ENDBRANCH   4   5
ENDBRANCH   3   4
ENDBRANCH   2   3
ENDBRANCH   1   2
BRANCH   1  15
ATOM     15  C   UNL     1      87.392 320.709 202.209  1.00  0.00     0.000 C 
BRANCH  15  16
ATOM     16  C   UNL     1      88.859 320.986 202.568  1.00  0.00     0.000 C 
BRANCH  16  17
ATOM     17  C   UNL     1      88.980 321.546 203.992  1.00  0.00     0.000 C 
BRANCH  17  18
ATOM     18  C   UNL     1      87.697 321.289 204.796  1.00  0.00    -0.000 C 
BRANCH  18  19
ATOM     19  C   UNL     1      87.948 320.445 206.056  1.00  0.00    -0.000 C 
BRANCH  19  20
ATOM     20  C   UNL     1      86.848 320.615 207.116  1.00  0.00    -0.000 C 
BRANCH  20  21
ATOM     21  C   UNL     1      85.573 319.865 206.705  1.00  0.00    -0.000 C 
BRANCH  21  22
ATOM     22  C   UNL     1      85.831 318.387 206.370  1.00  0.00    -0.000 C 
BRANCH  22  23
ATOM     23  C   UNL     1      84.926 317.871 205.238  1.00  0.00    -0.000 C 
BRANCH  23  24
ATOM     24  C   UNL     1      85.574 318.017 203.853  1.00  0.00    -0.000 C 
BRANCH  24  25
ATOM     25  C   UNL     1      84.545 318.016 202.713  1.00  0.00    -0.003 C 
ATOM     26  C   UNL     1      84.852 316.921 201.695  1.00  0.00     0.004 C 
ENDBRANCH  24  25
ENDBRANCH  23  24
ENDBRANCH  22  23
ENDBRANCH  21  22
ENDBRANCH  20  21
ENDBRANCH  19  20
ENDBRANCH  18  19
ENDBRANCH  17  18
ENDBRANCH  16  17
ENDBRANCH  15  16
ENDBRANCH   1  15
TORSDOF 22
ENDMDL
MODEL 2
REMARK VINA RESULT:    -6.373      1.875      2.260
REMARK INTER + INTRA:         -16.341
REMARK INTER:                 -13.925
REMARK INTRA:                  -2.417
REMARK UNBOUND:                -1.773
REMARK SMILES CCCCCCCCCCCCCCCCCCCCCCCC(=O)[O-]
REMARK SMILES IDX 13 1 14 2 15 3 16 4 17 5 18 6 19 7 20 8 21 9 22 10 23 11
REMARK SMILES IDX 24 12 25 13 26 14 12 15 11 16 10 17 9 18 8 19 7 20 6 21 5 22
REMARK SMILES IDX 4 23 3 24 2 25 1 26
REMARK H PARENT
REMARK Flexibility Score: inf
ROOT
ATOM      1  C   UNL     1      87.012 320.042 200.930  1.00  0.00     0.000 C 
ENDROOT
BRANCH   1   2
ATOM      2  C   UNL     1      87.596 320.532 199.595  1.00  0.00     0.000 C 
BRANCH   2   3
ATOM      3  C   UNL     1      87.300 319.579 198.426  1.00  0.00     0.000 C 
BRANCH   3   4
ATOM      4  C   UNL     1      86.596 320.282 197.250  1.00  0.00     0.000 C 
BRANCH   4   5
ATOM      5  C   UNL     1      87.483 320.468 196.002  1.00  0.00     0.000 C 
BRANCH   5   6
ATOM      6  C   UNL     1      86.711 320.900 194.737  1.00  0.00     0.000 C 
BRANCH   6   7
ATOM      7  C   UNL     1      85.210 320.551 194.789  1.00  0.00     0.000 C 
BRANCH   7   8
ATOM      8  C   UNL     1      84.760 319.633 193.639  1.00  0.00     0.000 C 
BRANCH   8   9
ATOM      9  C   UNL     1      85.951 319.064 192.846  1.00  0.00     0.000 C 
BRANCH   9  10
ATOM     10  C   UNL     1      86.100 317.539 193.015  1.00  0.00     0.006 C 
BRANCH  10  11
ATOM     11  C   UNL     1      86.899 317.133 194.262  1.00  0.00     0.053 C 
BRANCH  11  12
ATOM     12  C   UNL     1      86.017 316.688 195.386  1.00  0.00     0.041 C 
ATOM     13  O   UNL     1      86.417 316.768 196.578  1.00  0.00    -0.550 OA
ATOM     14  O   UNL     1      84.745 316.198 195.119  1.00  0.00    -0.550 OA
ENDBRANCH  11  12
ENDBRANCH  10  11
ENDBRANCH   9  10
ENDBRANCH   8   9
ENDBRANCH   7   8
ENDBRANCH   6   7
ENDBRANCH   5   6
ENDBRANCH   4   5
ENDBRANCH   3   4
ENDBRANCH   2   3
ENDBRANCH   1   2
BRANCH   1  15
ATOM     15  C   UNL     1      87.590 320.767 202.164  1.00  0.00     0.000 C 
BRANCH  15  16
ATOM     16  C   UNL     1      89.117 320.914 202.096  1.00  0.00     0.000 C 
BRANCH  16  17
ATOM     17  C   UNL     1      89.693 321.310 203.462  1.00  0.00     0.000 C 
BRANCH  17  18
ATOM     18  C   UNL     1      88.578 321.728 204.431  1.00  0.00    -0.000 C 
BRANCH  18  19
ATOM     19  C   UNL     1      88.886 321.348 205.888  1.00  0.00    -0.000 C 
BRANCH  19  20
ATOM     20  C   UNL     1      87.688 320.704 206.603  1.00  0.00    -0.000 C 
BRANCH  20  21
ATOM     21  C   UNL     1      86.768 319.998 205.595  1.00  0.00    -0.000 C 
BRANCH  21  22
ATOM     22  C   UNL     1      85.670 319.163 206.272  1.00  0.00    -0.000 C 
BRANCH  22  23
ATOM     23  C   UNL     1      84.835 318.357 205.263  1.00  0.00    -0.000 C 
BRANCH  23  24
ATOM     24  C   UNL     1      85.541 318.199 203.907  1.00  0.00    -0.000 C 
BRANCH  24  25
ATOM     25  C   UNL     1      84.560 317.943 202.754  1.00  0.00    -0.003 C 
ATOM     26  C   UNL     1      85.060 316.824 201.844  1.00  0.00     0.004 C 
ENDBRANCH  24  25
ENDBRANCH  23  24
ENDBRANCH  22  23
ENDBRANCH  21  22
ENDBRANCH  20  21
ENDBRANCH  19  20
ENDBRANCH  18  19
ENDBRANCH  17  18
ENDBRANCH  16  17
ENDBRANCH  15  16
ENDBRANCH   1  15
TORSDOF 22
ENDMDL
MODEL 3
REMARK VINA RESULT:    -6.322      4.527     10.823
REMARK INTER + INTRA:         -16.227
REMARK INTER:                 -13.599
REMARK INTRA:                  -2.628
REMARK UNBOUND:                -1.773
REMARK SMILES CCCCCCCCCCCCCCCCCCCCCCCC(=O)[O-]
REMARK SMILES IDX 13 1 14 2 15 3 16 4 17 5 18 6 19 7 20 8 21 9 22 10 23 11
REMARK SMILES IDX 24 12 25 13 26 14 12 15 11 16 10 17 9 18 8 19 7 20 6 21 5 22
REMARK SMILES IDX 4 23 3 24 2 25 1 26
REMARK H PARENT
REMARK Flexibility Score: inf
ROOT
ATOM      1  C   UNL     1      87.424 319.856 199.385  1.00  0.00     0.000 C 
ENDROOT
BRANCH   1   2
ATOM      2  C   UNL     1      87.882 320.415 200.742  1.00  0.00     0.000 C 
BRANCH   2   3
ATOM      3  C   UNL     1      86.883 320.131 201.875  1.00  0.00     0.000 C 
BRANCH   3   4
ATOM      4  C   UNL     1      86.960 318.680 202.385  1.00  0.00     0.000 C 
BRANCH   4   5
ATOM      5  C   UNL     1      85.603 318.088 202.817  1.00  0.00     0.000 C 
BRANCH   5   6
ATOM      6  C   UNL     1      85.558 317.618 204.286  1.00  0.00     0.000 C 
BRANCH   6   7
ATOM      7  C   UNL     1      84.651 318.490 205.178  1.00  0.00     0.000 C 
BRANCH   7   8
ATOM      8  C   UNL     1      85.385 319.079 206.397  1.00  0.00     0.000 C 
BRANCH   8   9
ATOM      9  C   UNL     1      86.915 319.041 206.232  1.00  0.00     0.000 C 
BRANCH   9  10
ATOM     10  C   UNL     1      87.575 320.404 206.519  1.00  0.00     0.006 C 
BRANCH  10  11
ATOM     11  C   UNL     1      87.675 321.313 205.285  1.00  0.00     0.053 C 
BRANCH  11  12
ATOM     12  C   UNL     1      89.091 321.651 204.938  1.00  0.00     0.041 C 
ATOM     13  O   UNL     1      89.470 321.643 203.737  1.00  0.00    -0.550 OA
ATOM     14  O   UNL     1      89.990 321.992 205.941  1.00  0.00    -0.550 OA
ENDBRANCH  11  12
ENDBRANCH  10  11
ENDBRANCH   9  10
ENDBRANCH   8   9
ENDBRANCH   7   8
ENDBRANCH   6   7
ENDBRANCH   5   6
ENDBRANCH   4   5
ENDBRANCH   3   4
ENDBRANCH   2   3
ENDBRANCH   1   2
BRANCH   1  15
ATOM     15  C   UNL     1      87.242 320.937 198.297  1.00  0.00     0.000 C 
BRANCH  15  16
ATOM     16  C   UNL     1      86.434 320.426 197.094  1.00  0.00     0.000 C 
BRANCH  16  17
ATOM     17  C   UNL     1      87.303 320.373 195.832  1.00  0.00     0.000 C 
BRANCH  17  18
ATOM     18  C   UNL     1      86.546 320.927 194.616  1.00  0.00    -0.000 C 
BRANCH  18  19
ATOM     19  C   UNL     1      85.077 320.474 194.577  1.00  0.00    -0.000 C 
BRANCH  19  20
ATOM     20  C   UNL     1      84.797 319.455 193.462  1.00  0.00    -0.000 C 
BRANCH  20  21
ATOM     21  C   UNL     1      86.108 318.976 192.819  1.00  0.00    -0.000 C 
BRANCH  21  22
ATOM     22  C   UNL     1      86.389 317.487 193.072  1.00  0.00    -0.000 C 
BRANCH  22  23
ATOM     23  C   UNL     1      86.115 317.073 194.528  1.00  0.00    -0.000 C 
BRANCH  23  24
ATOM     24  C   UNL     1      87.375 316.555 195.239  1.00  0.00    -0.000 C 
BRANCH  24  25
ATOM     25  C   UNL     1      87.330 316.774 196.759  1.00  0.00    -0.003 C 
ATOM     26  C   UNL     1      88.709 317.135 197.303  1.00  0.00     0.004 C 
ENDBRANCH  24  25
ENDBRANCH  23  24
ENDBRANCH  22  23
ENDBRANCH  21  22
ENDBRANCH  20  21
ENDBRANCH  19  20
ENDBRANCH  18  19
ENDBRANCH  17  18
ENDBRANCH  16  17
ENDBRANCH  15  16
ENDBRANCH   1  15
TORSDOF 22
ENDMDL
MODEL 4
REMARK VINA RESULT:    -6.273      3.677     11.307
REMARK INTER + INTRA:         -16.114
REMARK INTER:                 -14.629
REMARK INTRA:                  -1.485
REMARK UNBOUND:                -1.773
REMARK SMILES CCCCCCCCCCCCCCCCCCCCCCCC(=O)[O-]
REMARK SMILES IDX 13 1 14 2 15 3 16 4 17 5 18 6 19 7 20 8 21 9 22 10 23 11
REMARK SMILES IDX 24 12 25 13 26 14 12 15 11 16 10 17 9 18 8 19 7 20 6 21 5 22
REMARK SMILES IDX 4 23 3 24 2 25 1 26
REMARK H PARENT
REMARK Flexibility Score: inf
ROOT
ATOM      1  C   UNL     1      87.541 320.022 199.355  1.00  0.00     0.000 C 
ENDROOT
BRANCH   1   2
ATOM      2  C   UNL     1      88.088 320.900 200.492  1.00  0.00     0.000 C 
BRANCH   2   3
ATOM      3  C   UNL     1      87.439 320.592 201.851  1.00  0.00     0.000 C 
BRANCH   3   4
ATOM      4  C   UNL     1      88.380 320.882 203.037  1.00  0.00     0.000 C 
BRANCH   4   5
ATOM      5  C   UNL     1      87.670 321.454 204.281  1.00  0.00     0.000 C 
BRANCH   5   6
ATOM      6  C   UNL     1      88.283 320.999 205.622  1.00  0.00     0.000 C 
BRANCH   6   7
ATOM      7  C   UNL     1      87.261 320.958 206.776  1.00  0.00     0.000 C 
BRANCH   7   8
ATOM      8  C   UNL     1      86.619 319.572 206.969  1.00  0.00     0.000 C 
BRANCH   8   9
ATOM      9  C   UNL     1      85.173 319.521 206.443  1.00  0.00     0.000 C 
BRANCH   9  10
ATOM     10  C   UNL     1      84.927 318.324 205.503  1.00  0.00     0.006 C 
BRANCH  10  11
ATOM     11  C   UNL     1      85.932 318.235 204.345  1.00  0.00     0.053 C 
BRANCH  11  12
ATOM     12  C   UNL     1      85.359 317.554 203.142  1.00  0.00     0.041 C 
ATOM     13  O   UNL     1      84.378 318.058 202.534  1.00  0.00    -0.550 OA
ATOM     14  O   UNL     1      85.918 316.369 202.681  1.00  0.00    -0.550 OA
ENDBRANCH  11  12
ENDBRANCH  10  11
ENDBRANCH   9  10
ENDBRANCH   8   9
ENDBRANCH   7   8
ENDBRANCH   6   7
ENDBRANCH   5   6
ENDBRANCH   4   5
ENDBRANCH   3   4
ENDBRANCH   2   3
ENDBRANCH   1   2
BRANCH   1  15
ATOM     15  C   UNL     1      86.943 320.826 198.181  1.00  0.00     0.000 C 
BRANCH  15  16
ATOM     16  C   UNL     1      86.555 319.930 196.994  1.00  0.00     0.000 C 
BRANCH  16  17
ATOM     17  C   UNL     1      87.366 320.293 195.744  1.00  0.00     0.000 C 
BRANCH  17  18
ATOM     18  C   UNL     1      86.469 320.916 194.665  1.00  0.00    -0.000 C 
BRANCH  18  19
ATOM     19  C   UNL     1      85.004 320.462 194.778  1.00  0.00    -0.000 C 
BRANCH  19  20
ATOM     20  C   UNL     1      84.559 319.587 193.596  1.00  0.00    -0.000 C 
BRANCH  20  21
ATOM     21  C   UNL     1      85.586 318.478 193.322  1.00  0.00    -0.000 C 
BRANCH  21  22
ATOM     22  C   UNL     1      86.183 318.553 191.908  1.00  0.00    -0.000 C 
BRANCH  22  23
ATOM     23  C   UNL     1      85.593 317.494 190.961  1.00  0.00    -0.000 C 
BRANCH  23  24
ATOM     24  C   UNL     1      86.391 317.362 189.654  1.00  0.00    -0.000 C 
BRANCH  24  25
ATOM     25  C   UNL     1      87.736 316.647 189.851  1.00  0.00    -0.003 C 
ATOM     26  C   UNL     1      88.685 316.930 188.690  1.00  0.00     0.004 C 
ENDBRANCH  24  25
ENDBRANCH  23  24
ENDBRANCH  22  23
ENDBRANCH  21  22
ENDBRANCH  20  21
ENDBRANCH  19  20
ENDBRANCH  18  19
ENDBRANCH  17  18
ENDBRANCH  16  17
ENDBRANCH  15  16
ENDBRANCH   1  15
TORSDOF 22
ENDMDL
MODEL 5
REMARK VINA RESULT:    -6.252      1.398      1.789
REMARK INTER + INTRA:         -16.067
REMARK INTER:                 -13.910
REMARK INTRA:                  -2.157
REMARK UNBOUND:                -1.773
REMARK SMILES CCCCCCCCCCCCCCCCCCCCCCCC(=O)[O-]
REMARK SMILES IDX 13 1 14 2 15 3 16 4 17 5 18 6 19 7 20 8 21 9 22 10 23 11
REMARK SMILES IDX 24 12 25 13 26 14 12 15 11 16 10 17 9 18 8 19 7 20 6 21 5 22
REMARK SMILES IDX 4 23 3 24 2 25 1 26
REMARK H PARENT
REMARK Flexibility Score: inf
ROOT
ATOM      1  C   UNL     1      88.227 319.036 199.980  1.00  0.00     0.000 C 
ENDROOT
BRANCH   1   2
ATOM      2  C   UNL     1      87.201 318.538 198.950  1.00  0.00     0.000 C 
BRANCH   2   3
ATOM      3  C   UNL     1      87.621 318.825 197.499  1.00  0.00     0.000 C 
BRANCH   3   4
ATOM      4  C   UNL     1      86.694 319.839 196.801  1.00  0.00     0.000 C 
BRANCH   4   5
ATOM      5  C   UNL     1      87.392 320.700 195.729  1.00  0.00     0.000 C 
BRANCH   5   6
ATOM      6  C   UNL     1      86.541 320.948 194.466  1.00  0.00     0.000 C 
BRANCH   6   7
ATOM      7  C   UNL     1      85.154 320.278 194.524  1.00  0.00     0.000 C 
BRANCH   7   8
ATOM      8  C   UNL     1      84.843 319.419 193.285  1.00  0.00     0.000 C 
BRANCH   8   9
ATOM      9  C   UNL     1      86.098 318.723 192.727  1.00  0.00     0.000 C 
BRANCH   9  10
ATOM     10  C   UNL     1      85.807 317.915 191.446  1.00  0.00     0.006 C 
BRANCH  10  11
ATOM     11  C   UNL     1      84.433 317.231 191.450  1.00  0.00     0.053 C 
BRANCH  11  12
ATOM     12  C   UNL     1      84.480 315.859 192.046  1.00  0.00     0.041 C 
ATOM     13  O   UNL     1      84.334 314.843 191.316  1.00  0.00    -0.550 OA
ATOM     14  O   UNL     1      84.701 315.700 193.409  1.00  0.00    -0.550 OA
ENDBRANCH  11  12
ENDBRANCH  10  11
ENDBRANCH   9  10
ENDBRANCH   8   9
ENDBRANCH   7   8
ENDBRANCH   6   7
ENDBRANCH   5   6
ENDBRANCH   4   5
ENDBRANCH   3   4
ENDBRANCH   2   3
ENDBRANCH   1   2
BRANCH   1  15
ATOM     15  C   UNL     1      88.031 320.511 200.391  1.00  0.00     0.000 C 
BRANCH  15  16
ATOM     16  C   UNL     1      87.299 320.652 201.734  1.00  0.00     0.000 C 
BRANCH  16  17
ATOM     17  C   UNL     1      88.296 320.792 202.892  1.00  0.00     0.000 C 
BRANCH  17  18
ATOM     18  C   UNL     1      87.634 321.443 204.115  1.00  0.00    -0.000 C 
BRANCH  18  19
ATOM     19  C   UNL     1      88.508 321.356 205.377  1.00  0.00    -0.000 C 
BRANCH  19  20
ATOM     20  C   UNL     1      87.749 320.797 206.591  1.00  0.00    -0.000 C 
BRANCH  20  21
ATOM     21  C   UNL     1      87.055 319.473 206.237  1.00  0.00    -0.000 C 
BRANCH  21  22
ATOM     22  C   UNL     1      85.558 319.471 206.586  1.00  0.00    -0.000 C 
BRANCH  22  23
ATOM     23  C   UNL     1      84.727 318.613 205.616  1.00  0.00    -0.000 C 
BRANCH  23  24
ATOM     24  C   UNL     1      85.595 317.906 204.564  1.00  0.00    -0.000 C 
BRANCH  24  25
ATOM     25  C   UNL     1      85.051 318.072 203.137  1.00  0.00    -0.003 C 
ATOM     26  C   UNL     1      85.837 317.219 202.146  1.00  0.00     0.004 C 
ENDBRANCH  24  25
ENDBRANCH  23  24
ENDBRANCH  22  23
ENDBRANCH  21  22
ENDBRANCH  20  21
ENDBRANCH  19  20
ENDBRANCH  18  19
ENDBRANCH  17  18
ENDBRANCH  16  17
ENDBRANCH  15  16
ENDBRANCH   1  15
TORSDOF 22
ENDMDL
MODEL 6
REMARK VINA RESULT:    -6.249      3.259     10.408
REMARK INTER + INTRA:         -16.060
REMARK INTER:                 -14.272
REMARK INTRA:                  -1.788
REMARK UNBOUND:                -1.773
REMARK SMILES CCCCCCCCCCCCCCCCCCCCCCCC(=O)[O-]
REMARK SMILES IDX 13 1 14 2 15 3 16 4 17 5 18 6 19 7 20 8 21 9 22 10 23 11
REMARK SMILES IDX 24 12 25 13 26 14 12 15 11 16 10 17 9 18 8 19 7 20 6 21 5 22
REMARK SMILES IDX 4 23 3 24 2 25 1 26
REMARK H PARENT
REMARK Flexibility Score: inf
ROOT
ATOM      1  C   UNL     1      87.531 320.511 201.744  1.00  0.00     0.000 C 
ENDROOT
BRANCH   1   2
ATOM      2  C   UNL     1      88.517 320.895 202.859  1.00  0.00     0.000 C 
BRANCH   2   3
ATOM      3  C   UNL     1      87.817 321.287 204.169  1.00  0.00     0.000 C 
BRANCH   3   4
ATOM      4  C   UNL     1      88.745 321.178 205.394  1.00  0.00     0.000 C 
BRANCH   4   5
ATOM      5  C   UNL     1      88.007 320.935 206.727  1.00  0.00     0.000 C 
BRANCH   5   6
ATOM      6  C   UNL     1      87.283 319.574 206.808  1.00  0.00     0.000 C 
BRANCH   6   7
ATOM      7  C   UNL     1      85.757 319.705 206.981  1.00  0.00     0.000 C 
BRANCH   7   8
ATOM      8  C   UNL     1      84.957 318.974 205.887  1.00  0.00     0.000 C 
BRANCH   8   9
ATOM      9  C   UNL     1      85.756 317.821 205.253  1.00  0.00     0.000 C 
BRANCH   9  10
ATOM     10  C   UNL     1      86.056 318.059 203.760  1.00  0.00     0.006 C 
BRANCH  10  11
ATOM     11  C   UNL     1      84.829 317.899 202.852  1.00  0.00     0.053 C 
BRANCH  11  12
ATOM     12  C   UNL     1      84.840 316.606 202.099  1.00  0.00     0.041 C 
ATOM     13  O   UNL     1      84.753 315.511 202.716  1.00  0.00    -0.550 OA
ATOM     14  O   UNL     1      84.929 316.608 200.713  1.00  0.00    -0.550 OA
ENDBRANCH  11  12
ENDBRANCH  10  11
ENDBRANCH   9  10
ENDBRANCH   8   9
ENDBRANCH   7   8
ENDBRANCH   6   7
ENDBRANCH   5   6
ENDBRANCH   4   5
ENDBRANCH   3   4
ENDBRANCH   2   3
ENDBRANCH   1   2
BRANCH   1  15
ATOM     15  C   UNL     1      88.021 320.877 200.326  1.00  0.00     0.000 C 
BRANCH  15  16
ATOM     16  C   UNL     1      87.317 320.059 199.234  1.00  0.00     0.000 C 
BRANCH  16  17
ATOM     17  C   UNL     1      86.955 320.943 198.033  1.00  0.00     0.000 C 
BRANCH  17  18
ATOM     18  C   UNL     1      86.577 320.090 196.813  1.00  0.00    -0.000 C 
BRANCH  18  19
ATOM     19  C   UNL     1      87.314 320.523 195.536  1.00  0.00    -0.000 C 
BRANCH  19  20
ATOM     20  C   UNL     1      86.358 320.945 194.409  1.00  0.00    -0.000 C 
BRANCH  20  21
ATOM     21  C   UNL     1      85.036 320.167 194.497  1.00  0.00    -0.000 C 
BRANCH  21  22
ATOM     22  C   UNL     1      84.741 319.345 193.233  1.00  0.00    -0.000 C 
BRANCH  22  23
ATOM     23  C   UNL     1      86.021 318.829 192.553  1.00  0.00    -0.000 C 
BRANCH  23  24
ATOM     24  C   UNL     1      86.170 317.303 192.659  1.00  0.00    -0.000 C 
BRANCH  24  25
ATOM     25  C   UNL     1      86.714 316.670 191.370  1.00  0.00    -0.003 C 
ATOM     26  C   UNL     1      86.531 317.606 190.178  1.00  0.00     0.004 C 
ENDBRANCH  24  25
ENDBRANCH  23  24
ENDBRANCH  22  23
ENDBRANCH  21  22
ENDBRANCH  20  21
ENDBRANCH  19  20
ENDBRANCH  18  19
ENDBRANCH  17  18
ENDBRANCH  16  17
ENDBRANCH  15  16
ENDBRANCH   1  15
TORSDOF 22
ENDMDL
MODEL 7
REMARK VINA RESULT:    -6.236      1.242      3.306
REMARK INTER + INTRA:         -16.029
REMARK INTER:                 -14.438
REMARK INTRA:                  -1.592
REMARK UNBOUND:                -1.773
REMARK SMILES CCCCCCCCCCCCCCCCCCCCCCCC(=O)[O-]
REMARK SMILES IDX 13 1 14 2 15 3 16 4 17 5 18 6 19 7 20 8 21 9 22 10 23 11
REMARK SMILES IDX 24 12 25 13 26 14 12 15 11 16 10 17 9 18 8 19 7 20 6 21 5 22
REMARK SMILES IDX 4 23 3 24 2 25 1 26
REMARK H PARENT
REMARK Flexibility Score: inf
ROOT
ATOM      1  C   UNL     1      87.259 319.714 198.382  1.00  0.00     0.000 C 
ENDROOT
BRANCH   1   2
ATOM      2  C   UNL     1      86.510 320.067 197.087  1.00  0.00     0.000 C 
BRANCH   2   3
ATOM      3  C   UNL     1      87.450 320.508 195.953  1.00  0.00     0.000 C 
BRANCH   3   4
ATOM      4  C   UNL     1      86.691 320.893 194.668  1.00  0.00     0.000 C 
BRANCH   4   5
ATOM      5  C   UNL     1      85.156 320.850 194.804  1.00  0.00     0.000 C 
BRANCH   5   6
ATOM      6  C   UNL     1      84.458 319.919 193.791  1.00  0.00     0.000 C 
BRANCH   6   7
ATOM      7  C   UNL     1      85.155 318.552 193.637  1.00  0.00     0.000 C 
BRANCH   7   8
ATOM      8  C   UNL     1      85.000 317.947 192.230  1.00  0.00     0.000 C 
BRANCH   8   9
ATOM      9  C   UNL     1      86.234 318.204 191.345  1.00  0.00     0.000 C 
BRANCH   9  10
ATOM     10  C   UNL     1      86.609 316.982 190.483  1.00  0.00     0.006 C 
BRANCH  10  11
ATOM     11  C   UNL     1      86.284 317.158 188.993  1.00  0.00     0.053 C 
BRANCH  11  12
ATOM     12  C   UNL     1      85.407 316.065 188.467  1.00  0.00     0.041 C 
ATOM     13  O   UNL     1      85.736 314.858 188.618  1.00  0.00    -0.550 OA
ATOM     14  O   UNL     1      84.216 316.378 187.824  1.00  0.00    -0.550 OA
ENDBRANCH  11  12
ENDBRANCH  10  11
ENDBRANCH   9  10
ENDBRANCH   8   9
ENDBRANCH   7   8
ENDBRANCH   6   7
ENDBRANCH   5   6
ENDBRANCH   4   5
ENDBRANCH   3   4
ENDBRANCH   2   3
ENDBRANCH   1   2
BRANCH   1  15
ATOM     15  C   UNL     1      87.504 320.924 199.308  1.00  0.00     0.000 C 
BRANCH  15  16
ATOM     16  C   UNL     1      88.044 320.508 200.685  1.00  0.00     0.000 C 
BRANCH  16  17
ATOM     17  C   UNL     1      86.897 320.285 201.680  1.00  0.00     0.000 C 
BRANCH  17  18
ATOM     18  C   UNL     1      86.813 318.812 202.104  1.00  0.00    -0.000 C 
BRANCH  18  19
ATOM     19  C   UNL     1      85.417 318.422 202.618  1.00  0.00    -0.000 C 
BRANCH  19  20
ATOM     20  C   UNL     1      85.357 316.980 203.146  1.00  0.00    -0.000 C 
BRANCH  20  21
ATOM     21  C   UNL     1      85.499 316.954 204.675  1.00  0.00    -0.000 C 
BRANCH  21  22
ATOM     22  C   UNL     1      84.989 318.240 205.345  1.00  0.00    -0.000 C 
BRANCH  22  23
ATOM     23  C   UNL     1      85.784 318.601 206.612  1.00  0.00    -0.000 C 
BRANCH  23  24
ATOM     24  C   UNL     1      85.892 320.118 206.827  1.00  0.00    -0.000 C 
BRANCH  24  25
ATOM     25  C   UNL     1      87.320 320.646 206.622  1.00  0.00    -0.003 C 
ATOM     26  C   UNL     1      87.497 321.220 205.220  1.00  0.00     0.004 C 
ENDBRANCH  24  25
ENDBRANCH  23  24
ENDBRANCH  22  23
ENDBRANCH  21  22
ENDBRANCH  20  21
ENDBRANCH  19  20
ENDBRANCH  18  19
ENDBRANCH  17  18
ENDBRANCH  16  17
ENDBRANCH  15  16
ENDBRANCH   1  15
TORSDOF 22
ENDMDL
MODEL 8
REMARK VINA RESULT:    -6.228      4.126     10.676
REMARK INTER + INTRA:         -16.010
REMARK INTER:                 -13.222
REMARK INTRA:                  -2.789
REMARK UNBOUND:                -1.773
REMARK SMILES CCCCCCCCCCCCCCCCCCCCCCCC(=O)[O-]
REMARK SMILES IDX 13 1 14 2 15 3 16 4 17 5 18 6 19 7 20 8 21 9 22 10 23 11
REMARK SMILES IDX 24 12 25 13 26 14 12 15 11 16 10 17 9 18 8 19 7 20 6 21 5 22
REMARK SMILES IDX 4 23 3 24 2 25 1 26
REMARK H PARENT
REMARK Flexibility Score: inf
ROOT
ATOM      1  C   UNL     1      87.255 320.507 201.198  1.00  0.00     0.000 C 
ENDROOT
BRANCH   1   2
ATOM      2  C   UNL     1      87.483 319.143 201.868  1.00  0.00     0.000 C 
BRANCH   2   3
ATOM      3  C   UNL     1      86.425 318.814 202.933  1.00  0.00     0.000 C 
BRANCH   3   4
ATOM      4  C   UNL     1      86.799 317.582 203.780  1.00  0.00     0.000 C 
BRANCH   4   5
ATOM      5  C   UNL     1      86.503 317.737 205.286  1.00  0.00     0.000 C 
BRANCH   5   6
ATOM      6  C   UNL     1      85.232 318.555 205.599  1.00  0.00     0.000 C 
BRANCH   6   7
ATOM      7  C   UNL     1      85.459 319.655 206.655  1.00  0.00     0.000 C 
BRANCH   7   8
ATOM      8  C   UNL     1      86.934 320.077 206.785  1.00  0.00     0.000 C 
BRANCH   8   9
ATOM      9  C   UNL     1      87.286 321.258 205.862  1.00  0.00     0.000 C 
BRANCH   9  10
ATOM     10  C   UNL     1      88.806 321.412 205.652  1.00  0.00     0.006 C 
BRANCH  10  11
ATOM     11  C   UNL     1      89.409 320.354 204.717  1.00  0.00     0.053 C 
BRANCH  11  12
ATOM     12  C   UNL     1      90.493 320.911 203.849  1.00  0.00     0.041 C 
ATOM     13  O   UNL     1      90.210 321.453 202.748  1.00  0.00    -0.550 OA
ATOM     14  O   UNL     1      91.817 320.846 204.263  1.00  0.00    -0.550 OA
ENDBRANCH  11  12
ENDBRANCH  10  11
ENDBRANCH   9  10
ENDBRANCH   8   9
ENDBRANCH   7   8
ENDBRANCH   6   7
ENDBRANCH   5   6
ENDBRANCH   4   5
ENDBRANCH   3   4
ENDBRANCH   2   3
ENDBRANCH   1   2
BRANCH   1  15
ATOM     15  C   UNL     1      87.579 320.521 199.689  1.00  0.00     0.000 C 
BRANCH  15  16
ATOM     16  C   UNL     1      87.725 319.107 199.108  1.00  0.00     0.000 C 
BRANCH  16  17
ATOM     17  C   UNL     1      86.962 318.975 197.783  1.00  0.00     0.000 C 
BRANCH  17  18
ATOM     18  C   UNL     1      86.727 320.351 197.143  1.00  0.00    -0.000 C 
BRANCH  18  19
ATOM     19  C   UNL     1      87.558 320.560 195.866  1.00  0.00    -0.000 C 
BRANCH  19  20
ATOM     20  C   UNL     1      86.708 321.012 194.669  1.00  0.00    -0.000 C 
BRANCH  20  21
ATOM     21  C   UNL     1      85.269 320.489 194.794  1.00  0.00    -0.000 C 
BRANCH  21  22
ATOM     22  C   UNL     1      84.869 319.558 193.638  1.00  0.00    -0.000 C 
BRANCH  22  23
ATOM     23  C   UNL     1      86.070 319.147 192.769  1.00  0.00    -0.000 C 
BRANCH  23  24
ATOM     24  C   UNL     1      86.234 317.622 192.675  1.00  0.00    -0.000 C 
BRANCH  24  25
ATOM     25  C   UNL     1      85.928 316.910 194.001  1.00  0.00    -0.003 C 
ATOM     26  C   UNL     1      87.170 316.835 194.884  1.00  0.00     0.004 C 
ENDBRANCH  24  25
ENDBRANCH  23  24
ENDBRANCH  22  23
ENDBRANCH  21  22
ENDBRANCH  20  21
ENDBRANCH  19  20
ENDBRANCH  18  19
ENDBRANCH  17  18
ENDBRANCH  16  17
ENDBRANCH  15  16
ENDBRANCH   1  15
TORSDOF 22
ENDMDL
MODEL 9
REMARK VINA RESULT:    -6.151      4.146     10.996
REMARK INTER + INTRA:         -15.835
REMARK INTER:                 -13.711
REMARK INTRA:                  -2.124
REMARK UNBOUND:                -1.773
REMARK SMILES CCCCCCCCCCCCCCCCCCCCCCCC(=O)[O-]
REMARK SMILES IDX 13 1 14 2 15 3 16 4 17 5 18 6 19 7 20 8 21 9 22 10 23 11
REMARK SMILES IDX 24 12 25 13 26 14 12 15 11 16 10 17 9 18 8 19 7 20 6 21 5 22
REMARK SMILES IDX 4 23 3 24 2 25 1 26
REMARK H PARENT
REMARK Flexibility Score: inf
ROOT
ATOM      1  C   UNL     1      87.257 320.732 198.947  1.00  0.00     0.000 C 
ENDROOT
BRANCH   1   2
ATOM      2  C   UNL     1      87.900 320.735 200.344  1.00  0.00     0.000 C 
BRANCH   2   3
ATOM      3  C   UNL     1      86.888 320.463 201.469  1.00  0.00     0.000 C 
BRANCH   3   4
ATOM      4  C   UNL     1      87.564 320.013 202.779  1.00  0.00     0.000 C 
BRANCH   4   5
ATOM      5  C   UNL     1      88.916 320.699 203.061  1.00  0.00     0.000 C 
BRANCH   5   6
ATOM      6  C   UNL     1      88.912 321.618 204.301  1.00  0.00     0.000 C 
BRANCH   6   7
ATOM      7  C   UNL     1      87.608 321.532 205.119  1.00  0.00     0.000 C 
BRANCH   7   8
ATOM      8  C   UNL     1      87.757 320.711 206.413  1.00  0.00     0.000 C 
BRANCH   8   9
ATOM      9  C   UNL     1      86.395 320.337 207.027  1.00  0.00     0.000 C 
BRANCH   9  10
ATOM     10  C   UNL     1      86.027 318.858 206.795  1.00  0.00     0.006 C 
BRANCH  10  11
ATOM     11  C   UNL     1      85.025 318.645 205.651  1.00  0.00     0.053 C 
BRANCH  11  12
ATOM     12  C   UNL     1      85.246 317.352 204.932  1.00  0.00     0.041 C 
ATOM     13  O   UNL     1      85.352 317.333 203.677  1.00  0.00    -0.550 OA
ATOM     14  O   UNL     1      85.352 316.167 205.648  1.00  0.00    -0.550 OA
ENDBRANCH  11  12
ENDBRANCH  10  11
ENDBRANCH   9  10
ENDBRANCH   8   9
ENDBRANCH   7   8
ENDBRANCH   6   7
ENDBRANCH   5   6
ENDBRANCH   4   5
ENDBRANCH   3   4
ENDBRANCH   2   3
ENDBRANCH   1   2
BRANCH   1  15
ATOM     15  C   UNL     1      87.331 319.367 198.232  1.00  0.00     0.000 C 
BRANCH  15  16
ATOM     16  C   UNL     1      86.771 319.423 196.803  1.00  0.00     0.000 C 
BRANCH  16  17
ATOM     17  C   UNL     1      87.386 320.588 196.017  1.00  0.00     0.000 C 
BRANCH  17  18
ATOM     18  C   UNL     1      86.621 320.837 194.709  1.00  0.00    -0.000 C 
BRANCH  18  19
ATOM     19  C   UNL     1      85.210 320.226 194.723  1.00  0.00    -0.000 C 
BRANCH  19  20
ATOM     20  C   UNL     1      84.860 319.505 193.412  1.00  0.00    -0.000 C 
BRANCH  20  21
ATOM     21  C   UNL     1      86.131 319.188 192.608  1.00  0.00    -0.000 C 
BRANCH  21  22
ATOM     22  C   UNL     1      85.954 317.995 191.656  1.00  0.00    -0.000 C 
BRANCH  22  23
ATOM     23  C   UNL     1      85.774 316.663 192.405  1.00  0.00    -0.000 C 
BRANCH  23  24
ATOM     24  C   UNL     1      86.956 316.347 193.335  1.00  0.00    -0.000 C 
BRANCH  24  25
ATOM     25  C   UNL     1      86.591 316.475 194.821  1.00  0.00    -0.003 C 
ATOM     26  C   UNL     1      87.721 315.963 195.711  1.00  0.00     0.004 C 
ENDBRANCH  24  25
ENDBRANCH  23  24
ENDBRANCH  22  23
ENDBRANCH  21  22
ENDBRANCH  20  21
ENDBRANCH  19  20
ENDBRANCH  18  19
ENDBRANCH  17  18
ENDBRANCH  16  17
ENDBRANCH  15  16
ENDBRANCH   1  15
TORSDOF 22
ENDMDL
