MODEL 1
REMARK VINA RESULT:    13.988      0.000      0.000
REMARK INTER + INTRA:          14.905
REMARK INTER:                  15.214
REMARK INTRA:                  -0.310
REMARK UNBOUND:                -0.310
REMARK SMILES CC1(C)CC[C@@]2(C(=O)[O-])CC[C@]3(C)C(=CC[C@@H]4[C@]5(C)CC[C@@H](O)C(C)(C)[C@@H]5CC[C@@]43C)[C@H]2C1
REMARK SMILES IDX 6 1 5 2 10 3 32 4 4 5 11 6 14 7 33 8 2 9 12 10 15 11 1 12
REMARK SMILES IDX 3 13 13 14 30 15 16 16 17 17 29 18 31 19 18 20 28 21 27 22
REMARK SMILES IDX 20 23 19 24 24 25 21 26 22 27 25 28 26 29 7 30 8 31 9 32
REMARK SMILES IDX 23 33
REMARK H PARENT 23 34
REMARK Flexibility Score: inf
ROOT
ATOM      1  C   UNL     1      -6.386 -21.530 -24.459  1.00  0.00     0.017 C 
ATOM      2  C   UNL     1      -6.850 -19.929 -24.210  1.00  0.00     0.014 C 
ATOM      3  C   UNL     1      -5.106 -21.633 -23.508  1.00  0.00     0.014 C 
ATOM      4  C   UNL     1      -7.678 -22.189 -23.837  1.00  0.00     0.028 C 
ATOM      5  C   UNL     1      -8.162 -19.470 -24.927  1.00  0.00     0.007 C 
ATOM      6  C   UNL     1      -4.875 -22.980 -22.909  1.00  0.00     0.013 C 
ATOM      7  C   UNL     1      -7.420 -22.627 -22.489  1.00  0.00    -0.064 C 
ATOM      8  C   UNL     1      -9.152 -21.632 -24.253  1.00  0.00     0.015 C 
ATOM      9  C   UNL     1      -9.412 -20.091 -24.305  1.00  0.00    -0.035 C 
ATOM     10  C   UNL     1      -6.163 -23.516 -22.110  1.00  0.00    -0.006 C 
ATOM     11  C   UNL     1      -8.509 -22.831 -21.681  1.00  0.00    -0.027 C 
ATOM     12  C   UNL     1     -10.673 -19.890 -25.210  1.00  0.00     0.011 C 
ATOM     13  C   UNL     1      -9.727 -19.375 -22.911  1.00  0.00     0.011 C 
ATOM     14  C   UNL     1      -6.454 -24.943 -22.653  1.00  0.00     0.017 C 
ATOM     15  C   UNL     1      -5.914 -23.442 -20.573  1.00  0.00    -0.020 C 
ATOM     16  C   UNL     1      -8.342 -22.621 -20.266  1.00  0.00     0.032 C 
ATOM     17  C   UNL     1      -7.268 -23.637 -19.732  1.00  0.00     0.006 C 
ATOM     18  C   UNL     1      -5.311 -22.100 -20.093  1.00  0.00     0.008 C 
ATOM     19  C   UNL     1      -4.938 -24.607 -20.244  1.00  0.00     0.012 C 
ATOM     20  C   UNL     1      -7.055 -23.770 -18.173  1.00  0.00    -0.025 C 
ATOM     21  C   UNL     1      -5.054 -21.954 -18.600  1.00  0.00     0.005 C 
ATOM     22  C   UNL     1      -5.871 -22.844 -17.555  1.00  0.00     0.003 C 
ATOM     23  C   UNL     1      -8.399 -23.531 -17.449  1.00  0.00     0.010 C 
ATOM     24  C   UNL     1      -6.783 -25.304 -17.885  1.00  0.00     0.012 C 
ATOM     25  C   UNL     1      -6.026 -22.199 -16.064  1.00  0.00    -0.006 C 
ATOM     26  C   UNL     1      -8.255 -23.445 -15.930  1.00  0.00     0.033 C 
ATOM     27  C   UNL     1      -7.529 -22.162 -15.614  1.00  0.00     0.120 C 
ATOM     28  C   UNL     1      -5.573 -20.702 -15.921  1.00  0.00     0.014 C 
ATOM     29  C   UNL     1      -5.163 -23.002 -15.025  1.00  0.00     0.014 C 
ENDROOT
BRANCH   1  30
ATOM     30  C   UNL     1      -5.921 -22.370 -25.762  1.00  0.00     0.048 C 
ATOM     31  O   UNL     1      -4.875 -22.185 -26.503  1.00  0.00    -0.550 OA
ATOM     32  O   UNL     1      -6.643 -23.616 -25.944  1.00  0.00    -0.550 OA
ENDBRANCH   1  30
BRANCH  27  33
ATOM     33  O   UNL     1      -7.675 -21.861 -14.248  1.00  0.00    -0.393 OA
ATOM     34  H   UNL     1      -8.581 -22.214 -13.944  1.00  0.00     0.210 HD
ENDBRANCH  27  33
TORSDOF 2
ENDMDL
MODEL 2
REMARK VINA RESULT:    14.311      1.665      7.755
REMARK INTER + INTRA:          15.256
REMARK INTER:                  15.436
REMARK INTRA:                  -0.181
REMARK UNBOUND:                -0.310
REMARK SMILES CC1(C)CC[C@@]2(C(=O)[O-])CC[C@]3(C)C(=CC[C@@H]4[C@]5(C)CC[C@@H](O)C(C)(C)[C@@H]5CC[C@@]43C)[C@H]2C1
REMARK SMILES IDX 6 1 5 2 10 3 32 4 4 5 11 6 14 7 33 8 2 9 12 10 15 11 1 12
REMARK SMILES IDX 3 13 13 14 30 15 16 16 17 17 29 18 31 19 18 20 28 21 27 22
REMARK SMILES IDX 20 23 19 24 24 25 21 26 22 27 25 28 26 29 7 30 8 31 9 32
REMARK SMILES IDX 23 33
REMARK H PARENT 23 34
REMARK Flexibility Score: inf
ROOT
ATOM      1  C   UNL     1      -7.916 -23.721 -16.953  1.00  0.00     0.017 C 
ATOM      2  C   UNL     1      -8.214 -22.121 -16.514  1.00  0.00     0.014 C 
ATOM      3  C   UNL     1      -8.963 -23.914 -18.144  1.00  0.00     0.014 C 
ATOM      4  C   UNL     1      -6.437 -23.495 -17.455  1.00  0.00     0.028 C 
ATOM      5  C   UNL     1      -7.288 -21.526 -15.403  1.00  0.00     0.007 C 
ATOM      6  C   UNL     1      -8.530 -24.863 -19.213  1.00  0.00     0.013 C 
ATOM      7  C   UNL     1      -6.403 -23.397 -18.892  1.00  0.00    -0.064 C 
ATOM      8  C   UNL     1      -5.396 -22.630 -16.547  1.00  0.00     0.015 C 
ATOM      9  C   UNL     1      -5.863 -21.285 -15.901  1.00  0.00    -0.035 C 
ATOM     10  C   UNL     1      -7.102 -24.464 -19.834  1.00  0.00    -0.006 C 
ATOM     11  C   UNL     1      -5.301 -22.801 -19.450  1.00  0.00    -0.027 C 
ATOM     12  C   UNL     1      -4.875 -21.000 -14.721  1.00  0.00     0.011 C 
ATOM     13  C   UNL     1      -5.838 -19.996 -16.846  1.00  0.00     0.011 C 
ATOM     14  C   UNL     1      -6.224 -25.745 -19.774  1.00  0.00     0.017 C 
ATOM     15  C   UNL     1      -7.282 -23.864 -21.261  1.00  0.00    -0.020 C 
ATOM     16  C   UNL     1      -5.475 -22.108 -20.700  1.00  0.00     0.032 C 
ATOM     17  C   UNL     1      -5.946 -23.143 -21.786  1.00  0.00     0.006 C 
ATOM     18  C   UNL     1      -8.402 -22.801 -21.366  1.00  0.00     0.008 C 
ATOM     19  C   UNL     1      -7.609 -25.067 -22.190  1.00  0.00     0.012 C 
ATOM     20  C   UNL     1      -5.999 -22.689 -23.297  1.00  0.00    -0.025 C 
ATOM     21  C   UNL     1      -8.623 -22.164 -22.729  1.00  0.00     0.005 C 
ATOM     22  C   UNL     1      -7.442 -22.140 -23.804  1.00  0.00     0.003 C 
ATOM     23  C   UNL     1      -4.875 -21.664 -23.566  1.00  0.00     0.010 C 
ATOM     24  C   UNL     1      -5.535 -23.936 -24.158  1.00  0.00     0.012 C 
ATOM     25  C   UNL     1      -7.523 -20.931 -24.898  1.00  0.00    -0.006 C 
ATOM     26  C   UNL     1      -4.967 -21.020 -24.948  1.00  0.00     0.033 C 
ATOM     27  C   UNL     1      -6.179 -20.122 -24.952  1.00  0.00     0.120 C 
ATOM     28  C   UNL     1      -8.596 -19.821 -24.607  1.00  0.00     0.014 C 
ATOM     29  C   UNL     1      -7.877 -21.498 -26.320  1.00  0.00     0.014 C 
ENDROOT
BRANCH   1  30
ATOM     30  C   UNL     1      -8.014 -25.133 -16.170  1.00  0.00     0.048 C 
ATOM     31  O   UNL     1      -7.084 -25.754 -15.518  1.00  0.00    -0.550 OA
ATOM     32  O   UNL     1      -9.374 -25.608 -15.986  1.00  0.00    -0.550 OA
ENDBRANCH   1  30
BRANCH  27  33
ATOM     33  O   UNL     1      -6.117 -19.251 -26.055  1.00  0.00    -0.393 OA
ATOM     34  H   UNL     1      -5.528 -18.461 -25.798  1.00  0.00     0.210 HD
ENDBRANCH  27  33
TORSDOF 2
ENDMDL
