MODEL 1
REMARK VINA RESULT:    -3.731      0.000      0.000
REMARK INTER + INTRA:          -8.268
REMARK INTER:                  -7.221
REMARK INTRA:                  -1.047
REMARK UNBOUND:                -1.047
REMARK SMILES CCCCCCCCCCCCCCCCCC(=O)[O-]
REMARK SMILES IDX 10 1 11 2 12 3 13 4 14 5 15 6 16 7 17 8 18 9 19 10 20 11
REMARK SMILES IDX 9 12 8 13 7 14 6 15 5 16 4 17 3 18 2 19 1 20
REMARK H PARENT
REMARK Flexibility Score: inf
ROOT
ATOM      1  C   UNL     1      -3.899  25.651  25.369  1.00  0.00     0.000 C 
ENDROOT
BRANCH   1   2
ATOM      2  C   UNL     1      -3.068  26.718  26.103  1.00  0.00     0.000 C 
BRANCH   2   3
ATOM      3  C   UNL     1      -2.388  27.759  25.191  1.00  0.00     0.000 C 
BRANCH   3   4
ATOM      4  C   UNL     1      -0.854  27.844  25.320  1.00  0.00     0.000 C 
BRANCH   4   5
ATOM      5  C   UNL     1      -0.093  26.560  24.948  1.00  0.00     0.000 C 
BRANCH   5   6
ATOM      6  C   UNL     1       0.344  26.533  23.473  1.00  0.00     0.000 C 
BRANCH   6   7
ATOM      7  C   UNL     1       0.707  25.118  22.985  1.00  0.00     0.006 C 
BRANCH   7   8
ATOM      8  C   UNL     1      -0.026  23.984  23.721  1.00  0.00     0.053 C 
BRANCH   8   9
ATOM      9  C   UNL     1      -0.164  22.760  22.869  1.00  0.00     0.041 C 
ATOM     10  O   UNL     1       0.440  22.683  21.767  1.00  0.00    -0.550 OA
ATOM     11  O   UNL     1      -0.934  21.691  23.309  1.00  0.00    -0.550 OA
ENDBRANCH   8   9
ENDBRANCH   7   8
ENDBRANCH   6   7
ENDBRANCH   5   6
ENDBRANCH   4   5
ENDBRANCH   3   4
ENDBRANCH   2   3
ENDBRANCH   1   2
BRANCH   1  12
ATOM     12  C   UNL     1      -3.538  24.217  25.793  1.00  0.00     0.000 C 
BRANCH  12  13
ATOM     13  C   UNL     1      -4.678  23.522  26.555  1.00  0.00    -0.000 C 
BRANCH  13  14
ATOM     14  C   UNL     1      -6.045  23.704  25.871  1.00  0.00    -0.000 C 
BRANCH  14  15
ATOM     15  C   UNL     1      -7.161  22.896  26.553  1.00  0.00    -0.000 C 
BRANCH  15  16
ATOM     16  C   UNL     1      -8.553  23.218  25.985  1.00  0.00    -0.000 C 
BRANCH  16  17
ATOM     17  C   UNL     1      -8.498  24.156  24.765  1.00  0.00    -0.000 C 
BRANCH  17  18
ATOM     18  C   UNL     1      -9.858  24.451  24.100  1.00  0.00    -0.000 C 
BRANCH  18  19
ATOM     19  C   UNL     1     -10.595  23.216  23.552  1.00  0.00    -0.003 C 
ATOM     20  C   UNL     1     -11.208  23.453  22.172  1.00  0.00     0.004 C 
ENDBRANCH  18  19
ENDBRANCH  17  18
ENDBRANCH  16  17
ENDBRANCH  15  16
ENDBRANCH  14  15
ENDBRANCH  13  14
ENDBRANCH  12  13
ENDBRANCH   1  12
TORSDOF 16
ENDMDL
MODEL 2
REMARK VINA RESULT:    -3.725      3.277      8.764
REMARK INTER + INTRA:          -8.256
REMARK INTER:                  -7.074
REMARK INTRA:                  -1.183
REMARK UNBOUND:                -1.047
REMARK SMILES CCCCCCCCCCCCCCCCCC(=O)[O-]
REMARK SMILES IDX 10 1 11 2 12 3 13 4 14 5 15 6 16 7 17 8 18 9 19 10 20 11
REMARK SMILES IDX 9 12 8 13 7 14 6 15 5 16 4 17 3 18 2 19 1 20
REMARK H PARENT
REMARK Flexibility Score: inf
ROOT
ATOM      1  C   UNL     1      -3.403  25.672  25.427  1.00  0.00     0.000 C 
ENDROOT
BRANCH   1   2
ATOM      2  C   UNL     1      -3.904  24.514  26.309  1.00  0.00     0.000 C 
BRANCH   2   3
ATOM      3  C   UNL     1      -4.886  23.544  25.621  1.00  0.00     0.000 C 
BRANCH   3   4
ATOM      4  C   UNL     1      -5.940  22.908  26.549  1.00  0.00     0.000 C 
BRANCH   4   5
ATOM      5  C   UNL     1      -7.391  23.352  26.294  1.00  0.00     0.000 C 
BRANCH   5   6
ATOM      6  C   UNL     1      -8.417  22.256  26.630  1.00  0.00     0.000 C 
BRANCH   6   7
ATOM      7  C   UNL     1      -9.809  22.541  26.035  1.00  0.00     0.006 C 
BRANCH   7   8
ATOM      8  C   UNL     1      -9.939  22.215  24.538  1.00  0.00     0.053 C 
BRANCH   8   9
ATOM      9  C   UNL     1     -10.368  23.408  23.739  1.00  0.00     0.041 C 
ATOM     10  O   UNL     1     -11.406  23.356  23.030  1.00  0.00    -0.550 OA
ATOM     11  O   UNL     1      -9.635  24.586  23.804  1.00  0.00    -0.550 OA
ENDBRANCH   8   9
ENDBRANCH   7   8
ENDBRANCH   6   7
ENDBRANCH   5   6
ENDBRANCH   4   5
ENDBRANCH   3   4
ENDBRANCH   2   3
ENDBRANCH   1   2
BRANCH   1  12
ATOM     12  C   UNL     1      -3.059  26.933  26.236  1.00  0.00     0.000 C 
BRANCH  12  13
ATOM     13  C   UNL     1      -2.102  27.873  25.485  1.00  0.00    -0.000 C 
BRANCH  13  14
ATOM     14  C   UNL     1      -1.906  27.467  24.013  1.00  0.00    -0.000 C 
BRANCH  14  15
ATOM     15  C   UNL     1      -0.538  27.896  23.457  1.00  0.00    -0.000 C 
BRANCH  15  16
ATOM     16  C   UNL     1       0.626  27.115  24.089  1.00  0.00    -0.000 C 
BRANCH  16  17
ATOM     17  C   UNL     1       1.462  26.345  23.051  1.00  0.00    -0.000 C 
BRANCH  17  18
ATOM     18  C   UNL     1       1.511  24.815  23.248  1.00  0.00    -0.000 C 
BRANCH  18  19
ATOM     19  C   UNL     1       0.171  24.089  23.031  1.00  0.00    -0.003 C 
ATOM     20  C   UNL     1      -0.543  23.756  24.341  1.00  0.00     0.004 C 
ENDBRANCH  18  19
ENDBRANCH  17  18
ENDBRANCH  16  17
ENDBRANCH  15  16
ENDBRANCH  14  15
ENDBRANCH  13  14
ENDBRANCH  12  13
ENDBRANCH   1  12
TORSDOF 16
ENDMDL
MODEL 3
REMARK VINA RESULT:    -3.616      1.368      1.945
REMARK INTER + INTRA:          -8.044
REMARK INTER:                  -7.053
REMARK INTRA:                  -0.991
REMARK UNBOUND:                -1.047
REMARK SMILES CCCCCCCCCCCCCCCCCC(=O)[O-]
REMARK SMILES IDX 10 1 11 2 12 3 13 4 14 5 15 6 16 7 17 8 18 9 19 10 20 11
REMARK SMILES IDX 9 12 8 13 7 14 6 15 5 16 4 17 3 18 2 19 1 20
REMARK H PARENT
REMARK Flexibility Score: inf
ROOT
ATOM      1  C   UNL     1      -4.674  24.372  25.453  1.00  0.00     0.000 C 
ENDROOT
BRANCH   1   2
ATOM      2  C   UNL     1      -3.333  25.116  25.587  1.00  0.00     0.000 C 
BRANCH   2   3
ATOM      3  C   UNL     1      -3.444  26.584  26.045  1.00  0.00     0.000 C 
BRANCH   3   4
ATOM      4  C   UNL     1      -2.565  27.584  25.265  1.00  0.00     0.000 C 
BRANCH   4   5
ATOM      5  C   UNL     1      -1.221  27.932  25.930  1.00  0.00     0.000 C 
BRANCH   5   6
ATOM      6  C   UNL     1      -0.011  27.437  25.119  1.00  0.00     0.000 C 
BRANCH   6   7
ATOM      7  C   UNL     1      -0.419  26.635  23.870  1.00  0.00     0.006 C 
BRANCH   7   8
ATOM      8  C   UNL     1       0.114  25.194  23.836  1.00  0.00     0.053 C 
BRANCH   8   9
ATOM      9  C   UNL     1       1.071  24.976  22.704  1.00  0.00     0.041 C 
ATOM     10  O   UNL     1       1.984  24.115  22.802  1.00  0.00    -0.550 OA
ATOM     11  O   UNL     1       0.932  25.703  21.528  1.00  0.00    -0.550 OA
ENDBRANCH   8   9
ENDBRANCH   7   8
ENDBRANCH   6   7
ENDBRANCH   5   6
ENDBRANCH   4   5
ENDBRANCH   3   4
ENDBRANCH   2   3
ENDBRANCH   1   2
BRANCH   1  12
ATOM     12  C   UNL     1      -4.934  23.397  26.614  1.00  0.00     0.000 C 
BRANCH  12  13
ATOM     13  C   UNL     1      -6.230  22.591  26.428  1.00  0.00    -0.000 C 
BRANCH  13  14
ATOM     14  C   UNL     1      -7.492  23.417  26.738  1.00  0.00    -0.000 C 
BRANCH  14  15
ATOM     15  C   UNL     1      -8.770  22.562  26.753  1.00  0.00    -0.000 C 
BRANCH  15  16
ATOM     16  C   UNL     1      -9.522  22.603  25.413  1.00  0.00    -0.000 C 
BRANCH  16  17
ATOM     17  C   UNL     1      -9.133  23.817  24.547  1.00  0.00    -0.000 C 
BRANCH  17  18
ATOM     18  C   UNL     1     -10.245  24.344  23.617  1.00  0.00    -0.000 C 
BRANCH  18  19
ATOM     19  C   UNL     1     -11.153  23.260  23.009  1.00  0.00    -0.003 C 
ATOM     20  C   UNL     1     -11.575  23.573  21.574  1.00  0.00     0.004 C 
ENDBRANCH  18  19
ENDBRANCH  17  18
ENDBRANCH  16  17
ENDBRANCH  15  16
ENDBRANCH  14  15
ENDBRANCH  13  14
ENDBRANCH  12  13
ENDBRANCH   1  12
TORSDOF 16
ENDMDL
MODEL 4
REMARK VINA RESULT:    -3.540      3.428      8.401
REMARK INTER + INTRA:          -7.897
REMARK INTER:                  -6.803
REMARK INTRA:                  -1.094
REMARK UNBOUND:                -1.047
REMARK SMILES CCCCCCCCCCCCCCCCCC(=O)[O-]
REMARK SMILES IDX 10 1 11 2 12 3 13 4 14 5 15 6 16 7 17 8 18 9 19 10 20 11
REMARK SMILES IDX 9 12 8 13 7 14 6 15 5 16 4 17 3 18 2 19 1 20
REMARK H PARENT
REMARK Flexibility Score: inf
ROOT
ATOM      1  C   UNL     1      -3.467  26.487  26.249  1.00  0.00     0.000 C 
ENDROOT
BRANCH   1   2
ATOM      2  C   UNL     1      -3.732  25.408  25.183  1.00  0.00     0.000 C 
BRANCH   2   3
ATOM      3  C   UNL     1      -3.636  23.954  25.686  1.00  0.00     0.000 C 
BRANCH   3   4
ATOM      4  C   UNL     1      -4.802  23.490  26.582  1.00  0.00     0.000 C 
BRANCH   4   5
ATOM      5  C   UNL     1      -6.202  23.620  25.955  1.00  0.00     0.000 C 
BRANCH   5   6
ATOM      6  C   UNL     1      -7.225  22.654  26.578  1.00  0.00     0.000 C 
BRANCH   6   7
ATOM      7  C   UNL     1      -8.674  23.157  26.446  1.00  0.00     0.006 C 
BRANCH   7   8
ATOM      8  C   UNL     1      -9.016  23.759  25.074  1.00  0.00     0.053 C 
BRANCH   8   9
ATOM      9  C   UNL     1     -10.014  22.926  24.329  1.00  0.00     0.041 C 
ATOM     10  O   UNL     1     -10.305  21.771  24.735  1.00  0.00    -0.550 OA
ATOM     11  O   UNL     1     -10.645  23.440  23.203  1.00  0.00    -0.550 OA
ENDBRANCH   8   9
ENDBRANCH   7   8
ENDBRANCH   6   7
ENDBRANCH   5   6
ENDBRANCH   4   5
ENDBRANCH   3   4
ENDBRANCH   2   3
ENDBRANCH   1   2
BRANCH   1  12
ATOM     12  C   UNL     1      -2.264  27.381  25.906  1.00  0.00     0.000 C 
BRANCH  12  13
ATOM     13  C   UNL     1      -2.215  27.759  24.417  1.00  0.00    -0.000 C 
BRANCH  13  14
ATOM     14  C   UNL     1      -0.827  27.529  23.792  1.00  0.00    -0.000 C 
BRANCH  14  15
ATOM     15  C   UNL     1      -0.396  26.053  23.833  1.00  0.00    -0.000 C 
BRANCH  15  16
ATOM     16  C   UNL     1       1.044  25.846  23.333  1.00  0.00    -0.000 C 
BRANCH  16  17
ATOM     17  C   UNL     1       1.373  24.368  23.057  1.00  0.00    -0.000 C 
BRANCH  17  18
ATOM     18  C   UNL     1       0.969  23.854  21.659  1.00  0.00    -0.000 C 
BRANCH  18  19
ATOM     19  C   UNL     1       0.262  22.487  21.648  1.00  0.00    -0.003 C 
ATOM     20  C   UNL     1      -0.545  22.224  22.919  1.00  0.00     0.004 C 
ENDBRANCH  18  19
ENDBRANCH  17  18
ENDBRANCH  16  17
ENDBRANCH  15  16
ENDBRANCH  14  15
ENDBRANCH  13  14
ENDBRANCH  12  13
ENDBRANCH   1  12
TORSDOF 16
ENDMDL
MODEL 5
REMARK VINA RESULT:    -3.389      3.648      7.128
REMARK INTER + INTRA:          -7.606
REMARK INTER:                  -6.335
REMARK INTRA:                  -1.270
REMARK UNBOUND:                -1.047
REMARK SMILES CCCCCCCCCCCCCCCCCC(=O)[O-]
REMARK SMILES IDX 10 1 11 2 12 3 13 4 14 5 15 6 16 7 17 8 18 9 19 10 20 11
REMARK SMILES IDX 9 12 8 13 7 14 6 15 5 16 4 17 3 18 2 19 1 20
REMARK H PARENT
REMARK Flexibility Score: inf
ROOT
ATOM      1  C   UNL     1       0.229  23.064  22.761  1.00  0.00     0.000 C 
ENDROOT
BRANCH   1   2
ATOM      2  C   UNL     1       1.269  23.547  21.733  1.00  0.00     0.000 C 
BRANCH   2   3
ATOM      3  C   UNL     1       0.843  23.407  20.258  1.00  0.00     0.000 C 
BRANCH   3   4
ATOM      4  C   UNL     1      -0.074  22.206  19.949  1.00  0.00     0.000 C 
BRANCH   4   5
ATOM      5  C   UNL     1       0.561  21.102  19.085  1.00  0.00     0.000 C 
BRANCH   5   6
ATOM      6  C   UNL     1       1.794  20.463  19.748  1.00  0.00     0.000 C 
BRANCH   6   7
ATOM      7  C   UNL     1       1.942  18.968  19.410  1.00  0.00     0.006 C 
BRANCH   7   8
ATOM      8  C   UNL     1       0.668  18.136  19.635  1.00  0.00     0.053 C 
BRANCH   8   9
ATOM      9  C   UNL     1       0.977  16.768  20.163  1.00  0.00     0.041 C 
ATOM     10  O   UNL     1       0.993  16.555  21.403  1.00  0.00    -0.550 OA
ATOM     11  O   UNL     1       1.217  15.722  19.281  1.00  0.00    -0.550 OA
ENDBRANCH   8   9
ENDBRANCH   7   8
ENDBRANCH   6   7
ENDBRANCH   5   6
ENDBRANCH   4   5
ENDBRANCH   3   4
ENDBRANCH   2   3
ENDBRANCH   1   2
BRANCH   1  12
ATOM     12  C   UNL     1      -0.119  24.138  23.806  1.00  0.00     0.000 C 
BRANCH  12  13
ATOM     13  C   UNL     1       0.473  25.513  23.459  1.00  0.00    -0.000 C 
BRANCH  13  14
ATOM     14  C   UNL     1      -0.514  26.666  23.716  1.00  0.00    -0.000 C 
BRANCH  14  15
ATOM     15  C   UNL     1      -0.104  27.542  24.912  1.00  0.00    -0.000 C 
BRANCH  15  16
ATOM     16  C   UNL     1      -1.256  27.756  25.907  1.00  0.00    -0.000 C 
BRANCH  16  17
ATOM     17  C   UNL     1      -2.635  27.427  25.305  1.00  0.00    -0.000 C 
BRANCH  17  18
ATOM     18  C   UNL     1      -3.446  26.355  26.062  1.00  0.00    -0.000 C 
BRANCH  18  19
ATOM     19  C   UNL     1      -3.315  24.927  25.503  1.00  0.00    -0.003 C 
ATOM     20  C   UNL     1      -4.395  23.982  26.030  1.00  0.00     0.004 C 
ENDBRANCH  18  19
ENDBRANCH  17  18
ENDBRANCH  16  17
ENDBRANCH  15  16
ENDBRANCH  14  15
ENDBRANCH  13  14
ENDBRANCH  12  13
ENDBRANCH   1  12
TORSDOF 16
ENDMDL
MODEL 6
REMARK VINA RESULT:    -3.233      3.787      8.417
REMARK INTER + INTRA:          -7.304
REMARK INTER:                  -6.216
REMARK INTRA:                  -1.088
REMARK UNBOUND:                -1.047
REMARK SMILES CCCCCCCCCCCCCCCCCC(=O)[O-]
REMARK SMILES IDX 10 1 11 2 12 3 13 4 14 5 15 6 16 7 17 8 18 9 19 10 20 11
REMARK SMILES IDX 9 12 8 13 7 14 6 15 5 16 4 17 3 18 2 19 1 20
REMARK H PARENT
REMARK Flexibility Score: inf
ROOT
ATOM      1  C   UNL     1       0.161  23.041  23.063  1.00  0.00     0.000 C 
ENDROOT
BRANCH   1   2
ATOM      2  C   UNL     1      -0.301  24.204  23.959  1.00  0.00     0.000 C 
BRANCH   2   3
ATOM      3  C   UNL     1       0.362  25.564  23.659  1.00  0.00     0.000 C 
BRANCH   3   4
ATOM      4  C   UNL     1      -0.225  26.765  24.429  1.00  0.00     0.000 C 
BRANCH   4   5
ATOM      5  C   UNL     1      -1.756  26.901  24.361  1.00  0.00     0.000 C 
BRANCH   5   6
ATOM      6  C   UNL     1      -2.365  27.438  25.667  1.00  0.00     0.000 C 
BRANCH   6   7
ATOM      7  C   UNL     1      -3.494  26.543  26.209  1.00  0.00     0.006 C 
BRANCH   7   8
ATOM      8  C   UNL     1      -3.635  25.191  25.491  1.00  0.00     0.053 C 
BRANCH   8   9
ATOM      9  C   UNL     1      -4.260  24.151  26.369  1.00  0.00     0.041 C 
ATOM     10  O   UNL     1      -5.072  23.319  25.887  1.00  0.00    -0.550 OA
ATOM     11  O   UNL     1      -3.920  24.083  27.714  1.00  0.00    -0.550 OA
ENDBRANCH   8   9
ENDBRANCH   7   8
ENDBRANCH   6   7
ENDBRANCH   5   6
ENDBRANCH   4   5
ENDBRANCH   3   4
ENDBRANCH   2   3
ENDBRANCH   1   2
BRANCH   1  12
ATOM     12  C   UNL     1       1.065  23.500  21.907  1.00  0.00     0.000 C 
BRANCH  12  13
ATOM     13  C   UNL     1       1.228  22.423  20.822  1.00  0.00    -0.000 C 
BRANCH  13  14
ATOM     14  C   UNL     1       0.015  22.344  19.878  1.00  0.00    -0.000 C 
BRANCH  14  15
ATOM     15  C   UNL     1       0.246  21.388  18.696  1.00  0.00    -0.000 C 
BRANCH  15  16
ATOM     16  C   UNL     1       1.718  20.967  18.558  1.00  0.00    -0.000 C 
BRANCH  16  17
ATOM     17  C   UNL     1       1.957  19.496  18.943  1.00  0.00    -0.000 C 
BRANCH  17  18
ATOM     18  C   UNL     1       0.924  18.494  18.388  1.00  0.00    -0.000 C 
BRANCH  18  19
ATOM     19  C   UNL     1       0.222  17.627  19.449  1.00  0.00    -0.003 C 
ATOM     20  C   UNL     1       1.182  17.101  20.516  1.00  0.00     0.004 C 
ENDBRANCH  18  19
ENDBRANCH  17  18
ENDBRANCH  16  17
ENDBRANCH  15  16
ENDBRANCH  14  15
ENDBRANCH  13  14
ENDBRANCH  12  13
ENDBRANCH   1  12
TORSDOF 16
ENDMDL
MODEL 7
REMARK VINA RESULT:    -3.135      3.821      7.750
REMARK INTER + INTRA:          -7.113
REMARK INTER:                  -5.591
REMARK INTRA:                  -1.523
REMARK UNBOUND:                -1.047
REMARK SMILES CCCCCCCCCCCCCCCCCC(=O)[O-]
REMARK SMILES IDX 10 1 11 2 12 3 13 4 14 5 15 6 16 7 17 8 18 9 19 10 20 11
REMARK SMILES IDX 9 12 8 13 7 14 6 15 5 16 4 17 3 18 2 19 1 20
REMARK H PARENT
REMARK Flexibility Score: inf
ROOT
ATOM      1  C   UNL     1      -0.151  24.949  24.000  1.00  0.00     0.000 C 
ENDROOT
BRANCH   1   2
ATOM      2  C   UNL     1       0.726  26.149  23.599  1.00  0.00     0.000 C 
BRANCH   2   3
ATOM      3  C   UNL     1      -0.046  27.445  23.278  1.00  0.00     0.000 C 
BRANCH   3   4
ATOM      4  C   UNL     1      -1.548  27.418  23.626  1.00  0.00     0.000 C 
BRANCH   4   5
ATOM      5  C   UNL     1      -1.927  28.115  24.945  1.00  0.00     0.000 C 
BRANCH   5   6
ATOM      6  C   UNL     1      -2.126  27.126  26.106  1.00  0.00     0.000 C 
BRANCH   6   7
ATOM      7  C   UNL     1      -3.544  26.529  26.142  1.00  0.00     0.006 C 
BRANCH   7   8
ATOM      8  C   UNL     1      -3.669  25.145  25.484  1.00  0.00     0.053 C 
BRANCH   8   9
ATOM      9  C   UNL     1      -4.236  24.125  26.424  1.00  0.00     0.041 C 
ATOM     10  O   UNL     1      -5.008  23.228  25.996  1.00  0.00    -0.550 OA
ATOM     11  O   UNL     1      -3.885  24.149  27.768  1.00  0.00    -0.550 OA
ENDBRANCH   8   9
ENDBRANCH   7   8
ENDBRANCH   6   7
ENDBRANCH   5   6
ENDBRANCH   4   5
ENDBRANCH   3   4
ENDBRANCH   2   3
ENDBRANCH   1   2
BRANCH   1  12
ATOM     12  C   UNL     1       0.195  23.670  23.219  1.00  0.00     0.000 C 
BRANCH  12  13
ATOM     13  C   UNL     1       1.491  23.809  22.404  1.00  0.00    -0.000 C 
BRANCH  13  14
ATOM     14  C   UNL     1       1.275  23.566  20.900  1.00  0.00    -0.000 C 
BRANCH  14  15
ATOM     15  C   UNL     1       0.642  22.196  20.605  1.00  0.00    -0.000 C 
BRANCH  15  16
ATOM     16  C   UNL     1      -0.147  22.184  19.285  1.00  0.00    -0.000 C 
BRANCH  16  17
ATOM     17  C   UNL     1       0.748  22.406  18.052  1.00  0.00    -0.000 C 
BRANCH  17  18
ATOM     18  C   UNL     1       0.248  23.477  17.060  1.00  0.00    -0.000 C 
BRANCH  18  19
ATOM     19  C   UNL     1       0.805  24.893  17.297  1.00  0.00    -0.003 C 
ATOM     20  C   UNL     1      -0.125  25.764  18.141  1.00  0.00     0.004 C 
ENDBRANCH  18  19
ENDBRANCH  17  18
ENDBRANCH  16  17
ENDBRANCH  15  16
ENDBRANCH  14  15
ENDBRANCH  13  14
ENDBRANCH  12  13
ENDBRANCH   1  12
TORSDOF 16
ENDMDL
MODEL 8
REMARK VINA RESULT:    -3.071      2.399      2.841
REMARK INTER + INTRA:          -6.989
REMARK INTER:                  -6.435
REMARK INTRA:                  -0.554
REMARK UNBOUND:                -1.047
REMARK SMILES CCCCCCCCCCCCCCCCCC(=O)[O-]
REMARK SMILES IDX 10 1 11 2 12 3 13 4 14 5 15 6 16 7 17 8 18 9 19 10 20 11
REMARK SMILES IDX 9 12 8 13 7 14 6 15 5 16 4 17 3 18 2 19 1 20
REMARK H PARENT
REMARK Flexibility Score: inf
ROOT
ATOM      1  C   UNL     1      -3.537  24.615  25.657  1.00  0.00     0.000 C 
ENDROOT
BRANCH   1   2
ATOM      2  C   UNL     1      -3.872  26.098  25.899  1.00  0.00     0.000 C 
BRANCH   2   3
ATOM      3  C   UNL     1      -2.680  27.068  25.770  1.00  0.00     0.000 C 
BRANCH   3   4
ATOM      4  C   UNL     1      -1.703  26.757  24.617  1.00  0.00     0.000 C 
BRANCH   4   5
ATOM      5  C   UNL     1      -1.065  27.989  23.951  1.00  0.00     0.000 C 
BRANCH   5   6
ATOM      6  C   UNL     1      -1.205  27.976  22.419  1.00  0.00     0.000 C 
BRANCH   6   7
ATOM      7  C   UNL     1       0.141  27.763  21.700  1.00  0.00     0.006 C 
BRANCH   7   8
ATOM      8  C   UNL     1       0.090  27.975  20.178  1.00  0.00     0.053 C 
BRANCH   8   9
ATOM      9  C   UNL     1       0.383  26.713  19.426  1.00  0.00     0.041 C 
ATOM     10  O   UNL     1      -0.454  26.255  18.605  1.00  0.00    -0.550 OA
ATOM     11  O   UNL     1       1.596  26.061  19.609  1.00  0.00    -0.550 OA
ENDBRANCH   8   9
ENDBRANCH   7   8
ENDBRANCH   6   7
ENDBRANCH   5   6
ENDBRANCH   4   5
ENDBRANCH   3   4
ENDBRANCH   2   3
ENDBRANCH   1   2
BRANCH   1  12
ATOM     12  C   UNL     1      -4.474  23.660  26.415  1.00  0.00     0.000 C 
BRANCH  12  13
ATOM     13  C   UNL     1      -5.893  23.633  25.823  1.00  0.00    -0.000 C 
BRANCH  13  14
ATOM     14  C   UNL     1      -6.846  22.714  26.610  1.00  0.00    -0.000 C 
BRANCH  14  15
ATOM     15  C   UNL     1      -8.268  23.289  26.717  1.00  0.00    -0.000 C 
BRANCH  15  16
ATOM     16  C   UNL     1      -8.911  23.531  25.341  1.00  0.00    -0.000 C 
BRANCH  16  17
ATOM     17  C   UNL     1      -9.829  22.376  24.899  1.00  0.00    -0.000 C 
BRANCH  17  18
ATOM     18  C   UNL     1     -11.020  22.786  24.008  1.00  0.00    -0.000 C 
BRANCH  18  19
ATOM     19  C   UNL     1     -10.648  23.621  22.769  1.00  0.00    -0.003 C 
ATOM     20  C   UNL     1     -11.683  23.518  21.650  1.00  0.00     0.004 C 
ENDBRANCH  18  19
ENDBRANCH  17  18
ENDBRANCH  16  17
ENDBRANCH  15  16
ENDBRANCH  14  15
ENDBRANCH  13  14
ENDBRANCH  12  13
ENDBRANCH   1  12
TORSDOF 16
ENDMDL
MODEL 9
REMARK VINA RESULT:    -2.977      3.845      7.861
REMARK INTER + INTRA:          -6.807
REMARK INTER:                  -4.846
REMARK INTRA:                  -1.961
REMARK UNBOUND:                -1.047
REMARK SMILES CCCCCCCCCCCCCCCCCC(=O)[O-]
REMARK SMILES IDX 10 1 11 2 12 3 13 4 14 5 15 6 16 7 17 8 18 9 19 10 20 11
REMARK SMILES IDX 9 12 8 13 7 14 6 15 5 16 4 17 3 18 2 19 1 20
REMARK H PARENT
REMARK Flexibility Score: inf
ROOT
ATOM      1  C   UNL     1       1.683  23.182  22.072  1.00  0.00     0.000 C 
ENDROOT
BRANCH   1   2
ATOM      2  C   UNL     1       1.557  24.617  22.614  1.00  0.00     0.000 C 
BRANCH   2   3
ATOM      3  C   UNL     1       0.266  24.906  23.406  1.00  0.00     0.000 C 
BRANCH   3   4
ATOM      4  C   UNL     1       0.241  26.256  24.153  1.00  0.00     0.000 C 
BRANCH   4   5
ATOM      5  C   UNL     1      -0.635  27.344  23.508  1.00  0.00     0.000 C 
BRANCH   5   6
ATOM      6  C   UNL     1      -2.077  27.342  24.042  1.00  0.00     0.000 C 
BRANCH   6   7
ATOM      7  C   UNL     1      -2.159  26.958  25.531  1.00  0.00     0.006 C 
BRANCH   7   8
ATOM      8  C   UNL     1      -3.512  26.368  25.963  1.00  0.00     0.053 C 
BRANCH   8   9
ATOM      9  C   UNL     1      -3.631  24.918  25.605  1.00  0.00     0.041 C 
ATOM     10  O   UNL     1      -4.765  24.395  25.449  1.00  0.00    -0.550 OA
ATOM     11  O   UNL     1      -2.487  24.154  25.415  1.00  0.00    -0.550 OA
ENDBRANCH   8   9
ENDBRANCH   7   8
ENDBRANCH   6   7
ENDBRANCH   5   6
ENDBRANCH   4   5
ENDBRANCH   3   4
ENDBRANCH   2   3
ENDBRANCH   1   2
BRANCH   1  12
ATOM     12  C   UNL     1       0.329  22.575  21.670  1.00  0.00     0.000 C 
BRANCH  12  13
ATOM     13  C   UNL     1       0.113  22.569  20.148  1.00  0.00    -0.000 C 
BRANCH  13  14
ATOM     14  C   UNL     1       1.422  22.768  19.363  1.00  0.00    -0.000 C 
BRANCH  14  15
ATOM     15  C   UNL     1       1.213  23.541  18.050  1.00  0.00    -0.000 C 
BRANCH  15  16
ATOM     16  C   UNL     1       0.210  24.697  18.200  1.00  0.00    -0.000 C 
BRANCH  16  17
ATOM     17  C   UNL     1       0.869  26.000  18.687  1.00  0.00    -0.000 C 
BRANCH  17  18
ATOM     18  C   UNL     1       0.274  26.595  19.980  1.00  0.00    -0.000 C 
BRANCH  18  19
ATOM     19  C   UNL     1      -0.467  27.932  19.799  1.00  0.00    -0.003 C 
ATOM     20  C   UNL     1      -1.616  27.844  18.797  1.00  0.00     0.004 C 
ENDBRANCH  18  19
ENDBRANCH  17  18
ENDBRANCH  16  17
ENDBRANCH  15  16
ENDBRANCH  14  15
ENDBRANCH  13  14
ENDBRANCH  12  13
ENDBRANCH   1  12
TORSDOF 16
ENDMDL
