MODEL 1
REMARK VINA RESULT:    -8.077      0.000      0.000
REMARK INTER + INTRA:         -12.735
REMARK INTER:                 -11.146
REMARK INTRA:                  -1.588
REMARK UNBOUND:                -1.588
REMARK SMILES CC[C@@H](CC[C@H](C)[C@H]1CC[C@@H]2C3=CC[C@@H]4C[C@H](O)CC[C@@]4(C)[C@@H]3CC[C@@]21C)C(C)C
REMARK SMILES IDX 5 1 4 2 3 3 2 4 1 5 28 6 29 7 30 8 6 9 7 10 8 11 9 12 26 13
REMARK SMILES IDX 10 14 11 15 25 16 27 17 12 18 24 19 23 20 13 21 21 22 14 23
REMARK SMILES IDX 15 24 20 25 22 26 16 27 19 28 17 29 18 30
REMARK H PARENT 18 31
REMARK Flexibility Score: inf
ROOT
ATOM      1  C   UNL     1      -6.246  27.310  49.489  1.00  0.00     0.004 C 
ENDROOT
BRANCH   1   2
ATOM      2  C   UNL     1      -7.243  27.100  48.327  1.00  0.00     0.004 C 
BRANCH   2   3
ATOM      3  C   UNL     1      -7.778  28.440  47.744  1.00  0.00    -0.009 C 
BRANCH   3   4
ATOM      4  C   UNL     1      -8.812  28.137  46.618  1.00  0.00     0.000 C 
ATOM      5  C   UNL     1     -10.266  28.093  47.086  1.00  0.00     0.004 C 
ENDBRANCH   3   4
BRANCH   3   6
ATOM      6  C   UNL     1      -6.584  29.365  47.314  1.00  0.00    -0.014 C 
ATOM      7  C   UNL     1      -5.945  28.965  45.975  1.00  0.00     0.007 C 
ATOM      8  C   UNL     1      -6.933  30.862  47.326  1.00  0.00     0.007 C 
ENDBRANCH   3   6
ENDBRANCH   2   3
ENDBRANCH   1   2
BRANCH   1   9
ATOM      9  C   UNL     1      -4.873  26.613  49.266  1.00  0.00    -0.011 C 
ATOM     10  C   UNL     1      -3.814  27.692  48.950  1.00  0.00     0.008 C 
BRANCH   9  11
ATOM     11  C   UNL     1      -4.950  25.451  48.201  1.00  0.00    -0.002 C 
ATOM     12  C   UNL     1      -4.116  25.736  46.941  1.00  0.00     0.005 C 
ATOM     13  C   UNL     1      -4.515  24.011  48.648  1.00  0.00    -0.023 C 
ATOM     14  C   UNL     1      -2.883  24.837  47.003  1.00  0.00     0.009 C 
ATOM     15  C   UNL     1      -3.035  23.909  48.223  1.00  0.00     0.021 C 
ATOM     16  C   UNL     1      -5.342  22.975  47.832  1.00  0.00     0.008 C 
ATOM     17  C   UNL     1      -4.715  23.750  50.164  1.00  0.00     0.012 C 
ATOM     18  C   UNL     1      -2.533  22.499  47.925  1.00  0.00    -0.067 C 
ATOM     19  C   UNL     1      -4.936  21.517  48.073  1.00  0.00     0.009 C 
ATOM     20  C   UNL     1      -3.402  21.268  48.203  1.00  0.00     0.021 C 
ATOM     21  C   UNL     1      -1.223  22.360  47.603  1.00  0.00    -0.027 C 
ATOM     22  C   UNL     1      -2.902  19.993  47.430  1.00  0.00    -0.023 C 
ATOM     23  C   UNL     1      -0.576  21.045  47.253  1.00  0.00     0.031 C 
ATOM     24  C   UNL     1      -1.381  19.840  47.761  1.00  0.00     0.002 C 
ATOM     25  C   UNL     1      -3.646  18.726  47.951  1.00  0.00     0.010 C 
ATOM     26  C   UNL     1      -3.144  20.157  45.897  1.00  0.00     0.012 C 
ATOM     27  C   UNL     1      -0.771  18.516  47.255  1.00  0.00     0.036 C 
ATOM     28  C   UNL     1      -3.037  17.417  47.424  1.00  0.00     0.032 C 
ATOM     29  C   UNL     1      -1.553  17.307  47.790  1.00  0.00     0.114 C 
BRANCH  29  30
ATOM     30  O   UNL     1      -1.034  16.122  47.244  1.00  0.00    -0.393 OA
ATOM     31  H   UNL     1      -1.696  15.406  47.432  1.00  0.00     0.210 HD
ENDBRANCH  29  30
ENDBRANCH   9  11
ENDBRANCH   1   9
TORSDOF 7
ENDMDL
MODEL 2
REMARK VINA RESULT:    -7.732      2.087      4.065
REMARK INTER + INTRA:         -12.258
REMARK INTER:                 -11.182
REMARK INTRA:                  -1.076
REMARK UNBOUND:                -1.588
REMARK SMILES CC[C@@H](CC[C@H](C)[C@H]1CC[C@@H]2C3=CC[C@@H]4C[C@H](O)CC[C@@]4(C)[C@@H]3CC[C@@]21C)C(C)C
REMARK SMILES IDX 5 1 4 2 3 3 2 4 1 5 28 6 29 7 30 8 6 9 7 10 8 11 9 12 26 13
REMARK SMILES IDX 10 14 11 15 25 16 27 17 12 18 24 19 23 20 13 21 21 22 14 23
REMARK SMILES IDX 15 24 20 25 22 26 16 27 19 28 17 29 18 30
REMARK H PARENT 18 31
REMARK Flexibility Score: inf
ROOT
ATOM      1  C   UNL     1      -3.645  26.552  49.708  1.00  0.00     0.004 C 
ENDROOT
BRANCH   1   2
ATOM      2  C   UNL     1      -3.766  26.600  51.249  1.00  0.00     0.004 C 
BRANCH   2   3
ATOM      3  C   UNL     1      -2.922  25.497  51.953  1.00  0.00    -0.009 C 
BRANCH   3   4
ATOM      4  C   UNL     1      -2.524  25.984  53.379  1.00  0.00     0.000 C 
ATOM      5  C   UNL     1      -3.628  26.734  54.125  1.00  0.00     0.004 C 
ENDBRANCH   3   4
BRANCH   3   6
ATOM      6  C   UNL     1      -1.718  25.064  51.042  1.00  0.00    -0.014 C 
ATOM      7  C   UNL     1      -0.461  25.926  51.231  1.00  0.00     0.007 C 
ATOM      8  C   UNL     1      -1.376  23.569  51.150  1.00  0.00     0.007 C 
ENDBRANCH   3   6
ENDBRANCH   2   3
ENDBRANCH   1   2
BRANCH   1   9
ATOM      9  C   UNL     1      -5.011  26.401  48.980  1.00  0.00    -0.011 C 
ATOM     10  C   UNL     1      -6.126  26.265  50.040  1.00  0.00     0.008 C 
BRANCH   9  11
ATOM     11  C   UNL     1      -4.999  25.248  47.902  1.00  0.00    -0.002 C 
ATOM     12  C   UNL     1      -4.061  25.543  46.721  1.00  0.00     0.005 C 
ATOM     13  C   UNL     1      -4.608  23.803  48.370  1.00  0.00    -0.023 C 
ATOM     14  C   UNL     1      -2.840  24.640  46.878  1.00  0.00     0.009 C 
ATOM     15  C   UNL     1      -3.096  23.701  48.072  1.00  0.00     0.021 C 
ATOM     16  C   UNL     1      -5.364  22.778  47.477  1.00  0.00     0.008 C 
ATOM     17  C   UNL     1      -4.937  23.529  49.861  1.00  0.00     0.012 C 
ATOM     18  C   UNL     1      -2.574  22.292  47.804  1.00  0.00    -0.067 C 
ATOM     19  C   UNL     1      -4.984  21.316  47.737  1.00  0.00     0.009 C 
ATOM     20  C   UNL     1      -3.467  21.061  47.996  1.00  0.00     0.021 C 
ATOM     21  C   UNL     1      -1.242  22.153  47.594  1.00  0.00    -0.027 C 
ATOM     22  C   UNL     1      -2.905  19.792  47.256  1.00  0.00    -0.023 C 
ATOM     23  C   UNL     1      -0.570  20.839  47.287  1.00  0.00     0.031 C 
ATOM     24  C   UNL     1      -1.418  19.632  47.714  1.00  0.00     0.002 C 
ATOM     25  C   UNL     1      -3.694  18.523  47.699  1.00  0.00     0.010 C 
ATOM     26  C   UNL     1      -3.015  19.971  45.709  1.00  0.00     0.012 C 
ATOM     27  C   UNL     1      -0.770  18.310  47.249  1.00  0.00     0.036 C 
ATOM     28  C   UNL     1      -3.044  17.217  47.214  1.00  0.00     0.032 C 
ATOM     29  C   UNL     1      -1.597  17.099  47.704  1.00  0.00     0.114 C 
BRANCH  29  30
ATOM     30  O   UNL     1      -1.036  15.918  47.193  1.00  0.00    -0.393 OA
ATOM     31  H   UNL     1      -1.607  15.636  46.430  1.00  0.00     0.210 HD
ENDBRANCH  29  30
ENDBRANCH   9  11
ENDBRANCH   1   9
TORSDOF 7
ENDMDL
MODEL 3
REMARK VINA RESULT:    -7.419      3.716      9.627
REMARK INTER + INTRA:         -11.826
REMARK INTER:                 -10.216
REMARK INTRA:                  -1.611
REMARK UNBOUND:                -1.588
REMARK SMILES CC[C@@H](CC[C@H](C)[C@H]1CC[C@@H]2C3=CC[C@@H]4C[C@H](O)CC[C@@]4(C)[C@@H]3CC[C@@]21C)C(C)C
REMARK SMILES IDX 5 1 4 2 3 3 2 4 1 5 28 6 29 7 30 8 6 9 7 10 8 11 9 12 26 13
REMARK SMILES IDX 10 14 11 15 25 16 27 17 12 18 24 19 23 20 13 21 21 22 14 23
REMARK SMILES IDX 15 24 20 25 22 26 16 27 19 28 17 29 18 30
REMARK H PARENT 18 31
REMARK Flexibility Score: inf
ROOT
ATOM      1  C   UNL     1      -3.685  21.776  49.263  1.00  0.00     0.004 C 
ENDROOT
BRANCH   1   2
ATOM      2  C   UNL     1      -2.506  21.471  48.311  1.00  0.00     0.004 C 
BRANCH   2   3
ATOM      3  C   UNL     1      -2.423  19.967  47.918  1.00  0.00    -0.009 C 
BRANCH   3   4
ATOM      4  C   UNL     1      -2.724  19.814  46.397  1.00  0.00     0.000 C 
ATOM      5  C   UNL     1      -2.503  21.083  45.574  1.00  0.00     0.004 C 
ENDBRANCH   3   4
BRANCH   3   6
ATOM      6  C   UNL     1      -3.332  19.103  48.863  1.00  0.00    -0.014 C 
ATOM      7  C   UNL     1      -4.515  18.439  48.142  1.00  0.00     0.007 C 
ATOM      8  C   UNL     1      -2.550  18.072  49.692  1.00  0.00     0.007 C 
ENDBRANCH   3   6
ENDBRANCH   2   3
ENDBRANCH   1   2
BRANCH   1   9
ATOM      9  C   UNL     1      -4.747  22.734  48.653  1.00  0.00    -0.011 C 
ATOM     10  C   UNL     1      -5.513  21.984  47.542  1.00  0.00     0.008 C 
BRANCH   9  11
ATOM     11  C   UNL     1      -4.129  24.112  48.195  1.00  0.00    -0.002 C 
ATOM     12  C   UNL     1      -4.079  24.268  46.666  1.00  0.00     0.005 C 
ATOM     13  C   UNL     1      -4.805  25.432  48.707  1.00  0.00    -0.023 C 
ATOM     14  C   UNL     1      -5.165  25.270  46.280  1.00  0.00     0.009 C 
ATOM     15  C   UNL     1      -5.780  25.825  47.577  1.00  0.00     0.021 C 
ATOM     16  C   UNL     1      -3.708  26.529  48.827  1.00  0.00     0.008 C 
ATOM     17  C   UNL     1      -5.519  25.266  50.074  1.00  0.00     0.012 C 
ATOM     18  C   UNL     1      -6.085  27.317  47.463  1.00  0.00    -0.067 C 
ATOM     19  C   UNL     1      -4.244  27.915  49.200  1.00  0.00     0.009 C 
ATOM     20  C   UNL     1      -5.587  28.315  48.515  1.00  0.00     0.021 C 
ATOM     21  C   UNL     1      -6.980  27.698  46.519  1.00  0.00    -0.027 C 
ATOM     22  C   UNL     1      -5.613  29.798  47.993  1.00  0.00    -0.023 C 
ATOM     23  C   UNL     1      -7.370  29.130  46.257  1.00  0.00     0.031 C 
ATOM     24  C   UNL     1      -7.055  30.052  47.444  1.00  0.00     0.002 C 
ATOM     25  C   UNL     1      -5.358  30.784  49.174  1.00  0.00     0.010 C 
ATOM     26  C   UNL     1      -4.531  30.005  46.887  1.00  0.00     0.012 C 
ATOM     27  C   UNL     1      -7.326  31.528  47.083  1.00  0.00     0.036 C 
ATOM     28  C   UNL     1      -5.616  32.251  48.793  1.00  0.00     0.032 C 
ATOM     29  C   UNL     1      -7.045  32.450  48.279  1.00  0.00     0.114 C 
BRANCH  29  30
ATOM     30  O   UNL     1      -7.212  33.790  47.899  1.00  0.00    -0.393 OA
ATOM     31  H   UNL     1      -8.185  33.929  47.755  1.00  0.00     0.210 HD
ENDBRANCH  29  30
ENDBRANCH   9  11
ENDBRANCH   1   9
TORSDOF 7
ENDMDL
MODEL 4
REMARK VINA RESULT:    -7.295      3.360      9.275
REMARK INTER + INTRA:         -11.656
REMARK INTER:                 -10.052
REMARK INTRA:                  -1.603
REMARK UNBOUND:                -1.588
REMARK SMILES CC[C@@H](CC[C@H](C)[C@H]1CC[C@@H]2C3=CC[C@@H]4C[C@H](O)CC[C@@]4(C)[C@@H]3CC[C@@]21C)C(C)C
REMARK SMILES IDX 5 1 4 2 3 3 2 4 1 5 28 6 29 7 30 8 6 9 7 10 8 11 9 12 26 13
REMARK SMILES IDX 10 14 11 15 25 16 27 17 12 18 24 19 23 20 13 21 21 22 14 23
REMARK SMILES IDX 15 24 20 25 22 26 16 27 19 28 17 29 18 30
REMARK H PARENT 18 31
REMARK Flexibility Score: inf
ROOT
ATOM      1  C   UNL     1      -1.903  20.581  46.286  1.00  0.00     0.004 C 
ENDROOT
BRANCH   1   2
ATOM      2  C   UNL     1      -3.124  19.642  46.151  1.00  0.00     0.004 C 
BRANCH   2   3
ATOM      3  C   UNL     1      -2.751  18.140  46.322  1.00  0.00    -0.009 C 
BRANCH   3   4
ATOM      4  C   UNL     1      -3.212  17.348  45.061  1.00  0.00     0.000 C 
ATOM      5  C   UNL     1      -2.107  16.541  44.379  1.00  0.00     0.004 C 
ENDBRANCH   3   4
BRANCH   3   6
ATOM      6  C   UNL     1      -3.300  17.591  47.686  1.00  0.00    -0.014 C 
ATOM      7  C   UNL     1      -2.200  17.273  48.710  1.00  0.00     0.007 C 
ATOM      8  C   UNL     1      -4.387  18.480  48.312  1.00  0.00     0.007 C 
ENDBRANCH   3   6
ENDBRANCH   2   3
ENDBRANCH   1   2
BRANCH   1   9
ATOM      9  C   UNL     1      -2.046  21.627  47.428  1.00  0.00    -0.011 C 
ATOM     10  C   UNL     1      -1.638  20.966  48.762  1.00  0.00     0.008 C 
BRANCH   9  11
ATOM     11  C   UNL     1      -3.469  22.309  47.452  1.00  0.00    -0.002 C 
ATOM     12  C   UNL     1      -4.164  22.196  48.819  1.00  0.00     0.005 C 
ATOM     13  C   UNL     1      -3.566  23.830  47.080  1.00  0.00    -0.023 C 
ATOM     14  C   UNL     1      -4.114  23.579  49.465  1.00  0.00     0.009 C 
ATOM     15  C   UNL     1      -3.515  24.560  48.439  1.00  0.00     0.021 C 
ATOM     16  C   UNL     1      -4.955  24.086  46.426  1.00  0.00     0.008 C 
ATOM     17  C   UNL     1      -2.448  24.299  46.113  1.00  0.00     0.012 C 
ATOM     18  C   UNL     1      -4.213  25.916  48.482  1.00  0.00    -0.067 C 
ATOM     19  C   UNL     1      -5.244  25.559  46.121  1.00  0.00     0.009 C 
ATOM     20  C   UNL     1      -4.766  26.569  47.210  1.00  0.00     0.021 C 
ATOM     21  C   UNL     1      -4.143  26.615  49.641  1.00  0.00    -0.027 C 
ATOM     22  C   UNL     1      -5.812  27.701  47.523  1.00  0.00    -0.023 C 
ATOM     23  C   UNL     1      -4.800  27.954  49.860  1.00  0.00     0.031 C 
ATOM     24  C   UNL     1      -5.126  28.671  48.542  1.00  0.00     0.002 C 
ATOM     25  C   UNL     1      -6.135  28.503  46.226  1.00  0.00     0.010 C 
ATOM     26  C   UNL     1      -7.122  27.086  48.106  1.00  0.00     0.012 C 
ATOM     27  C   UNL     1      -5.931  29.962  48.800  1.00  0.00     0.036 C 
ATOM     28  C   UNL     1      -6.951  29.777  46.499  1.00  0.00     0.032 C 
ATOM     29  C   UNL     1      -6.230  30.700  47.486  1.00  0.00     0.114 C 
BRANCH  29  30
ATOM     30  O   UNL     1      -7.037  31.819  47.740  1.00  0.00    -0.393 OA
ATOM     31  H   UNL     1      -6.738  32.199  48.607  1.00  0.00     0.210 HD
ENDBRANCH  29  30
ENDBRANCH   9  11
ENDBRANCH   1   9
TORSDOF 7
ENDMDL
MODEL 5
REMARK VINA RESULT:    -7.293      2.917      5.417
REMARK INTER + INTRA:         -11.653
REMARK INTER:                  -9.671
REMARK INTRA:                  -1.982
REMARK UNBOUND:                -1.588
REMARK SMILES CC[C@@H](CC[C@H](C)[C@H]1CC[C@@H]2C3=CC[C@@H]4C[C@H](O)CC[C@@]4(C)[C@@H]3CC[C@@]21C)C(C)C
REMARK SMILES IDX 5 1 4 2 3 3 2 4 1 5 28 6 29 7 30 8 6 9 7 10 8 11 9 12 26 13
REMARK SMILES IDX 10 14 11 15 25 16 27 17 12 18 24 19 23 20 13 21 21 22 14 23
REMARK SMILES IDX 15 24 20 25 22 26 16 27 19 28 17 29 18 30
REMARK H PARENT 18 31
REMARK Flexibility Score: inf
ROOT
ATOM      1  C   UNL     1      -1.891  27.602  50.643  1.00  0.00     0.004 C 
ENDROOT
BRANCH   1   2
ATOM      2  C   UNL     1      -2.130  28.193  52.052  1.00  0.00     0.004 C 
BRANCH   2   3
ATOM      3  C   UNL     1      -1.086  27.699  53.096  1.00  0.00    -0.009 C 
BRANCH   3   4
ATOM      4  C   UNL     1       0.187  27.192  52.354  1.00  0.00     0.000 C 
ATOM      5  C   UNL     1       1.507  27.570  53.026  1.00  0.00     0.004 C 
ENDBRANCH   3   4
BRANCH   3   6
ATOM      6  C   UNL     1      -1.740  26.659  54.074  1.00  0.00    -0.014 C 
ATOM      7  C   UNL     1      -3.274  26.740  54.124  1.00  0.00     0.007 C 
ATOM      8  C   UNL     1      -1.278  25.214  53.831  1.00  0.00     0.007 C 
ENDBRANCH   3   6
ENDBRANCH   2   3
ENDBRANCH   1   2
BRANCH   1   9
ATOM      9  C   UNL     1      -3.012  26.630  50.176  1.00  0.00    -0.011 C 
ATOM     10  C   UNL     1      -4.371  27.157  50.687  1.00  0.00     0.008 C 
BRANCH   9  11
ATOM     11  C   UNL     1      -2.713  25.129  50.564  1.00  0.00    -0.002 C 
ATOM     12  C   UNL     1      -3.885  24.455  51.295  1.00  0.00     0.005 C 
ATOM     13  C   UNL     1      -2.334  24.131  49.414  1.00  0.00    -0.023 C 
ATOM     14  C   UNL     1      -4.530  23.482  50.310  1.00  0.00     0.009 C 
ATOM     15  C   UNL     1      -3.672  23.462  49.032  1.00  0.00     0.021 C 
ATOM     16  C   UNL     1      -1.381  23.049  49.999  1.00  0.00     0.008 C 
ATOM     17  C   UNL     1      -1.650  24.819  48.203  1.00  0.00     0.012 C 
ATOM     18  C   UNL     1      -3.559  22.056  48.450  1.00  0.00    -0.067 C 
ATOM     19  C   UNL     1      -1.024  21.929  49.017  1.00  0.00     0.009 C 
ATOM     20  C   UNL     1      -2.197  21.439  48.112  1.00  0.00     0.021 C 
ATOM     21  C   UNL     1      -4.706  21.455  48.050  1.00  0.00    -0.027 C 
ATOM     22  C   UNL     1      -2.267  19.876  47.961  1.00  0.00    -0.023 C 
ATOM     23  C   UNL     1      -4.774  20.061  47.482  1.00  0.00     0.031 C 
ATOM     24  C   UNL     1      -3.418  19.578  46.945  1.00  0.00     0.002 C 
ATOM     25  C   UNL     1      -0.933  19.337  47.361  1.00  0.00     0.010 C 
ATOM     26  C   UNL     1      -2.534  19.207  49.346  1.00  0.00     0.012 C 
ATOM     27  C   UNL     1      -3.491  18.098  46.513  1.00  0.00     0.036 C 
ATOM     28  C   UNL     1      -1.017  17.858  46.951  1.00  0.00     0.032 C 
ATOM     29  C   UNL     1      -2.146  17.622  45.943  1.00  0.00     0.114 C 
BRANCH  29  30
ATOM     30  O   UNL     1      -2.213  16.253  45.642  1.00  0.00    -0.393 OA
ATOM     31  H   UNL     1      -1.985  16.159  44.680  1.00  0.00     0.210 HD
ENDBRANCH  29  30
ENDBRANCH   9  11
ENDBRANCH   1   9
TORSDOF 7
ENDMDL
MODEL 6
REMARK VINA RESULT:    -7.267      3.357      9.520
REMARK INTER + INTRA:         -11.617
REMARK INTER:                 -10.346
REMARK INTRA:                  -1.271
REMARK UNBOUND:                -1.588
REMARK SMILES CC[C@@H](CC[C@H](C)[C@H]1CC[C@@H]2C3=CC[C@@H]4C[C@H](O)CC[C@@]4(C)[C@@H]3CC[C@@]21C)C(C)C
REMARK SMILES IDX 5 1 4 2 3 3 2 4 1 5 28 6 29 7 30 8 6 9 7 10 8 11 9 12 26 13
REMARK SMILES IDX 10 14 11 15 25 16 27 17 12 18 24 19 23 20 13 21 21 22 14 23
REMARK SMILES IDX 15 24 20 25 22 26 16 27 19 28 17 29 18 30
REMARK H PARENT 18 31
REMARK Flexibility Score: inf
ROOT
ATOM      1  C   UNL     1      -1.703  19.869  47.081  1.00  0.00     0.004 C 
ENDROOT
BRANCH   1   2
ATOM      2  C   UNL     1      -2.518  19.148  45.983  1.00  0.00     0.004 C 
BRANCH   2   3
ATOM      3  C   UNL     1      -2.499  17.599  46.139  1.00  0.00    -0.009 C 
BRANCH   3   4
ATOM      4  C   UNL     1      -1.531  17.209  47.297  1.00  0.00     0.000 C 
ATOM      5  C   UNL     1      -2.148  16.302  48.362  1.00  0.00     0.004 C 
ENDBRANCH   3   4
BRANCH   3   6
ATOM      6  C   UNL     1      -2.191  16.914  44.760  1.00  0.00    -0.014 C 
ATOM      7  C   UNL     1      -0.836  16.190  44.721  1.00  0.00     0.007 C 
ATOM      8  C   UNL     1      -3.317  15.990  44.269  1.00  0.00     0.007 C 
ENDBRANCH   3   6
ENDBRANCH   2   3
ENDBRANCH   1   2
BRANCH   1   9
ATOM      9  C   UNL     1      -2.560  20.807  47.978  1.00  0.00    -0.011 C 
ATOM     10  C   UNL     1      -3.378  19.943  48.962  1.00  0.00     0.008 C 
BRANCH   9  11
ATOM     11  C   UNL     1      -3.426  21.826  47.138  1.00  0.00    -0.002 C 
ATOM     12  C   UNL     1      -4.938  21.632  47.336  1.00  0.00     0.005 C 
ATOM     13  C   UNL     1      -3.188  23.360  47.365  1.00  0.00    -0.023 C 
ATOM     14  C   UNL     1      -5.432  22.793  48.197  1.00  0.00     0.009 C 
ATOM     15  C   UNL     1      -4.253  23.762  48.407  1.00  0.00     0.021 C 
ATOM     16  C   UNL     1      -3.485  24.104  46.031  1.00  0.00     0.008 C 
ATOM     17  C   UNL     1      -1.747  23.696  47.832  1.00  0.00     0.012 C 
ATOM     18  C   UNL     1      -4.705  25.219  48.354  1.00  0.00    -0.067 C 
ATOM     19  C   UNL     1      -3.415  25.631  46.134  1.00  0.00     0.009 C 
ATOM     20  C   UNL     1      -4.011  26.236  47.442  1.00  0.00     0.021 C 
ATOM     21  C   UNL     1      -5.599  25.627  49.288  1.00  0.00    -0.027 C 
ATOM     22  C   UNL     1      -4.886  27.521  47.201  1.00  0.00    -0.023 C 
ATOM     23  C   UNL     1      -6.168  27.021  49.358  1.00  0.00     0.031 C 
ATOM     24  C   UNL     1      -5.302  28.047  48.614  1.00  0.00     0.002 C 
ATOM     25  C   UNL     1      -4.035  28.623  46.499  1.00  0.00     0.010 C 
ATOM     26  C   UNL     1      -6.131  27.175  46.326  1.00  0.00     0.012 C 
ATOM     27  C   UNL     1      -5.991  29.428  48.578  1.00  0.00     0.036 C 
ATOM     28  C   UNL     1      -4.742  29.987  46.457  1.00  0.00     0.032 C 
ATOM     29  C   UNL     1      -5.112  30.466  47.865  1.00  0.00     0.114 C 
BRANCH  29  30
ATOM     30  O   UNL     1      -5.797  31.687  47.767  1.00  0.00    -0.393 OA
ATOM     31  H   UNL     1      -5.311  32.336  48.340  1.00  0.00     0.210 HD
ENDBRANCH  29  30
ENDBRANCH   9  11
ENDBRANCH   1   9
TORSDOF 7
ENDMDL
MODEL 7
REMARK VINA RESULT:    -7.244      4.726      9.673
REMARK INTER + INTRA:         -11.585
REMARK INTER:                  -9.558
REMARK INTRA:                  -2.027
REMARK UNBOUND:                -1.588
REMARK SMILES CC[C@@H](CC[C@H](C)[C@H]1CC[C@@H]2C3=CC[C@@H]4C[C@H](O)CC[C@@]4(C)[C@@H]3CC[C@@]21C)C(C)C
REMARK SMILES IDX 5 1 4 2 3 3 2 4 1 5 28 6 29 7 30 8 6 9 7 10 8 11 9 12 26 13
REMARK SMILES IDX 10 14 11 15 25 16 27 17 12 18 24 19 23 20 13 21 21 22 14 23
REMARK SMILES IDX 15 24 20 25 22 26 16 27 19 28 17 29 18 30
REMARK H PARENT 18 31
REMARK Flexibility Score: inf
ROOT
ATOM      1  C   UNL     1      -4.147  23.218  50.150  1.00  0.00     0.004 C 
ENDROOT
BRANCH   1   2
ATOM      2  C   UNL     1      -4.101  23.933  51.520  1.00  0.00     0.004 C 
BRANCH   2   3
ATOM      3  C   UNL     1      -2.678  24.449  51.883  1.00  0.00    -0.009 C 
BRANCH   3   4
ATOM      4  C   UNL     1      -2.745  25.975  52.191  1.00  0.00     0.000 C 
ATOM      5  C   UNL     1      -3.596  26.341  53.407  1.00  0.00     0.004 C 
ENDBRANCH   3   4
BRANCH   3   6
ATOM      6  C   UNL     1      -1.648  24.044  50.768  1.00  0.00    -0.014 C 
ATOM      7  C   UNL     1      -1.021  25.244  50.043  1.00  0.00     0.007 C 
ATOM      8  C   UNL     1      -0.561  23.076  51.261  1.00  0.00     0.007 C 
ENDBRANCH   3   6
ENDBRANCH   2   3
ENDBRANCH   1   2
BRANCH   1   9
ATOM      9  C   UNL     1      -5.068  23.919  49.112  1.00  0.00    -0.011 C 
ATOM     10  C   UNL     1      -5.446  22.900  48.015  1.00  0.00     0.008 C 
BRANCH   9  11
ATOM     11  C   UNL     1      -4.448  25.263  48.561  1.00  0.00    -0.002 C 
ATOM     12  C   UNL     1      -4.391  25.310  47.025  1.00  0.00     0.005 C 
ATOM     13  C   UNL     1      -5.128  26.614  48.976  1.00  0.00    -0.023 C 
ATOM     14  C   UNL     1      -5.476  26.281  46.564  1.00  0.00     0.009 C 
ATOM     15  C   UNL     1      -6.098  26.926  47.817  1.00  0.00     0.021 C 
ATOM     16  C   UNL     1      -4.032  27.718  49.024  1.00  0.00     0.008 C 
ATOM     17  C   UNL     1      -5.848  26.544  50.348  1.00  0.00     0.012 C 
ATOM     18  C   UNL     1      -6.403  28.405  47.597  1.00  0.00    -0.067 C 
ATOM     19  C   UNL     1      -4.571  29.127  49.296  1.00  0.00     0.009 C 
ATOM     20  C   UNL     1      -5.910  29.476  48.578  1.00  0.00     0.021 C 
ATOM     21  C   UNL     1      -7.294  28.719  46.624  1.00  0.00    -0.027 C 
ATOM     22  C   UNL     1      -5.935  30.919  47.953  1.00  0.00    -0.023 C 
ATOM     23  C   UNL     1      -7.683  30.128  46.260  1.00  0.00     0.031 C 
ATOM     24  C   UNL     1      -7.375  31.132  47.381  1.00  0.00     0.002 C 
ATOM     25  C   UNL     1      -5.686  31.985  49.063  1.00  0.00     0.010 C 
ATOM     26  C   UNL     1      -4.848  31.048  46.840  1.00  0.00     0.012 C 
ATOM     27  C   UNL     1      -7.644  32.578  46.916  1.00  0.00     0.036 C 
ATOM     28  C   UNL     1      -5.943  33.421  48.579  1.00  0.00     0.032 C 
ATOM     29  C   UNL     1      -7.371  33.583  48.046  1.00  0.00     0.114 C 
BRANCH  29  30
ATOM     30  O   UNL     1      -7.537  34.893  47.571  1.00  0.00    -0.393 OA
ATOM     31  H   UNL     1      -7.989  34.824  46.690  1.00  0.00     0.210 HD
ENDBRANCH  29  30
ENDBRANCH   9  11
ENDBRANCH   1   9
TORSDOF 7
ENDMDL
MODEL 8
REMARK VINA RESULT:    -7.081      3.096      9.033
REMARK INTER + INTRA:         -11.360
REMARK INTER:                 -10.383
REMARK INTRA:                  -0.977
REMARK UNBOUND:                -1.588
REMARK SMILES CC[C@@H](CC[C@H](C)[C@H]1CC[C@@H]2C3=CC[C@@H]4C[C@H](O)CC[C@@]4(C)[C@@H]3CC[C@@]21C)C(C)C
REMARK SMILES IDX 5 1 4 2 3 3 2 4 1 5 28 6 29 7 30 8 6 9 7 10 8 11 9 12 26 13
REMARK SMILES IDX 10 14 11 15 25 16 27 17 12 18 24 19 23 20 13 21 21 22 14 23
REMARK SMILES IDX 15 24 20 25 22 26 16 27 19 28 17 29 18 30
REMARK H PARENT 18 31
REMARK Flexibility Score: inf
ROOT
ATOM      1  C   UNL     1      -3.243  19.886  46.807  1.00  0.00     0.004 C 
ENDROOT
BRANCH   1   2
ATOM      2  C   UNL     1      -1.910  19.425  46.173  1.00  0.00     0.004 C 
BRANCH   2   3
ATOM      3  C   UNL     1      -1.067  18.531  47.129  1.00  0.00    -0.009 C 
BRANCH   3   4
ATOM      4  C   UNL     1       0.417  19.008  47.107  1.00  0.00     0.000 C 
ATOM      5  C   UNL     1       0.597  20.525  47.150  1.00  0.00     0.004 C 
ENDBRANCH   3   4
BRANCH   3   6
ATOM      6  C   UNL     1      -1.279  17.013  46.787  1.00  0.00    -0.014 C 
ATOM      7  C   UNL     1      -2.025  16.234  47.881  1.00  0.00     0.007 C 
ATOM      8  C   UNL     1      -1.927  16.779  45.413  1.00  0.00     0.007 C 
ENDBRANCH   3   6
ENDBRANCH   2   3
ENDBRANCH   1   2
BRANCH   1   9
ATOM      9  C   UNL     1      -3.239  19.851  48.362  1.00  0.00    -0.011 C 
ATOM     10  C   UNL     1      -4.327  18.865  48.839  1.00  0.00     0.008 C 
BRANCH   9  11
ATOM     11  C   UNL     1      -3.344  21.290  49.001  1.00  0.00    -0.002 C 
ATOM     12  C   UNL     1      -1.988  22.008  49.087  1.00  0.00     0.005 C 
ATOM     13  C   UNL     1      -4.304  22.331  48.323  1.00  0.00    -0.023 C 
ATOM     14  C   UNL     1      -1.987  23.099  48.018  1.00  0.00     0.009 C 
ATOM     15  C   UNL     1      -3.387  23.135  47.377  1.00  0.00     0.021 C 
ATOM     16  C   UNL     1      -4.848  23.285  49.425  1.00  0.00     0.008 C 
ATOM     17  C   UNL     1      -5.495  21.674  47.577  1.00  0.00     0.012 C 
ATOM     18  C   UNL     1      -3.837  24.564  47.087  1.00  0.00    -0.067 C 
ATOM     19  C   UNL     1      -5.705  24.437  48.892  1.00  0.00     0.009 C 
ATOM     20  C   UNL     1      -5.196  25.086  47.568  1.00  0.00     0.021 C 
ATOM     21  C   UNL     1      -3.090  25.287  46.216  1.00  0.00    -0.027 C 
ATOM     22  C   UNL     1      -5.270  26.657  47.566  1.00  0.00    -0.023 C 
ATOM     23  C   UNL     1      -3.379  26.718  45.844  1.00  0.00     0.031 C 
ATOM     24  C   UNL     1      -4.831  27.121  46.138  1.00  0.00     0.002 C 
ATOM     25  C   UNL     1      -6.740  27.122  47.801  1.00  0.00     0.010 C 
ATOM     26  C   UNL     1      -4.344  27.247  48.674  1.00  0.00     0.012 C 
ATOM     27  C   UNL     1      -5.048  28.628  45.887  1.00  0.00     0.036 C 
ATOM     28  C   UNL     1      -6.935  28.628  47.563  1.00  0.00     0.032 C 
ATOM     29  C   UNL     1      -6.508  29.028  46.147  1.00  0.00     0.114 C 
BRANCH  29  30
ATOM     30  O   UNL     1      -6.657  30.416  45.999  1.00  0.00    -0.393 OA
ATOM     31  H   UNL     1      -7.023  30.570  45.089  1.00  0.00     0.210 HD
ENDBRANCH  29  30
ENDBRANCH   9  11
ENDBRANCH   1   9
TORSDOF 7
ENDMDL
MODEL 9
REMARK VINA RESULT:    -7.008      3.528      9.449
REMARK INTER + INTRA:         -11.260
REMARK INTER:                 -10.034
REMARK INTRA:                  -1.226
REMARK UNBOUND:                -1.588
REMARK SMILES CC[C@@H](CC[C@H](C)[C@H]1CC[C@@H]2C3=CC[C@@H]4C[C@H](O)CC[C@@]4(C)[C@@H]3CC[C@@]21C)C(C)C
REMARK SMILES IDX 5 1 4 2 3 3 2 4 1 5 28 6 29 7 30 8 6 9 7 10 8 11 9 12 26 13
REMARK SMILES IDX 10 14 11 15 25 16 27 17 12 18 24 19 23 20 13 21 21 22 14 23
REMARK SMILES IDX 15 24 20 25 22 26 16 27 19 28 17 29 18 30
REMARK H PARENT 18 31
REMARK Flexibility Score: inf
ROOT
ATOM      1  C   UNL     1      -2.978  20.326  48.869  1.00  0.00     0.004 C 
ENDROOT
BRANCH   1   2
ATOM      2  C   UNL     1      -3.619  18.931  49.054  1.00  0.00     0.004 C 
BRANCH   2   3
ATOM      3  C   UNL     1      -3.153  17.908  47.978  1.00  0.00    -0.009 C 
BRANCH   3   4
ATOM      4  C   UNL     1      -2.493  16.684  48.681  1.00  0.00     0.000 C 
ATOM      5  C   UNL     1      -2.074  16.933  50.129  1.00  0.00     0.004 C 
ENDBRANCH   3   4
BRANCH   3   6
ATOM      6  C   UNL     1      -2.256  18.615  46.901  1.00  0.00    -0.014 C 
ATOM      7  C   UNL     1      -0.826  18.059  46.827  1.00  0.00     0.007 C 
ATOM      8  C   UNL     1      -2.896  18.661  45.504  1.00  0.00     0.007 C 
ENDBRANCH   3   6
ENDBRANCH   2   3
ENDBRANCH   1   2
BRANCH   1   9
ATOM      9  C   UNL     1      -4.015  21.466  48.659  1.00  0.00    -0.011 C 
ATOM     10  C   UNL     1      -5.106  20.972  47.685  1.00  0.00     0.008 C 
BRANCH   9  11
ATOM     11  C   UNL     1      -3.340  22.829  48.237  1.00  0.00    -0.002 C 
ATOM     12  C   UNL     1      -3.398  23.082  46.722  1.00  0.00     0.005 C 
ATOM     13  C   UNL     1      -3.882  24.152  48.883  1.00  0.00    -0.023 C 
ATOM     14  C   UNL     1      -4.439  24.175  46.487  1.00  0.00     0.009 C 
ATOM     15  C   UNL     1      -4.912  24.681  47.862  1.00  0.00     0.021 C 
ATOM     16  C   UNL     1      -2.706  25.167  48.980  1.00  0.00     0.008 C 
ATOM     17  C   UNL     1      -4.498  23.942  50.291  1.00  0.00     0.012 C 
ATOM     18  C   UNL     1      -5.121  26.193  47.865  1.00  0.00    -0.067 C 
ATOM     19  C   UNL     1      -3.115  26.557  49.479  1.00  0.00     0.009 C 
ATOM     20  C   UNL     1      -4.476  27.086  48.931  1.00  0.00     0.021 C 
ATOM     21  C   UNL     1      -6.058  26.693  47.022  1.00  0.00    -0.027 C 
ATOM     22  C   UNL     1      -4.440  28.599  48.505  1.00  0.00    -0.023 C 
ATOM     23  C   UNL     1      -6.368  28.161  46.880  1.00  0.00     0.031 C 
ATOM     24  C   UNL     1      -5.899  28.980  48.092  1.00  0.00     0.002 C 
ATOM     25  C   UNL     1      -4.027  29.486  49.719  1.00  0.00     0.010 C 
ATOM     26  C   UNL     1      -3.435  28.809  47.329  1.00  0.00     0.012 C 
ATOM     27  C   UNL     1      -6.095  30.491  47.845  1.00  0.00     0.036 C 
ATOM     28  C   UNL     1      -4.212  30.988  49.451  1.00  0.00     0.032 C 
ATOM     29  C   UNL     1      -5.660  31.312  49.068  1.00  0.00     0.114 C 
BRANCH  29  30
ATOM     30  O   UNL     1      -5.763  32.683  48.785  1.00  0.00    -0.393 OA
ATOM     31  H   UNL     1      -6.617  32.995  49.184  1.00  0.00     0.210 HD
ENDBRANCH  29  30
ENDBRANCH   9  11
ENDBRANCH   1   9
TORSDOF 7
ENDMDL
