MODEL 1
REMARK VINA RESULT:    -4.302      0.000      0.000
REMARK INTER + INTRA:          -9.076
REMARK INTER:                  -7.823
REMARK INTRA:                  -1.253
REMARK UNBOUND:                -1.253
REMARK SMILES CCCCCCCCCCCCCCCC(=O)[O-]
REMARK SMILES IDX 9 1 10 2 11 3 12 4 13 5 14 6 15 7 16 8 17 9 18 10 8 11 7 12
REMARK SMILES IDX 6 13 5 14 4 15 3 16 2 17 1 18
REMARK H PARENT
REMARK Flexibility Score: inf
ROOT
ATOM      1  C   UNL     1       4.904  78.601  63.415  1.00  0.00     0.000 C 
ENDROOT
BRANCH   1   2
ATOM      2  C   UNL     1       6.344  79.118  63.261  1.00  0.00     0.000 C 
BRANCH   2   3
ATOM      3  C   UNL     1       7.338  78.371  64.169  1.00  0.00     0.000 C 
BRANCH   3   4
ATOM      4  C   UNL     1       6.638  77.416  65.150  1.00  0.00     0.000 C 
BRANCH   4   5
ATOM      5  C   UNL     1       7.251  77.461  66.558  1.00  0.00     0.000 C 
BRANCH   5   6
ATOM      6  C   UNL     1       6.508  78.471  67.446  1.00  0.00     0.006 C 
BRANCH   6   7
ATOM      7  C   UNL     1       5.004  78.514  67.142  1.00  0.00     0.053 C 
BRANCH   7   8
ATOM      8  C   UNL     1       4.208  77.766  68.167  1.00  0.00     0.041 C 
ATOM      9  O   UNL     1       4.203  76.507  68.170  1.00  0.00    -0.550 OA
ATOM     10  O   UNL     1       3.499  78.460  69.140  1.00  0.00    -0.550 OA
ENDBRANCH   7   8
ENDBRANCH   6   7
ENDBRANCH   5   6
ENDBRANCH   4   5
ENDBRANCH   3   4
ENDBRANCH   2   3
ENDBRANCH   1   2
BRANCH   1  11
ATOM     11  C   UNL     1       3.864  79.567  62.822  1.00  0.00     0.000 C 
BRANCH  11  12
ATOM     12  C   UNL     1       4.201  81.041  63.094  1.00  0.00    -0.000 C 
BRANCH  12  13
ATOM     13  C   UNL     1       2.956  81.878  63.433  1.00  0.00    -0.000 C 
BRANCH  13  14
ATOM     14  C   UNL     1       3.086  82.629  64.771  1.00  0.00    -0.000 C 
BRANCH  14  15
ATOM     15  C   UNL     1       3.184  84.164  64.657  1.00  0.00    -0.000 C 
BRANCH  15  16
ATOM     16  C   UNL     1       4.575  84.704  64.280  1.00  0.00    -0.000 C 
BRANCH  16  17
ATOM     17  C   UNL     1       4.663  85.150  62.813  1.00  0.00    -0.003 C 
ATOM     18  C   UNL     1       3.806  86.386  62.562  1.00  0.00     0.004 C 
ENDBRANCH  16  17
ENDBRANCH  15  16
ENDBRANCH  14  15
ENDBRANCH  13  14
ENDBRANCH  12  13
ENDBRANCH  11  12
ENDBRANCH   1  11
TORSDOF 14
ENDMDL
MODEL 2
REMARK VINA RESULT:    -4.258      3.431      6.898
REMARK INTER + INTRA:          -8.995
REMARK INTER:                  -7.001
REMARK INTRA:                  -1.995
REMARK UNBOUND:                -1.253
REMARK SMILES CCCCCCCCCCCCCCCC(=O)[O-]
REMARK SMILES IDX 9 1 10 2 11 3 12 4 13 5 14 6 15 7 16 8 17 9 18 10 8 11 7 12
REMARK SMILES IDX 6 13 5 14 4 15 3 16 2 17 1 18
REMARK H PARENT
REMARK Flexibility Score: inf
ROOT
ATOM      1  C   UNL     1       3.536  79.099  69.029  1.00  0.00     0.000 C 
ENDROOT
BRANCH   1   2
ATOM      2  C   UNL     1       4.191  79.846  67.856  1.00  0.00     0.000 C 
BRANCH   2   3
ATOM      3  C   UNL     1       3.168  80.289  66.796  1.00  0.00     0.000 C 
BRANCH   3   4
ATOM      4  C   UNL     1       3.537  79.810  65.382  1.00  0.00     0.000 C 
BRANCH   4   5
ATOM      5  C   UNL     1       3.334  80.898  64.317  1.00  0.00     0.000 C 
BRANCH   5   6
ATOM      6  C   UNL     1       4.323  80.719  63.156  1.00  0.00     0.006 C 
BRANCH   6   7
ATOM      7  C   UNL     1       4.138  79.375  62.438  1.00  0.00     0.053 C 
BRANCH   7   8
ATOM      8  C   UNL     1       5.305  79.051  61.555  1.00  0.00     0.041 C 
ATOM      9  O   UNL     1       6.477  79.305  61.936  1.00  0.00    -0.550 OA
ATOM     10  O   UNL     1       5.097  78.439  60.325  1.00  0.00    -0.550 OA
ENDBRANCH   7   8
ENDBRANCH   6   7
ENDBRANCH   5   6
ENDBRANCH   4   5
ENDBRANCH   3   4
ENDBRANCH   2   3
ENDBRANCH   1   2
BRANCH   1  11
ATOM     11  C   UNL     1       3.007  77.712  68.623  1.00  0.00     0.000 C 
BRANCH  11  12
ATOM     12  C   UNL     1       4.001  76.929  67.752  1.00  0.00    -0.000 C 
BRANCH  12  13
ATOM     13  C   UNL     1       4.905  75.999  68.579  1.00  0.00    -0.000 C 
BRANCH  13  14
ATOM     14  C   UNL     1       6.401  76.187  68.270  1.00  0.00    -0.000 C 
BRANCH  14  15
ATOM     15  C   UNL     1       6.806  77.605  67.819  1.00  0.00    -0.000 C 
BRANCH  15  16
ATOM     16  C   UNL     1       7.522  77.678  66.459  1.00  0.00    -0.000 C 
BRANCH  16  17
ATOM     17  C   UNL     1       6.605  78.172  65.329  1.00  0.00    -0.003 C 
ATOM     18  C   UNL     1       5.962  77.002  64.592  1.00  0.00     0.004 C 
ENDBRANCH  16  17
ENDBRANCH  15  16
ENDBRANCH  14  15
ENDBRANCH  13  14
ENDBRANCH  12  13
ENDBRANCH  11  12
ENDBRANCH   1  11
TORSDOF 14
ENDMDL
MODEL 3
REMARK VINA RESULT:    -4.254      2.055      3.337
REMARK INTER + INTRA:          -8.988
REMARK INTER:                  -8.225
REMARK INTRA:                  -0.763
REMARK UNBOUND:                -1.253
REMARK SMILES CCCCCCCCCCCCCCCC(=O)[O-]
REMARK SMILES IDX 9 1 10 2 11 3 12 4 13 5 14 6 15 7 16 8 17 9 18 10 8 11 7 12
REMARK SMILES IDX 6 13 5 14 4 15 3 16 2 17 1 18
REMARK H PARENT
REMARK Flexibility Score: inf
ROOT
ATOM      1  C   UNL     1       2.966  80.904  65.396  1.00  0.00     0.000 C 
ENDROOT
BRANCH   1   2
ATOM      2  C   UNL     1       3.369  79.598  66.099  1.00  0.00     0.000 C 
BRANCH   2   3
ATOM      3  C   UNL     1       4.312  79.839  67.291  1.00  0.00     0.000 C 
BRANCH   3   4
ATOM      4  C   UNL     1       4.136  78.792  68.404  1.00  0.00     0.000 C 
BRANCH   4   5
ATOM      5  C   UNL     1       5.419  77.990  68.668  1.00  0.00     0.000 C 
BRANCH   5   6
ATOM      6  C   UNL     1       6.548  78.437  67.728  1.00  0.00     0.006 C 
BRANCH   6   7
ATOM      7  C   UNL     1       7.085  77.278  66.875  1.00  0.00     0.053 C 
BRANCH   7   8
ATOM      8  C   UNL     1       6.995  77.579  65.410  1.00  0.00     0.041 C 
ATOM      9  O   UNL     1       6.089  77.054  64.710  1.00  0.00    -0.550 OA
ATOM     10  O   UNL     1       7.892  78.463  64.825  1.00  0.00    -0.550 OA
ENDBRANCH   7   8
ENDBRANCH   6   7
ENDBRANCH   5   6
ENDBRANCH   4   5
ENDBRANCH   3   4
ENDBRANCH   2   3
ENDBRANCH   1   2
BRANCH   1  11
ATOM     11  C   UNL     1       3.701  81.105  64.059  1.00  0.00     0.000 C 
BRANCH  11  12
ATOM     12  C   UNL     1       3.522  82.521  63.490  1.00  0.00    -0.000 C 
BRANCH  12  13
ATOM     13  C   UNL     1       3.738  83.614  64.550  1.00  0.00    -0.000 C 
BRANCH  13  14
ATOM     14  C   UNL     1       4.558  84.805  64.024  1.00  0.00    -0.000 C 
BRANCH  14  15
ATOM     15  C   UNL     1       3.756  85.854  63.225  1.00  0.00    -0.000 C 
BRANCH  15  16
ATOM     16  C   UNL     1       4.471  86.415  61.983  1.00  0.00    -0.000 C 
BRANCH  16  17
ATOM     17  C   UNL     1       3.567  87.323  61.135  1.00  0.00    -0.003 C 
ATOM     18  C   UNL     1       3.374  88.682  61.800  1.00  0.00     0.004 C 
ENDBRANCH  16  17
ENDBRANCH  15  16
ENDBRANCH  14  15
ENDBRANCH  13  14
ENDBRANCH  12  13
ENDBRANCH  11  12
ENDBRANCH   1  11
TORSDOF 14
ENDMDL
MODEL 4
REMARK VINA RESULT:    -4.249      4.130      7.142
REMARK INTER + INTRA:          -8.979
REMARK INTER:                  -7.399
REMARK INTRA:                  -1.579
REMARK UNBOUND:                -1.253
REMARK SMILES CCCCCCCCCCCCCCCC(=O)[O-]
REMARK SMILES IDX 9 1 10 2 11 3 12 4 13 5 14 6 15 7 16 8 17 9 18 10 8 11 7 12
REMARK SMILES IDX 6 13 5 14 4 15 3 16 2 17 1 18
REMARK H PARENT
REMARK Flexibility Score: inf
ROOT
ATOM      1  C   UNL     1       3.933  79.063  68.110  1.00  0.00     0.000 C 
ENDROOT
BRANCH   1   2
ATOM      2  C   UNL     1       5.249  78.456  68.623  1.00  0.00     0.000 C 
BRANCH   2   3
ATOM      3  C   UNL     1       5.299  76.927  68.448  1.00  0.00     0.000 C 
BRANCH   3   4
ATOM      4  C   UNL     1       5.966  76.506  67.128  1.00  0.00     0.000 C 
BRANCH   4   5
ATOM      5  C   UNL     1       7.249  77.300  66.835  1.00  0.00     0.000 C 
BRANCH   5   6
ATOM      6  C   UNL     1       7.166  77.987  65.464  1.00  0.00     0.006 C 
BRANCH   6   7
ATOM      7  C   UNL     1       6.028  77.424  64.601  1.00  0.00     0.053 C 
BRANCH   7   8
ATOM      8  C   UNL     1       5.470  78.460  63.672  1.00  0.00     0.041 C 
ATOM      9  O   UNL     1       6.070  78.739  62.601  1.00  0.00    -0.550 OA
ATOM     10  O   UNL     1       4.271  79.092  63.976  1.00  0.00    -0.550 OA
ENDBRANCH   7   8
ENDBRANCH   6   7
ENDBRANCH   5   6
ENDBRANCH   4   5
ENDBRANCH   3   4
ENDBRANCH   2   3
ENDBRANCH   1   2
BRANCH   1  11
ATOM     11  C   UNL     1       3.363  80.125  69.067  1.00  0.00     0.000 C 
BRANCH  11  12
ATOM     12  C   UNL     1       1.953  79.777  69.567  1.00  0.00    -0.000 C 
BRANCH  12  13
ATOM     13  C   UNL     1       1.893  78.400  70.251  1.00  0.00    -0.000 C 
BRANCH  13  14
ATOM     14  C   UNL     1       0.509  77.737  70.141  1.00  0.00    -0.000 C 
BRANCH  14  15
ATOM     15  C   UNL     1       0.420  76.561  69.147  1.00  0.00    -0.000 C 
BRANCH  15  16
ATOM     16  C   UNL     1       1.700  76.293  68.335  1.00  0.00    -0.000 C 
BRANCH  16  17
ATOM     17  C   UNL     1       2.194  74.844  68.463  1.00  0.00    -0.003 C 
ATOM     18  C   UNL     1       1.026  73.863  68.468  1.00  0.00     0.004 C 
ENDBRANCH  16  17
ENDBRANCH  15  16
ENDBRANCH  14  15
ENDBRANCH  13  14
ENDBRANCH  12  13
ENDBRANCH  11  12
ENDBRANCH   1  11
TORSDOF 14
ENDMDL
MODEL 5
REMARK VINA RESULT:    -4.239      3.139      4.709
REMARK INTER + INTRA:          -8.960
REMARK INTER:                  -7.655
REMARK INTRA:                  -1.305
REMARK UNBOUND:                -1.253
REMARK SMILES CCCCCCCCCCCCCCCC(=O)[O-]
REMARK SMILES IDX 9 1 10 2 11 3 12 4 13 5 14 6 15 7 16 8 17 9 18 10 8 11 7 12
REMARK SMILES IDX 6 13 5 14 4 15 3 16 2 17 1 18
REMARK H PARENT
REMARK Flexibility Score: inf
ROOT
ATOM      1  C   UNL     1       5.636  78.739  68.416  1.00  0.00     0.000 C 
ENDROOT
BRANCH   1   2
ATOM      2  C   UNL     1       5.395  77.227  68.278  1.00  0.00     0.000 C 
BRANCH   2   3
ATOM      3  C   UNL     1       6.451  76.541  67.393  1.00  0.00     0.000 C 
BRANCH   3   4
ATOM      4  C   UNL     1       7.252  77.543  66.546  1.00  0.00     0.000 C 
BRANCH   4   5
ATOM      5  C   UNL     1       6.836  77.532  65.067  1.00  0.00     0.000 C 
BRANCH   5   6
ATOM      6  C   UNL     1       7.674  78.531  64.255  1.00  0.00     0.006 C 
BRANCH   6   7
ATOM      7  C   UNL     1       6.929  79.037  63.012  1.00  0.00     0.053 C 
BRANCH   7   8
ATOM      8  C   UNL     1       7.856  79.237  61.852  1.00  0.00     0.041 C 
ATOM      9  O   UNL     1       7.766  80.271  61.140  1.00  0.00    -0.550 OA
ATOM     10  O   UNL     1       8.841  78.296  61.578  1.00  0.00    -0.550 OA
ENDBRANCH   7   8
ENDBRANCH   6   7
ENDBRANCH   5   6
ENDBRANCH   4   5
ENDBRANCH   3   4
ENDBRANCH   2   3
ENDBRANCH   1   2
BRANCH   1  11
ATOM     11  C   UNL     1       4.424  79.573  67.966  1.00  0.00     0.000 C 
BRANCH  11  12
ATOM     12  C   UNL     1       4.041  79.318  66.500  1.00  0.00    -0.000 C 
BRANCH  12  13
ATOM     13  C   UNL     1       3.367  80.537  65.846  1.00  0.00    -0.000 C 
BRANCH  13  14
ATOM     14  C   UNL     1       3.785  80.736  64.379  1.00  0.00    -0.000 C 
BRANCH  14  15
ATOM     15  C   UNL     1       3.490  82.134  63.795  1.00  0.00    -0.000 C 
BRANCH  15  16
ATOM     16  C   UNL     1       2.805  83.115  64.762  1.00  0.00    -0.000 C 
BRANCH  16  17
ATOM     17  C   UNL     1       3.381  84.536  64.676  1.00  0.00    -0.003 C 
ATOM     18  C   UNL     1       4.544  84.599  63.691  1.00  0.00     0.004 C 
ENDBRANCH  16  17
ENDBRANCH  15  16
ENDBRANCH  14  15
ENDBRANCH  13  14
ENDBRANCH  12  13
ENDBRANCH  11  12
ENDBRANCH   1  11
TORSDOF 14
ENDMDL
MODEL 6
REMARK VINA RESULT:    -4.231      2.966      6.075
REMARK INTER + INTRA:          -8.947
REMARK INTER:                  -7.034
REMARK INTRA:                  -1.913
REMARK UNBOUND:                -1.253
REMARK SMILES CCCCCCCCCCCCCCCC(=O)[O-]
REMARK SMILES IDX 9 1 10 2 11 3 12 4 13 5 14 6 15 7 16 8 17 9 18 10 8 11 7 12
REMARK SMILES IDX 6 13 5 14 4 15 3 16 2 17 1 18
REMARK H PARENT
REMARK Flexibility Score: inf
ROOT
ATOM      1  C   UNL     1       7.420  77.883  66.297  1.00  0.00     0.000 C 
ENDROOT
BRANCH   1   2
ATOM      2  C   UNL     1       6.626  77.670  64.998  1.00  0.00     0.000 C 
BRANCH   2   3
ATOM      3  C   UNL     1       7.274  78.370  63.790  1.00  0.00     0.000 C 
BRANCH   3   4
ATOM      4  C   UNL     1       6.269  79.210  62.985  1.00  0.00     0.000 C 
BRANCH   4   5
ATOM      5  C   UNL     1       4.935  78.481  62.763  1.00  0.00     0.000 C 
BRANCH   5   6
ATOM      6  C   UNL     1       3.810  79.480  62.453  1.00  0.00     0.006 C 
BRANCH   6   7
ATOM      7  C   UNL     1       2.973  79.816  63.695  1.00  0.00     0.053 C 
BRANCH   7   8
ATOM      8  C   UNL     1       3.036  81.275  64.030  1.00  0.00     0.041 C 
ATOM      9  O   UNL     1       2.204  81.778  64.829  1.00  0.00    -0.550 OA
ATOM     10  O   UNL     1       4.035  82.071  63.484  1.00  0.00    -0.550 OA
ENDBRANCH   7   8
ENDBRANCH   6   7
ENDBRANCH   5   6
ENDBRANCH   4   5
ENDBRANCH   3   4
ENDBRANCH   2   3
ENDBRANCH   1   2
BRANCH   1  11
ATOM     11  C   UNL     1       7.017  76.892  67.403  1.00  0.00     0.000 C 
BRANCH  11  12
ATOM     12  C   UNL     1       5.680  76.193  67.114  1.00  0.00    -0.000 C 
BRANCH  12  13
ATOM     13  C   UNL     1       4.906  75.846  68.398  1.00  0.00    -0.000 C 
BRANCH  13  14
ATOM     14  C   UNL     1       3.402  76.152  68.292  1.00  0.00    -0.000 C 
BRANCH  14  15
ATOM     15  C   UNL     1       2.989  77.577  68.714  1.00  0.00    -0.000 C 
BRANCH  15  16
ATOM     16  C   UNL     1       2.708  78.548  67.553  1.00  0.00    -0.000 C 
BRANCH  16  17
ATOM     17  C   UNL     1       3.884  79.495  67.271  1.00  0.00    -0.003 C 
ATOM     18  C   UNL     1       4.748  79.684  68.513  1.00  0.00     0.004 C 
ENDBRANCH  16  17
ENDBRANCH  15  16
ENDBRANCH  14  15
ENDBRANCH  13  14
ENDBRANCH  12  13
ENDBRANCH  11  12
ENDBRANCH   1  11
TORSDOF 14
ENDMDL
MODEL 7
REMARK VINA RESULT:    -4.227      4.281      7.962
REMARK INTER + INTRA:          -8.938
REMARK INTER:                  -7.721
REMARK INTRA:                  -1.217
REMARK UNBOUND:                -1.253
REMARK SMILES CCCCCCCCCCCCCCCC(=O)[O-]
REMARK SMILES IDX 9 1 10 2 11 3 12 4 13 5 14 6 15 7 16 8 17 9 18 10 8 11 7 12
REMARK SMILES IDX 6 13 5 14 4 15 3 16 2 17 1 18
REMARK H PARENT
REMARK Flexibility Score: inf
ROOT
ATOM      1  C   UNL     1       3.237  80.054  64.816  1.00  0.00     0.000 C 
ENDROOT
BRANCH   1   2
ATOM      2  C   UNL     1       3.760  81.071  63.790  1.00  0.00     0.000 C 
BRANCH   2   3
ATOM      3  C   UNL     1       2.832  82.290  63.642  1.00  0.00     0.000 C 
BRANCH   3   4
ATOM      4  C   UNL     1       3.101  83.369  64.704  1.00  0.00     0.000 C 
BRANCH   4   5
ATOM      5  C   UNL     1       4.278  84.284  64.331  1.00  0.00     0.000 C 
BRANCH   5   6
ATOM      6  C   UNL     1       3.786  85.527  63.575  1.00  0.00     0.006 C 
BRANCH   6   7
ATOM      7  C   UNL     1       4.249  85.536  62.111  1.00  0.00     0.053 C 
BRANCH   7   8
ATOM      8  C   UNL     1       4.411  86.931  61.589  1.00  0.00     0.041 C 
ATOM      9  O   UNL     1       5.148  87.153  60.592  1.00  0.00    -0.550 OA
ATOM     10  O   UNL     1       3.722  87.981  62.183  1.00  0.00    -0.550 OA
ENDBRANCH   7   8
ENDBRANCH   6   7
ENDBRANCH   5   6
ENDBRANCH   4   5
ENDBRANCH   3   4
ENDBRANCH   2   3
ENDBRANCH   1   2
BRANCH   1  11
ATOM     11  C   UNL     1       3.953  80.165  66.173  1.00  0.00     0.000 C 
BRANCH  11  12
ATOM     12  C   UNL     1       3.228  79.399  67.291  1.00  0.00    -0.000 C 
BRANCH  12  13
ATOM     13  C   UNL     1       4.110  79.195  68.535  1.00  0.00    -0.000 C 
BRANCH  13  14
ATOM     14  C   UNL     1       5.107  78.034  68.378  1.00  0.00    -0.000 C 
BRANCH  14  15
ATOM     15  C   UNL     1       6.528  78.442  67.938  1.00  0.00    -0.000 C 
BRANCH  15  16
ATOM     16  C   UNL     1       7.105  77.636  66.761  1.00  0.00    -0.000 C 
BRANCH  16  17
ATOM     17  C   UNL     1       6.023  76.909  65.949  1.00  0.00    -0.003 C 
ATOM     18  C   UNL     1       6.074  77.315  64.480  1.00  0.00     0.004 C 
ENDBRANCH  16  17
ENDBRANCH  15  16
ENDBRANCH  14  15
ENDBRANCH  13  14
ENDBRANCH  12  13
ENDBRANCH  11  12
ENDBRANCH   1  11
TORSDOF 14
ENDMDL
MODEL 8
REMARK VINA RESULT:    -4.206      2.927      4.459
REMARK INTER + INTRA:          -8.900
REMARK INTER:                  -7.110
REMARK INTRA:                  -1.790
REMARK UNBOUND:                -1.253
REMARK SMILES CCCCCCCCCCCCCCCC(=O)[O-]
REMARK SMILES IDX 9 1 10 2 11 3 12 4 13 5 14 6 15 7 16 8 17 9 18 10 8 11 7 12
REMARK SMILES IDX 6 13 5 14 4 15 3 16 2 17 1 18
REMARK H PARENT
REMARK Flexibility Score: inf
ROOT
ATOM      1  C   UNL     1       6.000  77.239  64.757  1.00  0.00     0.000 C 
ENDROOT
BRANCH   1   2
ATOM      2  C   UNL     1       6.798  77.182  66.070  1.00  0.00     0.000 C 
BRANCH   2   3
ATOM      3  C   UNL     1       6.487  78.368  67.000  1.00  0.00     0.000 C 
BRANCH   3   4
ATOM      4  C   UNL     1       5.731  77.940  68.269  1.00  0.00     0.000 C 
BRANCH   4   5
ATOM      5  C   UNL     1       5.280  76.472  68.221  1.00  0.00     0.000 C 
BRANCH   5   6
ATOM      6  C   UNL     1       3.749  76.367  68.291  1.00  0.00     0.006 C 
BRANCH   6   7
ATOM      7  C   UNL     1       3.278  74.933  68.568  1.00  0.00     0.053 C 
BRANCH   7   8
ATOM      8  C   UNL     1       1.812  74.769  68.305  1.00  0.00     0.041 C 
ATOM      9  O   UNL     1       1.128  75.746  67.902  1.00  0.00    -0.550 OA
ATOM     10  O   UNL     1       1.210  73.529  68.473  1.00  0.00    -0.550 OA
ENDBRANCH   7   8
ENDBRANCH   6   7
ENDBRANCH   5   6
ENDBRANCH   4   5
ENDBRANCH   3   4
ENDBRANCH   2   3
ENDBRANCH   1   2
BRANCH   1  11
ATOM     11  C   UNL     1       6.388  78.445  63.884  1.00  0.00     0.000 C 
BRANCH  11  12
ATOM     12  C   UNL     1       5.251  78.893  62.952  1.00  0.00    -0.000 C 
BRANCH  12  13
ATOM     13  C   UNL     1       4.482  80.106  63.501  1.00  0.00    -0.000 C 
BRANCH  13  14
ATOM     14  C   UNL     1       3.345  79.710  64.460  1.00  0.00    -0.000 C 
BRANCH  14  15
ATOM     15  C   UNL     1       3.537  80.149  65.926  1.00  0.00    -0.000 C 
BRANCH  15  16
ATOM     16  C   UNL     1       2.496  79.598  66.915  1.00  0.00    -0.000 C 
BRANCH  16  17
ATOM     17  C   UNL     1       2.267  80.525  68.118  1.00  0.00    -0.003 C 
ATOM     18  C   UNL     1       2.844  79.922  69.395  1.00  0.00     0.004 C 
ENDBRANCH  16  17
ENDBRANCH  15  16
ENDBRANCH  14  15
ENDBRANCH  13  14
ENDBRANCH  12  13
ENDBRANCH  11  12
ENDBRANCH   1  11
TORSDOF 14
ENDMDL
MODEL 9
REMARK VINA RESULT:    -4.189      3.290      6.744
REMARK INTER + INTRA:          -8.869
REMARK INTER:                  -7.056
REMARK INTRA:                  -1.813
REMARK UNBOUND:                -1.253
REMARK SMILES CCCCCCCCCCCCCCCC(=O)[O-]
REMARK SMILES IDX 9 1 10 2 11 3 12 4 13 5 14 6 15 7 16 8 17 9 18 10 8 11 7 12
REMARK SMILES IDX 6 13 5 14 4 15 3 16 2 17 1 18
REMARK H PARENT
REMARK Flexibility Score: inf
ROOT
ATOM      1  C   UNL     1       4.523  86.959  61.130  1.00  0.00     0.000 C 
ENDROOT
BRANCH   1   2
ATOM      2  C   UNL     1       4.646  85.683  61.978  1.00  0.00     0.000 C 
BRANCH   2   3
ATOM      3  C   UNL     1       4.058  85.856  63.390  1.00  0.00     0.000 C 
BRANCH   3   4
ATOM      4  C   UNL     1       4.313  84.634  64.288  1.00  0.00     0.000 C 
BRANCH   4   5
ATOM      5  C   UNL     1       3.019  84.060  64.885  1.00  0.00     0.000 C 
BRANCH   5   6
ATOM      6  C   UNL     1       2.542  82.838  64.087  1.00  0.00     0.006 C 
BRANCH   6   7
ATOM      7  C   UNL     1       3.684  81.854  63.796  1.00  0.00     0.053 C 
BRANCH   7   8
ATOM      8  C   UNL     1       3.381  80.482  64.317  1.00  0.00     0.041 C 
ATOM      9  O   UNL     1       3.704  80.164  65.491  1.00  0.00    -0.550 OA
ATOM     10  O   UNL     1       2.712  79.566  63.515  1.00  0.00    -0.550 OA
ENDBRANCH   7   8
ENDBRANCH   6   7
ENDBRANCH   5   6
ENDBRANCH   4   5
ENDBRANCH   3   4
ENDBRANCH   2   3
ENDBRANCH   1   2
BRANCH   1  11
ATOM     11  C   UNL     1       3.672  88.042  61.815  1.00  0.00     0.000 C 
BRANCH  11  12
ATOM     12  C   UNL     1       3.254  89.166  60.854  1.00  0.00    -0.000 C 
BRANCH  12  13
ATOM     13  C   UNL     1       1.862  89.733  61.178  1.00  0.00    -0.000 C 
BRANCH  13  14
ATOM     14  C   UNL     1       1.157  88.976  62.318  1.00  0.00    -0.000 C 
BRANCH  14  15
ATOM     15  C   UNL     1      -0.026  88.086  61.885  1.00  0.00    -0.000 C 
BRANCH  15  16
ATOM     16  C   UNL     1      -0.514  87.085  62.946  1.00  0.00    -0.000 C 
BRANCH  16  17
ATOM     17  C   UNL     1       0.457  85.911  63.149  1.00  0.00    -0.003 C 
ATOM     18  C   UNL     1       0.836  85.275  61.815  1.00  0.00     0.004 C 
ENDBRANCH  16  17
ENDBRANCH  15  16
ENDBRANCH  14  15
ENDBRANCH  13  14
ENDBRANCH  12  13
ENDBRANCH  11  12
ENDBRANCH   1  11
TORSDOF 14
ENDMDL
