MODEL 1
REMARK VINA RESULT:    -3.740      0.000      0.000
REMARK INTER + INTRA:          -3.959
REMARK INTER:                  -3.959
REMARK INTRA:                   0.000
REMARK UNBOUND:                 0.000
REMARK SMILES O=c1ccc2cc(O)c(O)cc2o1
REMARK SMILES IDX 4 1 3 2 2 3 1 4 13 5 12 6 11 7 9 8 7 9 6 10 5 11 8 12 10 14
REMARK H PARENT 8 13 10 15
REMARK Flexibility Score: inf
ROOT
ATOM      1  C   UNL     1     105.255  99.329  92.599  1.00  0.00     0.019 A 
ATOM      2  C   UNL     1     105.481 100.643  92.191  1.00  0.00     0.094 A 
ATOM      3  C   UNL     1     104.421 101.556  92.229  1.00  0.00     0.336 A 
ATOM      4  O   UNL     1     104.605 102.747  91.866  1.00  0.00    -0.246 OA
ATOM      5  O   UNL     1     103.218 101.173  92.648  1.00  0.00    -0.423 OA
ATOM      6  C   UNL     1     102.960  99.929  93.046  1.00  0.00     0.142 A 
ATOM      7  C   UNL     1     101.677  99.585  93.476  1.00  0.00     0.098 A 
ATOM      8  C   UNL     1     101.390  98.280  93.897  1.00  0.00     0.161 A 
ATOM      9  C   UNL     1     102.414  97.301  93.886  1.00  0.00     0.158 A 
ATOM     10  C   UNL     1     103.700  97.649  93.454  1.00  0.00     0.062 A 
ATOM     11  C   UNL     1     103.979  98.955  93.034  1.00  0.00     0.022 A 
ENDROOT
BRANCH   9  12
ATOM     12  O   UNL     1     102.199  95.982  94.292  1.00  0.00    -0.504 OA
ATOM     13  H   UNL     1     101.512  95.707  94.980  1.00  0.00     0.293 HD
ENDBRANCH   9  12
BRANCH   8  14
ATOM     14  O   UNL     1     100.087  98.003  94.314  1.00  0.00    -0.504 OA
ATOM     15  H   UNL     1      99.472  98.684  94.736  1.00  0.00     0.293 HD
ENDBRANCH   8  14
TORSDOF 2
ENDMDL
MODEL 2
REMARK VINA RESULT:    -3.686      1.998      4.030
REMARK INTER + INTRA:          -3.901
REMARK INTER:                  -3.901
REMARK INTRA:                   0.000
REMARK UNBOUND:                 0.000
REMARK SMILES O=c1ccc2cc(O)c(O)cc2o1
REMARK SMILES IDX 4 1 3 2 2 3 1 4 13 5 12 6 11 7 9 8 7 9 6 10 5 11 8 12 10 14
REMARK H PARENT 8 13 10 15
REMARK Flexibility Score: inf
ROOT
ATOM      1  C   UNL     1     101.756  98.493  93.875  1.00  0.00     0.019 A 
ATOM      2  C   UNL     1     100.660  99.341  94.026  1.00  0.00     0.094 A 
ATOM      3  C   UNL     1     100.781 100.680  93.637  1.00  0.00     0.336 A 
ATOM      4  O   UNL     1      99.804 101.462  93.764  1.00  0.00    -0.246 OA
ATOM      5  O   UNL     1     101.927 101.133  93.133  1.00  0.00    -0.423 OA
ATOM      6  C   UNL     1     102.995 100.357  92.972  1.00  0.00     0.142 A 
ATOM      7  C   UNL     1     104.171 100.888  92.437  1.00  0.00     0.098 A 
ATOM      8  C   UNL     1     105.305 100.084  92.263  1.00  0.00     0.161 A 
ATOM      9  C   UNL     1     105.257  98.717  92.634  1.00  0.00     0.158 A 
ATOM     10  C   UNL     1     104.076  98.187  93.171  1.00  0.00     0.062 A 
ATOM     11  C   UNL     1     102.947  98.997  93.342  1.00  0.00     0.022 A 
ENDROOT
BRANCH   9  12
ATOM     12  O   UNL     1     106.348  97.858  92.488  1.00  0.00    -0.504 OA
ATOM     13  H   UNL     1     106.950  97.576  93.248  1.00  0.00     0.293 HD
ENDBRANCH   9  12
BRANCH   8  14
ATOM     14  O   UNL     1     106.447 100.679  91.723  1.00  0.00    -0.504 OA
ATOM     15  H   UNL     1     107.028 101.338  92.220  1.00  0.00     0.293 HD
ENDBRANCH   8  14
TORSDOF 2
ENDMDL
MODEL 3
REMARK VINA RESULT:    -3.663      7.859      9.265
REMARK INTER + INTRA:          -3.877
REMARK INTER:                  -3.877
REMARK INTRA:                   0.000
REMARK UNBOUND:                 0.000
REMARK SMILES O=c1ccc2cc(O)c(O)cc2o1
REMARK SMILES IDX 4 1 3 2 2 3 1 4 13 5 12 6 11 7 9 8 7 9 6 10 5 11 8 12 10 14
REMARK H PARENT 8 13 10 15
REMARK Flexibility Score: inf
ROOT
ATOM      1  C   UNL     1     104.876  98.915 101.359  1.00  0.00     0.019 A 
ATOM      2  C   UNL     1     104.550  97.565 101.483  1.00  0.00     0.094 A 
ATOM      3  C   UNL     1     105.357  96.613 100.850  1.00  0.00     0.336 A 
ATOM      4  O   UNL     1     105.080  95.390 100.950  1.00  0.00    -0.246 OA
ATOM      5  O   UNL     1     106.416  96.993 100.141  1.00  0.00    -0.423 OA
ATOM      6  C   UNL     1     106.762  98.271  99.998  1.00  0.00     0.142 A 
ATOM      7  C   UNL     1     107.886  98.610  99.241  1.00  0.00     0.098 A 
ATOM      8  C   UNL     1     108.262  99.950  99.082  1.00  0.00     0.161 A 
ATOM      9  C   UNL     1     107.493 100.970  99.694  1.00  0.00     0.158 A 
ATOM     10  C   UNL     1     106.365 100.627 100.452  1.00  0.00     0.062 A 
ATOM     11  C   UNL     1     105.996  99.285 100.607  1.00  0.00     0.022 A 
ENDROOT
BRANCH   9  12
ATOM     12  O   UNL     1     107.809 102.326  99.577  1.00  0.00    -0.504 OA
ATOM     13  H   UNL     1     107.260 103.071  99.981  1.00  0.00     0.293 HD
ENDBRANCH   9  12
BRANCH   8  14
ATOM     14  O   UNL     1     109.395 100.220  98.312  1.00  0.00    -0.504 OA
ATOM     15  H   UNL     1     110.201  99.613  98.261  1.00  0.00     0.293 HD
ENDBRANCH   8  14
TORSDOF 2
ENDMDL
MODEL 4
REMARK VINA RESULT:    -3.632      1.027      2.247
REMARK INTER + INTRA:          -3.845
REMARK INTER:                  -3.845
REMARK INTRA:                   0.000
REMARK UNBOUND:                 0.000
REMARK SMILES O=c1ccc2cc(O)c(O)cc2o1
REMARK SMILES IDX 4 1 3 2 2 3 1 4 13 5 12 6 11 7 9 8 7 9 6 10 5 11 8 12 10 14
REMARK H PARENT 8 13 10 15
REMARK Flexibility Score: inf
ROOT
ATOM      1  C   UNL     1     102.875 101.423  92.553  1.00  0.00     0.019 A 
ATOM      2  C   UNL     1     104.131 101.863  92.137  1.00  0.00     0.094 A 
ATOM      3  C   UNL     1     105.208 100.969  92.174  1.00  0.00     0.336 A 
ATOM      4  O   UNL     1     106.349 101.346  91.802  1.00  0.00    -0.246 OA
ATOM      5  O   UNL     1     105.032  99.721  92.600  1.00  0.00    -0.423 OA
ATOM      6  C   UNL     1     103.850  99.262  93.005  1.00  0.00     0.142 A 
ATOM      7  C   UNL     1     103.727  97.941  93.442  1.00  0.00     0.098 A 
ATOM      8  C   UNL     1     102.490  97.444  93.872  1.00  0.00     0.161 A 
ATOM      9  C   UNL     1     101.354  98.290  93.863  1.00  0.00     0.158 A 
ATOM     10  C   UNL     1     101.481  99.615  93.425  1.00  0.00     0.062 A 
ATOM     11  C   UNL     1     102.721 100.105  92.996  1.00  0.00     0.022 A 
ENDROOT
BRANCH   9  12
ATOM     12  O   UNL     1     100.091  97.861  94.278  1.00  0.00    -0.504 OA
ATOM     13  H   UNL     1      99.351  97.590  93.646  1.00  0.00     0.293 HD
ENDBRANCH   9  12
BRANCH   8  14
ATOM     14  O   UNL     1     102.436  96.115  94.297  1.00  0.00    -0.504 OA
ATOM     15  H   UNL     1     101.862  95.789  95.061  1.00  0.00     0.293 HD
ENDBRANCH   8  14
TORSDOF 2
ENDMDL
MODEL 5
REMARK VINA RESULT:    -3.600      7.766      8.973
REMARK INTER + INTRA:          -3.811
REMARK INTER:                  -3.811
REMARK INTRA:                   0.000
REMARK UNBOUND:                 0.000
REMARK SMILES O=c1ccc2cc(O)c(O)cc2o1
REMARK SMILES IDX 4 1 3 2 2 3 1 4 13 5 12 6 11 7 9 8 7 9 6 10 5 11 8 12 10 14
REMARK H PARENT 8 13 10 15
REMARK Flexibility Score: inf
ROOT
ATOM      1  C   UNL     1     106.014  97.190 100.694  1.00  0.00     0.019 A 
ATOM      2  C   UNL     1     104.840  97.001 101.421  1.00  0.00     0.094 A 
ATOM      3  C   UNL     1     104.052  98.114 101.738  1.00  0.00     0.336 A 
ATOM      4  O   UNL     1     102.989  97.965 102.393  1.00  0.00    -0.246 OA
ATOM      5  O   UNL     1     104.423  99.332 101.351  1.00  0.00    -0.423 OA
ATOM      6  C   UNL     1     105.536  99.555 100.656  1.00  0.00     0.142 A 
ATOM      7  C   UNL     1     105.873 100.857 100.276  1.00  0.00     0.098 A 
ATOM      8  C   UNL     1     107.041 101.108  99.545  1.00  0.00     0.161 A 
ATOM      9  C   UNL     1     107.888 100.029  99.187  1.00  0.00     0.158 A 
ATOM     10  C   UNL     1     107.547  98.725  99.570  1.00  0.00     0.062 A 
ATOM     11  C   UNL     1     106.378  98.482 100.301  1.00  0.00     0.022 A 
ENDROOT
BRANCH   9  12
ATOM     12  O   UNL     1     109.067 100.206  98.460  1.00  0.00    -0.504 OA
ATOM     13  H   UNL     1     109.265  99.745  97.583  1.00  0.00     0.293 HD
ENDBRANCH   9  12
BRANCH   8  14
ATOM     14  O   UNL     1     107.319 102.431  99.199  1.00  0.00    -0.504 OA
ATOM     15  H   UNL     1     108.146 102.722  98.697  1.00  0.00     0.293 HD
ENDBRANCH   8  14
TORSDOF 2
ENDMDL
MODEL 6
REMARK VINA RESULT:    -3.567      5.403      6.828
REMARK INTER + INTRA:          -3.775
REMARK INTER:                  -3.775
REMARK INTRA:                   0.000
REMARK UNBOUND:                 0.000
REMARK SMILES O=c1ccc2cc(O)c(O)cc2o1
REMARK SMILES IDX 4 1 3 2 2 3 1 4 13 5 12 6 11 7 9 8 7 9 6 10 5 11 8 12 10 14
REMARK H PARENT 8 13 10 15
REMARK Flexibility Score: inf
ROOT
ATOM      1  C   UNL     1      97.597 103.483  92.287  1.00  0.00     0.019 A 
ATOM      2  C   UNL     1      96.988 104.714  92.045  1.00  0.00     0.094 A 
ATOM      3  C   UNL     1      97.682 105.887  92.364  1.00  0.00     0.336 A 
ATOM      4  O   UNL     1      97.151 107.008  92.153  1.00  0.00    -0.246 OA
ATOM      5  O   UNL     1      98.903 105.825  92.891  1.00  0.00    -0.423 OA
ATOM      6  C   UNL     1      99.518 104.671  93.137  1.00  0.00     0.142 A 
ATOM      7  C   UNL     1     100.801 104.667  93.691  1.00  0.00     0.098 A 
ATOM      8  C   UNL     1     101.461 103.461  93.956  1.00  0.00     0.161 A 
ATOM      9  C   UNL     1     100.821 102.232  93.659  1.00  0.00     0.158 A 
ATOM     10  C   UNL     1      99.534 102.239  93.104  1.00  0.00     0.062 A 
ATOM     11  C   UNL     1      98.880 103.449  92.841  1.00  0.00     0.022 A 
ENDROOT
BRANCH   9  12
ATOM     12  O   UNL     1     101.420 100.993  93.897  1.00  0.00    -0.504 OA
ATOM     13  H   UNL     1     101.265 100.442  94.729  1.00  0.00     0.293 HD
ENDBRANCH   9  12
BRANCH   8  14
ATOM     14  O   UNL     1     102.741 103.529  94.510  1.00  0.00    -0.504 OA
ATOM     15  H   UNL     1     102.924 103.601  95.501  1.00  0.00     0.293 HD
ENDBRANCH   8  14
TORSDOF 2
ENDMDL
MODEL 7
REMARK VINA RESULT:    -3.567      4.609      6.248
REMARK INTER + INTRA:          -3.775
REMARK INTER:                  -3.775
REMARK INTRA:                   0.000
REMARK UNBOUND:                 0.000
REMARK SMILES O=c1ccc2cc(O)c(O)cc2o1
REMARK SMILES IDX 4 1 3 2 2 3 1 4 13 5 12 6 11 7 9 8 7 9 6 10 5 11 8 12 10 14
REMARK H PARENT 8 13 10 15
REMARK Flexibility Score: inf
ROOT
ATOM      1  C   UNL     1     102.267 102.852  93.116  1.00  0.00     0.019 A 
ATOM      2  C   UNL     1     101.418 103.643  93.889  1.00  0.00     0.094 A 
ATOM      3  C   UNL     1     101.910 104.835  94.432  1.00  0.00     0.336 A 
ATOM      4  O   UNL     1     101.159 105.563  95.132  1.00  0.00    -0.246 OA
ATOM      5  O   UNL     1     103.170 105.205  94.214  1.00  0.00    -0.423 OA
ATOM      6  C   UNL     1     104.012 104.479  93.483  1.00  0.00     0.142 A 
ATOM      7  C   UNL     1     105.324 104.918  93.288  1.00  0.00     0.098 A 
ATOM      8  C   UNL     1     106.223 104.165  92.521  1.00  0.00     0.161 A 
ATOM      9  C   UNL     1     105.796 102.946  91.938  1.00  0.00     0.158 A 
ATOM     10  C   UNL     1     104.479 102.508  92.136  1.00  0.00     0.062 A 
ATOM     11  C   UNL     1     103.587 103.266  92.904  1.00  0.00     0.022 A 
ENDROOT
BRANCH   9  12
ATOM     12  O   UNL     1     106.638 102.146  91.163  1.00  0.00    -0.504 OA
ATOM     13  H   UNL     1     107.623 102.021  91.344  1.00  0.00     0.293 HD
ENDBRANCH   9  12
BRANCH   8  14
ATOM     14  O   UNL     1     107.519 104.661  92.366  1.00  0.00    -0.504 OA
ATOM     15  H   UNL     1     108.287 104.125  91.990  1.00  0.00     0.293 HD
ENDBRANCH   8  14
TORSDOF 2
ENDMDL
MODEL 8
REMARK VINA RESULT:    -3.524      3.408      6.072
REMARK INTER + INTRA:          -3.730
REMARK INTER:                  -3.730
REMARK INTRA:                   0.000
REMARK UNBOUND:                 0.000
REMARK SMILES O=c1ccc2cc(O)c(O)cc2o1
REMARK SMILES IDX 4 1 3 2 2 3 1 4 13 5 12 6 11 7 9 8 7 9 6 10 5 11 8 12 10 14
REMARK H PARENT 8 13 10 15
REMARK Flexibility Score: inf
ROOT
ATOM      1  C   UNL     1      99.897 101.821  93.718  1.00  0.00     0.019 A 
ATOM      2  C   UNL     1     100.171 100.607  93.091  1.00  0.00     0.094 A 
ATOM      3  C   UNL     1     101.449 100.392  92.560  1.00  0.00     0.336 A 
ATOM      4  O   UNL     1     101.717  99.303  91.991  1.00  0.00    -0.246 OA
ATOM      5  O   UNL     1     102.383 101.335  92.654  1.00  0.00    -0.423 OA
ATOM      6  C   UNL     1     102.162 102.506  93.246  1.00  0.00     0.142 A 
ATOM      7  C   UNL     1     103.182 103.458  93.315  1.00  0.00     0.098 A 
ATOM      8  C   UNL     1     102.965 104.696  93.933  1.00  0.00     0.161 A 
ATOM      9  C   UNL     1     101.696 104.984  94.493  1.00  0.00     0.158 A 
ATOM     10  C   UNL     1     100.674 104.028  94.422  1.00  0.00     0.062 A 
ATOM     11  C   UNL     1     100.899 102.793  93.802  1.00  0.00     0.022 A 
ENDROOT
BRANCH   9  12
ATOM     12  O   UNL     1     101.409 106.197  95.124  1.00  0.00    -0.504 OA
ATOM     13  H   UNL     1     100.991 106.272  96.041  1.00  0.00     0.293 HD
ENDBRANCH   9  12
BRANCH   8  14
ATOM     14  O   UNL     1     104.027 105.601  93.967  1.00  0.00    -0.504 OA
ATOM     15  H   UNL     1     104.954 105.397  93.623  1.00  0.00     0.293 HD
ENDBRANCH   8  14
TORSDOF 2
ENDMDL
MODEL 9
REMARK VINA RESULT:    -3.484      6.209      7.503
REMARK INTER + INTRA:          -3.687
REMARK INTER:                  -3.687
REMARK INTRA:                   0.000
REMARK UNBOUND:                 0.000
REMARK SMILES O=c1ccc2cc(O)c(O)cc2o1
REMARK SMILES IDX 4 1 3 2 2 3 1 4 13 5 12 6 11 7 9 8 7 9 6 10 5 11 8 12 10 14
REMARK H PARENT 8 13 10 15
REMARK Flexibility Score: inf
ROOT
ATOM      1  C   UNL     1     100.440 107.435  94.380  1.00  0.00     0.019 A 
ATOM      2  C   UNL     1      99.297 108.112  93.957  1.00  0.00     0.094 A 
ATOM      3  C   UNL     1      98.357 107.432  93.174  1.00  0.00     0.336 A 
ATOM      4  O   UNL     1      97.319 108.024  92.783  1.00  0.00    -0.246 OA
ATOM      5  O   UNL     1      98.556 106.159  92.839  1.00  0.00    -0.423 OA
ATOM      6  C   UNL     1      99.633 105.478  93.223  1.00  0.00     0.142 A 
ATOM      7  C   UNL     1      99.787 104.143  92.841  1.00  0.00     0.098 A 
ATOM      8  C   UNL     1     100.915 103.412  93.235  1.00  0.00     0.161 A 
ATOM      9  C   UNL     1     101.909 104.035  94.030  1.00  0.00     0.158 A 
ATOM     10  C   UNL     1     101.752 105.374  94.411  1.00  0.00     0.062 A 
ATOM     11  C   UNL     1     100.622 106.098  94.013  1.00  0.00     0.022 A 
ENDROOT
BRANCH   9  12
ATOM     12  O   UNL     1     103.059 103.368  94.459  1.00  0.00    -0.504 OA
ATOM     13  H   UNL     1     103.378 103.351  95.417  1.00  0.00     0.293 HD
ENDBRANCH   9  12
BRANCH   8  14
ATOM     14  O   UNL     1     101.007 102.083  92.819  1.00  0.00    -0.504 OA
ATOM     15  H   UNL     1     101.740 101.451  93.105  1.00  0.00     0.293 HD
ENDBRANCH   8  14
TORSDOF 2
ENDMDL
