MODEL 1
REMARK VINA RESULT:    -5.112      0.000      0.000
REMARK INTER + INTRA:         -10.372
REMARK INTER:                  -8.698
REMARK INTRA:                  -1.674
REMARK UNBOUND:                -1.674
REMARK SMILES CCCCCCCCCCCCCC(=O)[O-]
REMARK SMILES IDX 8 1 9 2 10 3 11 4 12 5 13 6 14 7 15 8 16 9 7 10 6 11 5 12
REMARK SMILES IDX 4 13 3 14 2 15 1 16
REMARK H PARENT
REMARK Flexibility Score: inf
ROOT
ATOM      1  C   UNL     1      13.105   5.412 -13.088  1.00  0.00     0.000 C 
ENDROOT
BRANCH   1   2
ATOM      2  C   UNL     1      11.953   4.902 -13.982  1.00  0.00     0.000 C 
BRANCH   2   3
ATOM      3  C   UNL     1      11.960   5.502 -15.401  1.00  0.00     0.000 C 
BRANCH   3   4
ATOM      4  C   UNL     1      12.249   7.013 -15.467  1.00  0.00     0.000 C 
BRANCH   4   5
ATOM      5  C   UNL     1      10.999   7.913 -15.459  1.00  0.00     0.006 C 
BRANCH   5   6
ATOM      6  C   UNL     1       9.814   7.294 -16.210  1.00  0.00     0.053 C 
BRANCH   6   7
ATOM      7  C   UNL     1       9.088   8.342 -16.994  1.00  0.00     0.041 C 
ATOM      8  O   UNL     1       8.020   8.839 -16.548  1.00  0.00    -0.550 OA
ATOM      9  O   UNL     1       9.563   8.734 -18.239  1.00  0.00    -0.550 OA
ENDBRANCH   6   7
ENDBRANCH   5   6
ENDBRANCH   4   5
ENDBRANCH   3   4
ENDBRANCH   2   3
ENDBRANCH   1   2
BRANCH   1  10
ATOM     10  C   UNL     1      12.617   5.835 -11.692  1.00  0.00     0.000 C 
BRANCH  10  11
ATOM     11  C   UNL     1      11.289   6.609 -11.735  1.00  0.00    -0.000 C 
BRANCH  11  12
ATOM     12  C   UNL     1      10.213   5.989 -10.828  1.00  0.00    -0.000 C 
BRANCH  12  13
ATOM     13  C   UNL     1       8.824   5.974 -11.486  1.00  0.00    -0.000 C 
BRANCH  13  14
ATOM     14  C   UNL     1       8.738   6.898 -12.711  1.00  0.00    -0.000 C 
BRANCH  14  15
ATOM     15  C   UNL     1       7.730   8.030 -12.473  1.00  0.00    -0.003 C 
ATOM     16  C   UNL     1       8.285   9.370 -12.947  1.00  0.00     0.004 C 
ENDBRANCH  14  15
ENDBRANCH  13  14
ENDBRANCH  12  13
ENDBRANCH  11  12
ENDBRANCH  10  11
ENDBRANCH   1  10
TORSDOF 12
ENDMDL
MODEL 2
REMARK VINA RESULT:    -5.049      2.208      4.675
REMARK INTER + INTRA:         -10.266
REMARK INTER:                  -8.509
REMARK INTRA:                  -1.756
REMARK UNBOUND:                -1.674
REMARK SMILES CCCCCCCCCCCCCC(=O)[O-]
REMARK SMILES IDX 8 1 9 2 10 3 11 4 12 5 13 6 14 7 15 8 16 9 7 10 6 11 5 12
REMARK SMILES IDX 4 13 3 14 2 15 1 16
REMARK H PARENT
REMARK Flexibility Score: inf
ROOT
ATOM      1  C   UNL     1      13.533   6.201 -12.132  1.00  0.00     0.000 C 
ENDROOT
BRANCH   1   2
ATOM      2  C   UNL     1      12.887   5.973 -10.748  1.00  0.00     0.000 C 
BRANCH   2   3
ATOM      3  C   UNL     1      11.610   6.805 -10.516  1.00  0.00     0.000 C 
BRANCH   3   4
ATOM      4  C   UNL     1      10.343   5.981 -10.219  1.00  0.00     0.000 C 
BRANCH   4   5
ATOM      5  C   UNL     1       9.344   5.885 -11.386  1.00  0.00     0.006 C 
BRANCH   5   6
ATOM      6  C   UNL     1       9.281   7.168 -12.224  1.00  0.00     0.053 C 
BRANCH   6   7
ATOM      7  C   UNL     1       7.861   7.607 -12.399  1.00  0.00     0.041 C 
ATOM      8  O   UNL     1       6.935   6.755 -12.441  1.00  0.00    -0.550 OA
ATOM      9  O   UNL     1       7.564   8.954 -12.566  1.00  0.00    -0.550 OA
ENDBRANCH   6   7
ENDBRANCH   5   6
ENDBRANCH   4   5
ENDBRANCH   3   4
ENDBRANCH   2   3
ENDBRANCH   1   2
BRANCH   1  10
ATOM     10  C   UNL     1      13.692   7.695 -12.463  1.00  0.00     0.000 C 
BRANCH  10  11
ATOM     11  C   UNL     1      13.499   7.997 -13.958  1.00  0.00    -0.000 C 
BRANCH  11  12
ATOM     12  C   UNL     1      12.030   8.279 -14.320  1.00  0.00    -0.000 C 
BRANCH  12  13
ATOM     13  C   UNL     1      11.435   7.207 -15.247  1.00  0.00    -0.000 C 
BRANCH  13  14
ATOM     14  C   UNL     1      12.500   6.255 -15.812  1.00  0.00    -0.000 C 
BRANCH  14  15
ATOM     15  C   UNL     1      12.102   4.791 -15.583  1.00  0.00    -0.003 C 
ATOM     16  C   UNL     1      11.161   4.657 -14.389  1.00  0.00     0.004 C 
ENDBRANCH  14  15
ENDBRANCH  13  14
ENDBRANCH  12  13
ENDBRANCH  11  12
ENDBRANCH  10  11
ENDBRANCH   1  10
TORSDOF 12
ENDMDL
MODEL 3
REMARK VINA RESULT:    -5.023      3.650      5.472
REMARK INTER + INTRA:         -10.221
REMARK INTER:                  -8.176
REMARK INTRA:                  -2.045
REMARK UNBOUND:                -1.674
REMARK SMILES CCCCCCCCCCCCCC(=O)[O-]
REMARK SMILES IDX 8 1 9 2 10 3 11 4 12 5 13 6 14 7 15 8 16 9 7 10 6 11 5 12
REMARK SMILES IDX 4 13 3 14 2 15 1 16
REMARK H PARENT
REMARK Flexibility Score: inf
ROOT
ATOM      1  C   UNL     1      13.074   7.673 -14.759  1.00  0.00     0.000 C 
ENDROOT
BRANCH   1   2
ATOM      2  C   UNL     1      11.995   8.624 -14.197  1.00  0.00     0.000 C 
BRANCH   2   3
ATOM      3  C   UNL     1      11.767   8.473 -12.680  1.00  0.00     0.000 C 
BRANCH   3   4
ATOM      4  C   UNL     1      10.664   7.473 -12.285  1.00  0.00     0.000 C 
BRANCH   4   5
ATOM      5  C   UNL     1      11.101   6.390 -11.282  1.00  0.00     0.006 C 
BRANCH   5   6
ATOM      6  C   UNL     1      12.586   6.029 -11.404  1.00  0.00     0.053 C 
BRANCH   6   7
ATOM      7  C   UNL     1      13.309   6.354 -10.135  1.00  0.00     0.041 C 
ATOM      8  O   UNL     1      14.250   7.191 -10.139  1.00  0.00    -0.550 OA
ATOM      9  O   UNL     1      12.976   5.698  -8.956  1.00  0.00    -0.550 OA
ENDBRANCH   6   7
ENDBRANCH   5   6
ENDBRANCH   4   5
ENDBRANCH   3   4
ENDBRANCH   2   3
ENDBRANCH   1   2
BRANCH   1  10
ATOM     10  C   UNL     1      12.519   6.742 -15.851  1.00  0.00     0.000 C 
BRANCH  10  11
ATOM     11  C   UNL     1      12.098   5.368 -15.304  1.00  0.00    -0.000 C 
BRANCH  11  12
ATOM     12  C   UNL     1      10.579   5.256 -15.086  1.00  0.00    -0.000 C 
BRANCH  12  13
ATOM     13  C   UNL     1       9.777   6.109 -16.083  1.00  0.00    -0.000 C 
BRANCH  13  14
ATOM     14  C   UNL     1       8.778   7.048 -15.389  1.00  0.00    -0.000 C 
BRANCH  14  15
ATOM     15  C   UNL     1       8.532   8.305 -16.234  1.00  0.00    -0.003 C 
ATOM     16  C   UNL     1       9.607   8.467 -17.306  1.00  0.00     0.004 C 
ENDBRANCH  14  15
ENDBRANCH  13  14
ENDBRANCH  12  13
ENDBRANCH  11  12
ENDBRANCH  10  11
ENDBRANCH   1  10
TORSDOF 12
ENDMDL
MODEL 4
REMARK VINA RESULT:    -5.011      3.204      4.965
REMARK INTER + INTRA:         -10.201
REMARK INTER:                  -8.508
REMARK INTRA:                  -1.693
REMARK UNBOUND:                -1.674
REMARK SMILES CCCCCCCCCCCCCC(=O)[O-]
REMARK SMILES IDX 8 1 9 2 10 3 11 4 12 5 13 6 14 7 15 8 16 9 7 10 6 11 5 12
REMARK SMILES IDX 4 13 3 14 2 15 1 16
REMARK H PARENT
REMARK Flexibility Score: inf
ROOT
ATOM      1  C   UNL     1      10.526   6.029 -10.139  1.00  0.00     0.000 C 
ENDROOT
BRANCH   1   2
ATOM      2  C   UNL     1      11.882   6.768 -10.165  1.00  0.00     0.000 C 
BRANCH   2   3
ATOM      3  C   UNL     1      12.868   6.214 -11.212  1.00  0.00     0.000 C 
BRANCH   3   4
ATOM      4  C   UNL     1      13.685   7.282 -11.964  1.00  0.00     0.000 C 
BRANCH   4   5
ATOM      5  C   UNL     1      12.873   8.497 -12.448  1.00  0.00     0.006 C 
BRANCH   5   6
ATOM      6  C   UNL     1      13.654   9.814 -12.350  1.00  0.00     0.053 C 
BRANCH   6   7
ATOM      7  C   UNL     1      12.796  10.886 -11.757  1.00  0.00     0.041 C 
ATOM      8  O   UNL     1      13.310  11.782 -11.036  1.00  0.00    -0.550 OA
ATOM      9  O   UNL     1      11.421  10.869 -11.957  1.00  0.00    -0.550 OA
ENDBRANCH   6   7
ENDBRANCH   5   6
ENDBRANCH   4   5
ENDBRANCH   3   4
ENDBRANCH   2   3
ENDBRANCH   1   2
BRANCH   1  10
ATOM     10  C   UNL     1      10.041   5.650 -11.548  1.00  0.00     0.000 C 
BRANCH  10  11
ATOM     11  C   UNL     1       9.066   6.682 -12.140  1.00  0.00    -0.000 C 
BRANCH  11  12
ATOM     12  C   UNL     1       9.621   7.368 -13.400  1.00  0.00    -0.000 C 
BRANCH  12  13
ATOM     13  C   UNL     1      10.419   6.403 -14.293  1.00  0.00    -0.000 C 
BRANCH  13  14
ATOM     14  C   UNL     1      10.992   7.089 -15.542  1.00  0.00    -0.000 C 
BRANCH  14  15
ATOM     15  C   UNL     1      12.478   6.749 -15.719  1.00  0.00    -0.003 C 
ATOM     16  C   UNL     1      13.273   7.971 -16.171  1.00  0.00     0.004 C 
ENDBRANCH  14  15
ENDBRANCH  13  14
ENDBRANCH  12  13
ENDBRANCH  11  12
ENDBRANCH  10  11
ENDBRANCH   1  10
TORSDOF 12
ENDMDL
MODEL 5
REMARK VINA RESULT:    -5.005      1.642      2.922
REMARK INTER + INTRA:         -10.191
REMARK INTER:                  -8.665
REMARK INTRA:                  -1.525
REMARK UNBOUND:                -1.674
REMARK SMILES CCCCCCCCCCCCCC(=O)[O-]
REMARK SMILES IDX 8 1 9 2 10 3 11 4 12 5 13 6 14 7 15 8 16 9 7 10 6 11 5 12
REMARK SMILES IDX 4 13 3 14 2 15 1 16
REMARK H PARENT
REMARK Flexibility Score: inf
ROOT
ATOM      1  C   UNL     1      13.452   9.147 -13.591  1.00  0.00     0.000 C 
ENDROOT
BRANCH   1   2
ATOM      2  C   UNL     1      14.457   8.735 -14.689  1.00  0.00     0.000 C 
BRANCH   2   3
ATOM      3  C   UNL     1      13.795   8.088 -15.921  1.00  0.00     0.000 C 
BRANCH   3   4
ATOM      4  C   UNL     1      12.347   7.609 -15.705  1.00  0.00     0.000 C 
BRANCH   4   5
ATOM      5  C   UNL     1      11.288   8.351 -16.540  1.00  0.00     0.006 C 
BRANCH   5   6
ATOM      6  C   UNL     1       9.860   7.865 -16.259  1.00  0.00     0.053 C 
BRANCH   6   7
ATOM      7  C   UNL     1       8.895   8.505 -17.207  1.00  0.00     0.041 C 
ATOM      8  O   UNL     1       7.725   8.781 -16.830  1.00  0.00    -0.550 OA
ATOM      9  O   UNL     1       9.271   8.753 -18.521  1.00  0.00    -0.550 OA
ENDBRANCH   6   7
ENDBRANCH   5   6
ENDBRANCH   4   5
ENDBRANCH   3   4
ENDBRANCH   2   3
ENDBRANCH   1   2
BRANCH   1  10
ATOM     10  C   UNL     1      13.867   8.638 -12.200  1.00  0.00     0.000 C 
BRANCH  10  11
ATOM     11  C   UNL     1      14.452   7.216 -12.236  1.00  0.00    -0.000 C 
BRANCH  11  12
ATOM     12  C   UNL     1      13.462   6.155 -11.725  1.00  0.00    -0.000 C 
BRANCH  12  13
ATOM     13  C   UNL     1      12.898   5.280 -12.857  1.00  0.00    -0.000 C 
BRANCH  13  14
ATOM     14  C   UNL     1      11.363   5.228 -12.857  1.00  0.00    -0.000 C 
BRANCH  14  15
ATOM     15  C   UNL     1      10.776   6.414 -12.081  1.00  0.00    -0.003 C 
ATOM     16  C   UNL     1       9.514   6.007 -11.324  1.00  0.00     0.004 C 
ENDBRANCH  14  15
ENDBRANCH  13  14
ENDBRANCH  12  13
ENDBRANCH  11  12
ENDBRANCH  10  11
ENDBRANCH   1  10
TORSDOF 12
ENDMDL
MODEL 6
REMARK VINA RESULT:    -5.004      3.090      4.648
REMARK INTER + INTRA:         -10.188
REMARK INTER:                  -8.707
REMARK INTRA:                  -1.481
REMARK UNBOUND:                -1.674
REMARK SMILES CCCCCCCCCCCCCC(=O)[O-]
REMARK SMILES IDX 8 1 9 2 10 3 11 4 12 5 13 6 14 7 15 8 16 9 7 10 6 11 5 12
REMARK SMILES IDX 4 13 3 14 2 15 1 16
REMARK H PARENT
REMARK Flexibility Score: inf
ROOT
ATOM      1  C   UNL     1       9.835   5.630 -15.456  1.00  0.00     0.000 C 
ENDROOT
BRANCH   1   2
ATOM      2  C   UNL     1       9.880   6.910 -16.319  1.00  0.00     0.000 C 
BRANCH   2   3
ATOM      3  C   UNL     1      10.734   8.038 -15.709  1.00  0.00     0.000 C 
BRANCH   3   4
ATOM      4  C   UNL     1      11.851   8.575 -16.624  1.00  0.00     0.000 C 
BRANCH   4   5
ATOM      5  C   UNL     1      13.264   8.063 -16.289  1.00  0.00     0.006 C 
BRANCH   5   6
ATOM      6  C   UNL     1      13.529   7.989 -14.780  1.00  0.00     0.053 C 
BRANCH   6   7
ATOM      7  C   UNL     1      14.702   8.842 -14.414  1.00  0.00     0.041 C 
ATOM      8  O   UNL     1      15.865   8.500 -14.754  1.00  0.00    -0.550 OA
ATOM      9  O   UNL     1      14.518   9.990 -13.653  1.00  0.00    -0.550 OA
ENDBRANCH   6   7
ENDBRANCH   5   6
ENDBRANCH   4   5
ENDBRANCH   3   4
ENDBRANCH   2   3
ENDBRANCH   1   2
BRANCH   1  10
ATOM     10  C   UNL     1      11.240   5.141 -15.064  1.00  0.00     0.000 C 
BRANCH  10  11
ATOM     11  C   UNL     1      11.305   4.611 -13.622  1.00  0.00    -0.000 C 
BRANCH  11  12
ATOM     12  C   UNL     1      10.607   5.543 -12.616  1.00  0.00    -0.000 C 
BRANCH  12  13
ATOM     13  C   UNL     1      11.561   6.595 -12.028  1.00  0.00    -0.000 C 
BRANCH  13  14
ATOM     14  C   UNL     1      12.941   6.016 -11.681  1.00  0.00    -0.000 C 
BRANCH  14  15
ATOM     15  C   UNL     1      13.321   6.341 -10.231  1.00  0.00    -0.003 C 
ATOM     16  C   UNL     1      12.153   6.082  -9.283  1.00  0.00     0.004 C 
ENDBRANCH  14  15
ENDBRANCH  13  14
ENDBRANCH  12  13
ENDBRANCH  11  12
ENDBRANCH  10  11
ENDBRANCH   1  10
TORSDOF 12
ENDMDL
MODEL 7
REMARK VINA RESULT:    -4.995      2.958      4.728
REMARK INTER + INTRA:         -10.173
REMARK INTER:                  -8.511
REMARK INTRA:                  -1.661
REMARK UNBOUND:                -1.674
REMARK SMILES CCCCCCCCCCCCCC(=O)[O-]
REMARK SMILES IDX 8 1 9 2 10 3 11 4 12 5 13 6 14 7 15 8 16 9 7 10 6 11 5 12
REMARK SMILES IDX 4 13 3 14 2 15 1 16
REMARK H PARENT
REMARK Flexibility Score: inf
ROOT
ATOM      1  C   UNL     1       8.492   7.811 -16.129  1.00  0.00     0.000 C 
ENDROOT
BRANCH   1   2
ATOM      2  C   UNL     1       9.497   8.421 -17.132  1.00  0.00     0.000 C 
BRANCH   2   3
ATOM      3  C   UNL     1      10.757   9.007 -16.466  1.00  0.00     0.000 C 
BRANCH   3   4
ATOM      4  C   UNL     1      12.083   8.667 -17.172  1.00  0.00     0.000 C 
BRANCH   4   5
ATOM      5  C   UNL     1      13.181   8.105 -16.252  1.00  0.00     0.006 C 
BRANCH   5   6
ATOM      6  C   UNL     1      12.930   8.409 -14.770  1.00  0.00     0.053 C 
BRANCH   6   7
ATOM      7  C   UNL     1      14.228   8.530 -14.035  1.00  0.00     0.041 C 
ATOM      8  O   UNL     1      14.244   8.541 -12.776  1.00  0.00    -0.550 OA
ATOM      9  O   UNL     1      15.416   8.680 -14.740  1.00  0.00    -0.550 OA
ENDBRANCH   6   7
ENDBRANCH   5   6
ENDBRANCH   4   5
ENDBRANCH   3   4
ENDBRANCH   2   3
ENDBRANCH   1   2
BRANCH   1  10
ATOM     10  C   UNL     1       9.168   6.846 -15.140  1.00  0.00     0.000 C 
BRANCH  10  11
ATOM     11  C   UNL     1       9.814   5.637 -15.836  1.00  0.00    -0.000 C 
BRANCH  11  12
ATOM     12  C   UNL     1      11.135   5.208 -15.173  1.00  0.00    -0.000 C 
BRANCH  12  13
ATOM     13  C   UNL     1      10.926   4.629 -13.764  1.00  0.00    -0.000 C 
BRANCH  13  14
ATOM     14  C   UNL     1      11.808   5.309 -12.707  1.00  0.00    -0.000 C 
BRANCH  14  15
ATOM     15  C   UNL     1      11.043   6.434 -11.997  1.00  0.00    -0.003 C 
ATOM     16  C   UNL     1       9.789   5.899 -11.311  1.00  0.00     0.004 C 
ENDBRANCH  14  15
ENDBRANCH  13  14
ENDBRANCH  12  13
ENDBRANCH  11  12
ENDBRANCH  10  11
ENDBRANCH   1  10
TORSDOF 12
ENDMDL
MODEL 8
REMARK VINA RESULT:    -4.987      3.208      5.356
REMARK INTER + INTRA:         -10.159
REMARK INTER:                  -8.217
REMARK INTRA:                  -1.942
REMARK UNBOUND:                -1.674
REMARK SMILES CCCCCCCCCCCCCC(=O)[O-]
REMARK SMILES IDX 8 1 9 2 10 3 11 4 12 5 13 6 14 7 15 8 16 9 7 10 6 11 5 12
REMARK SMILES IDX 4 13 3 14 2 15 1 16
REMARK H PARENT
REMARK Flexibility Score: inf
ROOT
ATOM      1  C   UNL     1       9.468   5.817 -11.434  1.00  0.00     0.000 C 
ENDROOT
BRANCH   1   2
ATOM      2  C   UNL     1      10.384   5.982 -10.201  1.00  0.00     0.000 C 
BRANCH   2   3
ATOM      3  C   UNL     1      11.653   6.810 -10.479  1.00  0.00     0.000 C 
BRANCH   3   4
ATOM      4  C   UNL     1      12.909   5.983 -10.811  1.00  0.00     0.000 C 
BRANCH   4   5
ATOM      5  C   UNL     1      13.889   6.657 -11.789  1.00  0.00     0.006 C 
BRANCH   5   6
ATOM      6  C   UNL     1      13.317   7.931 -12.423  1.00  0.00     0.053 C 
BRANCH   6   7
ATOM      7  C   UNL     1      14.226   9.092 -12.170  1.00  0.00     0.041 C 
ATOM      8  O   UNL     1      14.406   9.962 -13.063  1.00  0.00    -0.550 OA
ATOM      9  O   UNL     1      14.914   9.189 -10.967  1.00  0.00    -0.550 OA
ENDBRANCH   6   7
ENDBRANCH   5   6
ENDBRANCH   4   5
ENDBRANCH   3   4
ENDBRANCH   2   3
ENDBRANCH   1   2
BRANCH   1  10
ATOM     10  C   UNL     1       9.682   6.932 -12.472  1.00  0.00     0.000 C 
BRANCH  10  11
ATOM     11  C   UNL     1      10.067   6.389 -13.859  1.00  0.00    -0.000 C 
BRANCH  11  12
ATOM     12  C   UNL     1      10.814   5.046 -13.782  1.00  0.00    -0.000 C 
BRANCH  12  13
ATOM     13  C   UNL     1      12.155   5.074 -14.534  1.00  0.00    -0.000 C 
BRANCH  13  14
ATOM     14  C   UNL     1      12.055   5.772 -15.898  1.00  0.00    -0.000 C 
BRANCH  14  15
ATOM     15  C   UNL     1      12.975   6.999 -15.952  1.00  0.00    -0.003 C 
ATOM     16  C   UNL     1      12.206   8.246 -16.381  1.00  0.00     0.004 C 
ENDBRANCH  14  15
ENDBRANCH  13  14
ENDBRANCH  12  13
ENDBRANCH  11  12
ENDBRANCH  10  11
ENDBRANCH   1  10
TORSDOF 12
ENDMDL
MODEL 9
REMARK VINA RESULT:    -4.975      1.775      4.015
REMARK INTER + INTRA:         -10.139
REMARK INTER:                  -8.288
REMARK INTRA:                  -1.851
REMARK UNBOUND:                -1.674
REMARK SMILES CCCCCCCCCCCCCC(=O)[O-]
REMARK SMILES IDX 8 1 9 2 10 3 11 4 12 5 13 6 14 7 15 8 16 9 7 10 6 11 5 12
REMARK SMILES IDX 4 13 3 14 2 15 1 16
REMARK H PARENT
REMARK Flexibility Score: inf
ROOT
ATOM      1  C   UNL     1      11.886   7.680 -15.670  1.00  0.00     0.000 C 
ENDROOT
BRANCH   1   2
ATOM      2  C   UNL     1      11.887   8.665 -16.860  1.00  0.00     0.000 C 
BRANCH   2   3
ATOM      3  C   UNL     1      10.476   9.022 -17.369  1.00  0.00     0.000 C 
BRANCH   3   4
ATOM      4  C   UNL     1       9.384   7.989 -17.035  1.00  0.00     0.000 C 
BRANCH   4   5
ATOM      5  C   UNL     1       8.234   8.520 -16.160  1.00  0.00     0.006 C 
BRANCH   5   6
ATOM      6  C   UNL     1       8.001   7.672 -14.903  1.00  0.00     0.053 C 
BRANCH   6   7
ATOM      7  C   UNL     1       8.425   8.424 -13.681  1.00  0.00     0.041 C 
ATOM      8  O   UNL     1       9.401   9.218 -13.733  1.00  0.00    -0.550 OA
ATOM      9  O   UNL     1       7.776   8.210 -12.471  1.00  0.00    -0.550 OA
ENDBRANCH   6   7
ENDBRANCH   5   6
ENDBRANCH   4   5
ENDBRANCH   3   4
ENDBRANCH   2   3
ENDBRANCH   1   2
BRANCH   1  10
ATOM     10  C   UNL     1      12.778   6.454 -15.927  1.00  0.00     0.000 C 
BRANCH  10  11
ATOM     11  C   UNL     1      12.069   5.126 -15.614  1.00  0.00    -0.000 C 
BRANCH  11  12
ATOM     12  C   UNL     1      10.775   5.321 -14.805  1.00  0.00    -0.000 C 
BRANCH  12  13
ATOM     13  C   UNL     1      10.836   4.648 -13.424  1.00  0.00    -0.000 C 
BRANCH  13  14
ATOM     14  C   UNL     1      10.510   5.617 -12.277  1.00  0.00    -0.000 C 
BRANCH  14  15
ATOM     15  C   UNL     1      11.657   6.612 -12.059  1.00  0.00    -0.003 C 
ATOM     16  C   UNL     1      12.988   5.887 -11.878  1.00  0.00     0.004 C 
ENDBRANCH  14  15
ENDBRANCH  13  14
ENDBRANCH  12  13
ENDBRANCH  11  12
ENDBRANCH  10  11
ENDBRANCH   1  10
TORSDOF 12
ENDMDL
