MODEL 1
REMARK VINA RESULT:    -5.133      0.000      0.000
REMARK INTER + INTRA:          -6.022
REMARK INTER:                  -5.884
REMARK INTRA:                  -0.138
REMARK UNBOUND:                -0.138
REMARK SMILES O=C([O-])C=Cc1ccc(O)cc1
REMARK SMILES IDX 6 1 7 2 12 3 8 4 11 5 9 6 5 7 4 8 2 9 1 10 3 11 10 12
REMARK H PARENT 10 13
REMARK Flexibility Score: inf
ROOT
ATOM      1  C   UNL     1     -30.461 -20.851 -32.766  1.00  0.00    -0.025 A 
ATOM      2  C   UNL     1     -29.235 -20.202 -33.024  1.00  0.00     0.012 A 
ATOM      3  C   UNL     1     -30.785 -21.184 -31.439  1.00  0.00     0.012 A 
ATOM      4  C   UNL     1     -28.373 -19.875 -31.973  1.00  0.00     0.047 A 
ATOM      5  C   UNL     1     -29.920 -20.854 -30.391  1.00  0.00     0.047 A 
ATOM      6  C   UNL     1     -28.714 -20.198 -30.653  1.00  0.00     0.115 A 
ENDROOT
BRANCH   1   7
ATOM      7  C   UNL     1     -31.407 -21.231 -33.844  1.00  0.00     0.010 C 
ATOM      8  C   UNL     1     -31.573 -22.488 -34.279  1.00  0.00     0.025 C 
BRANCH   8   9
ATOM      9  C   UNL     1     -32.516 -22.818 -35.360  1.00  0.00     0.064 C 
ATOM     10  O   UNL     1     -32.587 -24.001 -35.783  1.00  0.00    -0.545 OA
ATOM     11  O   UNL     1     -33.333 -21.843 -35.923  1.00  0.00    -0.545 OA
ENDBRANCH   8   9
ENDBRANCH   1   7
BRANCH   6  12
ATOM     12  O   UNL     1     -27.863 -19.875 -29.600  1.00  0.00    -0.508 OA
ATOM     13  H   UNL     1     -26.925 -19.528 -29.764  1.00  0.00     0.293 HD
ENDBRANCH   6  12
TORSDOF 3
ENDMDL
MODEL 2
REMARK VINA RESULT:    -5.072      0.086      1.400
REMARK INTER + INTRA:          -5.951
REMARK INTER:                  -5.816
REMARK INTRA:                  -0.135
REMARK UNBOUND:                -0.138
REMARK SMILES O=C([O-])C=Cc1ccc(O)cc1
REMARK SMILES IDX 6 1 7 2 12 3 8 4 11 5 9 6 5 7 4 8 2 9 1 10 3 11 10 12
REMARK H PARENT 10 13
REMARK Flexibility Score: inf
ROOT
ATOM      1  C   UNL     1     -30.504 -20.951 -32.747  1.00  0.00    -0.025 A 
ATOM      2  C   UNL     1     -30.795 -21.261 -31.402  1.00  0.00     0.012 A 
ATOM      3  C   UNL     1     -29.317 -20.259 -33.041  1.00  0.00     0.012 A 
ATOM      4  C   UNL     1     -29.903 -20.907 -30.386  1.00  0.00     0.047 A 
ATOM      5  C   UNL     1     -28.427 -19.908 -32.021  1.00  0.00     0.047 A 
ATOM      6  C   UNL     1     -28.715 -20.231 -30.693  1.00  0.00     0.115 A 
ENDROOT
BRANCH   1   7
ATOM      7  C   UNL     1     -31.421 -21.293 -33.863  1.00  0.00     0.010 C 
ATOM      8  C   UNL     1     -31.602 -22.539 -34.322  1.00  0.00     0.025 C 
BRANCH   8   9
ATOM      9  C   UNL     1     -32.514 -22.831 -35.440  1.00  0.00     0.064 C 
ATOM     10  O   UNL     1     -32.591 -24.003 -35.890  1.00  0.00    -0.545 OA
ATOM     11  O   UNL     1     -33.296 -21.830 -36.008  1.00  0.00    -0.545 OA
ENDBRANCH   8   9
ENDBRANCH   1   7
BRANCH   6  12
ATOM     12  O   UNL     1     -27.820 -19.876 -29.687  1.00  0.00    -0.508 OA
ATOM     13  H   UNL     1     -27.669 -20.468 -28.879  1.00  0.00     0.293 HD
ENDBRANCH   6  12
TORSDOF 3
ENDMDL
MODEL 3
REMARK VINA RESULT:    -4.902      2.007      6.213
REMARK INTER + INTRA:          -5.757
REMARK INTER:                  -5.614
REMARK INTRA:                  -0.143
REMARK UNBOUND:                -0.138
REMARK SMILES O=C([O-])C=Cc1ccc(O)cc1
REMARK SMILES IDX 6 1 7 2 12 3 8 4 11 5 9 6 5 7 4 8 2 9 1 10 3 11 10 12
REMARK H PARENT 10 13
REMARK Flexibility Score: inf
ROOT
ATOM      1  C   UNL     1     -32.170 -22.491 -34.895  1.00  0.00    -0.025 A 
ATOM      2  C   UNL     1     -31.982 -23.507 -35.855  1.00  0.00     0.012 A 
ATOM      3  C   UNL     1     -33.001 -21.403 -35.215  1.00  0.00     0.012 A 
ATOM      4  C   UNL     1     -32.632 -23.442 -37.092  1.00  0.00     0.047 A 
ATOM      5  C   UNL     1     -33.650 -21.343 -36.452  1.00  0.00     0.047 A 
ATOM      6  C   UNL     1     -33.470 -22.361 -37.392  1.00  0.00     0.115 A 
ENDROOT
BRANCH   1   7
ATOM      7  C   UNL     1     -31.496 -22.504 -33.574  1.00  0.00     0.010 C 
ATOM      8  C   UNL     1     -30.767 -21.484 -33.099  1.00  0.00     0.025 C 
BRANCH   8   9
ATOM      9  C   UNL     1     -30.107 -21.545 -31.786  1.00  0.00     0.064 C 
ATOM     10  O   UNL     1     -29.294 -20.643 -31.456  1.00  0.00    -0.545 OA
ATOM     11  O   UNL     1     -30.366 -22.586 -30.900  1.00  0.00    -0.545 OA
ENDBRANCH   8   9
ENDBRANCH   1   7
BRANCH   6  12
ATOM     12  O   UNL     1     -34.123 -22.287 -38.620  1.00  0.00    -0.508 OA
ATOM     13  H   UNL     1     -33.743 -21.750 -39.391  1.00  0.00     0.293 HD
ENDBRANCH   6  12
TORSDOF 3
ENDMDL
MODEL 4
REMARK VINA RESULT:    -4.817      1.999      6.213
REMARK INTER + INTRA:          -5.660
REMARK INTER:                  -5.523
REMARK INTRA:                  -0.136
REMARK UNBOUND:                -0.138
REMARK SMILES O=C([O-])C=Cc1ccc(O)cc1
REMARK SMILES IDX 6 1 7 2 12 3 8 4 11 5 9 6 5 7 4 8 2 9 1 10 3 11 10 12
REMARK H PARENT 10 13
REMARK Flexibility Score: inf
ROOT
ATOM      1  C   UNL     1     -32.118 -22.448 -34.853  1.00  0.00    -0.025 A 
ATOM      2  C   UNL     1     -33.023 -21.436 -35.235  1.00  0.00     0.012 A 
ATOM      3  C   UNL     1     -31.827 -23.476 -35.767  1.00  0.00     0.012 A 
ATOM      4  C   UNL     1     -33.600 -21.446 -36.508  1.00  0.00     0.047 A 
ATOM      5  C   UNL     1     -32.406 -23.481 -37.040  1.00  0.00     0.047 A 
ATOM      6  C   UNL     1     -33.291 -22.467 -37.415  1.00  0.00     0.115 A 
ENDROOT
BRANCH   1   7
ATOM      7  C   UNL     1     -31.486 -22.492 -33.511  1.00  0.00     0.010 C 
ATOM      8  C   UNL     1     -30.734 -21.503 -33.009  1.00  0.00     0.025 C 
BRANCH   8   9
ATOM      9  C   UNL     1     -30.118 -21.595 -31.676  1.00  0.00     0.064 C 
ATOM     10  O   UNL     1     -29.361 -20.673 -31.276  1.00  0.00    -0.545 OA
ATOM     11  O   UNL     1     -30.358 -22.686 -30.847  1.00  0.00    -0.545 OA
ENDBRANCH   8   9
ENDBRANCH   1   7
BRANCH   6  12
ATOM     12  O   UNL     1     -33.859 -22.485 -38.686  1.00  0.00    -0.508 OA
ATOM     13  H   UNL     1     -33.478 -21.931 -39.445  1.00  0.00     0.293 HD
ENDBRANCH   6  12
TORSDOF 3
ENDMDL
MODEL 5
REMARK VINA RESULT:    -4.711      1.258      1.771
REMARK INTER + INTRA:          -5.538
REMARK INTER:                  -5.402
REMARK INTRA:                  -0.137
REMARK UNBOUND:                -0.138
REMARK SMILES O=C([O-])C=Cc1ccc(O)cc1
REMARK SMILES IDX 6 1 7 2 12 3 8 4 11 5 9 6 5 7 4 8 2 9 1 10 3 11 10 12
REMARK H PARENT 10 13
REMARK Flexibility Score: inf
ROOT
ATOM      1  C   UNL     1     -31.111 -21.943 -33.190  1.00  0.00    -0.025 A 
ATOM      2  C   UNL     1     -30.955 -20.541 -33.198  1.00  0.00     0.012 A 
ATOM      3  C   UNL     1     -30.762 -22.656 -32.030  1.00  0.00     0.012 A 
ATOM      4  C   UNL     1     -30.484 -19.875 -32.062  1.00  0.00     0.047 A 
ATOM      5  C   UNL     1     -30.293 -21.986 -30.896  1.00  0.00     0.047 A 
ATOM      6  C   UNL     1     -30.155 -20.595 -30.907  1.00  0.00     0.115 A 
ENDROOT
BRANCH   1   7
ATOM      7  C   UNL     1     -31.594 -22.701 -34.370  1.00  0.00     0.010 C 
ATOM      8  C   UNL     1     -32.622 -22.310 -35.137  1.00  0.00     0.025 C 
BRANCH   8   9
ATOM      9  C   UNL     1     -33.075 -23.100 -36.293  1.00  0.00     0.064 C 
ATOM     10  O   UNL     1     -33.859 -22.584 -37.129  1.00  0.00    -0.545 OA
ATOM     11  O   UNL     1     -32.648 -24.412 -36.477  1.00  0.00    -0.545 OA
ENDBRANCH   8   9
ENDBRANCH   1   7
BRANCH   6  12
ATOM     12  O   UNL     1     -29.687 -19.941 -29.771  1.00  0.00    -0.508 OA
ATOM     13  H   UNL     1     -29.103 -20.413 -29.090  1.00  0.00     0.293 HD
ENDBRANCH   6  12
TORSDOF 3
ENDMDL
MODEL 6
REMARK VINA RESULT:    -4.318      1.548      5.918
REMARK INTER + INTRA:          -5.088
REMARK INTER:                  -4.938
REMARK INTRA:                  -0.150
REMARK UNBOUND:                -0.138
REMARK SMILES O=C([O-])C=Cc1ccc(O)cc1
REMARK SMILES IDX 6 1 7 2 12 3 8 4 11 5 9 6 5 7 4 8 2 9 1 10 3 11 10 12
REMARK H PARENT 10 13
REMARK Flexibility Score: inf
ROOT
ATOM      1  C   UNL     1     -31.940 -21.492 -34.216  1.00  0.00    -0.025 A 
ATOM      2  C   UNL     1     -32.872 -20.736 -34.958  1.00  0.00     0.012 A 
ATOM      3  C   UNL     1     -31.703 -22.827 -34.586  1.00  0.00     0.012 A 
ATOM      4  C   UNL     1     -33.528 -21.303 -36.055  1.00  0.00     0.047 A 
ATOM      5  C   UNL     1     -32.361 -23.389 -35.684  1.00  0.00     0.047 A 
ATOM      6  C   UNL     1     -33.273 -22.630 -36.422  1.00  0.00     0.115 A 
ENDROOT
BRANCH   1   7
ATOM      7  C   UNL     1     -31.224 -20.945 -33.037  1.00  0.00     0.010 C 
ATOM      8  C   UNL     1     -30.634 -21.706 -32.105  1.00  0.00     0.025 C 
BRANCH   8   9
ATOM      9  C   UNL     1     -29.945 -21.120 -30.944  1.00  0.00     0.064 C 
ATOM     10  O   UNL     1     -30.251 -21.497 -29.784  1.00  0.00    -0.545 OA
ATOM     11  O   UNL     1     -28.957 -20.153 -31.109  1.00  0.00    -0.545 OA
ENDBRANCH   8   9
ENDBRANCH   1   7
BRANCH   6  12
ATOM     12  O   UNL     1     -33.920 -23.202 -37.514  1.00  0.00    -0.508 OA
ATOM     13  H   UNL     1     -34.910 -23.417 -37.490  1.00  0.00     0.293 HD
ENDBRANCH   6  12
TORSDOF 3
ENDMDL
MODEL 7
REMARK VINA RESULT:    -4.058      4.509      6.443
REMARK INTER + INTRA:          -4.789
REMARK INTER:                  -4.652
REMARK INTRA:                  -0.138
REMARK UNBOUND:                -0.138
REMARK SMILES O=C([O-])C=Cc1ccc(O)cc1
REMARK SMILES IDX 6 1 7 2 12 3 8 4 11 5 9 6 5 7 4 8 2 9 1 10 3 11 10 12
REMARK H PARENT 10 13
REMARK Flexibility Score: inf
ROOT
ATOM      1  C   UNL     1     -32.409 -24.211 -37.119  1.00  0.00    -0.025 A 
ATOM      2  C   UNL     1     -32.154 -24.024 -35.745  1.00  0.00     0.012 A 
ATOM      3  C   UNL     1     -32.946 -23.142 -37.859  1.00  0.00     0.012 A 
ATOM      4  C   UNL     1     -32.408 -22.790 -35.138  1.00  0.00     0.047 A 
ATOM      5  C   UNL     1     -33.197 -21.910 -37.249  1.00  0.00     0.047 A 
ATOM      6  C   UNL     1     -32.928 -21.729 -35.889  1.00  0.00     0.115 A 
ENDROOT
BRANCH   1   7
ATOM      7  C   UNL     1     -32.170 -25.502 -37.810  1.00  0.00     0.010 C 
ATOM      8  C   UNL     1     -33.009 -26.545 -37.751  1.00  0.00     0.025 C 
BRANCH   8   9
ATOM      9  C   UNL     1     -32.725 -27.812 -38.443  1.00  0.00     0.064 C 
ATOM     10  O   UNL     1     -31.539 -28.102 -38.746  1.00  0.00    -0.545 OA
ATOM     11  O   UNL     1     -33.748 -28.697 -38.769  1.00  0.00    -0.545 OA
ENDBRANCH   8   9
ENDBRANCH   1   7
BRANCH   6  12
ATOM     12  O   UNL     1     -33.183 -20.496 -35.295  1.00  0.00    -0.508 OA
ATOM     13  H   UNL     1     -32.744 -19.646 -35.629  1.00  0.00     0.293 HD
ENDBRANCH   6  12
TORSDOF 3
ENDMDL
MODEL 8
REMARK VINA RESULT:    -3.552      2.439      6.338
REMARK INTER + INTRA:          -4.210
REMARK INTER:                  -4.073
REMARK INTRA:                  -0.137
REMARK UNBOUND:                -0.138
REMARK SMILES O=C([O-])C=Cc1ccc(O)cc1
REMARK SMILES IDX 6 1 7 2 12 3 8 4 11 5 9 6 5 7 4 8 2 9 1 10 3 11 10 12
REMARK H PARENT 10 13
REMARK Flexibility Score: inf
ROOT
ATOM      1  C   UNL     1     -31.872 -22.979 -35.439  1.00  0.00    -0.025 A 
ATOM      2  C   UNL     1     -30.752 -23.277 -36.243  1.00  0.00     0.012 A 
ATOM      3  C   UNL     1     -33.116 -23.538 -35.779  1.00  0.00     0.012 A 
ATOM      4  C   UNL     1     -30.877 -24.132 -37.342  1.00  0.00     0.047 A 
ATOM      5  C   UNL     1     -33.236 -24.394 -36.878  1.00  0.00     0.047 A 
ATOM      6  C   UNL     1     -32.119 -24.695 -37.661  1.00  0.00     0.115 A 
ENDROOT
BRANCH   1   7
ATOM      7  C   UNL     1     -31.798 -22.069 -34.270  1.00  0.00     0.010 C 
ATOM      8  C   UNL     1     -30.826 -22.119 -33.348  1.00  0.00     0.025 C 
BRANCH   8   9
ATOM      9  C   UNL     1     -30.799 -21.202 -32.197  1.00  0.00     0.064 C 
ATOM     10  O   UNL     1     -31.158 -20.006 -32.347  1.00  0.00    -0.545 OA
ATOM     11  O   UNL     1     -30.383 -21.637 -30.942  1.00  0.00    -0.545 OA
ENDBRANCH   8   9
ENDBRANCH   1   7
BRANCH   6  12
ATOM     12  O   UNL     1     -32.253 -25.549 -38.753  1.00  0.00    -0.508 OA
ATOM     13  H   UNL     1     -32.888 -25.340 -39.514  1.00  0.00     0.293 HD
ENDBRANCH   6  12
TORSDOF 3
ENDMDL
MODEL 9
REMARK VINA RESULT:    -2.859      3.985      7.894
REMARK INTER + INTRA:          -3.416
REMARK INTER:                  -3.272
REMARK INTRA:                  -0.144
REMARK UNBOUND:                -0.138
REMARK SMILES O=C([O-])C=Cc1ccc(O)cc1
REMARK SMILES IDX 6 1 7 2 12 3 8 4 11 5 9 6 5 7 4 8 2 9 1 10 3 11 10 12
REMARK H PARENT 10 13
REMARK Flexibility Score: inf
ROOT
ATOM      1  C   UNL     1     -32.642 -25.182 -37.309  1.00  0.00    -0.025 A 
ATOM      2  C   UNL     1     -33.643 -26.173 -37.388  1.00  0.00     0.012 A 
ATOM      3  C   UNL     1     -31.366 -25.466 -37.826  1.00  0.00     0.012 A 
ATOM      4  C   UNL     1     -33.373 -27.405 -37.993  1.00  0.00     0.047 A 
ATOM      5  C   UNL     1     -31.102 -26.698 -38.432  1.00  0.00     0.047 A 
ATOM      6  C   UNL     1     -32.102 -27.669 -38.519  1.00  0.00     0.115 A 
ENDROOT
BRANCH   1   7
ATOM      7  C   UNL     1     -32.871 -23.864 -36.667  1.00  0.00     0.010 C 
ATOM      8  C   UNL     1     -32.172 -23.417 -35.614  1.00  0.00     0.025 C 
BRANCH   8   9
ATOM      9  C   UNL     1     -32.441 -22.106 -35.002  1.00  0.00     0.064 C 
ATOM     10  O   UNL     1     -33.348 -21.374 -35.475  1.00  0.00    -0.545 OA
ATOM     11  O   UNL     1     -31.707 -21.661 -33.907  1.00  0.00    -0.545 OA
ENDBRANCH   8   9
ENDBRANCH   1   7
BRANCH   6  12
ATOM     12  O   UNL     1     -31.824 -28.892 -39.125  1.00  0.00    -0.508 OA
ATOM     13  H   UNL     1     -31.360 -29.639 -38.622  1.00  0.00     0.293 HD
ENDBRANCH   6  12
TORSDOF 3
ENDMDL
