MODEL 1
REMARK VINA RESULT:    -4.423      0.000      0.000
REMARK INTER + INTRA:          -8.973
REMARK INTER:                  -7.525
REMARK INTRA:                  -1.447
REMARK UNBOUND:                -1.447
REMARK SMILES CCCCCCCCCCCCCC(=O)[O-]
REMARK SMILES IDX 8 1 9 2 10 3 11 4 12 5 13 6 14 7 15 8 16 9 7 10 6 11 5 12
REMARK SMILES IDX 4 13 3 14 2 15 1 16
REMARK H PARENT
REMARK Flexibility Score: inf
ROOT
ATOM      1  C   UNL     1      30.501   8.220  48.992  1.00  0.00     0.000 C 
ENDROOT
BRANCH   1   2
ATOM      2  C   UNL     1      30.008   6.924  48.328  1.00  0.00     0.000 C 
BRANCH   2   3
ATOM      3  C   UNL     1      31.006   6.368  47.299  1.00  0.00     0.000 C 
BRANCH   3   4
ATOM      4  C   UNL     1      31.933   5.294  47.893  1.00  0.00     0.000 C 
BRANCH   4   5
ATOM      5  C   UNL     1      33.409   5.725  47.894  1.00  0.00     0.006 C 
BRANCH   5   6
ATOM      6  C   UNL     1      34.011   5.778  46.484  1.00  0.00     0.053 C 
BRANCH   6   7
ATOM      7  C   UNL     1      35.060   4.723  46.326  1.00  0.00     0.041 C 
ATOM      8  O   UNL     1      35.211   4.140  45.220  1.00  0.00    -0.550 OA
ATOM      9  O   UNL     1      35.903   4.417  47.386  1.00  0.00    -0.550 OA
ENDBRANCH   6   7
ENDBRANCH   5   6
ENDBRANCH   4   5
ENDBRANCH   3   4
ENDBRANCH   2   3
ENDBRANCH   1   2
BRANCH   1  10
ATOM     10  C   UNL     1      31.590   8.890  48.145  1.00  0.00     0.000 C 
BRANCH  10  11
ATOM     11  C   UNL     1      32.797   9.356  48.979  1.00  0.00    -0.000 C 
BRANCH  11  12
ATOM     12  C   UNL     1      34.119   9.395  48.185  1.00  0.00    -0.000 C 
BRANCH  12  13
ATOM     13  C   UNL     1      33.883   9.378  46.664  1.00  0.00    -0.000 C 
BRANCH  13  14
ATOM     14  C   UNL     1      34.839  10.311  45.905  1.00  0.00    -0.000 C 
BRANCH  14  15
ATOM     15  C   UNL     1      34.905   9.997  44.404  1.00  0.00    -0.003 C 
ATOM     16  C   UNL     1      34.414   8.582  44.117  1.00  0.00     0.004 C 
ENDBRANCH  14  15
ENDBRANCH  13  14
ENDBRANCH  12  13
ENDBRANCH  11  12
ENDBRANCH  10  11
ENDBRANCH   1  10
TORSDOF 12
ENDMDL
MODEL 2
REMARK VINA RESULT:    -4.112      2.937      6.042
REMARK INTER + INTRA:          -8.444
REMARK INTER:                  -7.709
REMARK INTRA:                  -0.735
REMARK UNBOUND:                -1.447
REMARK SMILES CCCCCCCCCCCCCC(=O)[O-]
REMARK SMILES IDX 8 1 9 2 10 3 11 4 12 5 13 6 14 7 15 8 16 9 7 10 6 11 5 12
REMARK SMILES IDX 4 13 3 14 2 15 1 16
REMARK H PARENT
REMARK Flexibility Score: inf
ROOT
ATOM      1  C   UNL     1      34.747   5.500  45.775  1.00  0.00     0.000 C 
ENDROOT
BRANCH   1   2
ATOM      2  C   UNL     1      33.733   6.348  44.992  1.00  0.00     0.000 C 
BRANCH   2   3
ATOM      3  C   UNL     1      33.887   7.854  45.258  1.00  0.00     0.000 C 
BRANCH   3   4
ATOM      4  C   UNL     1      34.537   8.600  44.080  1.00  0.00     0.000 C 
BRANCH   4   5
ATOM      5  C   UNL     1      34.854  10.067  44.413  1.00  0.00     0.006 C 
BRANCH   5   6
ATOM      6  C   UNL     1      34.751  10.369  45.914  1.00  0.00     0.053 C 
BRANCH   6   7
ATOM      7  C   UNL     1      35.722  11.441  46.296  1.00  0.00     0.041 C 
ATOM      8  O   UNL     1      36.725  11.164  47.005  1.00  0.00    -0.550 OA
ATOM      9  O   UNL     1      35.546  12.737  45.829  1.00  0.00    -0.550 OA
ENDBRANCH   6   7
ENDBRANCH   5   6
ENDBRANCH   4   5
ENDBRANCH   3   4
ENDBRANCH   2   3
ENDBRANCH   1   2
BRANCH   1  10
ATOM     10  C   UNL     1      34.060   4.736  46.914  1.00  0.00     0.000 C 
BRANCH  10  11
ATOM     11  C   UNL     1      33.404   5.666  47.950  1.00  0.00    -0.000 C 
BRANCH  11  12
ATOM     12  C   UNL     1      31.862   5.614  47.937  1.00  0.00    -0.000 C 
BRANCH  12  13
ATOM     13  C   UNL     1      31.234   7.020  47.952  1.00  0.00    -0.000 C 
BRANCH  13  14
ATOM     14  C   UNL     1      29.753   7.003  48.359  1.00  0.00    -0.000 C 
BRANCH  14  15
ATOM     15  C   UNL     1      29.184   5.581  48.464  1.00  0.00    -0.003 C 
ATOM     16  C   UNL     1      27.953   5.415  47.578  1.00  0.00     0.004 C 
ENDBRANCH  14  15
ENDBRANCH  13  14
ENDBRANCH  12  13
ENDBRANCH  11  12
ENDBRANCH  10  11
ENDBRANCH   1  10
TORSDOF 12
ENDMDL
MODEL 3
REMARK VINA RESULT:    -3.974     17.557     19.082
REMARK INTER + INTRA:          -8.209
REMARK INTER:                  -6.748
REMARK INTRA:                  -1.461
REMARK UNBOUND:                -1.447
REMARK SMILES CCCCCCCCCCCCCC(=O)[O-]
REMARK SMILES IDX 8 1 9 2 10 3 11 4 12 5 13 6 14 7 15 8 16 9 7 10 6 11 5 12
REMARK SMILES IDX 4 13 3 14 2 15 1 16
REMARK H PARENT
REMARK Flexibility Score: inf
ROOT
ATOM      1  C   UNL     1      19.729   9.289  36.053  1.00  0.00     0.000 C 
ENDROOT
BRANCH   1   2
ATOM      2  C   UNL     1      21.112   9.213  35.388  1.00  0.00     0.000 C 
BRANCH   2   3
ATOM      3  C   UNL     1      22.000  10.422  35.723  1.00  0.00     0.000 C 
BRANCH   3   4
ATOM      4  C   UNL     1      22.386  11.236  34.477  1.00  0.00     0.000 C 
BRANCH   4   5
ATOM      5  C   UNL     1      21.298  12.246  34.072  1.00  0.00     0.006 C 
BRANCH   5   6
ATOM      6  C   UNL     1      20.760  13.046  35.266  1.00  0.00     0.053 C 
BRANCH   6   7
ATOM      7  C   UNL     1      19.265  12.981  35.304  1.00  0.00     0.041 C 
ATOM      8  O   UNL     1      18.649  13.219  36.375  1.00  0.00    -0.550 OA
ATOM      9  O   UNL     1      18.552  12.707  34.144  1.00  0.00    -0.550 OA
ENDBRANCH   6   7
ENDBRANCH   5   6
ENDBRANCH   4   5
ENDBRANCH   3   4
ENDBRANCH   2   3
ENDBRANCH   1   2
BRANCH   1  10
ATOM     10  C   UNL     1      19.551   8.163  37.080  1.00  0.00     0.000 C 
BRANCH  10  11
ATOM     11  C   UNL     1      19.502   6.767  36.436  1.00  0.00    -0.000 C 
BRANCH  11  12
ATOM     12  C   UNL     1      18.105   6.380  35.905  1.00  0.00    -0.000 C 
BRANCH  12  13
ATOM     13  C   UNL     1      18.144   5.956  34.426  1.00  0.00    -0.000 C 
BRANCH  13  14
ATOM     14  C   UNL     1      18.049   7.150  33.464  1.00  0.00    -0.000 C 
BRANCH  14  15
ATOM     15  C   UNL     1      19.365   7.415  32.717  1.00  0.00    -0.003 C 
ATOM     16  C   UNL     1      20.307   6.220  32.825  1.00  0.00     0.004 C 
ENDBRANCH  14  15
ENDBRANCH  13  14
ENDBRANCH  12  13
ENDBRANCH  11  12
ENDBRANCH  10  11
ENDBRANCH   1  10
TORSDOF 12
ENDMDL
MODEL 4
REMARK VINA RESULT:    -3.941     17.271     18.396
REMARK INTER + INTRA:          -8.153
REMARK INTER:                  -6.751
REMARK INTRA:                  -1.403
REMARK UNBOUND:                -1.447
REMARK SMILES CCCCCCCCCCCCCC(=O)[O-]
REMARK SMILES IDX 8 1 9 2 10 3 11 4 12 5 13 6 14 7 15 8 16 9 7 10 6 11 5 12
REMARK SMILES IDX 4 13 3 14 2 15 1 16
REMARK H PARENT
REMARK Flexibility Score: inf
ROOT
ATOM      1  C   UNL     1      19.743   9.118  36.365  1.00  0.00     0.000 C 
ENDROOT
BRANCH   1   2
ATOM      2  C   UNL     1      19.392   7.882  37.209  1.00  0.00     0.000 C 
BRANCH   2   3
ATOM      3  C   UNL     1      19.431   6.578  36.396  1.00  0.00     0.000 C 
BRANCH   3   4
ATOM      4  C   UNL     1      18.066   6.222  35.783  1.00  0.00     0.000 C 
BRANCH   4   5
ATOM      5  C   UNL     1      18.165   5.863  34.291  1.00  0.00     0.006 C 
BRANCH   5   6
ATOM      6  C   UNL     1      18.447   7.085  33.406  1.00  0.00     0.053 C 
BRANCH   6   7
ATOM      7  C   UNL     1      19.690   6.868  32.602  1.00  0.00     0.041 C 
ATOM      8  O   UNL     1      19.888   7.533  31.551  1.00  0.00    -0.550 OA
ATOM      9  O   UNL     1      20.652   5.966  33.038  1.00  0.00    -0.550 OA
ENDBRANCH   6   7
ENDBRANCH   5   6
ENDBRANCH   4   5
ENDBRANCH   3   4
ENDBRANCH   2   3
ENDBRANCH   1   2
BRANCH   1  10
ATOM     10  C   UNL     1      20.879   8.807  35.382  1.00  0.00     0.000 C 
BRANCH  10  11
ATOM     11  C   UNL     1      21.307  10.031  34.554  1.00  0.00    -0.000 C 
BRANCH  11  12
ATOM     12  C   UNL     1      22.364  10.911  35.253  1.00  0.00    -0.000 C 
BRANCH  12  13
ATOM     13  C   UNL     1      21.786  12.265  35.702  1.00  0.00    -0.000 C 
BRANCH  13  14
ATOM     14  C   UNL     1      21.084  13.017  34.561  1.00  0.00    -0.000 C 
BRANCH  14  15
ATOM     15  C   UNL     1      19.613  13.327  34.874  1.00  0.00    -0.003 C 
ATOM     16  C   UNL     1      19.189  12.698  36.197  1.00  0.00     0.004 C 
ENDBRANCH  14  15
ENDBRANCH  13  14
ENDBRANCH  12  13
ENDBRANCH  11  12
ENDBRANCH  10  11
ENDBRANCH   1  10
TORSDOF 12
ENDMDL
MODEL 5
REMARK VINA RESULT:    -3.931     17.359     18.468
REMARK INTER + INTRA:          -8.137
REMARK INTER:                  -6.227
REMARK INTRA:                  -1.909
REMARK UNBOUND:                -1.447
REMARK SMILES CCCCCCCCCCCCCC(=O)[O-]
REMARK SMILES IDX 8 1 9 2 10 3 11 4 12 5 13 6 14 7 15 8 16 9 7 10 6 11 5 12
REMARK SMILES IDX 4 13 3 14 2 15 1 16
REMARK H PARENT
REMARK Flexibility Score: inf
ROOT
ATOM      1  C   UNL     1      21.624  10.257  35.628  1.00  0.00     0.000 C 
ENDROOT
BRANCH   1   2
ATOM      2  C   UNL     1      20.098  10.421  35.688  1.00  0.00     0.000 C 
BRANCH   2   3
ATOM      3  C   UNL     1      19.372   9.650  34.574  1.00  0.00     0.000 C 
BRANCH   3   4
ATOM      4  C   UNL     1      20.263   8.581  33.918  1.00  0.00     0.000 C 
BRANCH   4   5
ATOM      5  C   UNL     1      19.805   7.150  34.245  1.00  0.00     0.006 C 
BRANCH   5   6
ATOM      6  C   UNL     1      20.406   6.621  35.554  1.00  0.00     0.053 C 
BRANCH   6   7
ATOM      7  C   UNL     1      19.367   6.597  36.630  1.00  0.00     0.041 C 
ATOM      8  O   UNL     1      19.301   7.535  37.467  1.00  0.00    -0.550 OA
ATOM      9  O   UNL     1      18.442   5.563  36.680  1.00  0.00    -0.550 OA
ENDBRANCH   6   7
ENDBRANCH   5   6
ENDBRANCH   4   5
ENDBRANCH   3   4
ENDBRANCH   2   3
ENDBRANCH   1   2
BRANCH   1  10
ATOM     10  C   UNL     1      22.310  11.600  35.346  1.00  0.00     0.000 C 
BRANCH  10  11
ATOM     11  C   UNL     1      21.315  12.769  35.234  1.00  0.00    -0.000 C 
BRANCH  11  12
ATOM     12  C   UNL     1      21.198  13.347  33.808  1.00  0.00    -0.000 C 
BRANCH  12  13
ATOM     13  C   UNL     1      19.794  13.138  33.211  1.00  0.00    -0.000 C 
BRANCH  13  14
ATOM     14  C   UNL     1      19.799  12.191  32.002  1.00  0.00    -0.000 C 
BRANCH  14  15
ATOM     15  C   UNL     1      21.170  11.545  31.761  1.00  0.00    -0.003 C 
ATOM     16  C   UNL     1      21.076  10.423  30.731  1.00  0.00     0.004 C 
ENDBRANCH  14  15
ENDBRANCH  13  14
ENDBRANCH  12  13
ENDBRANCH  11  12
ENDBRANCH  10  11
ENDBRANCH   1  10
TORSDOF 12
ENDMDL
MODEL 6
REMARK VINA RESULT:    -3.926      2.272      4.296
REMARK INTER + INTRA:          -8.128
REMARK INTER:                  -6.941
REMARK INTRA:                  -1.186
REMARK UNBOUND:                -1.447
REMARK SMILES CCCCCCCCCCCCCC(=O)[O-]
REMARK SMILES IDX 8 1 9 2 10 3 11 4 12 5 13 6 14 7 15 8 16 9 7 10 6 11 5 12
REMARK SMILES IDX 4 13 3 14 2 15 1 16
REMARK H PARENT
REMARK Flexibility Score: inf
ROOT
ATOM      1  C   UNL     1      35.086  10.335  48.040  1.00  0.00     0.000 C 
ENDROOT
BRANCH   1   2
ATOM      2  C   UNL     1      33.707  10.536  48.686  1.00  0.00     0.000 C 
BRANCH   2   3
ATOM      3  C   UNL     1      32.644   9.575  48.129  1.00  0.00     0.000 C 
BRANCH   3   4
ATOM      4  C   UNL     1      31.343   9.592  48.950  1.00  0.00     0.000 C 
BRANCH   4   5
ATOM      5  C   UNL     1      30.540   8.288  48.809  1.00  0.00     0.006 C 
BRANCH   5   6
ATOM      6  C   UNL     1      31.273   7.228  47.976  1.00  0.00     0.053 C 
BRANCH   6   7
ATOM      7  C   UNL     1      30.707   5.870  48.247  1.00  0.00     0.041 C 
ATOM      8  O   UNL     1      29.558   5.752  48.748  1.00  0.00    -0.550 OA
ATOM      9  O   UNL     1      31.428   4.735  47.901  1.00  0.00    -0.550 OA
ENDBRANCH   6   7
ENDBRANCH   5   6
ENDBRANCH   4   5
ENDBRANCH   3   4
ENDBRANCH   2   3
ENDBRANCH   1   2
BRANCH   1  10
ATOM     10  C   UNL     1      35.445  11.520  47.133  1.00  0.00     0.000 C 
BRANCH  10  11
ATOM     11  C   UNL     1      35.595  11.120  45.654  1.00  0.00    -0.000 C 
BRANCH  11  12
ATOM     12  C   UNL     1      34.413  10.285  45.117  1.00  0.00    -0.000 C 
BRANCH  12  13
ATOM     13  C   UNL     1      34.823   9.400  43.926  1.00  0.00    -0.000 C 
BRANCH  13  14
ATOM     14  C   UNL     1      34.373   7.940  44.091  1.00  0.00    -0.000 C 
BRANCH  14  15
ATOM     15  C   UNL     1      34.057   7.579  45.549  1.00  0.00    -0.003 C 
ATOM     16  C   UNL     1      34.057   6.067  45.753  1.00  0.00     0.004 C 
ENDBRANCH  14  15
ENDBRANCH  13  14
ENDBRANCH  12  13
ENDBRANCH  11  12
ENDBRANCH  10  11
ENDBRANCH   1  10
TORSDOF 12
ENDMDL
MODEL 7
REMARK VINA RESULT:    -3.867     17.346     18.571
REMARK INTER + INTRA:          -8.027
REMARK INTER:                  -6.300
REMARK INTRA:                  -1.727
REMARK UNBOUND:                -1.447
REMARK SMILES CCCCCCCCCCCCCC(=O)[O-]
REMARK SMILES IDX 8 1 9 2 10 3 11 4 12 5 13 6 14 7 15 8 16 9 7 10 6 11 5 12
REMARK SMILES IDX 4 13 3 14 2 15 1 16
REMARK H PARENT
REMARK Flexibility Score: inf
ROOT
ATOM      1  C   UNL     1      19.898  11.332  32.132  1.00  0.00     0.000 C 
ENDROOT
BRANCH   1   2
ATOM      2  C   UNL     1      20.701  10.024  32.200  1.00  0.00     0.000 C 
BRANCH   2   3
ATOM      3  C   UNL     1      19.805   8.775  32.179  1.00  0.00     0.000 C 
BRANCH   3   4
ATOM      4  C   UNL     1      19.151   8.493  33.543  1.00  0.00     0.000 C 
BRANCH   4   5
ATOM      5  C   UNL     1      19.388   7.051  34.024  1.00  0.00     0.006 C 
BRANCH   5   6
ATOM      6  C   UNL     1      20.360   6.975  35.209  1.00  0.00     0.053 C 
BRANCH   6   7
ATOM      7  C   UNL     1      19.604   6.954  36.501  1.00  0.00     0.041 C 
ATOM      8  O   UNL     1      19.164   5.868  36.959  1.00  0.00    -0.550 OA
ATOM      9  O   UNL     1      19.427   8.128  37.222  1.00  0.00    -0.550 OA
ENDBRANCH   6   7
ENDBRANCH   5   6
ENDBRANCH   4   5
ENDBRANCH   3   4
ENDBRANCH   2   3
ENDBRANCH   1   2
BRANCH   1  10
ATOM     10  C   UNL     1      20.804  12.513  31.759  1.00  0.00     0.000 C 
BRANCH  10  11
ATOM     11  C   UNL     1      21.319  13.284  32.987  1.00  0.00    -0.000 C 
BRANCH  11  12
ATOM     12  C   UNL     1      20.388  13.187  34.214  1.00  0.00    -0.000 C 
BRANCH  12  13
ATOM     13  C   UNL     1      21.114  12.624  35.449  1.00  0.00    -0.000 C 
BRANCH  13  14
ATOM     14  C   UNL     1      20.765  11.153  35.723  1.00  0.00    -0.000 C 
BRANCH  14  15
ATOM     15  C   UNL     1      22.002  10.243  35.735  1.00  0.00    -0.003 C 
ATOM     16  C   UNL     1      23.234  10.985  35.225  1.00  0.00     0.004 C 
ENDBRANCH  14  15
ENDBRANCH  13  14
ENDBRANCH  12  13
ENDBRANCH  11  12
ENDBRANCH  10  11
ENDBRANCH   1  10
TORSDOF 12
ENDMDL
MODEL 8
REMARK VINA RESULT:    -3.862     17.667     19.224
REMARK INTER + INTRA:          -8.019
REMARK INTER:                  -6.339
REMARK INTRA:                  -1.680
REMARK UNBOUND:                -1.447
REMARK SMILES CCCCCCCCCCCCCC(=O)[O-]
REMARK SMILES IDX 8 1 9 2 10 3 11 4 12 5 13 6 14 7 15 8 16 9 7 10 6 11 5 12
REMARK SMILES IDX 4 13 3 14 2 15 1 16
REMARK H PARENT
REMARK Flexibility Score: inf
ROOT
ATOM      1  C   UNL     1      22.244  11.767  35.625  1.00  0.00     0.000 C 
ENDROOT
BRANCH   1   2
ATOM      2  C   UNL     1      21.042  12.723  35.587  1.00  0.00     0.000 C 
BRANCH   2   3
ATOM      3  C   UNL     1      20.954  13.517  34.274  1.00  0.00     0.000 C 
BRANCH   3   4
ATOM      4  C   UNL     1      19.945  12.911  33.283  1.00  0.00     0.000 C 
BRANCH   4   5
ATOM      5  C   UNL     1      20.577  12.594  31.917  1.00  0.00     0.006 C 
BRANCH   5   6
ATOM      6  C   UNL     1      21.305  11.244  31.901  1.00  0.00     0.053 C 
BRANCH   6   7
ATOM      7  C   UNL     1      20.599  10.283  30.998  1.00  0.00     0.041 C 
ATOM      8  O   UNL     1      19.426   9.910  31.263  1.00  0.00    -0.550 OA
ATOM      9  O   UNL     1      21.218   9.836  29.838  1.00  0.00    -0.550 OA
ENDBRANCH   6   7
ENDBRANCH   5   6
ENDBRANCH   4   5
ENDBRANCH   3   4
ENDBRANCH   2   3
ENDBRANCH   1   2
BRANCH   1  10
ATOM     10  C   UNL     1      21.782  10.304  35.634  1.00  0.00     0.000 C 
BRANCH  10  11
ATOM     11  C   UNL     1      20.280  10.151  35.930  1.00  0.00    -0.000 C 
BRANCH  11  12
ATOM     12  C   UNL     1      19.524   9.314  34.876  1.00  0.00    -0.000 C 
BRANCH  12  13
ATOM     13  C   UNL     1      20.439   8.284  34.189  1.00  0.00    -0.000 C 
BRANCH  13  14
ATOM     14  C   UNL     1      20.486   6.942  34.936  1.00  0.00    -0.000 C 
BRANCH  14  15
ATOM     15  C   UNL     1      19.160   6.607  35.634  1.00  0.00    -0.003 C 
ATOM     16  C   UNL     1      19.372   6.358  37.124  1.00  0.00     0.004 C 
ENDBRANCH  14  15
ENDBRANCH  13  14
ENDBRANCH  12  13
ENDBRANCH  11  12
ENDBRANCH  10  11
ENDBRANCH   1  10
TORSDOF 12
ENDMDL
MODEL 9
REMARK VINA RESULT:    -3.851     17.803     19.499
REMARK INTER + INTRA:          -8.000
REMARK INTER:                  -7.094
REMARK INTRA:                  -0.906
REMARK UNBOUND:                -1.447
REMARK SMILES CCCCCCCCCCCCCC(=O)[O-]
REMARK SMILES IDX 8 1 9 2 10 3 11 4 12 5 13 6 14 7 15 8 16 9 7 10 6 11 5 12
REMARK SMILES IDX 4 13 3 14 2 15 1 16
REMARK H PARENT
REMARK Flexibility Score: inf
ROOT
ATOM      1  C   UNL     1      22.478  11.875  35.432  1.00  0.00     0.000 C 
ENDROOT
BRANCH   1   2
ATOM      2  C   UNL     1      21.129  12.603  35.536  1.00  0.00     0.000 C 
BRANCH   2   3
ATOM      3  C   UNL     1      20.843  13.500  34.321  1.00  0.00     0.000 C 
BRANCH   3   4
ATOM      4  C   UNL     1      20.780  12.709  33.003  1.00  0.00     0.000 C 
BRANCH   4   5
ATOM      5  C   UNL     1      21.665  13.322  31.904  1.00  0.00     0.006 C 
BRANCH   5   6
ATOM      6  C   UNL     1      21.030  14.559  31.256  1.00  0.00     0.053 C 
BRANCH   6   7
ATOM      7  C   UNL     1      22.079  15.584  30.956  1.00  0.00     0.041 C 
ATOM      8  O   UNL     1      23.082  15.279  30.261  1.00  0.00    -0.550 OA
ATOM      9  O   UNL     1      21.922  16.889  31.404  1.00  0.00    -0.550 OA
ENDBRANCH   6   7
ENDBRANCH   5   6
ENDBRANCH   4   5
ENDBRANCH   3   4
ENDBRANCH   2   3
ENDBRANCH   1   2
BRANCH   1  10
ATOM     10  C   UNL     1      22.310  10.371  35.688  1.00  0.00     0.000 C 
BRANCH  10  11
ATOM     11  C   UNL     1      20.840   9.918  35.660  1.00  0.00    -0.000 C 
BRANCH  11  12
ATOM     12  C   UNL     1      20.472   9.089  34.412  1.00  0.00    -0.000 C 
BRANCH  12  13
ATOM     13  C   UNL     1      19.460   7.975  34.733  1.00  0.00    -0.000 C 
BRANCH  13  14
ATOM     14  C   UNL     1      20.066   6.854  35.592  1.00  0.00    -0.000 C 
BRANCH  14  15
ATOM     15  C   UNL     1      19.283   6.615  36.891  1.00  0.00    -0.003 C 
ATOM     16  C   UNL     1      18.138   5.631  36.669  1.00  0.00     0.004 C 
ENDBRANCH  14  15
ENDBRANCH  13  14
ENDBRANCH  12  13
ENDBRANCH  11  12
ENDBRANCH  10  11
ENDBRANCH   1  10
TORSDOF 12
ENDMDL
