MODEL 1
REMARK VINA RESULT:    -3.502      0.000      0.000
REMARK INTER + INTRA:         -11.236
REMARK INTER:                  -8.005
REMARK INTRA:                  -3.230
REMARK UNBOUND:                -3.230
REMARK SMILES CCCCCCCCCCCCCCCCCCCCCCCC(=O)[O-]
REMARK SMILES IDX 13 1 14 2 15 3 16 4 17 5 18 6 19 7 20 8 21 9 22 10 23 11
REMARK SMILES IDX 24 12 25 13 26 14 12 15 11 16 10 17 9 18 8 19 7 20 6 21 5 22
REMARK SMILES IDX 4 23 3 24 2 25 1 26
REMARK H PARENT
REMARK Flexibility Score: inf
ROOT
ATOM      1  C   UNL     1    -103.645  31.114 -38.304  1.00  0.00     0.000 C 
ENDROOT
BRANCH   1   2
ATOM      2  C   UNL     1    -103.551  31.799 -36.931  1.00  0.00     0.000 C 
BRANCH   2   3
ATOM      3  C   UNL     1    -104.628  32.879 -36.735  1.00  0.00     0.000 C 
BRANCH   3   4
ATOM      4  C   UNL     1    -105.481  33.099 -37.997  1.00  0.00     0.000 C 
BRANCH   4   5
ATOM      5  C   UNL     1    -106.994  33.027 -37.699  1.00  0.00     0.000 C 
BRANCH   5   6
ATOM      6  C   UNL     1    -107.330  32.328 -36.367  1.00  0.00     0.000 C 
BRANCH   6   7
ATOM      7  C   UNL     1    -108.507  32.943 -35.584  1.00  0.00     0.000 C 
BRANCH   7   8
ATOM      8  C   UNL     1    -108.188  33.349 -34.132  1.00  0.00     0.000 C 
BRANCH   8   9
ATOM      9  C   UNL     1    -106.681  33.334 -33.824  1.00  0.00     0.000 C 
BRANCH   9  10
ATOM     10  C   UNL     1    -106.357  33.829 -32.403  1.00  0.00     0.006 C 
BRANCH  10  11
ATOM     11  C   UNL     1    -106.970  35.202 -32.065  1.00  0.00     0.053 C 
BRANCH  11  12
ATOM     12  C   UNL     1    -105.930  36.215 -31.680  1.00  0.00     0.041 C 
ATOM     13  O   UNL     1    -104.820  35.836 -31.224  1.00  0.00    -0.550 OA
ATOM     14  O   UNL     1    -106.203  37.574 -31.784  1.00  0.00    -0.550 OA
ENDBRANCH  11  12
ENDBRANCH  10  11
ENDBRANCH   9  10
ENDBRANCH   8   9
ENDBRANCH   7   8
ENDBRANCH   6   7
ENDBRANCH   5   6
ENDBRANCH   4   5
ENDBRANCH   3   4
ENDBRANCH   2   3
ENDBRANCH   1   2
BRANCH   1  15
ATOM     15  C   UNL     1    -102.635  29.969 -38.460  1.00  0.00     0.000 C 
BRANCH  15  16
ATOM     16  C   UNL     1    -101.394  30.378 -39.276  1.00  0.00     0.000 C 
BRANCH  16  17
ATOM     17  C   UNL     1    -100.100  30.260 -38.458  1.00  0.00     0.000 C 
BRANCH  17  18
ATOM     18  C   UNL     1     -99.510  31.632 -38.089  1.00  0.00    -0.000 C 
BRANCH  18  19
ATOM     19  C   UNL     1     -99.908  32.083 -36.676  1.00  0.00    -0.000 C 
BRANCH  19  20
ATOM     20  C   UNL     1     -98.922  31.606 -35.594  1.00  0.00    -0.000 C 
BRANCH  20  21
ATOM     21  C   UNL     1     -99.509  30.453 -34.765  1.00  0.00    -0.000 C 
BRANCH  21  22
ATOM     22  C   UNL     1    -101.035  30.580 -34.574  1.00  0.00    -0.000 C 
BRANCH  22  23
ATOM     23  C   UNL     1    -101.398  31.289 -33.258  1.00  0.00    -0.000 C 
BRANCH  23  24
ATOM     24  C   UNL     1    -102.815  31.894 -33.316  1.00  0.00    -0.000 C 
BRANCH  24  25
ATOM     25  C   UNL     1    -103.871  30.985 -32.670  1.00  0.00    -0.003 C 
ATOM     26  C   UNL     1    -104.757  30.281 -33.701  1.00  0.00     0.004 C 
ENDBRANCH  24  25
ENDBRANCH  23  24
ENDBRANCH  22  23
ENDBRANCH  21  22
ENDBRANCH  20  21
ENDBRANCH  19  20
ENDBRANCH  18  19
ENDBRANCH  17  18
ENDBRANCH  16  17
ENDBRANCH  15  16
ENDBRANCH   1  15
TORSDOF 22
ENDMDL
MODEL 2
REMARK VINA RESULT:    -3.499      2.861      5.862
REMARK INTER + INTRA:         -11.230
REMARK INTER:                  -7.743
REMARK INTRA:                  -3.487
REMARK UNBOUND:                -3.230
REMARK SMILES CCCCCCCCCCCCCCCCCCCCCCCC(=O)[O-]
REMARK SMILES IDX 13 1 14 2 15 3 16 4 17 5 18 6 19 7 20 8 21 9 22 10 23 11
REMARK SMILES IDX 24 12 25 13 26 14 12 15 11 16 10 17 9 18 8 19 7 20 6 21 5 22
REMARK SMILES IDX 4 23 3 24 2 25 1 26
REMARK H PARENT
REMARK Flexibility Score: inf
ROOT
ATOM      1  C   UNL     1     -99.115  31.392 -35.485  1.00  0.00     0.000 C 
ENDROOT
BRANCH   1   2
ATOM      2  C   UNL     1     -99.884  32.021 -36.658  1.00  0.00     0.000 C 
BRANCH   2   3
ATOM      3  C   UNL     1     -99.496  31.411 -38.014  1.00  0.00     0.000 C 
BRANCH   3   4
ATOM      4  C   UNL     1    -100.661  30.654 -38.677  1.00  0.00     0.000 C 
BRANCH   4   5
ATOM      5  C   UNL     1    -101.955  30.723 -37.837  1.00  0.00     0.000 C 
BRANCH   5   6
ATOM      6  C   UNL     1    -103.151  31.335 -38.591  1.00  0.00     0.000 C 
BRANCH   6   7
ATOM      7  C   UNL     1    -104.457  30.520 -38.518  1.00  0.00     0.000 C 
BRANCH   7   8
ATOM      8  C   UNL     1    -105.745  31.318 -38.805  1.00  0.00     0.000 C 
BRANCH   8   9
ATOM      9  C   UNL     1    -105.786  32.671 -38.074  1.00  0.00     0.000 C 
BRANCH   9  10
ATOM     10  C   UNL     1    -107.218  33.130 -37.748  1.00  0.00     0.006 C 
BRANCH  10  11
ATOM     11  C   UNL     1    -108.108  32.023 -37.149  1.00  0.00     0.053 C 
BRANCH  11  12
ATOM     12  C   UNL     1    -109.362  31.801 -37.944  1.00  0.00     0.041 C 
ATOM     13  O   UNL     1    -110.326  32.603 -37.838  1.00  0.00    -0.550 OA
ATOM     14  O   UNL     1    -109.482  30.687 -38.767  1.00  0.00    -0.550 OA
ENDBRANCH  11  12
ENDBRANCH  10  11
ENDBRANCH   9  10
ENDBRANCH   8   9
ENDBRANCH   7   8
ENDBRANCH   6   7
ENDBRANCH   5   6
ENDBRANCH   4   5
ENDBRANCH   3   4
ENDBRANCH   2   3
ENDBRANCH   1   2
BRANCH   1  15
ATOM     15  C   UNL     1     -99.793  30.121 -34.952  1.00  0.00     0.000 C 
BRANCH  15  16
ATOM     16  C   UNL     1    -100.120  30.208 -33.450  1.00  0.00     0.000 C 
BRANCH  16  17
ATOM     17  C   UNL     1    -101.623  30.395 -33.195  1.00  0.00     0.000 C 
BRANCH  17  18
ATOM     18  C   UNL     1    -102.057  31.868 -33.292  1.00  0.00    -0.000 C 
BRANCH  18  19
ATOM     19  C   UNL     1    -102.986  32.130 -34.486  1.00  0.00    -0.000 C 
BRANCH  19  20
ATOM     20  C   UNL     1    -103.924  30.947 -34.786  1.00  0.00    -0.000 C 
BRANCH  20  21
ATOM     21  C   UNL     1    -105.387  31.292 -34.468  1.00  0.00    -0.000 C 
BRANCH  21  22
ATOM     22  C   UNL     1    -105.632  32.814 -34.397  1.00  0.00    -0.000 C 
BRANCH  22  23
ATOM     23  C   UNL     1    -106.990  33.155 -33.758  1.00  0.00    -0.000 C 
BRANCH  23  24
ATOM     24  C   UNL     1    -106.811  33.914 -32.428  1.00  0.00    -0.000 C 
BRANCH  24  25
ATOM     25  C   UNL     1    -105.449  34.617 -32.329  1.00  0.00    -0.003 C 
ATOM     26  C   UNL     1    -105.512  35.924 -31.534  1.00  0.00     0.004 C 
ENDBRANCH  24  25
ENDBRANCH  23  24
ENDBRANCH  22  23
ENDBRANCH  21  22
ENDBRANCH  20  21
ENDBRANCH  19  20
ENDBRANCH  18  19
ENDBRANCH  17  18
ENDBRANCH  16  17
ENDBRANCH  15  16
ENDBRANCH   1  15
TORSDOF 22
ENDMDL
MODEL 3
REMARK VINA RESULT:    -3.454     10.357     14.186
REMARK INTER + INTRA:         -11.126
REMARK INTER:                  -7.796
REMARK INTRA:                  -3.330
REMARK UNBOUND:                -3.230
REMARK SMILES CCCCCCCCCCCCCCCCCCCCCCCC(=O)[O-]
REMARK SMILES IDX 13 1 14 2 15 3 16 4 17 5 18 6 19 7 20 8 21 9 22 10 23 11
REMARK SMILES IDX 24 12 25 13 26 14 12 15 11 16 10 17 9 18 8 19 7 20 6 21 5 22
REMARK SMILES IDX 4 23 3 24 2 25 1 26
REMARK H PARENT
REMARK Flexibility Score: inf
ROOT
ATOM      1  C   UNL     1    -109.006  46.166 -37.845  1.00  0.00     0.000 C 
ENDROOT
BRANCH   1   2
ATOM      2  C   UNL     1    -108.998  47.077 -36.606  1.00  0.00     0.000 C 
BRANCH   2   3
ATOM      3  C   UNL     1    -108.535  46.344 -35.337  1.00  0.00     0.000 C 
BRANCH   3   4
ATOM      4  C   UNL     1    -107.844  47.283 -34.331  1.00  0.00     0.000 C 
BRANCH   4   5
ATOM      5  C   UNL     1    -106.335  46.985 -34.196  1.00  0.00     0.000 C 
BRANCH   5   6
ATOM      6  C   UNL     1    -105.954  45.540 -34.569  1.00  0.00     0.000 C 
BRANCH   6   7
ATOM      7  C   UNL     1    -105.838  44.566 -33.380  1.00  0.00     0.000 C 
BRANCH   7   8
ATOM      8  C   UNL     1    -105.914  43.071 -33.746  1.00  0.00     0.000 C 
BRANCH   8   9
ATOM      9  C   UNL     1    -107.076  42.747 -34.700  1.00  0.00     0.000 C 
BRANCH   9  10
ATOM     10  C   UNL     1    -108.455  42.882 -34.028  1.00  0.00     0.006 C 
BRANCH  10  11
ATOM     11  C   UNL     1    -109.457  41.783 -34.435  1.00  0.00     0.053 C 
BRANCH  11  12
ATOM     12  C   UNL     1    -108.785  40.598 -35.066  1.00  0.00     0.041 C 
ATOM     13  O   UNL     1    -108.189  39.755 -34.345  1.00  0.00    -0.550 OA
ATOM     14  O   UNL     1    -108.779  40.449 -36.448  1.00  0.00    -0.550 OA
ENDBRANCH  11  12
ENDBRANCH  10  11
ENDBRANCH   9  10
ENDBRANCH   8   9
ENDBRANCH   7   8
ENDBRANCH   6   7
ENDBRANCH   5   6
ENDBRANCH   4   5
ENDBRANCH   3   4
ENDBRANCH   2   3
ENDBRANCH   1   2
BRANCH   1  15
ATOM     15  C   UNL     1    -107.983  45.026 -37.741  1.00  0.00     0.000 C 
BRANCH  15  16
ATOM     16  C   UNL     1    -108.641  43.633 -37.754  1.00  0.00     0.000 C 
BRANCH  16  17
ATOM     17  C   UNL     1    -110.099  43.688 -38.234  1.00  0.00     0.000 C 
BRANCH  17  18
ATOM     18  C   UNL     1    -110.414  42.605 -39.282  1.00  0.00    -0.000 C 
BRANCH  18  19
ATOM     19  C   UNL     1    -109.171  41.803 -39.691  1.00  0.00    -0.000 C 
BRANCH  19  20
ATOM     20  C   UNL     1    -108.808  41.978 -41.177  1.00  0.00    -0.000 C 
BRANCH  20  21
ATOM     21  C   UNL     1    -107.655  42.976 -41.363  1.00  0.00    -0.000 C 
BRANCH  21  22
ATOM     22  C   UNL     1    -108.146  44.437 -41.441  1.00  0.00    -0.000 C 
BRANCH  22  23
ATOM     23  C   UNL     1    -109.396  44.582 -42.328  1.00  0.00    -0.000 C 
BRANCH  23  24
ATOM     24  C   UNL     1    -109.015  44.799 -43.806  1.00  0.00    -0.000 C 
BRANCH  24  25
ATOM     25  C   UNL     1    -109.261  43.551 -44.667  1.00  0.00    -0.003 C 
ATOM     26  C   UNL     1    -109.066  43.816 -46.162  1.00  0.00     0.004 C 
ENDBRANCH  24  25
ENDBRANCH  23  24
ENDBRANCH  22  23
ENDBRANCH  21  22
ENDBRANCH  20  21
ENDBRANCH  19  20
ENDBRANCH  18  19
ENDBRANCH  17  18
ENDBRANCH  16  17
ENDBRANCH  15  16
ENDBRANCH   1  15
TORSDOF 22
ENDMDL
MODEL 4
REMARK VINA RESULT:    -3.448      3.246      7.280
REMARK INTER + INTRA:         -11.114
REMARK INTER:                  -7.372
REMARK INTRA:                  -3.742
REMARK UNBOUND:                -3.230
REMARK SMILES CCCCCCCCCCCCCCCCCCCCCCCC(=O)[O-]
REMARK SMILES IDX 13 1 14 2 15 3 16 4 17 5 18 6 19 7 20 8 21 9 22 10 23 11
REMARK SMILES IDX 24 12 25 13 26 14 12 15 11 16 10 17 9 18 8 19 7 20 6 21 5 22
REMARK SMILES IDX 4 23 3 24 2 25 1 26
REMARK H PARENT
REMARK Flexibility Score: inf
ROOT
ATOM      1  C   UNL     1    -105.205  32.906 -37.852  1.00  0.00     0.000 C 
ENDROOT
BRANCH   1   2
ATOM      2  C   UNL     1    -104.054  31.905 -37.653  1.00  0.00     0.000 C 
BRANCH   2   3
ATOM      3  C   UNL     1    -104.216  31.067 -36.374  1.00  0.00     0.000 C 
BRANCH   3   4
ATOM      4  C   UNL     1    -104.124  31.918 -35.094  1.00  0.00     0.000 C 
BRANCH   4   5
ATOM      5  C   UNL     1    -104.014  31.050 -33.822  1.00  0.00     0.000 C 
BRANCH   5   6
ATOM      6  C   UNL     1    -102.899  31.503 -32.860  1.00  0.00     0.000 C 
BRANCH   6   7
ATOM      7  C   UNL     1    -101.547  31.823 -33.529  1.00  0.00     0.000 C 
BRANCH   7   8
ATOM      8  C   UNL     1    -100.674  30.597 -33.862  1.00  0.00     0.000 C 
BRANCH   8   9
ATOM      9  C   UNL     1    -100.429  30.430 -35.371  1.00  0.00     0.000 C 
BRANCH   9  10
ATOM     10  C   UNL     1    -100.550  31.754 -36.146  1.00  0.00     0.006 C 
BRANCH  10  11
ATOM     11  C   UNL     1     -99.221  32.245 -36.754  1.00  0.00     0.053 C 
BRANCH  11  12
ATOM     12  C   UNL     1     -99.124  31.964 -38.225  1.00  0.00     0.041 C 
ATOM     13  O   UNL     1     -99.880  31.108 -38.754  1.00  0.00    -0.550 OA
ATOM     14  O   UNL     1     -98.172  32.614 -39.002  1.00  0.00    -0.550 OA
ENDBRANCH  11  12
ENDBRANCH  10  11
ENDBRANCH   9  10
ENDBRANCH   8   9
ENDBRANCH   7   8
ENDBRANCH   6   7
ENDBRANCH   5   6
ENDBRANCH   4   5
ENDBRANCH   3   4
ENDBRANCH   2   3
ENDBRANCH   1   2
BRANCH   1  15
ATOM     15  C   UNL     1    -106.581  32.225 -37.860  1.00  0.00     0.000 C 
BRANCH  15  16
ATOM     16  C   UNL     1    -107.685  33.109 -37.250  1.00  0.00     0.000 C 
BRANCH  16  17
ATOM     17  C   UNL     1    -107.738  32.993 -35.720  1.00  0.00     0.000 C 
BRANCH  17  18
ATOM     18  C   UNL     1    -107.851  31.533 -35.244  1.00  0.00    -0.000 C 
BRANCH  18  19
ATOM     19  C   UNL     1    -107.639  31.391 -33.730  1.00  0.00    -0.000 C 
BRANCH  19  20
ATOM     20  C   UNL     1    -107.466  32.745 -33.019  1.00  0.00    -0.000 C 
BRANCH  20  21
ATOM     21  C   UNL     1    -106.828  32.576 -31.631  1.00  0.00    -0.000 C 
BRANCH  21  22
ATOM     22  C   UNL     1    -105.561  33.439 -31.456  1.00  0.00    -0.000 C 
BRANCH  22  23
ATOM     23  C   UNL     1    -105.593  34.703 -32.333  1.00  0.00    -0.000 C 
BRANCH  23  24
ATOM     24  C   UNL     1    -105.810  35.972 -31.485  1.00  0.00    -0.000 C 
BRANCH  24  25
ATOM     25  C   UNL     1    -106.854  36.918 -32.098  1.00  0.00    -0.003 C 
ATOM     26  C   UNL     1    -108.239  36.277 -32.214  1.00  0.00     0.004 C 
ENDBRANCH  24  25
ENDBRANCH  23  24
ENDBRANCH  22  23
ENDBRANCH  21  22
ENDBRANCH  20  21
ENDBRANCH  19  20
ENDBRANCH  18  19
ENDBRANCH  17  18
ENDBRANCH  16  17
ENDBRANCH  15  16
ENDBRANCH   1  15
TORSDOF 22
ENDMDL
MODEL 5
REMARK VINA RESULT:    -3.428      3.379      5.127
REMARK INTER + INTRA:         -11.067
REMARK INTER:                  -7.403
REMARK INTRA:                  -3.664
REMARK UNBOUND:                -3.230
REMARK SMILES CCCCCCCCCCCCCCCCCCCCCCCC(=O)[O-]
REMARK SMILES IDX 13 1 14 2 15 3 16 4 17 5 18 6 19 7 20 8 21 9 22 10 23 11
REMARK SMILES IDX 24 12 25 13 26 14 12 15 11 16 10 17 9 18 8 19 7 20 6 21 5 22
REMARK SMILES IDX 4 23 3 24 2 25 1 26
REMARK H PARENT
REMARK Flexibility Score: inf
ROOT
ATOM      1  C   UNL     1     -99.978  30.102 -38.146  1.00  0.00     0.000 C 
ENDROOT
BRANCH   1   2
ATOM      2  C   UNL     1    -101.484  29.875 -37.931  1.00  0.00     0.000 C 
BRANCH   2   3
ATOM      3  C   UNL     1    -102.347  30.640 -38.947  1.00  0.00     0.000 C 
BRANCH   3   4
ATOM      4  C   UNL     1    -103.842  30.288 -38.836  1.00  0.00     0.000 C 
BRANCH   4   5
ATOM      5  C   UNL     1    -104.751  31.490 -39.172  1.00  0.00     0.000 C 
BRANCH   5   6
ATOM      6  C   UNL     1    -106.004  31.587 -38.280  1.00  0.00     0.000 C 
BRANCH   6   7
ATOM      7  C   UNL     1    -106.479  33.021 -37.973  1.00  0.00     0.000 C 
BRANCH   7   8
ATOM      8  C   UNL     1    -107.808  33.119 -37.198  1.00  0.00     0.000 C 
BRANCH   8   9
ATOM      9  C   UNL     1    -108.574  31.787 -37.152  1.00  0.00     0.000 C 
BRANCH   9  10
ATOM     10  C   UNL     1    -109.993  31.894 -37.739  1.00  0.00     0.006 C 
BRANCH  10  11
ATOM     11  C   UNL     1    -110.371  33.314 -38.205  1.00  0.00     0.053 C 
BRANCH  11  12
ATOM     12  C   UNL     1    -111.633  33.335 -39.017  1.00  0.00     0.041 C 
ATOM     13  O   UNL     1    -111.869  34.301 -39.789  1.00  0.00    -0.550 OA
ATOM     14  O   UNL     1    -112.566  32.312 -38.890  1.00  0.00    -0.550 OA
ENDBRANCH  11  12
ENDBRANCH  10  11
ENDBRANCH   9  10
ENDBRANCH   8   9
ENDBRANCH   7   8
ENDBRANCH   6   7
ENDBRANCH   5   6
ENDBRANCH   4   5
ENDBRANCH   3   4
ENDBRANCH   2   3
ENDBRANCH   1   2
BRANCH   1  15
ATOM     15  C   UNL     1     -99.574  31.572 -37.960  1.00  0.00     0.000 C 
BRANCH  15  16
ATOM     16  C   UNL     1     -99.890  32.102 -36.549  1.00  0.00     0.000 C 
BRANCH  16  17
ATOM     17  C   UNL     1     -99.032  31.424 -35.471  1.00  0.00     0.000 C 
BRANCH  17  18
ATOM     18  C   UNL     1     -99.882  30.740 -34.386  1.00  0.00    -0.000 C 
BRANCH  18  19
ATOM     19  C   UNL     1    -101.273  31.375 -34.242  1.00  0.00    -0.000 C 
BRANCH  19  20
ATOM     20  C   UNL     1    -102.413  30.344 -34.321  1.00  0.00    -0.000 C 
BRANCH  20  21
ATOM     21  C   UNL     1    -103.618  30.893 -35.100  1.00  0.00    -0.000 C 
BRANCH  21  22
ATOM     22  C   UNL     1    -103.330  32.267 -35.740  1.00  0.00    -0.000 C 
BRANCH  22  23
ATOM     23  C   UNL     1    -104.255  33.368 -35.192  1.00  0.00    -0.000 C 
BRANCH  23  24
ATOM     24  C   UNL     1    -105.409  32.772 -34.361  1.00  0.00    -0.000 C 
BRANCH  24  25
ATOM     25  C   UNL     1    -105.516  33.403 -32.964  1.00  0.00    -0.003 C 
ATOM     26  C   UNL     1    -104.456  32.875 -31.994  1.00  0.00     0.004 C 
ENDBRANCH  24  25
ENDBRANCH  23  24
ENDBRANCH  22  23
ENDBRANCH  21  22
ENDBRANCH  20  21
ENDBRANCH  19  20
ENDBRANCH  18  19
ENDBRANCH  17  18
ENDBRANCH  16  17
ENDBRANCH  15  16
ENDBRANCH   1  15
TORSDOF 22
ENDMDL
MODEL 6
REMARK VINA RESULT:    -3.403      1.062      4.011
REMARK INTER + INTRA:         -11.010
REMARK INTER:                  -7.144
REMARK INTRA:                  -3.866
REMARK UNBOUND:                -3.230
REMARK SMILES CCCCCCCCCCCCCCCCCCCCCCCC(=O)[O-]
REMARK SMILES IDX 13 1 14 2 15 3 16 4 17 5 18 6 19 7 20 8 21 9 22 10 23 11
REMARK SMILES IDX 24 12 25 13 26 14 12 15 11 16 10 17 9 18 8 19 7 20 6 21 5 22
REMARK SMILES IDX 4 23 3 24 2 25 1 26
REMARK H PARENT
REMARK Flexibility Score: inf
ROOT
ATOM      1  C   UNL     1    -100.191  31.036 -34.434  1.00  0.00     0.000 C 
ENDROOT
BRANCH   1   2
ATOM      2  C   UNL     1    -101.342  30.018 -34.494  1.00  0.00     0.000 C 
BRANCH   2   3
ATOM      3  C   UNL     1    -102.356  30.206 -33.354  1.00  0.00     0.000 C 
BRANCH   3   4
ATOM      4  C   UNL     1    -102.408  31.658 -32.843  1.00  0.00     0.000 C 
BRANCH   4   5
ATOM      5  C   UNL     1    -103.847  32.217 -32.820  1.00  0.00     0.000 C 
BRANCH   5   6
ATOM      6  C   UNL     1    -104.921  31.175 -33.186  1.00  0.00     0.000 C 
BRANCH   6   7
ATOM      7  C   UNL     1    -106.355  31.531 -32.744  1.00  0.00     0.000 C 
BRANCH   7   8
ATOM      8  C   UNL     1    -107.278  32.046 -33.865  1.00  0.00     0.000 C 
BRANCH   8   9
ATOM      9  C   UNL     1    -107.554  33.556 -33.766  1.00  0.00     0.000 C 
BRANCH   9  10
ATOM     10  C   UNL     1    -107.373  34.103 -32.338  1.00  0.00     0.006 C 
BRANCH  10  11
ATOM     11  C   UNL     1    -106.279  35.182 -32.218  1.00  0.00     0.053 C 
BRANCH  11  12
ATOM     12  C   UNL     1    -105.417  34.992 -31.003  1.00  0.00     0.041 C 
ATOM     13  O   UNL     1    -104.483  35.801 -30.760  1.00  0.00    -0.550 OA
ATOM     14  O   UNL     1    -105.617  33.901 -30.165  1.00  0.00    -0.550 OA
ENDBRANCH  11  12
ENDBRANCH  10  11
ENDBRANCH   9  10
ENDBRANCH   8   9
ENDBRANCH   7   8
ENDBRANCH   6   7
ENDBRANCH   5   6
ENDBRANCH   4   5
ENDBRANCH   3   4
ENDBRANCH   2   3
ENDBRANCH   1   2
BRANCH   1  15
ATOM     15  C   UNL     1     -99.290  30.979 -35.677  1.00  0.00     0.000 C 
BRANCH  15  16
ATOM     16  C   UNL     1     -99.682  32.019 -36.743  1.00  0.00     0.000 C 
BRANCH  16  17
ATOM     17  C   UNL     1     -99.862  31.385 -38.130  1.00  0.00     0.000 C 
BRANCH  17  18
ATOM     18  C   UNL     1    -100.543  30.007 -38.063  1.00  0.00    -0.000 C 
BRANCH  18  19
ATOM     19  C   UNL     1    -101.744  29.898 -39.013  1.00  0.00    -0.000 C 
BRANCH  19  20
ATOM     20  C   UNL     1    -102.790  31.004 -38.786  1.00  0.00    -0.000 C 
BRANCH  20  21
ATOM     21  C   UNL     1    -103.475  30.860 -37.418  1.00  0.00    -0.000 C 
BRANCH  21  22
ATOM     22  C   UNL     1    -103.361  32.140 -36.564  1.00  0.00    -0.000 C 
BRANCH  22  23
ATOM     23  C   UNL     1    -104.726  32.818 -36.348  1.00  0.00    -0.000 C 
BRANCH  23  24
ATOM     24  C   UNL     1    -105.313  33.336 -37.676  1.00  0.00    -0.000 C 
BRANCH  24  25
ATOM     25  C   UNL     1    -106.828  33.104 -37.781  1.00  0.00    -0.003 C 
ATOM     26  C   UNL     1    -107.199  31.619 -37.808  1.00  0.00     0.004 C 
ENDBRANCH  24  25
ENDBRANCH  23  24
ENDBRANCH  22  23
ENDBRANCH  21  22
ENDBRANCH  20  21
ENDBRANCH  19  20
ENDBRANCH  18  19
ENDBRANCH  17  18
ENDBRANCH  16  17
ENDBRANCH  15  16
ENDBRANCH   1  15
TORSDOF 22
ENDMDL
MODEL 7
REMARK VINA RESULT:    -3.335      1.848      4.005
REMARK INTER + INTRA:         -10.854
REMARK INTER:                  -7.493
REMARK INTRA:                  -3.361
REMARK UNBOUND:                -3.230
REMARK SMILES CCCCCCCCCCCCCCCCCCCCCCCC(=O)[O-]
REMARK SMILES IDX 13 1 14 2 15 3 16 4 17 5 18 6 19 7 20 8 21 9 22 10 23 11
REMARK SMILES IDX 24 12 25 13 26 14 12 15 11 16 10 17 9 18 8 19 7 20 6 21 5 22
REMARK SMILES IDX 4 23 3 24 2 25 1 26
REMARK H PARENT
REMARK Flexibility Score: inf
ROOT
ATOM      1  C   UNL     1    -100.160  30.362 -38.365  1.00  0.00     0.000 C 
ENDROOT
BRANCH   1   2
ATOM      2  C   UNL     1    -101.545  30.514 -39.015  1.00  0.00     0.000 C 
BRANCH   2   3
ATOM      3  C   UNL     1    -102.693  30.285 -38.019  1.00  0.00     0.000 C 
BRANCH   3   4
ATOM      4  C   UNL     1    -103.358  31.599 -37.571  1.00  0.00     0.000 C 
BRANCH   4   5
ATOM      5  C   UNL     1    -104.629  31.918 -38.387  1.00  0.00     0.000 C 
BRANCH   5   6
ATOM      6  C   UNL     1    -105.336  33.215 -37.948  1.00  0.00     0.000 C 
BRANCH   6   7
ATOM      7  C   UNL     1    -106.801  33.041 -37.500  1.00  0.00     0.000 C 
BRANCH   7   8
ATOM      8  C   UNL     1    -107.269  31.581 -37.340  1.00  0.00     0.000 C 
BRANCH   8   9
ATOM      9  C   UNL     1    -107.803  31.275 -35.931  1.00  0.00     0.000 C 
BRANCH   9  10
ATOM     10  C   UNL     1    -109.327  31.461 -35.816  1.00  0.00     0.006 C 
BRANCH  10  11
ATOM     11  C   UNL     1    -109.756  32.404 -34.674  1.00  0.00     0.053 C 
BRANCH  11  12
ATOM     12  C   UNL     1    -109.533  33.850 -35.009  1.00  0.00     0.041 C 
ATOM     13  O   UNL     1    -109.849  34.289 -36.145  1.00  0.00    -0.550 OA
ATOM     14  O   UNL     1    -108.938  34.700 -34.083  1.00  0.00    -0.550 OA
ENDBRANCH  11  12
ENDBRANCH  10  11
ENDBRANCH   9  10
ENDBRANCH   8   9
ENDBRANCH   7   8
ENDBRANCH   6   7
ENDBRANCH   5   6
ENDBRANCH   4   5
ENDBRANCH   3   4
ENDBRANCH   2   3
ENDBRANCH   1   2
BRANCH   1  15
ATOM     15  C   UNL     1     -99.527  31.715 -38.009  1.00  0.00     0.000 C 
BRANCH  15  16
ATOM     16  C   UNL     1     -99.845  32.159 -36.569  1.00  0.00     0.000 C 
BRANCH  16  17
ATOM     17  C   UNL     1     -99.281  31.183 -35.526  1.00  0.00     0.000 C 
BRANCH  17  18
ATOM     18  C   UNL     1    -100.300  30.849 -34.421  1.00  0.00    -0.000 C 
BRANCH  18  19
ATOM     19  C   UNL     1    -101.518  31.783 -34.443  1.00  0.00    -0.000 C 
BRANCH  19  20
ATOM     20  C   UNL     1    -102.189  31.924 -33.065  1.00  0.00    -0.000 C 
BRANCH  20  21
ATOM     21  C   UNL     1    -103.550  31.213 -33.025  1.00  0.00    -0.000 C 
BRANCH  21  22
ATOM     22  C   UNL     1    -104.447  31.587 -34.224  1.00  0.00    -0.000 C 
BRANCH  22  23
ATOM     23  C   UNL     1    -105.062  32.989 -34.074  1.00  0.00    -0.000 C 
BRANCH  23  24
ATOM     24  C   UNL     1    -106.164  33.009 -32.996  1.00  0.00    -0.000 C 
BRANCH  24  25
ATOM     25  C   UNL     1    -105.765  33.828 -31.759  1.00  0.00    -0.003 C 
ATOM     26  C   UNL     1    -105.573  35.315 -32.071  1.00  0.00     0.004 C 
ENDBRANCH  24  25
ENDBRANCH  23  24
ENDBRANCH  22  23
ENDBRANCH  21  22
ENDBRANCH  20  21
ENDBRANCH  19  20
ENDBRANCH  18  19
ENDBRANCH  17  18
ENDBRANCH  16  17
ENDBRANCH  15  16
ENDBRANCH   1  15
TORSDOF 22
ENDMDL
MODEL 8
REMARK VINA RESULT:    -3.328     11.461     14.874
REMARK INTER + INTRA:         -10.838
REMARK INTER:                  -7.040
REMARK INTRA:                  -3.798
REMARK UNBOUND:                -3.230
REMARK SMILES CCCCCCCCCCCCCCCCCCCCCCCC(=O)[O-]
REMARK SMILES IDX 13 1 14 2 15 3 16 4 17 5 18 6 19 7 20 8 21 9 22 10 23 11
REMARK SMILES IDX 24 12 25 13 26 14 12 15 11 16 10 17 9 18 8 19 7 20 6 21 5 22
REMARK SMILES IDX 4 23 3 24 2 25 1 26
REMARK H PARENT
REMARK Flexibility Score: inf
ROOT
ATOM      1  C   UNL     1    -107.729  43.481 -40.961  1.00  0.00     0.000 C 
ENDROOT
BRANCH   1   2
ATOM      2  C   UNL     1    -108.511  42.159 -40.888  1.00  0.00     0.000 C 
BRANCH   2   3
ATOM      3  C   UNL     1    -109.539  42.143 -39.745  1.00  0.00     0.000 C 
BRANCH   3   4
ATOM      4  C   UNL     1    -109.248  41.048 -38.703  1.00  0.00     0.000 C 
BRANCH   4   5
ATOM      5  C   UNL     1    -109.304  41.588 -37.257  1.00  0.00     0.000 C 
BRANCH   5   6
ATOM      6  C   UNL     1    -110.184  42.843 -37.100  1.00  0.00     0.000 C 
BRANCH   6   7
ATOM      7  C   UNL     1    -109.559  43.980 -36.268  1.00  0.00     0.000 C 
BRANCH   7   8
ATOM      8  C   UNL     1    -108.049  43.839 -35.994  1.00  0.00     0.000 C 
BRANCH   8   9
ATOM      9  C   UNL     1    -107.327  45.194 -35.906  1.00  0.00     0.000 C 
BRANCH   9  10
ATOM     10  C   UNL     1    -106.212  45.209 -34.846  1.00  0.00     0.006 C 
BRANCH  10  11
ATOM     11  C   UNL     1    -106.683  44.793 -33.438  1.00  0.00     0.053 C 
BRANCH  11  12
ATOM     12  C   UNL     1    -107.680  45.754 -32.860  1.00  0.00     0.041 C 
ATOM     13  O   UNL     1    -107.343  46.942 -32.618  1.00  0.00    -0.550 OA
ATOM     14  O   UNL     1    -108.967  45.327 -32.549  1.00  0.00    -0.550 OA
ENDBRANCH  11  12
ENDBRANCH  10  11
ENDBRANCH   9  10
ENDBRANCH   8   9
ENDBRANCH   7   8
ENDBRANCH   6   7
ENDBRANCH   5   6
ENDBRANCH   4   5
ENDBRANCH   3   4
ENDBRANCH   2   3
ENDBRANCH   1   2
BRANCH   1  15
ATOM     15  C   UNL     1    -107.778  44.265 -39.642  1.00  0.00     0.000 C 
BRANCH  15  16
ATOM     16  C   UNL     1    -108.182  45.738 -39.841  1.00  0.00     0.000 C 
BRANCH  16  17
ATOM     17  C   UNL     1    -109.615  46.014 -39.361  1.00  0.00     0.000 C 
BRANCH  17  18
ATOM     18  C   UNL     1    -110.584  46.285 -40.526  1.00  0.00    -0.000 C 
BRANCH  18  19
ATOM     19  C   UNL     1    -111.132  44.992 -41.147  1.00  0.00    -0.000 C 
BRANCH  19  20
ATOM     20  C   UNL     1    -111.036  44.978 -42.683  1.00  0.00    -0.000 C 
BRANCH  20  21
ATOM     21  C   UNL     1    -109.890  45.869 -43.186  1.00  0.00    -0.000 C 
BRANCH  21  22
ATOM     22  C   UNL     1    -108.940  45.122 -44.146  1.00  0.00    -0.000 C 
BRANCH  22  23
ATOM     23  C   UNL     1    -109.276  43.624 -44.247  1.00  0.00    -0.000 C 
BRANCH  23  24
ATOM     24  C   UNL     1    -109.676  43.233 -45.684  1.00  0.00    -0.000 C 
BRANCH  24  25
ATOM     25  C   UNL     1    -108.978  44.097 -46.745  1.00  0.00    -0.003 C 
ATOM     26  C   UNL     1    -108.942  43.428 -48.122  1.00  0.00     0.004 C 
ENDBRANCH  24  25
ENDBRANCH  23  24
ENDBRANCH  22  23
ENDBRANCH  21  22
ENDBRANCH  20  21
ENDBRANCH  19  20
ENDBRANCH  18  19
ENDBRANCH  17  18
ENDBRANCH  16  17
ENDBRANCH  15  16
ENDBRANCH   1  15
TORSDOF 22
ENDMDL
MODEL 9
REMARK VINA RESULT:    -3.281      1.406      4.667
REMARK INTER + INTRA:         -10.730
REMARK INTER:                  -7.781
REMARK INTRA:                  -2.950
REMARK UNBOUND:                -3.230
REMARK SMILES CCCCCCCCCCCCCCCCCCCCCCCC(=O)[O-]
REMARK SMILES IDX 13 1 14 2 15 3 16 4 17 5 18 6 19 7 20 8 21 9 22 10 23 11
REMARK SMILES IDX 24 12 25 13 26 14 12 15 11 16 10 17 9 18 8 19 7 20 6 21 5 22
REMARK SMILES IDX 4 23 3 24 2 25 1 26
REMARK H PARENT
REMARK Flexibility Score: inf
ROOT
ATOM      1  C   UNL     1    -104.017  32.896 -35.652  1.00  0.00     0.000 C 
ENDROOT
BRANCH   1   2
ATOM      2  C   UNL     1    -103.151  31.649 -35.406  1.00  0.00     0.000 C 
BRANCH   2   3
ATOM      3  C   UNL     1    -102.265  31.782 -34.157  1.00  0.00     0.000 C 
BRANCH   3   4
ATOM      4  C   UNL     1    -102.097  30.448 -33.407  1.00  0.00     0.000 C 
BRANCH   4   5
ATOM      5  C   UNL     1    -103.142  30.276 -32.282  1.00  0.00     0.000 C 
BRANCH   5   6
ATOM      6  C   UNL     1    -104.595  30.475 -32.752  1.00  0.00     0.000 C 
BRANCH   6   7
ATOM      7  C   UNL     1    -105.508  31.221 -31.759  1.00  0.00     0.000 C 
BRANCH   7   8
ATOM      8  C   UNL     1    -105.086  32.669 -31.442  1.00  0.00     0.000 C 
BRANCH   8   9
ATOM      9  C   UNL     1    -105.519  33.669 -32.527  1.00  0.00     0.000 C 
BRANCH   9  10
ATOM     10  C   UNL     1    -107.042  33.680 -32.756  1.00  0.00     0.006 C 
BRANCH  10  11
ATOM     11  C   UNL     1    -107.675  35.083 -32.674  1.00  0.00     0.053 C 
BRANCH  11  12
ATOM     12  C   UNL     1    -107.152  35.882 -31.517  1.00  0.00     0.041 C 
ATOM     13  O   UNL     1    -106.460  36.914 -31.724  1.00  0.00    -0.550 OA
ATOM     14  O   UNL     1    -107.389  35.465 -30.212  1.00  0.00    -0.550 OA
ENDBRANCH  11  12
ENDBRANCH  10  11
ENDBRANCH   9  10
ENDBRANCH   8   9
ENDBRANCH   7   8
ENDBRANCH   6   7
ENDBRANCH   5   6
ENDBRANCH   4   5
ENDBRANCH   3   4
ENDBRANCH   2   3
ENDBRANCH   1   2
BRANCH   1  15
ATOM     15  C   UNL     1    -105.422  32.545 -36.160  1.00  0.00     0.000 C 
BRANCH  15  16
ATOM     16  C   UNL     1    -105.549  32.668 -37.690  1.00  0.00     0.000 C 
BRANCH  16  17
ATOM     17  C   UNL     1    -105.297  31.330 -38.400  1.00  0.00     0.000 C 
BRANCH  17  18
ATOM     18  C   UNL     1    -103.997  31.338 -39.225  1.00  0.00    -0.000 C 
BRANCH  18  19
ATOM     19  C   UNL     1    -102.939  30.377 -38.665  1.00  0.00    -0.000 C 
BRANCH  19  20
ATOM     20  C   UNL     1    -101.506  30.759 -39.074  1.00  0.00    -0.000 C 
BRANCH  20  21
ATOM     21  C   UNL     1    -100.463  29.875 -38.373  1.00  0.00    -0.000 C 
BRANCH  21  22
ATOM     22  C   UNL     1     -99.893  30.533 -37.099  1.00  0.00    -0.000 C 
BRANCH  22  23
ATOM     23  C   UNL     1     -99.992  32.068 -37.144  1.00  0.00    -0.000 C 
BRANCH  23  24
ATOM     24  C   UNL     1     -98.595  32.722 -37.144  1.00  0.00    -0.000 C 
BRANCH  24  25
ATOM     25  C   UNL     1     -98.368  33.627 -38.365  1.00  0.00    -0.003 C 
ATOM     26  C   UNL     1     -97.781  32.872 -39.560  1.00  0.00     0.004 C 
ENDBRANCH  24  25
ENDBRANCH  23  24
ENDBRANCH  22  23
ENDBRANCH  21  22
ENDBRANCH  20  21
ENDBRANCH  19  20
ENDBRANCH  18  19
ENDBRANCH  17  18
ENDBRANCH  16  17
ENDBRANCH  15  16
ENDBRANCH   1  15
TORSDOF 22
ENDMDL
