MODEL 1
REMARK VINA RESULT:    -3.392      0.000      0.000
REMARK INTER + INTRA:          -3.392
REMARK INTER:                  -3.392
REMARK INTRA:                   0.000
REMARK UNBOUND:                 0.000
REMARK SMILES CC1(C)C(=O)[C@@]2(C)CC[C@@H]1C2
REMARK SMILES IDX 1 1 2 2 10 3 9 4 8 5 6 6 11 7 4 8 5 9 7 10 3 11
REMARK H PARENT
REMARK Flexibility Score: inf
ROOT
ATOM      1  C   UNL     1     151.765 145.575 140.399  1.00  0.00     0.020 C 
ATOM      2  C   UNL     1     152.356 144.867 139.161  1.00  0.00     0.027 C 
ATOM      3  C   UNL     1     153.920 145.006 139.106  1.00  0.00     0.003 C 
ATOM      4  C   UNL     1     154.484 144.454 137.772  1.00  0.00     0.005 C 
ATOM      5  C   UNL     1     154.230 142.934 137.887  1.00  0.00     0.015 C 
ATOM      6  C   UNL     1     153.650 142.797 139.308  1.00  0.00     0.027 C 
ATOM      7  C   UNL     1     154.387 143.896 140.046  1.00  0.00     0.019 C 
ATOM      8  C   UNL     1     152.261 143.375 139.290  1.00  0.00     0.144 C 
ATOM      9  O   UNL     1     151.223 142.730 139.301  1.00  0.00    -0.298 OA
ATOM     10  C   UNL     1     153.773 141.408 139.937  1.00  0.00     0.020 C 
ATOM     11  C   UNL     1     151.630 145.373 137.895  1.00  0.00     0.020 C 
ENDROOT
TORSDOF 0
ENDMDL
MODEL 2
REMARK VINA RESULT:    -3.378     12.894     14.817
REMARK INTER + INTRA:          -3.378
REMARK INTER:                  -3.378
REMARK INTRA:                   0.000
REMARK UNBOUND:                 0.000
REMARK SMILES CC1(C)C(=O)[C@@]2(C)CC[C@@H]1C2
REMARK SMILES IDX 1 1 2 2 10 3 9 4 8 5 6 6 11 7 4 8 5 9 7 10 3 11
REMARK H PARENT
REMARK Flexibility Score: inf
ROOT
ATOM      1  C   UNL     1     149.478 155.779 140.513  1.00  0.00     0.020 C 
ATOM      2  C   UNL     1     148.888 156.422 139.240  1.00  0.00     0.027 C 
ATOM      3  C   UNL     1     147.331 156.231 139.162  1.00  0.00     0.003 C 
ATOM      4  C   UNL     1     146.775 156.717 137.799  1.00  0.00     0.005 C 
ATOM      5  C   UNL     1     146.978 158.247 137.864  1.00  0.00     0.015 C 
ATOM      6  C   UNL     1     147.527 158.453 139.289  1.00  0.00     0.027 C 
ATOM      7  C   UNL     1     146.811 157.358 140.053  1.00  0.00     0.019 C 
ATOM      8  C   UNL     1     148.933 157.921 139.317  1.00  0.00     0.144 C 
ATOM      9  O   UNL     1     149.950 158.598 139.323  1.00  0.00    -0.298 OA
ATOM     10  C   UNL     1     147.348 159.859 139.865  1.00  0.00     0.020 C 
ATOM     11  C   UNL     1     149.654 155.896 138.006  1.00  0.00     0.020 C 
ENDROOT
TORSDOF 0
ENDMDL
MODEL 3
REMARK VINA RESULT:    -3.377      9.403     10.552
REMARK INTER + INTRA:          -3.377
REMARK INTER:                  -3.377
REMARK INTRA:                   0.000
REMARK UNBOUND:                 0.000
REMARK SMILES CC1(C)C(=O)[C@@]2(C)CC[C@@H]1C2
REMARK SMILES IDX 1 1 2 2 10 3 9 4 8 5 6 6 11 7 4 8 5 9 7 10 3 11
REMARK H PARENT
REMARK Flexibility Score: inf
ROOT
ATOM      1  C   UNL     1     155.770 151.851 140.438  1.00  0.00     0.020 C 
ATOM      2  C   UNL     1     156.464 152.454 139.197  1.00  0.00     0.027 C 
ATOM      3  C   UNL     1     156.379 154.023 139.191  1.00  0.00     0.003 C 
ATOM      4  C   UNL     1     156.915 154.606 137.858  1.00  0.00     0.005 C 
ATOM      5  C   UNL     1     158.427 154.298 137.925  1.00  0.00     0.015 C 
ATOM      6  C   UNL     1     158.582 153.672 139.324  1.00  0.00     0.027 C 
ATOM      7  C   UNL     1     157.529 154.424 140.112  1.00  0.00     0.019 C 
ATOM      8  C   UNL     1     157.956 152.305 139.283  1.00  0.00     0.144 C 
ATOM      9  O   UNL     1     158.564 151.245 139.246  1.00  0.00    -0.298 OA
ATOM     10  C   UNL     1     159.991 153.729 139.918  1.00  0.00     0.020 C 
ATOM     11  C   UNL     1     155.900 151.783 137.926  1.00  0.00     0.020 C 
ENDROOT
TORSDOF 0
ENDMDL
MODEL 4
REMARK VINA RESULT:    -3.368      9.361     10.512
REMARK INTER + INTRA:          -3.368
REMARK INTER:                  -3.368
REMARK INTRA:                   0.000
REMARK UNBOUND:                 0.000
REMARK SMILES CC1(C)C(=O)[C@@]2(C)CC[C@@H]1C2
REMARK SMILES IDX 1 1 2 2 10 3 9 4 8 5 6 6 11 7 4 8 5 9 7 10 3 11
REMARK H PARENT
REMARK Flexibility Score: inf
ROOT
ATOM      1  C   UNL     1     145.446 149.468 140.486  1.00  0.00     0.020 C 
ATOM      2  C   UNL     1     144.770 148.861 139.238  1.00  0.00     0.027 C 
ATOM      3  C   UNL     1     144.932 147.299 139.192  1.00  0.00     0.003 C 
ATOM      4  C   UNL     1     144.413 146.722 137.851  1.00  0.00     0.005 C 
ATOM      5  C   UNL     1     142.888 146.953 137.938  1.00  0.00     0.015 C 
ATOM      6  C   UNL     1     142.717 147.537 139.353  1.00  0.00     0.027 C 
ATOM      7  C   UNL     1     143.813 146.820 140.114  1.00  0.00     0.019 C 
ATOM      8  C   UNL     1     143.274 148.935 139.340  1.00  0.00     0.144 C 
ATOM      9  O   UNL     1     142.614 149.963 139.335  1.00  0.00    -0.298 OA
ATOM     10  C   UNL     1     141.318 147.396 139.958  1.00  0.00     0.020 C 
ATOM     11  C   UNL     1     145.287 149.590 137.978  1.00  0.00     0.020 C 
ENDROOT
TORSDOF 0
ENDMDL
MODEL 5
REMARK VINA RESULT:    -3.201      1.737      3.047
REMARK INTER + INTRA:          -3.201
REMARK INTER:                  -3.201
REMARK INTRA:                   0.000
REMARK UNBOUND:                 0.000
REMARK SMILES CC1(C)C(=O)[C@@]2(C)CC[C@@H]1C2
REMARK SMILES IDX 1 1 2 2 10 3 9 4 8 5 6 6 11 7 4 8 5 9 7 10 3 11
REMARK H PARENT
REMARK Flexibility Score: inf
ROOT
ATOM      1  C   UNL     1     155.726 146.356 138.356  1.00  0.00     0.020 C 
ATOM      2  C   UNL     1     154.635 145.328 137.986  1.00  0.00     0.027 C 
ATOM      3  C   UNL     1     154.733 144.034 138.872  1.00  0.00     0.003 C 
ATOM      4  C   UNL     1     153.756 142.939 138.373  1.00  0.00     0.005 C 
ATOM      5  C   UNL     1     152.369 143.533 138.703  1.00  0.00     0.015 C 
ATOM      6  C   UNL     1     152.727 144.839 139.437  1.00  0.00     0.027 C 
ATOM      7  C   UNL     1     154.006 144.447 140.149  1.00  0.00     0.019 C 
ATOM      8  C   UNL     1     153.275 145.799 138.417  1.00  0.00     0.144 C 
ATOM      9  O   UNL     1     152.682 146.762 137.955  1.00  0.00    -0.298 OA
ATOM     10  C   UNL     1     151.634 145.404 140.346  1.00  0.00     0.020 C 
ATOM     11  C   UNL     1     154.685 145.062 136.465  1.00  0.00     0.020 C 
ENDROOT
TORSDOF 0
ENDMDL
MODEL 6
REMARK VINA RESULT:    -3.186      9.422     10.387
REMARK INTER + INTRA:          -3.186
REMARK INTER:                  -3.186
REMARK INTRA:                   0.000
REMARK UNBOUND:                 0.000
REMARK SMILES CC1(C)C(=O)[C@@]2(C)CC[C@@H]1C2
REMARK SMILES IDX 1 1 2 2 10 3 9 4 8 5 6 6 11 7 4 8 5 9 7 10 3 11
REMARK H PARENT
REMARK Flexibility Score: inf
ROOT
ATOM      1  C   UNL     1     155.044 155.742 138.400  1.00  0.00     0.020 C 
ATOM      2  C   UNL     1     156.038 154.620 138.029  1.00  0.00     0.027 C 
ATOM      3  C   UNL     1     157.323 154.662 138.931  1.00  0.00     0.003 C 
ATOM      4  C   UNL     1     158.389 153.654 138.434  1.00  0.00     0.005 C 
ATOM      5  C   UNL     1     157.743 152.284 138.738  1.00  0.00     0.015 C 
ATOM      6  C   UNL     1     156.441 152.679 139.461  1.00  0.00     0.027 C 
ATOM      7  C   UNL     1     156.868 153.934 140.194  1.00  0.00     0.019 C 
ATOM      8  C   UNL     1     155.514 153.273 138.436  1.00  0.00     0.144 C 
ATOM      9  O   UNL     1     154.537 152.719 137.955  1.00  0.00    -0.298 OA
ATOM     10  C   UNL     1     155.826 151.595 140.348  1.00  0.00     0.020 C 
ATOM     11  C   UNL     1     156.325 154.681 136.512  1.00  0.00     0.020 C 
ENDROOT
TORSDOF 0
ENDMDL
MODEL 7
REMARK VINA RESULT:    -3.175      7.410      9.571
REMARK INTER + INTRA:          -3.175
REMARK INTER:                  -3.175
REMARK INTRA:                   0.000
REMARK UNBOUND:                 0.000
REMARK SMILES CC1(C)C(=O)[C@@]2(C)CC[C@@H]1C2
REMARK SMILES IDX 1 1 2 2 10 3 9 4 8 5 6 6 11 7 4 8 5 9 7 10 3 11
REMARK H PARENT
REMARK Flexibility Score: inf
ROOT
ATOM      1  C   UNL     1     146.337 145.567 138.251  1.00  0.00     0.020 C 
ATOM      2  C   UNL     1     145.311 146.677 137.933  1.00  0.00     0.027 C 
ATOM      3  C   UNL     1     144.032 146.560 138.838  1.00  0.00     0.003 C 
ATOM      4  C   UNL     1     142.936 147.560 138.388  1.00  0.00     0.005 C 
ATOM      5  C   UNL     1     143.546 148.932 138.750  1.00  0.00     0.015 C 
ATOM      6  C   UNL     1     144.862 148.542 139.450  1.00  0.00     0.027 C 
ATOM      7  C   UNL     1     144.472 147.245 140.130  1.00  0.00     0.019 C 
ATOM      8  C   UNL     1     145.800 148.018 138.397  1.00  0.00     0.144 C 
ATOM      9  O   UNL     1     146.759 148.619 137.937  1.00  0.00    -0.298 OA
ATOM     10  C   UNL     1     145.451 149.603 140.382  1.00  0.00     0.020 C 
ATOM     11  C   UNL     1     145.018 146.674 136.417  1.00  0.00     0.020 C 
ENDROOT
TORSDOF 0
ENDMDL
MODEL 8
REMARK VINA RESULT:    -3.044      8.550     10.463
REMARK INTER + INTRA:          -3.044
REMARK INTER:                  -3.044
REMARK INTRA:                   0.000
REMARK UNBOUND:                 0.000
REMARK SMILES CC1(C)C(=O)[C@@]2(C)CC[C@@H]1C2
REMARK SMILES IDX 1 1 2 2 10 3 9 4 8 5 6 6 11 7 4 8 5 9 7 10 3 11
REMARK H PARENT
REMARK Flexibility Score: inf
ROOT
ATOM      1  C   UNL     1     143.682 149.851 136.930  1.00  0.00     0.020 C 
ATOM      2  C   UNL     1     143.497 149.158 138.297  1.00  0.00     0.027 C 
ATOM      3  C   UNL     1     142.513 147.937 138.199  1.00  0.00     0.003 C 
ATOM      4  C   UNL     1     142.192 147.363 139.602  1.00  0.00     0.005 C 
ATOM      5  C   UNL     1     143.538 146.746 140.044  1.00  0.00     0.015 C 
ATOM      6  C   UNL     1     144.426 146.953 138.802  1.00  0.00     0.027 C 
ATOM      7  C   UNL     1     143.417 146.820 137.680  1.00  0.00     0.019 C 
ATOM      8  C   UNL     1     144.739 148.421 138.706  1.00  0.00     0.144 C 
ATOM      9  O   UNL     1     145.809 148.940 138.989  1.00  0.00    -0.298 OA
ATOM     10  C   UNL     1     145.633 146.018 138.694  1.00  0.00     0.020 C 
ATOM     11  C   UNL     1     143.094 150.214 139.350  1.00  0.00     0.020 C 
ENDROOT
TORSDOF 0
ENDMDL
MODEL 9
REMARK VINA RESULT:    -3.040     13.553     14.784
REMARK INTER + INTRA:          -3.040
REMARK INTER:                  -3.040
REMARK INTRA:                   0.000
REMARK UNBOUND:                 0.000
REMARK SMILES CC1(C)C(=O)[C@@]2(C)CC[C@@H]1C2
REMARK SMILES IDX 1 1 2 2 10 3 9 4 8 5 6 6 11 7 4 8 5 9 7 10 3 11
REMARK H PARENT
REMARK Flexibility Score: inf
ROOT
ATOM      1  C   UNL     1     149.845 157.630 136.913  1.00  0.00     0.020 C 
ATOM      2  C   UNL     1     149.161 157.803 138.286  1.00  0.00     0.027 C 
ATOM      3  C   UNL     1     147.934 158.781 138.203  1.00  0.00     0.003 C 
ATOM      4  C   UNL     1     147.369 159.090 139.613  1.00  0.00     0.005 C 
ATOM      5  C   UNL     1     146.762 157.738 140.050  1.00  0.00     0.015 C 
ATOM      6  C   UNL     1     146.964 156.859 138.801  1.00  0.00     0.027 C 
ATOM      7  C   UNL     1     146.818 157.875 137.687  1.00  0.00     0.019 C 
ATOM      8  C   UNL     1     148.433 156.554 138.692  1.00  0.00     0.144 C 
ATOM      9  O   UNL     1     148.960 155.485 138.964  1.00  0.00    -0.298 OA
ATOM     10  C   UNL     1     146.035 155.649 138.692  1.00  0.00     0.020 C 
ATOM     11  C   UNL     1     150.223 158.205 139.333  1.00  0.00     0.020 C 
ENDROOT
TORSDOF 0
ENDMDL
