MODEL 1
REMARK VINA RESULT:    -6.862      0.000      0.000
REMARK INTER + INTRA:          -8.490
REMARK INTER:                  -8.266
REMARK INTRA:                  -0.225
REMARK UNBOUND:                -0.225
REMARK SMILES O=c1c(O)c(-c2ccc(O)c(O)c2)oc2cc(O)cc(O)c12
REMARK SMILES IDX 5 1 3 2 2 3 1 4 22 5 20 6 19 7 17 8 16 9 15 10 14 11 6 12
REMARK SMILES IDX 7 13 8 14 9 15 13 16 11 17 10 18 12 20 4 22 21 24 18 26
REMARK H PARENT 10 19 12 21 4 23 21 25 18 27
REMARK Flexibility Score: inf
ROOT
ATOM      1  C   UNL     1      18.378 -10.406  19.118  1.00  0.00     0.180 A 
ATOM      2  C   UNL     1      17.834  -9.208  18.623  1.00  0.00     0.208 A 
ATOM      3  C   UNL     1      17.904  -8.050  19.414  1.00  0.00     0.238 A 
ATOM      4  O   UNL     1      17.465  -6.969  18.943  1.00  0.00    -0.285 OA
ATOM      5  C   UNL     1      18.503  -8.108  20.696  1.00  0.00     0.111 A 
ATOM      6  C   UNL     1      18.591  -7.005  21.598  1.00  0.00     0.134 A 
ATOM      7  C   UNL     1      19.319  -7.143  22.786  1.00  0.00     0.093 A 
ATOM      8  C   UNL     1      19.906  -8.362  23.135  1.00  0.00     0.123 A 
ATOM      9  C   UNL     1      19.774  -9.460  22.289  1.00  0.00     0.094 A 
ATOM     10  C   UNL     1      19.084  -9.344  21.079  1.00  0.00     0.146 A 
ATOM     11  O   UNL     1      18.991 -10.412  20.297  1.00  0.00    -0.452 OA
ENDROOT
BRANCH   1  12
ATOM     12  C   UNL     1      18.321 -11.673  18.354  1.00  0.00     0.025 A 
ATOM     13  C   UNL     1      19.469 -12.216  17.751  1.00  0.00     0.016 A 
ATOM     14  C   UNL     1      19.386 -13.400  17.014  1.00  0.00     0.051 A 
ATOM     15  C   UNL     1      18.156 -14.051  16.856  1.00  0.00     0.157 A 
ATOM     16  C   UNL     1      17.086 -12.317  18.175  1.00  0.00     0.062 A 
ATOM     17  C   UNL     1      17.000 -13.504  17.438  1.00  0.00     0.158 A 
BRANCH  15  18
ATOM     18  O   UNL     1      18.077 -15.233  16.121  1.00  0.00    -0.504 OA
ATOM     19  H   UNL     1      17.843 -16.116  16.560  1.00  0.00     0.293 HD
ENDBRANCH  15  18
BRANCH  17  20
ATOM     20  O   UNL     1      15.759 -14.123  17.294  1.00  0.00    -0.504 OA
ATOM     21  H   UNL     1      15.574 -15.049  17.661  1.00  0.00     0.293 HD
ENDBRANCH  17  20
ENDBRANCH   1  12
BRANCH   2  22
ATOM     22  O   UNL     1      17.269  -9.169  17.345  1.00  0.00    -0.502 OA
ATOM     23  H   UNL     1      16.302  -8.910  17.187  1.00  0.00     0.293 HD
ENDBRANCH   2  22
BRANCH   6  24
ATOM     24  O   UNL     1      17.966  -5.773  21.390  1.00  0.00    -0.507 OA
ATOM     25  H   UNL     1      17.576  -5.468  20.511  1.00  0.00     0.293 HD
ENDBRANCH   6  24
BRANCH   8  26
ATOM     26  O   UNL     1      20.616  -8.495  24.327  1.00  0.00    -0.508 OA
ATOM     27  H   UNL     1      20.151  -8.467  25.226  1.00  0.00     0.293 HD
ENDBRANCH   8  26
TORSDOF 6
ENDMDL
MODEL 2
REMARK VINA RESULT:    -6.828      2.001      7.300
REMARK INTER + INTRA:          -8.450
REMARK INTER:                  -8.225
REMARK INTRA:                  -0.225
REMARK UNBOUND:                -0.225
REMARK SMILES O=c1c(O)c(-c2ccc(O)c(O)c2)oc2cc(O)cc(O)c12
REMARK SMILES IDX 5 1 3 2 2 3 1 4 22 5 20 6 19 7 17 8 16 9 15 10 14 11 6 12
REMARK SMILES IDX 7 13 8 14 9 15 13 16 11 17 10 18 12 20 4 22 21 24 18 26
REMARK H PARENT 10 19 12 21 4 23 21 25 18 27
REMARK Flexibility Score: inf
ROOT
ATOM      1  C   UNL     1      18.387 -10.663  17.977  1.00  0.00     0.180 A 
ATOM      2  C   UNL     1      17.836 -11.855  18.481  1.00  0.00     0.208 A 
ATOM      3  C   UNL     1      17.911 -13.022  17.703  1.00  0.00     0.238 A 
ATOM      4  O   UNL     1      17.466 -14.097  18.182  1.00  0.00    -0.285 OA
ATOM      5  C   UNL     1      18.521 -12.979  16.426  1.00  0.00     0.111 A 
ATOM      6  C   UNL     1      18.616 -14.092  15.537  1.00  0.00     0.134 A 
ATOM      7  C   UNL     1      19.355 -13.968  14.354  1.00  0.00     0.093 A 
ATOM      8  C   UNL     1      19.947 -12.754  13.997  1.00  0.00     0.123 A 
ATOM      9  C   UNL     1      19.809 -11.646  14.830  1.00  0.00     0.094 A 
ATOM     10  C   UNL     1      19.109 -11.748  16.035  1.00  0.00     0.146 A 
ATOM     11  O   UNL     1      19.009 -10.672  16.804  1.00  0.00    -0.452 OA
ENDROOT
BRANCH   1  12
ATOM     12  C   UNL     1      18.325  -9.388  18.727  1.00  0.00     0.025 A 
ATOM     13  C   UNL     1      19.468  -8.840  19.334  1.00  0.00     0.016 A 
ATOM     14  C   UNL     1      19.381  -7.648  20.056  1.00  0.00     0.051 A 
ATOM     15  C   UNL     1      18.150  -6.994  20.197  1.00  0.00     0.157 A 
ATOM     16  C   UNL     1      17.089  -8.740  18.888  1.00  0.00     0.062 A 
ATOM     17  C   UNL     1      16.998  -7.545  19.611  1.00  0.00     0.158 A 
BRANCH  15  18
ATOM     18  O   UNL     1      18.067  -5.803  20.918  1.00  0.00    -0.504 OA
ATOM     19  H   UNL     1      17.442  -5.056  20.639  1.00  0.00     0.293 HD
ENDBRANCH  15  18
BRANCH  17  20
ATOM     20  O   UNL     1      15.757  -6.923  19.738  1.00  0.00    -0.504 OA
ATOM     21  H   UNL     1      15.665  -5.965  20.055  1.00  0.00     0.293 HD
ENDBRANCH  17  20
ENDBRANCH   1  12
BRANCH   2  22
ATOM     22  O   UNL     1      17.259 -11.879  19.753  1.00  0.00    -0.502 OA
ATOM     23  H   UNL     1      17.164 -12.732  20.290  1.00  0.00     0.293 HD
ENDBRANCH   2  22
BRANCH   6  24
ATOM     24  O   UNL     1      17.986 -15.321  15.753  1.00  0.00    -0.507 OA
ATOM     25  H   UNL     1      17.233 -15.686  15.191  1.00  0.00     0.293 HD
ENDBRANCH   6  24
BRANCH   8  26
ATOM     26  O   UNL     1      20.668 -12.636  12.811  1.00  0.00    -0.508 OA
ATOM     27  H   UNL     1      20.206 -12.461  11.926  1.00  0.00     0.293 HD
ENDBRANCH   8  26
TORSDOF 6
ENDMDL
MODEL 3
REMARK VINA RESULT:    -6.807      1.985      7.386
REMARK INTER + INTRA:          -8.424
REMARK INTER:                  -8.092
REMARK INTRA:                  -0.331
REMARK UNBOUND:                -0.225
REMARK SMILES O=c1c(O)c(-c2ccc(O)c(O)c2)oc2cc(O)cc(O)c12
REMARK SMILES IDX 5 1 3 2 2 3 1 4 22 5 20 6 19 7 17 8 16 9 15 10 14 11 6 12
REMARK SMILES IDX 7 13 8 14 9 15 13 16 11 17 10 18 12 20 4 22 21 24 18 26
REMARK H PARENT 10 19 12 21 4 23 21 25 18 27
REMARK Flexibility Score: inf
ROOT
ATOM      1  C   UNL     1      18.283 -10.647  18.115  1.00  0.00     0.180 A 
ATOM      2  C   UNL     1      17.741 -11.858  18.582  1.00  0.00     0.208 A 
ATOM      3  C   UNL     1      17.855 -13.007  17.784  1.00  0.00     0.238 A 
ATOM      4  O   UNL     1      17.416 -14.099  18.231  1.00  0.00    -0.285 OA
ATOM      5  C   UNL     1      18.494 -12.930  16.523  1.00  0.00     0.111 A 
ATOM      6  C   UNL     1      18.629 -14.023  15.615  1.00  0.00     0.134 A 
ATOM      7  C   UNL     1      19.393 -13.864  14.453  1.00  0.00     0.093 A 
ATOM      8  C   UNL     1      19.973 -12.634  14.134  1.00  0.00     0.123 A 
ATOM      9  C   UNL     1      19.796 -11.545  14.985  1.00  0.00     0.094 A 
ATOM     10  C   UNL     1      19.069 -11.682  16.170  1.00  0.00     0.146 A 
ATOM     11  O   UNL     1      18.934 -10.622  16.957  1.00  0.00    -0.452 OA
ENDROOT
BRANCH   1  12
ATOM     12  C   UNL     1      18.182  -9.389  18.887  1.00  0.00     0.025 A 
ATOM     13  C   UNL     1      17.055  -8.554  18.783  1.00  0.00     0.016 A 
ATOM     14  C   UNL     1      16.992  -7.359  19.503  1.00  0.00     0.051 A 
ATOM     15  C   UNL     1      18.057  -6.972  20.326  1.00  0.00     0.157 A 
ATOM     16  C   UNL     1      19.256  -8.986  19.697  1.00  0.00     0.062 A 
ATOM     17  C   UNL     1      19.196  -7.789  20.421  1.00  0.00     0.158 A 
BRANCH  15  18
ATOM     18  O   UNL     1      17.990  -5.779  21.044  1.00  0.00    -0.504 OA
ATOM     19  H   UNL     1      18.341  -5.710  21.993  1.00  0.00     0.293 HD
ENDBRANCH  15  18
BRANCH  17  20
ATOM     20  O   UNL     1      20.276  -7.429  21.226  1.00  0.00    -0.504 OA
ATOM     21  H   UNL     1      20.648  -8.049  21.935  1.00  0.00     0.293 HD
ENDBRANCH  17  20
ENDBRANCH   1  12
BRANCH   2  22
ATOM     22  O   UNL     1      17.134 -11.916  19.840  1.00  0.00    -0.502 OA
ATOM     23  H   UNL     1      17.161 -12.748  20.417  1.00  0.00     0.293 HD
ENDBRANCH   2  22
BRANCH   6  24
ATOM     24  O   UNL     1      18.015 -15.266  15.792  1.00  0.00    -0.507 OA
ATOM     25  H   UNL     1      17.096 -15.402  16.186  1.00  0.00     0.293 HD
ENDBRANCH   6  24
BRANCH   8  26
ATOM     26  O   UNL     1      20.720 -12.480  12.968  1.00  0.00    -0.508 OA
ATOM     27  H   UNL     1      21.237 -13.251  12.564  1.00  0.00     0.293 HD
ENDBRANCH   8  26
TORSDOF 6
ENDMDL
MODEL 4
REMARK VINA RESULT:    -6.741      0.709      1.506
REMARK INTER + INTRA:          -8.344
REMARK INTER:                  -8.018
REMARK INTRA:                  -0.326
REMARK UNBOUND:                -0.225
REMARK SMILES O=c1c(O)c(-c2ccc(O)c(O)c2)oc2cc(O)cc(O)c12
REMARK SMILES IDX 5 1 3 2 2 3 1 4 22 5 20 6 19 7 17 8 16 9 15 10 14 11 6 12
REMARK SMILES IDX 7 13 8 14 9 15 13 16 11 17 10 18 12 20 4 22 21 24 18 26
REMARK H PARENT 10 19 12 21 4 23 21 25 18 27
REMARK Flexibility Score: inf
ROOT
ATOM      1  C   UNL     1      18.386 -10.408  18.949  1.00  0.00     0.180 A 
ATOM      2  C   UNL     1      17.788  -9.223  18.485  1.00  0.00     0.208 A 
ATOM      3  C   UNL     1      17.830  -8.077  19.295  1.00  0.00     0.238 A 
ATOM      4  O   UNL     1      17.341  -7.005  18.851  1.00  0.00    -0.285 OA
ATOM      5  C   UNL     1      18.454  -8.134  20.564  1.00  0.00     0.111 A 
ATOM      6  C   UNL     1      18.518  -7.044  21.484  1.00  0.00     0.134 A 
ATOM      7  C   UNL     1      19.273  -7.175  22.656  1.00  0.00     0.093 A 
ATOM      8  C   UNL     1      19.912  -8.376  22.972  1.00  0.00     0.123 A 
ATOM      9  C   UNL     1      19.805  -9.464  22.109  1.00  0.00     0.094 A 
ATOM     10  C   UNL     1      19.089  -9.353  20.915  1.00  0.00     0.146 A 
ATOM     11  O   UNL     1      19.020 -10.410  20.115  1.00  0.00    -0.452 OA
ENDROOT
BRANCH   1  12
ATOM     12  C   UNL     1      18.362 -11.662  18.163  1.00  0.00     0.025 A 
ATOM     13  C   UNL     1      17.259 -12.534  18.209  1.00  0.00     0.016 A 
ATOM     14  C   UNL     1      17.268 -13.724  17.478  1.00  0.00     0.051 A 
ATOM     15  C   UNL     1      18.383 -14.069  16.703  1.00  0.00     0.157 A 
ATOM     16  C   UNL     1      19.485 -12.023  17.402  1.00  0.00     0.062 A 
ATOM     17  C   UNL     1      19.498 -13.216  16.668  1.00  0.00     0.158 A 
BRANCH  15  18
ATOM     18  O   UNL     1      18.389 -15.258  15.973  1.00  0.00    -0.504 OA
ATOM     19  H   UNL     1      17.971 -16.106  16.338  1.00  0.00     0.293 HD
ENDBRANCH  15  18
BRANCH  17  20
ATOM     20  O   UNL     1      20.626 -13.533  15.911  1.00  0.00    -0.504 OA
ATOM     21  H   UNL     1      21.025 -14.464  15.906  1.00  0.00     0.293 HD
ENDBRANCH  17  20
ENDBRANCH   1  12
BRANCH   2  22
ATOM     22  O   UNL     1      17.197  -9.184  17.219  1.00  0.00    -0.502 OA
ATOM     23  H   UNL     1      16.918 -10.022  16.724  1.00  0.00     0.293 HD
ENDBRANCH   2  22
BRANCH   6  24
ATOM     24  O   UNL     1      17.843  -5.833  21.309  1.00  0.00    -0.507 OA
ATOM     25  H   UNL     1      18.291  -4.944  21.149  1.00  0.00     0.293 HD
ENDBRANCH   6  24
BRANCH   8  26
ATOM     26  O   UNL     1      20.649  -8.503  24.148  1.00  0.00    -0.508 OA
ATOM     27  H   UNL     1      21.265  -7.765  24.470  1.00  0.00     0.293 HD
ENDBRANCH   8  26
TORSDOF 6
ENDMDL
MODEL 5
REMARK VINA RESULT:    -6.667      2.964      7.393
REMARK INTER + INTRA:          -8.255
REMARK INTER:                  -8.141
REMARK INTRA:                  -0.114
REMARK UNBOUND:                -0.225
REMARK SMILES O=c1c(O)c(-c2ccc(O)c(O)c2)oc2cc(O)cc(O)c12
REMARK SMILES IDX 5 1 3 2 2 3 1 4 22 5 20 6 19 7 17 8 16 9 15 10 14 11 6 12
REMARK SMILES IDX 7 13 8 14 9 15 13 16 11 17 10 18 12 20 4 22 21 24 18 26
REMARK H PARENT 10 19 12 21 4 23 21 25 18 27
REMARK Flexibility Score: inf
ROOT
ATOM      1  C   UNL     1      19.976  -7.072  20.543  1.00  0.00     0.180 A 
ATOM      2  C   UNL     1      20.082  -7.500  21.878  1.00  0.00     0.208 A 
ATOM      3  C   UNL     1      19.672  -8.800  22.211  1.00  0.00     0.238 A 
ATOM      4  O   UNL     1      19.820  -9.196  23.397  1.00  0.00    -0.285 OA
ATOM      5  C   UNL     1      19.147  -9.651  21.209  1.00  0.00     0.111 A 
ATOM      6  C   UNL     1      18.663 -10.974  21.442  1.00  0.00     0.134 A 
ATOM      7  C   UNL     1      18.286 -11.772  20.356  1.00  0.00     0.093 A 
ATOM      8  C   UNL     1      18.314 -11.274  19.051  1.00  0.00     0.123 A 
ATOM      9  C   UNL     1      18.727  -9.964  18.820  1.00  0.00     0.094 A 
ATOM     10  C   UNL     1      19.144  -9.155  19.880  1.00  0.00     0.146 A 
ATOM     11  O   UNL     1      19.541  -7.916  19.615  1.00  0.00    -0.452 OA
ENDROOT
BRANCH   1  12
ATOM     12  C   UNL     1      20.365  -5.708  20.119  1.00  0.00     0.025 A 
ATOM     13  C   UNL     1      21.410  -5.496  19.203  1.00  0.00     0.016 A 
ATOM     14  C   UNL     1      21.775  -4.199  18.836  1.00  0.00     0.051 A 
ATOM     15  C   UNL     1      21.114  -3.094  19.389  1.00  0.00     0.157 A 
ATOM     16  C   UNL     1      19.720  -4.597  20.687  1.00  0.00     0.062 A 
ATOM     17  C   UNL     1      20.083  -3.295  20.322  1.00  0.00     0.158 A 
BRANCH  15  18
ATOM     18  O   UNL     1      21.481  -1.800  19.019  1.00  0.00    -0.504 OA
ATOM     19  H   UNL     1      21.037  -1.324  18.243  1.00  0.00     0.293 HD
ENDBRANCH  15  18
BRANCH  17  20
ATOM     20  O   UNL     1      19.410  -2.218  20.895  1.00  0.00    -0.504 OA
ATOM     21  H   UNL     1      18.634  -1.760  20.432  1.00  0.00     0.293 HD
ENDBRANCH  17  20
ENDBRANCH   1  12
BRANCH   2  22
ATOM     22  O   UNL     1      20.625  -6.650  22.847  1.00  0.00    -0.502 OA
ATOM     23  H   UNL     1      20.055  -6.014  23.391  1.00  0.00     0.293 HD
ENDBRANCH   2  22
BRANCH   6  24
ATOM     24  O   UNL     1      18.509 -11.537  22.712  1.00  0.00    -0.507 OA
ATOM     25  H   UNL     1      18.357 -12.518  22.891  1.00  0.00     0.293 HD
ENDBRANCH   6  24
BRANCH   8  26
ATOM     26  O   UNL     1      17.922 -12.070  17.976  1.00  0.00    -0.508 OA
ATOM     27  H   UNL     1      18.535 -12.232  17.186  1.00  0.00     0.293 HD
ENDBRANCH   8  26
TORSDOF 6
ENDMDL
MODEL 6
REMARK VINA RESULT:    -6.607      2.181      7.105
REMARK INTER + INTRA:          -8.184
REMARK INTER:                  -7.863
REMARK INTRA:                  -0.321
REMARK UNBOUND:                -0.225
REMARK SMILES O=c1c(O)c(-c2ccc(O)c(O)c2)oc2cc(O)cc(O)c12
REMARK SMILES IDX 5 1 3 2 2 3 1 4 22 5 20 6 19 7 17 8 16 9 15 10 14 11 6 12
REMARK SMILES IDX 7 13 8 14 9 15 13 16 11 17 10 18 12 20 4 22 21 24 18 26
REMARK H PARENT 10 19 12 21 4 23 21 25 18 27
REMARK Flexibility Score: inf
ROOT
ATOM      1  C   UNL     1      19.250  -9.896  18.087  1.00  0.00     0.180 A 
ATOM      2  C   UNL     1      20.010  -9.424  17.002  1.00  0.00     0.208 A 
ATOM      3  C   UNL     1      20.198 -10.259  15.889  1.00  0.00     0.238 A 
ATOM      4  O   UNL     1      20.834  -9.811  14.899  1.00  0.00    -0.285 OA
ATOM      5  C   UNL     1      19.638 -11.559  15.880  1.00  0.00     0.111 A 
ATOM      6  C   UNL     1      19.800 -12.503  14.821  1.00  0.00     0.134 A 
ATOM      7  C   UNL     1      19.094 -13.711  14.861  1.00  0.00     0.093 A 
ATOM      8  C   UNL     1      18.283 -14.037  15.951  1.00  0.00     0.123 A 
ATOM      9  C   UNL     1      18.167 -13.147  17.016  1.00  0.00     0.094 A 
ATOM     10  C   UNL     1      18.830 -11.918  16.989  1.00  0.00     0.146 A 
ATOM     11  O   UNL     1      18.683 -11.095  18.020  1.00  0.00    -0.452 OA
ENDROOT
BRANCH   1  12
ATOM     12  C   UNL     1      19.027  -9.085  19.305  1.00  0.00     0.025 A 
ATOM     13  C   UNL     1      17.965  -8.167  19.390  1.00  0.00     0.016 A 
ATOM     14  C   UNL     1      17.789  -7.395  20.541  1.00  0.00     0.051 A 
ATOM     15  C   UNL     1      18.679  -7.516  21.617  1.00  0.00     0.157 A 
ATOM     16  C   UNL     1      19.928  -9.187  20.378  1.00  0.00     0.062 A 
ATOM     17  C   UNL     1      19.755  -8.415  21.533  1.00  0.00     0.158 A 
BRANCH  15  18
ATOM     18  O   UNL     1      18.499  -6.745  22.765  1.00  0.00    -0.504 OA
ATOM     19  H   UNL     1      18.022  -7.111  23.581  1.00  0.00     0.293 HD
ENDBRANCH  15  18
BRANCH  17  20
ATOM     20  O   UNL     1      20.661  -8.555  22.583  1.00  0.00    -0.504 OA
ATOM     21  H   UNL     1      20.568  -8.033  23.447  1.00  0.00     0.293 HD
ENDBRANCH  17  20
ENDBRANCH   1  12
BRANCH   2  22
ATOM     22  O   UNL     1      20.535  -8.129  17.023  1.00  0.00    -0.502 OA
ATOM     23  H   UNL     1      19.973  -7.320  17.259  1.00  0.00     0.293 HD
ENDBRANCH   2  22
BRANCH   6  24
ATOM     24  O   UNL     1      20.656 -12.316  13.732  1.00  0.00    -0.507 OA
ATOM     25  H   UNL     1      21.563 -12.747  13.634  1.00  0.00     0.293 HD
ENDBRANCH   6  24
BRANCH   8  26
ATOM     26  O   UNL     1      17.596 -15.249  15.989  1.00  0.00    -0.508 OA
ATOM     27  H   UNL     1      16.853 -15.457  15.334  1.00  0.00     0.293 HD
ENDBRANCH   8  26
TORSDOF 6
ENDMDL
MODEL 7
REMARK VINA RESULT:    -6.592      1.648      3.327
REMARK INTER + INTRA:          -8.165
REMARK INTER:                  -7.848
REMARK INTRA:                  -0.317
REMARK UNBOUND:                -0.225
REMARK SMILES O=c1c(O)c(-c2ccc(O)c(O)c2)oc2cc(O)cc(O)c12
REMARK SMILES IDX 5 1 3 2 2 3 1 4 22 5 20 6 19 7 17 8 16 9 15 10 14 11 6 12
REMARK SMILES IDX 7 13 8 14 9 15 13 16 11 17 10 18 12 20 4 22 21 24 18 26
REMARK H PARENT 10 19 12 21 4 23 21 25 18 27
REMARK Flexibility Score: inf
ROOT
ATOM      1  C   UNL     1      19.252 -10.949  19.132  1.00  0.00     0.180 A 
ATOM      2  C   UNL     1      19.982 -11.428  20.234  1.00  0.00     0.208 A 
ATOM      3  C   UNL     1      20.164 -10.589  21.346  1.00  0.00     0.238 A 
ATOM      4  O   UNL     1      20.772 -11.043  22.351  1.00  0.00    -0.285 OA
ATOM      5  C   UNL     1      19.627  -9.280  21.337  1.00  0.00     0.111 A 
ATOM      6  C   UNL     1      19.785  -8.332  22.393  1.00  0.00     0.134 A 
ATOM      7  C   UNL     1      19.101  -7.112  22.333  1.00  0.00     0.093 A 
ATOM      8  C   UNL     1      18.317  -6.779  21.226  1.00  0.00     0.123 A 
ATOM      9  C   UNL     1      18.205  -7.673  20.163  1.00  0.00     0.094 A 
ATOM     10  C   UNL     1      18.846  -8.913  20.210  1.00  0.00     0.146 A 
ATOM     11  O   UNL     1      18.705  -9.740  19.182  1.00  0.00    -0.452 OA
ENDROOT
BRANCH   1  12
ATOM     12  C   UNL     1      19.039 -11.763  17.915  1.00  0.00     0.025 A 
ATOM     13  C   UNL     1      17.983 -12.687  17.827  1.00  0.00     0.016 A 
ATOM     14  C   UNL     1      17.816 -13.462  16.677  1.00  0.00     0.051 A 
ATOM     15  C   UNL     1      18.708 -13.337  15.604  1.00  0.00     0.157 A 
ATOM     16  C   UNL     1      19.943 -11.657  16.845  1.00  0.00     0.062 A 
ATOM     17  C   UNL     1      19.779 -12.432  15.691  1.00  0.00     0.158 A 
BRANCH  15  18
ATOM     18  O   UNL     1      18.537 -14.112  14.457  1.00  0.00    -0.504 OA
ATOM     19  H   UNL     1      18.775 -13.758  13.537  1.00  0.00     0.293 HD
ENDBRANCH  15  18
BRANCH  17  20
ATOM     20  O   UNL     1      20.688 -12.289  14.643  1.00  0.00    -0.504 OA
ATOM     21  H   UNL     1      21.045 -11.384  14.362  1.00  0.00     0.293 HD
ENDBRANCH  17  20
ENDBRANCH   1  12
BRANCH   2  22
ATOM     22  O   UNL     1      20.485 -12.732  20.231  1.00  0.00    -0.502 OA
ATOM     23  H   UNL     1      21.394 -12.962  19.850  1.00  0.00     0.293 HD
ENDBRANCH   2  22
BRANCH   6  24
ATOM     24  O   UNL     1      20.616  -8.528  23.500  1.00  0.00    -0.507 OA
ATOM     25  H   UNL     1      20.298  -8.812  24.414  1.00  0.00     0.293 HD
ENDBRANCH   6  24
BRANCH   8  26
ATOM     26  O   UNL     1      17.652  -5.556  21.167  1.00  0.00    -0.508 OA
ATOM     27  H   UNL     1      17.943  -4.767  21.732  1.00  0.00     0.293 HD
ENDBRANCH   8  26
TORSDOF 6
ENDMDL
MODEL 8
REMARK VINA RESULT:    -6.496      2.598      3.358
REMARK INTER + INTRA:          -8.050
REMARK INTER:                  -7.939
REMARK INTRA:                  -0.110
REMARK UNBOUND:                -0.225
REMARK SMILES O=c1c(O)c(-c2ccc(O)c(O)c2)oc2cc(O)cc(O)c12
REMARK SMILES IDX 5 1 3 2 2 3 1 4 22 5 20 6 19 7 17 8 16 9 15 10 14 11 6 12
REMARK SMILES IDX 7 13 8 14 9 15 13 16 11 17 10 18 12 20 4 22 21 24 18 26
REMARK H PARENT 10 19 12 21 4 23 21 25 18 27
REMARK Flexibility Score: inf
ROOT
ATOM      1  C   UNL     1      19.952 -10.160  19.210  1.00  0.00     0.180 A 
ATOM      2  C   UNL     1      19.553 -10.852  20.367  1.00  0.00     0.208 A 
ATOM      3  C   UNL     1      19.485 -10.158  21.586  1.00  0.00     0.238 A 
ATOM      4  O   UNL     1      19.076 -10.770  22.607  1.00  0.00    -0.285 OA
ATOM      5  C   UNL     1      19.831  -8.786  21.636  1.00  0.00     0.111 A 
ATOM      6  C   UNL     1      19.836  -7.996  22.825  1.00  0.00     0.134 A 
ATOM      7  C   UNL     1      20.070  -6.618  22.736  1.00  0.00     0.093 A 
ATOM      8  C   UNL     1      20.361  -6.014  21.510  1.00  0.00     0.123 A 
ATOM      9  C   UNL     1      20.417  -6.788  20.353  1.00  0.00     0.094 A 
ATOM     10  C   UNL     1      20.153  -8.159  20.405  1.00  0.00     0.146 A 
ATOM     11  O   UNL     1      20.206  -8.858  19.278  1.00  0.00    -0.452 OA
ENDROOT
BRANCH   1  12
ATOM     12  C   UNL     1      20.072 -10.827  17.894  1.00  0.00     0.025 A 
ATOM     13  C   UNL     1      20.906 -11.944  17.713  1.00  0.00     0.016 A 
ATOM     14  C   UNL     1      21.022 -12.544  16.457  1.00  0.00     0.051 A 
ATOM     15  C   UNL     1      20.319 -12.029  15.360  1.00  0.00     0.157 A 
ATOM     16  C   UNL     1      19.385 -10.303  16.787  1.00  0.00     0.062 A 
ATOM     17  C   UNL     1      19.499 -10.901  15.526  1.00  0.00     0.158 A 
BRANCH  15  18
ATOM     18  O   UNL     1      20.436 -12.631  14.107  1.00  0.00    -0.504 OA
ATOM     19  H   UNL     1      21.053 -13.420  13.953  1.00  0.00     0.293 HD
ENDBRANCH  15  18
BRANCH  17  20
ATOM     20  O   UNL     1      18.791 -10.360  14.454  1.00  0.00    -0.504 OA
ATOM     21  H   UNL     1      18.346 -10.942  13.755  1.00  0.00     0.293 HD
ENDBRANCH  17  20
ENDBRANCH   1  12
BRANCH   2  22
ATOM     22  O   UNL     1      19.195 -12.201  20.290  1.00  0.00    -0.502 OA
ATOM     23  H   UNL     1      18.639 -12.572  19.529  1.00  0.00     0.293 HD
ENDBRANCH   2  22
BRANCH   6  24
ATOM     24  O   UNL     1      19.648  -8.515  24.109  1.00  0.00    -0.507 OA
ATOM     25  H   UNL     1      20.329  -8.472  24.851  1.00  0.00     0.293 HD
ENDBRANCH   6  24
BRANCH   8  26
ATOM     26  O   UNL     1      20.607  -4.645  21.433  1.00  0.00    -0.508 OA
ATOM     27  H   UNL     1      21.546  -4.270  21.505  1.00  0.00     0.293 HD
ENDBRANCH   8  26
TORSDOF 6
ENDMDL
MODEL 9
REMARK VINA RESULT:    -6.466      2.563      7.063
REMARK INTER + INTRA:          -8.013
REMARK INTER:                  -7.907
REMARK INTRA:                  -0.106
REMARK UNBOUND:                -0.225
REMARK SMILES O=c1c(O)c(-c2ccc(O)c(O)c2)oc2cc(O)cc(O)c12
REMARK SMILES IDX 5 1 3 2 2 3 1 4 22 5 20 6 19 7 17 8 16 9 15 10 14 11 6 12
REMARK SMILES IDX 7 13 8 14 9 15 13 16 11 17 10 18 12 20 4 22 21 24 18 26
REMARK H PARENT 10 19 12 21 4 23 21 25 18 27
REMARK Flexibility Score: inf
ROOT
ATOM      1  C   UNL     1      19.957 -10.943  18.009  1.00  0.00     0.180 A 
ATOM      2  C   UNL     1      19.571 -10.245  16.851  1.00  0.00     0.208 A 
ATOM      3  C   UNL     1      19.501 -10.938  15.631  1.00  0.00     0.238 A 
ATOM      4  O   UNL     1      19.103 -10.321  14.609  1.00  0.00    -0.285 OA
ATOM      5  C   UNL     1      19.832 -12.313  15.581  1.00  0.00     0.111 A 
ATOM      6  C   UNL     1      19.835 -13.102  14.392  1.00  0.00     0.134 A 
ATOM      7  C   UNL     1      20.053 -14.482  14.481  1.00  0.00     0.093 A 
ATOM      8  C   UNL     1      20.332 -15.091  15.707  1.00  0.00     0.123 A 
ATOM      9  C   UNL     1      20.391 -14.318  16.865  1.00  0.00     0.094 A 
ATOM     10  C   UNL     1      20.142 -12.945  16.813  1.00  0.00     0.146 A 
ATOM     11  O   UNL     1      20.198 -12.247  17.941  1.00  0.00    -0.452 OA
ENDROOT
BRANCH   1  12
ATOM     12  C   UNL     1      20.078 -10.278  19.326  1.00  0.00     0.025 A 
ATOM     13  C   UNL     1      20.920  -9.167  19.511  1.00  0.00     0.016 A 
ATOM     14  C   UNL     1      21.037  -8.570  20.768  1.00  0.00     0.051 A 
ATOM     15  C   UNL     1      20.326  -9.081  21.862  1.00  0.00     0.157 A 
ATOM     16  C   UNL     1      19.384 -10.799  20.430  1.00  0.00     0.062 A 
ATOM     17  C   UNL     1      19.498 -10.203  21.692  1.00  0.00     0.158 A 
BRANCH  15  18
ATOM     18  O   UNL     1      20.444  -8.482  23.116  1.00  0.00    -0.504 OA
ATOM     19  H   UNL     1      21.264  -8.621  23.695  1.00  0.00     0.293 HD
ENDBRANCH  15  18
BRANCH  17  20
ATOM     20  O   UNL     1      18.783 -10.740  22.762  1.00  0.00    -0.504 OA
ATOM     21  H   UNL     1      17.782 -10.616  22.856  1.00  0.00     0.293 HD
ENDBRANCH  17  20
ENDBRANCH   1  12
BRANCH   2  22
ATOM     22  O   UNL     1      19.227  -8.893  16.928  1.00  0.00    -0.502 OA
ATOM     23  H   UNL     1      18.664  -8.435  16.221  1.00  0.00     0.293 HD
ENDBRANCH   2  22
BRANCH   6  24
ATOM     24  O   UNL     1      19.658 -12.580  13.107  1.00  0.00    -0.507 OA
ATOM     25  H   UNL     1      19.249 -11.681  12.905  1.00  0.00     0.293 HD
ENDBRANCH   6  24
BRANCH   8  26
ATOM     26  O   UNL     1      20.564 -16.463  15.784  1.00  0.00    -0.508 OA
ATOM     27  H   UNL     1      21.311 -16.904  15.261  1.00  0.00     0.293 HD
ENDBRANCH   8  26
TORSDOF 6
ENDMDL
