MODEL 1
REMARK VINA RESULT:    -4.350      0.000      0.000
REMARK INTER + INTRA:         -14.240
REMARK INTER:                  -9.945
REMARK INTRA:                  -4.294
REMARK UNBOUND:                -4.294
REMARK SMILES CCCCCCCCCCCCCCCCCCCCCCCC(=O)[O-]
REMARK SMILES IDX 13 1 14 2 15 3 16 4 17 5 18 6 19 7 20 8 21 9 22 10 23 11
REMARK SMILES IDX 24 12 25 13 26 14 12 15 11 16 10 17 9 18 8 19 7 20 6 21 5 22
REMARK SMILES IDX 4 23 3 24 2 25 1 26
REMARK H PARENT
REMARK Flexibility Score: inf
ROOT
ATOM      1  C   UNL     1      42.475  63.455  11.801  1.00  0.00     0.000 C 
ENDROOT
BRANCH   1   2
ATOM      2  C   UNL     1      41.490  63.621  12.977  1.00  0.00     0.000 C 
BRANCH   2   3
ATOM      3  C   UNL     1      40.262  62.692  12.935  1.00  0.00     0.000 C 
BRANCH   3   4
ATOM      4  C   UNL     1      39.279  62.968  11.782  1.00  0.00     0.000 C 
BRANCH   4   5
ATOM      5  C   UNL     1      39.454  62.067  10.542  1.00  0.00     0.000 C 
BRANCH   5   6
ATOM      6  C   UNL     1      39.496  62.806   9.193  1.00  0.00     0.000 C 
BRANCH   6   7
ATOM      7  C   UNL     1      39.819  64.304   9.337  1.00  0.00     0.000 C 
BRANCH   7   8
ATOM      8  C   UNL     1      40.759  64.804   8.227  1.00  0.00     0.000 C 
BRANCH   8   9
ATOM      9  C   UNL     1      41.930  65.630   8.774  1.00  0.00     0.000 C 
BRANCH   9  10
ATOM     10  C   UNL     1      42.369  66.691   7.758  1.00  0.00     0.006 C 
BRANCH  10  11
ATOM     11  C   UNL     1      43.538  66.191   6.905  1.00  0.00     0.053 C 
BRANCH  11  12
ATOM     12  C   UNL     1      43.148  66.147   5.461  1.00  0.00     0.041 C 
ATOM     13  O   UNL     1      42.821  67.205   4.862  1.00  0.00    -0.550 OA
ATOM     14  O   UNL     1      43.094  64.930   4.791  1.00  0.00    -0.550 OA
ENDBRANCH  11  12
ENDBRANCH  10  11
ENDBRANCH   9  10
ENDBRANCH   8   9
ENDBRANCH   7   8
ENDBRANCH   6   7
ENDBRANCH   5   6
ENDBRANCH   4   5
ENDBRANCH   3   4
ENDBRANCH   2   3
ENDBRANCH   1   2
BRANCH   1  15
ATOM     15  C   UNL     1      43.949  63.751  12.133  1.00  0.00     0.000 C 
BRANCH  15  16
ATOM     16  C   UNL     1      44.865  62.514  12.202  1.00  0.00     0.000 C 
BRANCH  16  17
ATOM     17  C   UNL     1      44.676  61.664  13.478  1.00  0.00     0.000 C 
BRANCH  17  18
ATOM     18  C   UNL     1      44.282  60.209  13.165  1.00  0.00    -0.000 C 
BRANCH  18  19
ATOM     19  C   UNL     1      42.763  60.044  12.966  1.00  0.00    -0.000 C 
BRANCH  19  20
ATOM     20  C   UNL     1      42.385  59.260  11.696  1.00  0.00    -0.000 C 
BRANCH  20  21
ATOM     21  C   UNL     1      42.654  60.065  10.411  1.00  0.00    -0.000 C 
BRANCH  21  22
ATOM     22  C   UNL     1      44.015  59.736   9.779  1.00  0.00    -0.000 C 
BRANCH  22  23
ATOM     23  C   UNL     1      44.328  60.607   8.553  1.00  0.00    -0.000 C 
BRANCH  23  24
ATOM     24  C   UNL     1      43.583  61.947   8.628  1.00  0.00    -0.000 C 
BRANCH  24  25
ATOM     25  C   UNL     1      43.127  62.448   7.248  1.00  0.00    -0.003 C 
ATOM     26  C   UNL     1      41.958  61.642   6.683  1.00  0.00     0.004 C 
ENDBRANCH  24  25
ENDBRANCH  23  24
ENDBRANCH  22  23
ENDBRANCH  21  22
ENDBRANCH  20  21
ENDBRANCH  19  20
ENDBRANCH  18  19
ENDBRANCH  17  18
ENDBRANCH  16  17
ENDBRANCH  15  16
ENDBRANCH   1  15
TORSDOF 22
ENDMDL
MODEL 2
REMARK VINA RESULT:    -4.313      1.940      4.905
REMARK INTER + INTRA:         -14.155
REMARK INTER:                 -10.652
REMARK INTRA:                  -3.503
REMARK UNBOUND:                -4.294
REMARK SMILES CCCCCCCCCCCCCCCCCCCCCCCC(=O)[O-]
REMARK SMILES IDX 13 1 14 2 15 3 16 4 17 5 18 6 19 7 20 8 21 9 22 10 23 11
REMARK SMILES IDX 24 12 25 13 26 14 12 15 11 16 10 17 9 18 8 19 7 20 6 21 5 22
REMARK SMILES IDX 4 23 3 24 2 25 1 26
REMARK H PARENT
REMARK Flexibility Score: inf
ROOT
ATOM      1  C   UNL     1      42.628  62.896   8.113  1.00  0.00     0.000 C 
ENDROOT
BRANCH   1   2
ATOM      2  C   UNL     1      43.218  63.092   6.701  1.00  0.00     0.000 C 
BRANCH   2   3
ATOM      3  C   UNL     1      42.193  63.049   5.552  1.00  0.00     0.000 C 
BRANCH   3   4
ATOM      4  C   UNL     1      42.424  64.087   4.437  1.00  0.00     0.000 C 
BRANCH   4   5
ATOM      5  C   UNL     1      43.571  65.084   4.698  1.00  0.00     0.000 C 
BRANCH   5   6
ATOM      6  C   UNL     1      43.132  66.485   5.157  1.00  0.00     0.000 C 
BRANCH   6   7
ATOM      7  C   UNL     1      43.330  66.714   6.667  1.00  0.00     0.000 C 
BRANCH   7   8
ATOM      8  C   UNL     1      42.008  66.625   7.446  1.00  0.00     0.000 C 
BRANCH   8   9
ATOM      9  C   UNL     1      40.778  66.739   6.534  1.00  0.00     0.000 C 
BRANCH   9  10
ATOM     10  C   UNL     1      40.089  68.096   6.718  1.00  0.00     0.006 C 
BRANCH  10  11
ATOM     11  C   UNL     1      40.398  69.037   5.549  1.00  0.00     0.053 C 
BRANCH  11  12
ATOM     12  C   UNL     1      41.228  70.192   6.014  1.00  0.00     0.041 C 
ATOM     13  O   UNL     1      41.772  70.162   7.149  1.00  0.00    -0.550 OA
ATOM     14  O   UNL     1      41.354  71.324   5.218  1.00  0.00    -0.550 OA
ENDBRANCH  11  12
ENDBRANCH  10  11
ENDBRANCH   9  10
ENDBRANCH   8   9
ENDBRANCH   7   8
ENDBRANCH   6   7
ENDBRANCH   5   6
ENDBRANCH   4   5
ENDBRANCH   3   4
ENDBRANCH   2   3
ENDBRANCH   1   2
BRANCH   1  15
ATOM     15  C   UNL     1      42.798  61.484   8.704  1.00  0.00     0.000 C 
BRANCH  15  16
ATOM     16  C   UNL     1      44.257  61.032   8.906  1.00  0.00     0.000 C 
BRANCH  16  17
ATOM     17  C   UNL     1      44.479  60.177  10.174  1.00  0.00     0.000 C 
BRANCH  17  18
ATOM     18  C   UNL     1      43.161  59.658  10.775  1.00  0.00    -0.000 C 
BRANCH  18  19
ATOM     19  C   UNL     1      43.095  59.858  12.302  1.00  0.00    -0.000 C 
BRANCH  19  20
ATOM     20  C   UNL     1      44.416  60.349  12.922  1.00  0.00    -0.000 C 
BRANCH  20  21
ATOM     21  C   UNL     1      44.284  61.755  13.536  1.00  0.00    -0.000 C 
BRANCH  21  22
ATOM     22  C   UNL     1      44.797  62.862  12.602  1.00  0.00    -0.000 C 
BRANCH  22  23
ATOM     23  C   UNL     1      43.662  63.635  11.915  1.00  0.00    -0.000 C 
BRANCH  23  24
ATOM     24  C   UNL     1      42.328  63.411  12.642  1.00  0.00    -0.000 C 
BRANCH  24  25
ATOM     25  C   UNL     1      41.188  63.034  11.684  1.00  0.00    -0.003 C 
ATOM     26  C   UNL     1      39.848  62.860  12.399  1.00  0.00     0.004 C 
ENDBRANCH  24  25
ENDBRANCH  23  24
ENDBRANCH  22  23
ENDBRANCH  21  22
ENDBRANCH  20  21
ENDBRANCH  19  20
ENDBRANCH  18  19
ENDBRANCH  17  18
ENDBRANCH  16  17
ENDBRANCH  15  16
ENDBRANCH   1  15
TORSDOF 22
ENDMDL
MODEL 3
REMARK VINA RESULT:    -4.312      1.580      4.006
REMARK INTER + INTRA:         -14.153
REMARK INTER:                  -9.725
REMARK INTRA:                  -4.428
REMARK UNBOUND:                -4.294
REMARK SMILES CCCCCCCCCCCCCCCCCCCCCCCC(=O)[O-]
REMARK SMILES IDX 13 1 14 2 15 3 16 4 17 5 18 6 19 7 20 8 21 9 22 10 23 11
REMARK SMILES IDX 24 12 25 13 26 14 12 15 11 16 10 17 9 18 8 19 7 20 6 21 5 22
REMARK SMILES IDX 4 23 3 24 2 25 1 26
REMARK H PARENT
REMARK Flexibility Score: inf
ROOT
ATOM      1  C   UNL     1      43.125  62.586   7.547  1.00  0.00     0.000 C 
ENDROOT
BRANCH   1   2
ATOM      2  C   UNL     1      42.392  62.738   6.198  1.00  0.00     0.000 C 
BRANCH   2   3
ATOM      3  C   UNL     1      40.869  62.947   6.302  1.00  0.00     0.000 C 
BRANCH   3   4
ATOM      4  C   UNL     1      40.377  63.458   7.669  1.00  0.00     0.000 C 
BRANCH   4   5
ATOM      5  C   UNL     1      39.987  64.950   7.709  1.00  0.00     0.000 C 
BRANCH   5   6
ATOM      6  C   UNL     1      40.860  65.833   8.618  1.00  0.00     0.000 C 
BRANCH   6   7
ATOM      7  C   UNL     1      41.760  66.802   7.831  1.00  0.00     0.000 C 
BRANCH   7   8
ATOM      8  C   UNL     1      43.223  66.331   7.790  1.00  0.00     0.000 C 
BRANCH   8   9
ATOM      9  C   UNL     1      43.726  66.097   6.359  1.00  0.00     0.000 C 
BRANCH   9  10
ATOM     10  C   UNL     1      42.599  66.317   5.343  1.00  0.00     0.006 C 
BRANCH  10  11
ATOM     11  C   UNL     1      43.073  67.175   4.167  1.00  0.00     0.053 C 
BRANCH  11  12
ATOM     12  C   UNL     1      42.187  68.370   4.002  1.00  0.00     0.041 C 
ATOM     13  O   UNL     1      41.295  68.617   4.855  1.00  0.00    -0.550 OA
ATOM     14  O   UNL     1      42.309  69.178   2.878  1.00  0.00    -0.550 OA
ENDBRANCH  11  12
ENDBRANCH  10  11
ENDBRANCH   9  10
ENDBRANCH   8   9
ENDBRANCH   7   8
ENDBRANCH   6   7
ENDBRANCH   5   6
ENDBRANCH   4   5
ENDBRANCH   3   4
ENDBRANCH   2   3
ENDBRANCH   1   2
BRANCH   1  15
ATOM     15  C   UNL     1      43.300  61.138   8.039  1.00  0.00     0.000 C 
BRANCH  15  16
ATOM     16  C   UNL     1      44.601  60.865   8.817  1.00  0.00     0.000 C 
BRANCH  16  17
ATOM     17  C   UNL     1      44.398  60.052  10.115  1.00  0.00     0.000 C 
BRANCH  17  18
ATOM     18  C   UNL     1      45.278  60.556  11.272  1.00  0.00    -0.000 C 
BRANCH  18  19
ATOM     19  C   UNL     1      44.588  60.407  12.642  1.00  0.00    -0.000 C 
BRANCH  19  20
ATOM     20  C   UNL     1      44.380  61.741  13.382  1.00  0.00    -0.000 C 
BRANCH  20  21
ATOM     21  C   UNL     1      44.716  62.956  12.499  1.00  0.00    -0.000 C 
BRANCH  21  22
ATOM     22  C   UNL     1      43.493  63.845  12.224  1.00  0.00    -0.000 C 
BRANCH  22  23
ATOM     23  C   UNL     1      42.780  63.489  10.912  1.00  0.00    -0.000 C 
BRANCH  23  24
ATOM     24  C   UNL     1      41.336  63.039  11.177  1.00  0.00    -0.000 C 
BRANCH  24  25
ATOM     25  C   UNL     1      41.222  61.526  11.418  1.00  0.00    -0.003 C 
ATOM     26  C   UNL     1      40.515  60.797  10.275  1.00  0.00     0.004 C 
ENDBRANCH  24  25
ENDBRANCH  23  24
ENDBRANCH  22  23
ENDBRANCH  21  22
ENDBRANCH  20  21
ENDBRANCH  19  20
ENDBRANCH  18  19
ENDBRANCH  17  18
ENDBRANCH  16  17
ENDBRANCH  15  16
ENDBRANCH   1  15
TORSDOF 22
ENDMDL
MODEL 4
REMARK VINA RESULT:    -4.309      2.586      6.440
REMARK INTER + INTRA:         -14.146
REMARK INTER:                  -9.970
REMARK INTRA:                  -4.176
REMARK UNBOUND:                -4.294
REMARK SMILES CCCCCCCCCCCCCCCCCCCCCCCC(=O)[O-]
REMARK SMILES IDX 13 1 14 2 15 3 16 4 17 5 18 6 19 7 20 8 21 9 22 10 23 11
REMARK SMILES IDX 24 12 25 13 26 14 12 15 11 16 10 17 9 18 8 19 7 20 6 21 5 22
REMARK SMILES IDX 4 23 3 24 2 25 1 26
REMARK H PARENT
REMARK Flexibility Score: inf
ROOT
ATOM      1  C   UNL     1      43.728  61.927   8.028  1.00  0.00     0.000 C 
ENDROOT
BRANCH   1   2
ATOM      2  C   UNL     1      44.630  60.770   8.505  1.00  0.00     0.000 C 
BRANCH   2   3
ATOM      3  C   UNL     1      44.307  60.227   9.910  1.00  0.00     0.000 C 
BRANCH   3   4
ATOM      4  C   UNL     1      45.200  60.775  11.038  1.00  0.00     0.000 C 
BRANCH   4   5
ATOM      5  C   UNL     1      44.607  60.662  12.457  1.00  0.00     0.000 C 
BRANCH   5   6
ATOM      6  C   UNL     1      44.393  61.999  13.188  1.00  0.00     0.000 C 
BRANCH   6   7
ATOM      7  C   UNL     1      44.523  63.220  12.261  1.00  0.00     0.000 C 
BRANCH   7   8
ATOM      8  C   UNL     1      43.155  63.751  11.804  1.00  0.00     0.000 C 
BRANCH   8   9
ATOM      9  C   UNL     1      42.030  63.405  12.788  1.00  0.00     0.000 C 
BRANCH   9  10
ATOM     10  C   UNL     1      40.797  62.879  12.043  1.00  0.00     0.006 C 
BRANCH  10  11
ATOM     11  C   UNL     1      41.194  62.185  10.737  1.00  0.00     0.053 C 
BRANCH  11  12
ATOM     12  C   UNL     1      40.825  60.735  10.784  1.00  0.00     0.041 C 
ATOM     13  O   UNL     1      40.049  60.252   9.918  1.00  0.00    -0.550 OA
ATOM     14  O   UNL     1      41.294  59.931  11.816  1.00  0.00    -0.550 OA
ENDBRANCH  11  12
ENDBRANCH  10  11
ENDBRANCH   9  10
ENDBRANCH   8   9
ENDBRANCH   7   8
ENDBRANCH   6   7
ENDBRANCH   5   6
ENDBRANCH   4   5
ENDBRANCH   3   4
ENDBRANCH   2   3
ENDBRANCH   1   2
BRANCH   1  15
ATOM     15  C   UNL     1      42.401  61.498   7.376  1.00  0.00     0.000 C 
BRANCH  15  16
ATOM     16  C   UNL     1      41.929  62.384   6.208  1.00  0.00     0.000 C 
BRANCH  16  17
ATOM     17  C   UNL     1      40.446  62.807   6.298  1.00  0.00     0.000 C 
BRANCH  17  18
ATOM     18  C   UNL     1      40.276  64.298   6.638  1.00  0.00    -0.000 C 
BRANCH  18  19
ATOM     19  C   UNL     1      40.318  64.562   8.155  1.00  0.00    -0.000 C 
BRANCH  19  20
ATOM     20  C   UNL     1      41.086  65.839   8.542  1.00  0.00    -0.000 C 
BRANCH  20  21
ATOM     21  C   UNL     1      42.607  65.609   8.604  1.00  0.00    -0.000 C 
BRANCH  21  22
ATOM     22  C   UNL     1      43.369  66.385   7.518  1.00  0.00    -0.000 C 
BRANCH  22  23
ATOM     23  C   UNL     1      43.691  65.526   6.287  1.00  0.00    -0.000 C 
BRANCH  23  24
ATOM     24  C   UNL     1      43.107  66.153   5.013  1.00  0.00    -0.000 C 
BRANCH  24  25
ATOM     25  C   UNL     1      43.419  65.332   3.752  1.00  0.00    -0.003 C 
ATOM     26  C   UNL     1      42.204  64.566   3.230  1.00  0.00     0.004 C 
ENDBRANCH  24  25
ENDBRANCH  23  24
ENDBRANCH  22  23
ENDBRANCH  21  22
ENDBRANCH  20  21
ENDBRANCH  19  20
ENDBRANCH  18  19
ENDBRANCH  17  18
ENDBRANCH  16  17
ENDBRANCH  15  16
ENDBRANCH   1  15
TORSDOF 22
ENDMDL
MODEL 5
REMARK VINA RESULT:    -4.289      1.722      4.549
REMARK INTER + INTRA:         -14.100
REMARK INTER:                 -10.288
REMARK INTRA:                  -3.812
REMARK UNBOUND:                -4.294
REMARK SMILES CCCCCCCCCCCCCCCCCCCCCCCC(=O)[O-]
REMARK SMILES IDX 13 1 14 2 15 3 16 4 17 5 18 6 19 7 20 8 21 9 22 10 23 11
REMARK SMILES IDX 24 12 25 13 26 14 12 15 11 16 10 17 9 18 8 19 7 20 6 21 5 22
REMARK SMILES IDX 4 23 3 24 2 25 1 26
REMARK H PARENT
REMARK Flexibility Score: inf
ROOT
ATOM      1  C   UNL     1      44.017  61.121   8.760  1.00  0.00     0.000 C 
ENDROOT
BRANCH   1   2
ATOM      2  C   UNL     1      42.614  61.036   8.125  1.00  0.00     0.000 C 
BRANCH   2   3
ATOM      3  C   UNL     1      42.329  62.082   7.030  1.00  0.00     0.000 C 
BRANCH   3   4
ATOM      4  C   UNL     1      43.438  63.134   6.833  1.00  0.00     0.000 C 
BRANCH   4   5
ATOM      5  C   UNL     1      42.975  64.601   6.937  1.00  0.00     0.000 C 
BRANCH   5   6
ATOM      6  C   UNL     1      43.390  65.506   5.764  1.00  0.00     0.000 C 
BRANCH   6   7
ATOM      7  C   UNL     1      42.602  65.218   4.473  1.00  0.00     0.000 C 
BRANCH   7   8
ATOM      8  C   UNL     1      43.067  66.098   3.301  1.00  0.00     0.000 C 
BRANCH   8   9
ATOM      9  C   UNL     1      43.284  67.560   3.712  1.00  0.00     0.000 C 
BRANCH   9  10
ATOM     10  C   UNL     1      41.982  68.361   3.581  1.00  0.00     0.006 C 
BRANCH  10  11
ATOM     11  C   UNL     1      41.745  69.239   4.813  1.00  0.00     0.053 C 
BRANCH  11  12
ATOM     12  C   UNL     1      41.119  68.437   5.911  1.00  0.00     0.041 C 
ATOM     13  O   UNL     1      41.725  68.280   7.003  1.00  0.00    -0.550 OA
ATOM     14  O   UNL     1      39.891  67.819   5.709  1.00  0.00    -0.550 OA
ENDBRANCH  11  12
ENDBRANCH  10  11
ENDBRANCH   9  10
ENDBRANCH   8   9
ENDBRANCH   7   8
ENDBRANCH   6   7
ENDBRANCH   5   6
ENDBRANCH   4   5
ENDBRANCH   3   4
ENDBRANCH   2   3
ENDBRANCH   1   2
BRANCH   1  15
ATOM     15  C   UNL     1      44.167  60.408  10.117  1.00  0.00     0.000 C 
BRANCH  15  16
ATOM     16  C   UNL     1      42.924  59.627  10.585  1.00  0.00     0.000 C 
BRANCH  16  17
ATOM     17  C   UNL     1      42.628  59.764  12.095  1.00  0.00     0.000 C 
BRANCH  17  18
ATOM     18  C   UNL     1      43.898  60.017  12.925  1.00  0.00    -0.000 C 
BRANCH  18  19
ATOM     19  C   UNL     1      43.806  61.311  13.757  1.00  0.00    -0.000 C 
BRANCH  19  20
ATOM     20  C   UNL     1      44.954  62.303  13.493  1.00  0.00    -0.000 C 
BRANCH  20  21
ATOM     21  C   UNL     1      44.638  63.264  12.332  1.00  0.00    -0.000 C 
BRANCH  21  22
ATOM     22  C   UNL     1      43.133  63.527  12.172  1.00  0.00    -0.000 C 
BRANCH  22  23
ATOM     23  C   UNL     1      42.788  64.230  10.851  1.00  0.00    -0.000 C 
BRANCH  23  24
ATOM     24  C   UNL     1      41.451  63.721  10.292  1.00  0.00    -0.000 C 
BRANCH  24  25
ATOM     25  C   UNL     1      40.708  62.805  11.277  1.00  0.00    -0.003 C 
ATOM     26  C   UNL     1      39.847  61.756  10.574  1.00  0.00     0.004 C 
ENDBRANCH  24  25
ENDBRANCH  23  24
ENDBRANCH  22  23
ENDBRANCH  21  22
ENDBRANCH  20  21
ENDBRANCH  19  20
ENDBRANCH  18  19
ENDBRANCH  17  18
ENDBRANCH  16  17
ENDBRANCH  15  16
ENDBRANCH   1  15
TORSDOF 22
ENDMDL
MODEL 6
REMARK VINA RESULT:    -4.286      3.104      6.170
REMARK INTER + INTRA:         -14.092
REMARK INTER:                  -9.952
REMARK INTRA:                  -4.141
REMARK UNBOUND:                -4.294
REMARK SMILES CCCCCCCCCCCCCCCCCCCCCCCC(=O)[O-]
REMARK SMILES IDX 13 1 14 2 15 3 16 4 17 5 18 6 19 7 20 8 21 9 22 10 23 11
REMARK SMILES IDX 24 12 25 13 26 14 12 15 11 16 10 17 9 18 8 19 7 20 6 21 5 22
REMARK SMILES IDX 4 23 3 24 2 25 1 26
REMARK H PARENT
REMARK Flexibility Score: inf
ROOT
ATOM      1  C   UNL     1      44.229  59.918   9.758  1.00  0.00     0.000 C 
ENDROOT
BRANCH   1   2
ATOM      2  C   UNL     1      42.845  59.239   9.826  1.00  0.00     0.000 C 
BRANCH   2   3
ATOM      3  C   UNL     1      42.132  59.347  11.186  1.00  0.00     0.000 C 
BRANCH   3   4
ATOM      4  C   UNL     1      40.672  59.834  11.116  1.00  0.00     0.000 C 
BRANCH   4   5
ATOM      5  C   UNL     1      40.496  61.340  10.834  1.00  0.00     0.000 C 
BRANCH   5   6
ATOM      6  C   UNL     1      40.077  62.191  12.046  1.00  0.00     0.000 C 
BRANCH   6   7
ATOM      7  C   UNL     1      41.056  63.341  12.343  1.00  0.00     0.000 C 
BRANCH   7   8
ATOM      8  C   UNL     1      42.225  63.380  11.345  1.00  0.00     0.000 C 
BRANCH   8   9
ATOM      9  C   UNL     1      43.530  63.872  11.986  1.00  0.00     0.000 C 
BRANCH   9  10
ATOM     10  C   UNL     1      44.602  62.777  11.945  1.00  0.00     0.006 C 
BRANCH  10  11
ATOM     11  C   UNL     1      44.943  62.282  13.353  1.00  0.00     0.053 C 
BRANCH  11  12
ATOM     12  C   UNL     1      44.160  61.049  13.677  1.00  0.00     0.041 C 
ATOM     13  O   UNL     1      44.645  59.912  13.440  1.00  0.00    -0.550 OA
ATOM     14  O   UNL     1      42.872  61.156  14.188  1.00  0.00    -0.550 OA
ENDBRANCH  11  12
ENDBRANCH  10  11
ENDBRANCH   9  10
ENDBRANCH   8   9
ENDBRANCH   7   8
ENDBRANCH   6   7
ENDBRANCH   5   6
ENDBRANCH   4   5
ENDBRANCH   3   4
ENDBRANCH   2   3
ENDBRANCH   1   2
BRANCH   1  15
ATOM     15  C   UNL     1      44.422  60.898   8.585  1.00  0.00     0.000 C 
BRANCH  15  16
ATOM     16  C   UNL     1      43.254  61.874   8.350  1.00  0.00     0.000 C 
BRANCH  16  17
ATOM     17  C   UNL     1      43.160  62.404   6.902  1.00  0.00     0.000 C 
BRANCH  17  18
ATOM     18  C   UNL     1      41.780  63.003   6.580  1.00  0.00    -0.000 C 
BRANCH  18  19
ATOM     19  C   UNL     1      41.007  63.408   7.850  1.00  0.00    -0.000 C 
BRANCH  19  20
ATOM     20  C   UNL     1      40.357  64.801   7.764  1.00  0.00    -0.000 C 
BRANCH  20  21
ATOM     21  C   UNL     1      41.091  65.841   8.629  1.00  0.00    -0.000 C 
BRANCH  21  22
ATOM     22  C   UNL     1      42.619  65.696   8.563  1.00  0.00    -0.000 C 
BRANCH  22  23
ATOM     23  C   UNL     1      43.272  66.702   7.603  1.00  0.00    -0.000 C 
BRANCH  23  24
ATOM     24  C   UNL     1      43.535  66.061   6.233  1.00  0.00    -0.000 C 
BRANCH  24  25
ATOM     25  C   UNL     1      42.971  66.895   5.072  1.00  0.00    -0.003 C 
ATOM     26  C   UNL     1      41.589  67.472   5.375  1.00  0.00     0.004 C 
ENDBRANCH  24  25
ENDBRANCH  23  24
ENDBRANCH  22  23
ENDBRANCH  21  22
ENDBRANCH  20  21
ENDBRANCH  19  20
ENDBRANCH  18  19
ENDBRANCH  17  18
ENDBRANCH  16  17
ENDBRANCH  15  16
ENDBRANCH   1  15
TORSDOF 22
ENDMDL
MODEL 7
REMARK VINA RESULT:    -4.269      1.409      3.909
REMARK INTER + INTRA:         -14.053
REMARK INTER:                  -9.138
REMARK INTRA:                  -4.915
REMARK UNBOUND:                -4.294
REMARK SMILES CCCCCCCCCCCCCCCCCCCCCCCC(=O)[O-]
REMARK SMILES IDX 13 1 14 2 15 3 16 4 17 5 18 6 19 7 20 8 21 9 22 10 23 11
REMARK SMILES IDX 24 12 25 13 26 14 12 15 11 16 10 17 9 18 8 19 7 20 6 21 5 22
REMARK SMILES IDX 4 23 3 24 2 25 1 26
REMARK H PARENT
REMARK Flexibility Score: inf
ROOT
ATOM      1  C   UNL     1      45.002  62.183  12.781  1.00  0.00     0.000 C 
ENDROOT
BRANCH   1   2
ATOM      2  C   UNL     1      44.110  61.139  13.484  1.00  0.00     0.000 C 
BRANCH   2   3
ATOM      3  C   UNL     1      43.661  59.961  12.598  1.00  0.00     0.000 C 
BRANCH   3   4
ATOM      4  C   UNL     1      42.341  60.189  11.837  1.00  0.00     0.000 C 
BRANCH   4   5
ATOM      5  C   UNL     1      42.492  60.417  10.319  1.00  0.00     0.000 C 
BRANCH   5   6
ATOM      6  C   UNL     1      43.915  60.229   9.764  1.00  0.00     0.000 C 
BRANCH   6   7
ATOM      7  C   UNL     1      44.193  61.087   8.516  1.00  0.00     0.000 C 
BRANCH   7   8
ATOM      8  C   UNL     1      43.103  62.146   8.285  1.00  0.00     0.000 C 
BRANCH   8   9
ATOM      9  C   UNL     1      43.003  62.578   6.816  1.00  0.00     0.000 C 
BRANCH   9  10
ATOM     10  C   UNL     1      42.621  64.059   6.710  1.00  0.00     0.006 C 
BRANCH  10  11
ATOM     11  C   UNL     1      42.434  64.685   8.095  1.00  0.00     0.053 C 
BRANCH  11  12
ATOM     12  C   UNL     1      42.571  66.173   8.018  1.00  0.00     0.041 C 
ATOM     13  O   UNL     1      43.699  66.712   8.166  1.00  0.00    -0.550 OA
ATOM     14  O   UNL     1      41.445  66.968   7.839  1.00  0.00    -0.550 OA
ENDBRANCH  11  12
ENDBRANCH  10  11
ENDBRANCH   9  10
ENDBRANCH   8   9
ENDBRANCH   7   8
ENDBRANCH   6   7
ENDBRANCH   5   6
ENDBRANCH   4   5
ENDBRANCH   3   4
ENDBRANCH   2   3
ENDBRANCH   1   2
BRANCH   1  15
ATOM     15  C   UNL     1      44.397  63.595  12.672  1.00  0.00     0.000 C 
BRANCH  15  16
ATOM     16  C   UNL     1      43.571  63.856  11.398  1.00  0.00     0.000 C 
BRANCH  16  17
ATOM     17  C   UNL     1      42.043  63.786  11.614  1.00  0.00     0.000 C 
BRANCH  17  18
ATOM     18  C   UNL     1      41.659  63.736  13.104  1.00  0.00    -0.000 C 
BRANCH  18  19
ATOM     19  C   UNL     1      40.416  62.863  13.359  1.00  0.00    -0.000 C 
BRANCH  19  20
ATOM     20  C   UNL     1      39.309  63.032  12.301  1.00  0.00    -0.000 C 
BRANCH  20  21
ATOM     21  C   UNL     1      38.657  61.690  11.920  1.00  0.00    -0.000 C 
BRANCH  21  22
ATOM     22  C   UNL     1      38.814  61.356  10.429  1.00  0.00    -0.000 C 
BRANCH  22  23
ATOM     23  C   UNL     1      39.424  62.511   9.621  1.00  0.00    -0.000 C 
BRANCH  23  24
ATOM     24  C   UNL     1      39.524  62.146   8.132  1.00  0.00    -0.000 C 
BRANCH  24  25
ATOM     25  C   UNL     1      39.431  60.631   7.887  1.00  0.00    -0.003 C 
ATOM     26  C   UNL     1      40.297  60.168   6.716  1.00  0.00     0.004 C 
ENDBRANCH  24  25
ENDBRANCH  23  24
ENDBRANCH  22  23
ENDBRANCH  21  22
ENDBRANCH  20  21
ENDBRANCH  19  20
ENDBRANCH  18  19
ENDBRANCH  17  18
ENDBRANCH  16  17
ENDBRANCH  15  16
ENDBRANCH   1  15
TORSDOF 22
ENDMDL
MODEL 8
REMARK VINA RESULT:    -4.199      2.818      6.975
REMARK INTER + INTRA:         -13.893
REMARK INTER:                  -9.760
REMARK INTRA:                  -4.133
REMARK UNBOUND:                -4.294
REMARK SMILES CCCCCCCCCCCCCCCCCCCCCCCC(=O)[O-]
REMARK SMILES IDX 13 1 14 2 15 3 16 4 17 5 18 6 19 7 20 8 21 9 22 10 23 11
REMARK SMILES IDX 24 12 25 13 26 14 12 15 11 16 10 17 9 18 8 19 7 20 6 21 5 22
REMARK SMILES IDX 4 23 3 24 2 25 1 26
REMARK H PARENT
REMARK Flexibility Score: inf
ROOT
ATOM      1  C   UNL     1      42.705  63.609   9.069  1.00  0.00     0.000 C 
ENDROOT
BRANCH   1   2
ATOM      2  C   UNL     1      41.726  62.426   8.914  1.00  0.00     0.000 C 
BRANCH   2   3
ATOM      3  C   UNL     1      42.380  61.082   8.541  1.00  0.00     0.000 C 
BRANCH   3   4
ATOM      4  C   UNL     1      43.918  61.114   8.445  1.00  0.00     0.000 C 
BRANCH   4   5
ATOM      5  C   UNL     1      44.653  60.142   9.389  1.00  0.00     0.000 C 
BRANCH   5   6
ATOM      6  C   UNL     1      45.373  60.801  10.579  1.00  0.00     0.000 C 
BRANCH   6   7
ATOM      7  C   UNL     1      44.444  61.052  11.781  1.00  0.00     0.000 C 
BRANCH   7   8
ATOM      8  C   UNL     1      44.652  62.447  12.393  1.00  0.00     0.000 C 
BRANCH   8   9
ATOM      9  C   UNL     1      43.349  63.253  12.478  1.00  0.00     0.000 C 
BRANCH   9  10
ATOM     10  C   UNL     1      42.160  62.333  12.783  1.00  0.00     0.006 C 
BRANCH  10  11
ATOM     11  C   UNL     1      40.899  63.144  13.099  1.00  0.00     0.053 C 
BRANCH  11  12
ATOM     12  C   UNL     1      39.778  62.736  12.195  1.00  0.00     0.041 C 
ATOM     13  O   UNL     1      39.746  61.573  11.713  1.00  0.00    -0.550 OA
ATOM     14  O   UNL     1      38.797  63.655  11.843  1.00  0.00    -0.550 OA
ENDBRANCH  11  12
ENDBRANCH  10  11
ENDBRANCH   9  10
ENDBRANCH   8   9
ENDBRANCH   7   8
ENDBRANCH   6   7
ENDBRANCH   5   6
ENDBRANCH   4   5
ENDBRANCH   3   4
ENDBRANCH   2   3
ENDBRANCH   1   2
BRANCH   1  15
ATOM     15  C   UNL     1      42.050  64.963   9.400  1.00  0.00     0.000 C 
BRANCH  15  16
ATOM     16  C   UNL     1      40.757  65.271   8.622  1.00  0.00     0.000 C 
BRANCH  16  17
ATOM     17  C   UNL     1      40.649  66.735   8.138  1.00  0.00     0.000 C 
BRANCH  17  18
ATOM     18  C   UNL     1      39.558  66.925   7.070  1.00  0.00    -0.000 C 
BRANCH  18  19
ATOM     19  C   UNL     1      40.065  67.716   5.849  1.00  0.00    -0.000 C 
BRANCH  19  20
ATOM     20  C   UNL     1      41.589  67.932   5.837  1.00  0.00    -0.000 C 
BRANCH  20  21
ATOM     21  C   UNL     1      42.210  67.633   4.460  1.00  0.00    -0.000 C 
BRANCH  21  22
ATOM     22  C   UNL     1      43.386  66.647   4.541  1.00  0.00    -0.000 C 
BRANCH  22  23
ATOM     23  C   UNL     1      43.501  65.968   5.913  1.00  0.00    -0.000 C 
BRANCH  23  24
ATOM     24  C   UNL     1      43.323  64.447   5.789  1.00  0.00    -0.000 C 
BRANCH  24  25
ATOM     25  C   UNL     1      41.894  64.050   5.387  1.00  0.00    -0.003 C 
ATOM     26  C   UNL     1      41.750  62.551   5.124  1.00  0.00     0.004 C 
ENDBRANCH  24  25
ENDBRANCH  23  24
ENDBRANCH  22  23
ENDBRANCH  21  22
ENDBRANCH  20  21
ENDBRANCH  19  20
ENDBRANCH  18  19
ENDBRANCH  17  18
ENDBRANCH  16  17
ENDBRANCH  15  16
ENDBRANCH   1  15
TORSDOF 22
ENDMDL
MODEL 9
REMARK VINA RESULT:    -4.183      2.859      6.955
REMARK INTER + INTRA:         -13.858
REMARK INTER:                  -9.599
REMARK INTRA:                  -4.259
REMARK UNBOUND:                -4.294
REMARK SMILES CCCCCCCCCCCCCCCCCCCCCCCC(=O)[O-]
REMARK SMILES IDX 13 1 14 2 15 3 16 4 17 5 18 6 19 7 20 8 21 9 22 10 23 11
REMARK SMILES IDX 24 12 25 13 26 14 12 15 11 16 10 17 9 18 8 19 7 20 6 21 5 22
REMARK SMILES IDX 4 23 3 24 2 25 1 26
REMARK H PARENT
REMARK Flexibility Score: inf
ROOT
ATOM      1  C   UNL     1      42.316  64.100   9.436  1.00  0.00     0.000 C 
ENDROOT
BRANCH   1   2
ATOM      2  C   UNL     1      41.331  63.107   8.784  1.00  0.00     0.000 C 
BRANCH   2   3
ATOM      3  C   UNL     1      41.979  61.846   8.183  1.00  0.00     0.000 C 
BRANCH   3   4
ATOM      4  C   UNL     1      43.496  61.950   7.938  1.00  0.00     0.000 C 
BRANCH   4   5
ATOM      5  C   UNL     1      44.333  60.790   8.514  1.00  0.00     0.000 C 
BRANCH   5   6
ATOM      6  C   UNL     1      44.066  60.457   9.992  1.00  0.00     0.000 C 
BRANCH   6   7
ATOM      7  C   UNL     1      45.259  60.782  10.909  1.00  0.00     0.000 C 
BRANCH   7   8
ATOM      8  C   UNL     1      44.957  61.950  11.861  1.00  0.00     0.000 C 
BRANCH   8   9
ATOM      9  C   UNL     1      44.672  61.483  13.295  1.00  0.00     0.000 C 
BRANCH   9  10
ATOM     10  C   UNL     1      43.166  61.303  13.519  1.00  0.00     0.006 C 
BRANCH  10  11
ATOM     11  C   UNL     1      42.382  62.521  13.022  1.00  0.00     0.053 C 
BRANCH  11  12
ATOM     12  C   UNL     1      41.133  62.085  12.321  1.00  0.00     0.041 C 
ATOM     13  O   UNL     1      41.094  60.972  11.734  1.00  0.00    -0.550 OA
ATOM     14  O   UNL     1      40.032  62.932  12.269  1.00  0.00    -0.550 OA
ENDBRANCH  11  12
ENDBRANCH  10  11
ENDBRANCH   9  10
ENDBRANCH   8   9
ENDBRANCH   7   8
ENDBRANCH   6   7
ENDBRANCH   5   6
ENDBRANCH   4   5
ENDBRANCH   3   4
ENDBRANCH   2   3
ENDBRANCH   1   2
BRANCH   1  15
ATOM     15  C   UNL     1      42.326  65.512   8.820  1.00  0.00     0.000 C 
BRANCH  15  16
ATOM     16  C   UNL     1      40.937  66.099   8.507  1.00  0.00     0.000 C 
BRANCH  16  17
ATOM     17  C   UNL     1      40.937  67.137   7.362  1.00  0.00     0.000 C 
BRANCH  17  18
ATOM     18  C   UNL     1      39.824  66.880   6.331  1.00  0.00    -0.000 C 
BRANCH  18  19
ATOM     19  C   UNL     1      39.538  65.378   6.141  1.00  0.00    -0.000 C 
BRANCH  19  20
ATOM     20  C   UNL     1      40.154  64.785   4.859  1.00  0.00    -0.000 C 
BRANCH  20  21
ATOM     21  C   UNL     1      41.233  63.731   5.165  1.00  0.00    -0.000 C 
BRANCH  21  22
ATOM     22  C   UNL     1      42.595  64.079   4.546  1.00  0.00    -0.000 C 
BRANCH  22  23
ATOM     23  C   UNL     1      43.494  64.883   5.497  1.00  0.00    -0.000 C 
BRANCH  23  24
ATOM     24  C   UNL     1      43.517  66.368   5.106  1.00  0.00    -0.000 C 
BRANCH  24  25
ATOM     25  C   UNL     1      43.168  66.595   3.627  1.00  0.00    -0.003 C 
ATOM     26  C   UNL     1      42.118  67.688   3.428  1.00  0.00     0.004 C 
ENDBRANCH  24  25
ENDBRANCH  23  24
ENDBRANCH  22  23
ENDBRANCH  21  22
ENDBRANCH  20  21
ENDBRANCH  19  20
ENDBRANCH  18  19
ENDBRANCH  17  18
ENDBRANCH  16  17
ENDBRANCH  15  16
ENDBRANCH   1  15
TORSDOF 22
ENDMDL
