MODEL 1
REMARK VINA RESULT:    -7.939      0.000      0.000
REMARK INTER + INTRA:          -9.758
REMARK INTER:                  -9.564
REMARK INTRA:                  -0.194
REMARK UNBOUND:                -0.194
REMARK SMILES O=c1c(O)c(-c2ccc(O)c(O)c2)oc2cc(O)cc(O)c12
REMARK SMILES IDX 5 1 3 2 2 3 1 4 22 5 20 6 19 7 17 8 16 9 15 10 14 11 6 12
REMARK SMILES IDX 7 13 8 14 9 15 13 16 11 17 10 18 12 20 4 22 21 24 18 26
REMARK H PARENT 10 19 12 21 4 23 21 25 18 27
REMARK Flexibility Score: inf
ROOT
ATOM      1  C   UNL     1      31.158  -0.617   8.858  1.00  0.00     0.180 A 
ATOM      2  C   UNL     1      30.619  -1.405   9.890  1.00  0.00     0.208 A 
ATOM      3  C   UNL     1      31.471  -1.879  10.900  1.00  0.00     0.238 A 
ATOM      4  O   UNL     1      30.974  -2.538  11.851  1.00  0.00    -0.285 OA
ATOM      5  C   UNL     1      32.853  -1.574  10.858  1.00  0.00     0.111 A 
ATOM      6  C   UNL     1      33.815  -2.035  11.806  1.00  0.00     0.134 A 
ATOM      7  C   UNL     1      35.132  -1.563  11.740  1.00  0.00     0.093 A 
ATOM      8  C   UNL     1      35.537  -0.699  10.720  1.00  0.00     0.123 A 
ATOM      9  C   UNL     1      34.619  -0.291   9.754  1.00  0.00     0.094 A 
ATOM     10  C   UNL     1      33.290  -0.715   9.815  1.00  0.00     0.146 A 
ATOM     11  O   UNL     1      32.445  -0.293   8.882  1.00  0.00    -0.452 OA
ENDROOT
BRANCH   1  12
ATOM     12  C   UNL     1      30.328  -0.103   7.745  1.00  0.00     0.025 A 
ATOM     13  C   UNL     1      30.495  -0.636   6.457  1.00  0.00     0.016 A 
ATOM     14  C   UNL     1      29.709  -0.180   5.395  1.00  0.00     0.051 A 
ATOM     15  C   UNL     1      28.736   0.801   5.606  1.00  0.00     0.157 A 
ATOM     16  C   UNL     1      29.335   0.869   7.959  1.00  0.00     0.062 A 
ATOM     17  C   UNL     1      28.543   1.327   6.895  1.00  0.00     0.158 A 
BRANCH  15  18
ATOM     18  O   UNL     1      27.968   1.238   4.527  1.00  0.00    -0.504 OA
ATOM     19  H   UNL     1      28.363   1.369   3.603  1.00  0.00     0.293 HD
ENDBRANCH  15  18
BRANCH  17  20
ATOM     20  O   UNL     1      27.566   2.295   7.115  1.00  0.00    -0.504 OA
ATOM     21  H   UNL     1      26.815   2.151   7.780  1.00  0.00     0.293 HD
ENDBRANCH  17  20
ENDBRANCH   1  12
BRANCH   2  22
ATOM     22  O   UNL     1      29.249  -1.676   9.926  1.00  0.00    -0.502 OA
ATOM     23  H   UNL     1      28.549  -0.944   9.924  1.00  0.00     0.293 HD
ENDBRANCH   2  22
BRANCH   6  24
ATOM     24  O   UNL     1      33.536  -2.969  12.809  1.00  0.00    -0.507 OA
ATOM     25  H   UNL     1      32.993  -2.778  13.637  1.00  0.00     0.293 HD
ENDBRANCH   6  24
BRANCH   8  26
ATOM     26  O   UNL     1      36.852  -0.248  10.652  1.00  0.00    -0.508 OA
ATOM     27  H   UNL     1      37.077   0.685  10.325  1.00  0.00     0.293 HD
ENDBRANCH   8  26
TORSDOF 6
ENDMDL
MODEL 2
REMARK VINA RESULT:    -7.791      3.001      4.102
REMARK INTER + INTRA:          -9.579
REMARK INTER:                  -9.391
REMARK INTRA:                  -0.188
REMARK UNBOUND:                -0.194
REMARK SMILES O=c1c(O)c(-c2ccc(O)c(O)c2)oc2cc(O)cc(O)c12
REMARK SMILES IDX 5 1 3 2 2 3 1 4 22 5 20 6 19 7 17 8 16 9 15 10 14 11 6 12
REMARK SMILES IDX 7 13 8 14 9 15 13 16 11 17 10 18 12 20 4 22 21 24 18 26
REMARK H PARENT 10 19 12 21 4 23 21 25 18 27
REMARK Flexibility Score: inf
ROOT
ATOM      1  C   UNL     1      32.645  -0.217  11.286  1.00  0.00     0.180 A 
ATOM      2  C   UNL     1      33.787  -1.034  11.226  1.00  0.00     0.208 A 
ATOM      3  C   UNL     1      34.767  -0.909  12.223  1.00  0.00     0.238 A 
ATOM      4  O   UNL     1      35.761  -1.681  12.194  1.00  0.00    -0.285 OA
ATOM      5  C   UNL     1      34.602   0.043  13.259  1.00  0.00     0.111 A 
ATOM      6  C   UNL     1      35.551   0.283  14.298  1.00  0.00     0.134 A 
ATOM      7  C   UNL     1      35.224   1.155  15.343  1.00  0.00     0.093 A 
ATOM      8  C   UNL     1      34.010   1.846  15.351  1.00  0.00     0.123 A 
ATOM      9  C   UNL     1      33.102   1.664  14.311  1.00  0.00     0.094 A 
ATOM     10  C   UNL     1      33.384   0.772  13.272  1.00  0.00     0.146 A 
ATOM     11  O   UNL     1      32.488   0.619  12.306  1.00  0.00    -0.452 OA
ENDROOT
BRANCH   1  12
ATOM     12  C   UNL     1      31.581  -0.273  10.258  1.00  0.00     0.025 A 
ATOM     13  C   UNL     1      31.868   0.135   8.945  1.00  0.00     0.016 A 
ATOM     14  C   UNL     1      30.886   0.071   7.954  1.00  0.00     0.051 A 
ATOM     15  C   UNL     1      29.609  -0.413   8.253  1.00  0.00     0.157 A 
ATOM     16  C   UNL     1      30.303  -0.779  10.553  1.00  0.00     0.062 A 
ATOM     17  C   UNL     1      29.315  -0.845   9.557  1.00  0.00     0.158 A 
BRANCH  15  18
ATOM     18  O   UNL     1      28.648  -0.462   7.244  1.00  0.00    -0.504 OA
ATOM     19  H   UNL     1      27.977   0.283   7.103  1.00  0.00     0.293 HD
ENDBRANCH  15  18
BRANCH  17  20
ATOM     20  O   UNL     1      28.049  -1.342   9.860  1.00  0.00    -0.504 OA
ATOM     21  H   UNL     1      27.661  -2.142   9.374  1.00  0.00     0.293 HD
ENDBRANCH  17  20
ENDBRANCH   1  12
BRANCH   2  22
ATOM     22  O   UNL     1      33.920  -1.982  10.208  1.00  0.00    -0.502 OA
ATOM     23  H   UNL     1      34.698  -1.979   9.559  1.00  0.00     0.293 HD
ENDBRANCH   2  22
BRANCH   6  24
ATOM     24  O   UNL     1      36.828  -0.285  14.335  1.00  0.00    -0.507 OA
ATOM     25  H   UNL     1      37.171  -0.969  13.678  1.00  0.00     0.293 HD
ENDBRANCH   6  24
BRANCH   8  26
ATOM     26  O   UNL     1      33.699   2.724  16.387  1.00  0.00    -0.508 OA
ATOM     27  H   UNL     1      34.302   2.827  17.195  1.00  0.00     0.293 HD
ENDBRANCH   8  26
TORSDOF 6
ENDMDL
MODEL 3
REMARK VINA RESULT:    -7.193      3.848      7.892
REMARK INTER + INTRA:          -8.859
REMARK INTER:                  -8.585
REMARK INTRA:                  -0.274
REMARK UNBOUND:                -0.194
REMARK SMILES O=c1c(O)c(-c2ccc(O)c(O)c2)oc2cc(O)cc(O)c12
REMARK SMILES IDX 5 1 3 2 2 3 1 4 22 5 20 6 19 7 17 8 16 9 15 10 14 11 6 12
REMARK SMILES IDX 7 13 8 14 9 15 13 16 11 17 10 18 12 20 4 22 21 24 18 26
REMARK H PARENT 10 19 12 21 4 23 21 25 18 27
REMARK Flexibility Score: inf
ROOT
ATOM      1  C   UNL     1      32.435  -0.508  13.591  1.00  0.00     0.180 A 
ATOM      2  C   UNL     1      33.530  -0.782  12.752  1.00  0.00     0.208 A 
ATOM      3  C   UNL     1      33.291  -1.172  11.425  1.00  0.00     0.238 A 
ATOM      4  O   UNL     1      34.276  -1.362  10.664  1.00  0.00    -0.285 OA
ATOM      5  C   UNL     1      31.961  -1.300  10.957  1.00  0.00     0.111 A 
ATOM      6  C   UNL     1      31.602  -1.728   9.643  1.00  0.00     0.134 A 
ATOM      7  C   UNL     1      30.259  -1.692   9.248  1.00  0.00     0.093 A 
ATOM      8  C   UNL     1      29.256  -1.307  10.141  1.00  0.00     0.123 A 
ATOM      9  C   UNL     1      29.590  -0.945  11.444  1.00  0.00     0.094 A 
ATOM     10  C   UNL     1      30.925  -0.936  11.856  1.00  0.00     0.146 A 
ATOM     11  O   UNL     1      31.201  -0.574  13.103  1.00  0.00    -0.452 OA
ENDROOT
BRANCH   1  12
ATOM     12  C   UNL     1      32.606  -0.117  15.008  1.00  0.00     0.025 A 
ATOM     13  C   UNL     1      32.424  -1.077  16.016  1.00  0.00     0.016 A 
ATOM     14  C   UNL     1      32.600  -0.736  17.359  1.00  0.00     0.051 A 
ATOM     15  C   UNL     1      32.976   0.563  17.716  1.00  0.00     0.157 A 
ATOM     16  C   UNL     1      33.004   1.183  15.367  1.00  0.00     0.062 A 
ATOM     17  C   UNL     1      33.183   1.527  16.715  1.00  0.00     0.158 A 
BRANCH  15  18
ATOM     18  O   UNL     1      33.142   0.875  19.064  1.00  0.00    -0.504 OA
ATOM     19  H   UNL     1      32.354   1.044  19.678  1.00  0.00     0.293 HD
ENDBRANCH  15  18
BRANCH  17  20
ATOM     20  O   UNL     1      33.571   2.821  17.062  1.00  0.00    -0.504 OA
ATOM     21  H   UNL     1      33.422   3.189  17.994  1.00  0.00     0.293 HD
ENDBRANCH  17  20
ENDBRANCH   1  12
BRANCH   2  22
ATOM     22  O   UNL     1      34.835  -0.627  13.228  1.00  0.00    -0.502 OA
ATOM     23  H   UNL     1      35.305  -1.342  13.771  1.00  0.00     0.293 HD
ENDBRANCH   2  22
BRANCH   6  24
ATOM     24  O   UNL     1      32.516  -2.217   8.705  1.00  0.00    -0.507 OA
ATOM     25  H   UNL     1      32.530  -3.164   8.357  1.00  0.00     0.293 HD
ENDBRANCH   6  24
BRANCH   8  26
ATOM     26  O   UNL     1      27.920  -1.290   9.745  1.00  0.00    -0.508 OA
ATOM     27  H   UNL     1      27.577  -1.895   9.009  1.00  0.00     0.293 HD
ENDBRANCH   8  26
TORSDOF 6
ENDMDL
MODEL 4
REMARK VINA RESULT:    -7.154      3.492      7.653
REMARK INTER + INTRA:          -8.812
REMARK INTER:                  -8.812
REMARK INTRA:                   0.001
REMARK UNBOUND:                -0.194
REMARK SMILES O=c1c(O)c(-c2ccc(O)c(O)c2)oc2cc(O)cc(O)c12
REMARK SMILES IDX 5 1 3 2 2 3 1 4 22 5 20 6 19 7 17 8 16 9 15 10 14 11 6 12
REMARK SMILES IDX 7 13 8 14 9 15 13 16 11 17 10 18 12 20 4 22 21 24 18 26
REMARK H PARENT 10 19 12 21 4 23 21 25 18 27
REMARK Flexibility Score: inf
ROOT
ATOM      1  C   UNL     1      32.922   0.102  12.725  1.00  0.00     0.180 A 
ATOM      2  C   UNL     1      33.859  -0.193  11.719  1.00  0.00     0.208 A 
ATOM      3  C   UNL     1      33.406  -0.732  10.504  1.00  0.00     0.238 A 
ATOM      4  O   UNL     1      34.243  -0.943   9.588  1.00  0.00    -0.285 OA
ATOM      5  C   UNL     1      32.026  -0.985  10.316  1.00  0.00     0.111 A 
ATOM      6  C   UNL     1      31.461  -1.567   9.141  1.00  0.00     0.134 A 
ATOM      7  C   UNL     1      30.069  -1.650   9.013  1.00  0.00     0.093 A 
ATOM      8  C   UNL     1      29.224  -1.233  10.044  1.00  0.00     0.123 A 
ATOM      9  C   UNL     1      29.768  -0.719  11.219  1.00  0.00     0.094 A 
ATOM     10  C   UNL     1      31.152  -0.590  11.363  1.00  0.00     0.146 A 
ATOM     11  O   UNL     1      31.628  -0.085  12.494  1.00  0.00    -0.452 OA
ENDROOT
BRANCH   1  12
ATOM     12  C   UNL     1      33.326   0.648  14.041  1.00  0.00     0.025 A 
ATOM     13  C   UNL     1      34.107   1.813  14.094  1.00  0.00     0.016 A 
ATOM     14  C   UNL     1      34.482   2.358  15.325  1.00  0.00     0.051 A 
ATOM     15  C   UNL     1      34.071   1.758  16.519  1.00  0.00     0.157 A 
ATOM     16  C   UNL     1      32.896   0.057  15.242  1.00  0.00     0.062 A 
ATOM     17  C   UNL     1      33.270   0.604  16.479  1.00  0.00     0.158 A 
BRANCH  15  18
ATOM     18  O   UNL     1      34.463   2.322  17.732  1.00  0.00    -0.504 OA
ATOM     19  H   UNL     1      33.870   2.965  18.244  1.00  0.00     0.293 HD
ENDBRANCH  15  18
BRANCH  17  20
ATOM     20  O   UNL     1      32.845   0.008  17.665  1.00  0.00    -0.504 OA
ATOM     21  H   UNL     1      32.443  -0.922  17.678  1.00  0.00     0.293 HD
ENDBRANCH  17  20
ENDBRANCH   1  12
BRANCH   2  22
ATOM     22  O   UNL     1      35.214   0.085  11.917  1.00  0.00    -0.502 OA
ATOM     23  H   UNL     1      35.604   1.011  11.790  1.00  0.00     0.293 HD
ENDBRANCH   2  22
BRANCH   6  24
ATOM     24  O   UNL     1      32.218  -2.098   8.093  1.00  0.00    -0.507 OA
ATOM     25  H   UNL     1      31.881  -2.230   7.151  1.00  0.00     0.293 HD
ENDBRANCH   6  24
BRANCH   8  26
ATOM     26  O   UNL     1      27.841  -1.334   9.914  1.00  0.00    -0.508 OA
ATOM     27  H   UNL     1      27.389  -2.220   9.723  1.00  0.00     0.293 HD
ENDBRANCH   8  26
TORSDOF 6
ENDMDL
MODEL 5
REMARK VINA RESULT:    -7.100      3.168      7.107
REMARK INTER + INTRA:          -8.747
REMARK INTER:                  -8.509
REMARK INTRA:                  -0.238
REMARK UNBOUND:                -0.194
REMARK SMILES O=c1c(O)c(-c2ccc(O)c(O)c2)oc2cc(O)cc(O)c12
REMARK SMILES IDX 5 1 3 2 2 3 1 4 22 5 20 6 19 7 17 8 16 9 15 10 14 11 6 12
REMARK SMILES IDX 7 13 8 14 9 15 13 16 11 17 10 18 12 20 4 22 21 24 18 26
REMARK H PARENT 10 19 12 21 4 23 21 25 18 27
REMARK Flexibility Score: inf
ROOT
ATOM      1  C   UNL     1      32.672  -0.447  11.885  1.00  0.00     0.180 A 
ATOM      2  C   UNL     1      33.704  -1.139  11.227  1.00  0.00     0.208 A 
ATOM      3  C   UNL     1      33.496  -1.581   9.911  1.00  0.00     0.238 A 
ATOM      4  O   UNL     1      34.442  -2.152   9.307  1.00  0.00    -0.285 OA
ATOM      5  C   UNL     1      32.253  -1.342   9.275  1.00  0.00     0.111 A 
ATOM      6  C   UNL     1      31.918  -1.781   7.959  1.00  0.00     0.134 A 
ATOM      7  C   UNL     1      30.708  -1.373   7.382  1.00  0.00     0.093 A 
ATOM      8  C   UNL     1      29.793  -0.599   8.099  1.00  0.00     0.123 A 
ATOM      9  C   UNL     1      30.085  -0.216   9.406  1.00  0.00     0.094 A 
ATOM     10  C   UNL     1      31.300  -0.576   9.996  1.00  0.00     0.146 A 
ATOM     11  O   UNL     1      31.543  -0.181  11.240  1.00  0.00    -0.452 OA
ENDROOT
BRANCH   1  12
ATOM     12  C   UNL     1      32.808   0.027  13.281  1.00  0.00     0.025 A 
ATOM     13  C   UNL     1      32.146  -0.660  14.311  1.00  0.00     0.016 A 
ATOM     14  C   UNL     1      32.276  -0.243  15.637  1.00  0.00     0.051 A 
ATOM     15  C   UNL     1      33.080   0.855  15.958  1.00  0.00     0.157 A 
ATOM     16  C   UNL     1      33.632   1.119  13.607  1.00  0.00     0.062 A 
ATOM     17  C   UNL     1      33.766   1.538  14.940  1.00  0.00     0.158 A 
BRANCH  15  18
ATOM     18  O   UNL     1      33.189   1.251  17.291  1.00  0.00    -0.504 OA
ATOM     19  H   UNL     1      33.952   1.830  17.620  1.00  0.00     0.293 HD
ENDBRANCH  15  18
BRANCH  17  20
ATOM     20  O   UNL     1      34.579   2.626  15.253  1.00  0.00    -0.504 OA
ATOM     21  H   UNL     1      34.192   3.504  15.577  1.00  0.00     0.293 HD
ENDBRANCH  17  20
ENDBRANCH   1  12
BRANCH   2  22
ATOM     22  O   UNL     1      34.930  -1.346  11.864  1.00  0.00    -0.502 OA
ATOM     23  H   UNL     1      35.270  -0.739  12.601  1.00  0.00     0.293 HD
ENDBRANCH   2  22
BRANCH   6  24
ATOM     24  O   UNL     1      32.720  -2.631   7.192  1.00  0.00    -0.507 OA
ATOM     25  H   UNL     1      32.787  -3.629   7.322  1.00  0.00     0.293 HD
ENDBRANCH   6  24
BRANCH   8  26
ATOM     26  O   UNL     1      28.585  -0.212   7.524  1.00  0.00    -0.508 OA
ATOM     27  H   UNL     1      27.974   0.459   7.974  1.00  0.00     0.293 HD
ENDBRANCH   8  26
TORSDOF 6
ENDMDL
MODEL 6
REMARK VINA RESULT:    -6.974      2.716      4.065
REMARK INTER + INTRA:          -8.595
REMARK INTER:                  -8.339
REMARK INTRA:                  -0.256
REMARK UNBOUND:                -0.194
REMARK SMILES O=c1c(O)c(-c2ccc(O)c(O)c2)oc2cc(O)cc(O)c12
REMARK SMILES IDX 5 1 3 2 2 3 1 4 22 5 20 6 19 7 17 8 16 9 15 10 14 11 6 12
REMARK SMILES IDX 7 13 8 14 9 15 13 16 11 17 10 18 12 20 4 22 21 24 18 26
REMARK H PARENT 10 19 12 21 4 23 21 25 18 27
REMARK Flexibility Score: inf
ROOT
ATOM      1  C   UNL     1      32.351  -0.411  11.744  1.00  0.00     0.180 A 
ATOM      2  C   UNL     1      32.715   0.785  12.387  1.00  0.00     0.208 A 
ATOM      3  C   UNL     1      33.598   0.730  13.478  1.00  0.00     0.238 A 
ATOM      4  O   UNL     1      33.963   1.808  14.015  1.00  0.00    -0.285 OA
ATOM      5  C   UNL     1      34.092  -0.521  13.922  1.00  0.00     0.111 A 
ATOM      6  C   UNL     1      34.959  -0.698  15.042  1.00  0.00     0.134 A 
ATOM      7  C   UNL     1      35.490  -1.966  15.310  1.00  0.00     0.093 A 
ATOM      8  C   UNL     1      35.132  -3.075  14.540  1.00  0.00     0.123 A 
ATOM      9  C   UNL     1      34.239  -2.922  13.481  1.00  0.00     0.094 A 
ATOM     10  C   UNL     1      33.721  -1.663  13.166  1.00  0.00     0.146 A 
ATOM     11  O   UNL     1      32.883  -1.560  12.142  1.00  0.00    -0.452 OA
ENDROOT
BRANCH   1  12
ATOM     12  C   UNL     1      31.406  -0.435  10.604  1.00  0.00     0.025 A 
ATOM     13  C   UNL     1      31.846  -0.032   9.334  1.00  0.00     0.016 A 
ATOM     14  C   UNL     1      30.978  -0.066   8.240  1.00  0.00     0.051 A 
ATOM     15  C   UNL     1      29.664  -0.518   8.394  1.00  0.00     0.157 A 
ATOM     16  C   UNL     1      30.090  -0.908  10.754  1.00  0.00     0.062 A 
ATOM     17  C   UNL     1      29.217  -0.945   9.656  1.00  0.00     0.158 A 
BRANCH  15  18
ATOM     18  O   UNL     1      28.818  -0.538   7.285  1.00  0.00    -0.504 OA
ATOM     19  H   UNL     1      28.865  -1.270   6.586  1.00  0.00     0.293 HD
ENDBRANCH  15  18
BRANCH  17  20
ATOM     20  O   UNL     1      27.912  -1.409   9.815  1.00  0.00    -0.504 OA
ATOM     21  H   UNL     1      27.570  -2.217   9.309  1.00  0.00     0.293 HD
ENDBRANCH  17  20
ENDBRANCH   1  12
BRANCH   2  22
ATOM     22  O   UNL     1      32.234   2.010  11.919  1.00  0.00    -0.502 OA
ATOM     23  H   UNL     1      31.256   2.269  11.976  1.00  0.00     0.293 HD
ENDBRANCH   2  22
BRANCH   6  24
ATOM     24  O   UNL     1      35.306   0.325  15.930  1.00  0.00    -0.507 OA
ATOM     25  H   UNL     1      35.858   0.198  16.764  1.00  0.00     0.293 HD
ENDBRANCH   6  24
BRANCH   8  26
ATOM     26  O   UNL     1      35.652  -4.335  14.824  1.00  0.00    -0.508 OA
ATOM     27  H   UNL     1      36.650  -4.503  14.854  1.00  0.00     0.293 HD
ENDBRANCH   8  26
TORSDOF 6
ENDMDL
MODEL 7
REMARK VINA RESULT:    -6.855      3.905      5.722
REMARK INTER + INTRA:          -8.452
REMARK INTER:                  -8.137
REMARK INTRA:                  -0.315
REMARK UNBOUND:                -0.194
REMARK SMILES O=c1c(O)c(-c2ccc(O)c(O)c2)oc2cc(O)cc(O)c12
REMARK SMILES IDX 5 1 3 2 2 3 1 4 22 5 20 6 19 7 17 8 16 9 15 10 14 11 6 12
REMARK SMILES IDX 7 13 8 14 9 15 13 16 11 17 10 18 12 20 4 22 21 24 18 26
REMARK H PARENT 10 19 12 21 4 23 21 25 18 27
REMARK Flexibility Score: inf
ROOT
ATOM      1  C   UNL     1      31.983  -0.016  13.318  1.00  0.00     0.180 A 
ATOM      2  C   UNL     1      32.712   1.179  13.188  1.00  0.00     0.208 A 
ATOM      3  C   UNL     1      33.679   1.495  14.155  1.00  0.00     0.238 A 
ATOM      4  O   UNL     1      34.366   2.539  14.004  1.00  0.00    -0.285 OA
ATOM      5  C   UNL     1      33.895   0.622  15.249  1.00  0.00     0.111 A 
ATOM      6  C   UNL     1      34.820   0.863  16.308  1.00  0.00     0.134 A 
ATOM      7  C   UNL     1      35.045  -0.132  17.268  1.00  0.00     0.093 A 
ATOM      8  C   UNL     1      34.328  -1.331  17.244  1.00  0.00     0.123 A 
ATOM      9  C   UNL     1      33.380  -1.551  16.248  1.00  0.00     0.094 A 
ATOM     10  C   UNL     1      33.160  -0.593  15.256  1.00  0.00     0.146 A 
ATOM     11  O   UNL     1      32.254  -0.846  14.318  1.00  0.00    -0.452 OA
ENDROOT
BRANCH   1  12
ATOM     12  C   UNL     1      30.930  -0.406  12.353  1.00  0.00     0.025 A 
ATOM     13  C   UNL     1      29.596  -0.050  12.607  1.00  0.00     0.016 A 
ATOM     14  C   UNL     1      28.588  -0.389  11.701  1.00  0.00     0.051 A 
ATOM     15  C   UNL     1      28.898  -1.072  10.522  1.00  0.00     0.157 A 
ATOM     16  C   UNL     1      31.243  -1.076  11.157  1.00  0.00     0.062 A 
ATOM     17  C   UNL     1      30.232  -1.415  10.244  1.00  0.00     0.158 A 
BRANCH  15  18
ATOM     18  O   UNL     1      27.870  -1.400   9.637  1.00  0.00    -0.504 OA
ATOM     19  H   UNL     1      27.775  -2.328   9.243  1.00  0.00     0.293 HD
ENDBRANCH  15  18
BRANCH  17  20
ATOM     20  O   UNL     1      30.551  -2.085   9.064  1.00  0.00    -0.504 OA
ATOM     21  H   UNL     1      29.880  -2.679   8.593  1.00  0.00     0.293 HD
ENDBRANCH  17  20
ENDBRANCH   1  12
BRANCH   2  22
ATOM     22  O   UNL     1      32.499   2.016  12.089  1.00  0.00    -0.502 OA
ATOM     23  H   UNL     1      32.602   1.696  11.133  1.00  0.00     0.293 HD
ENDBRANCH   2  22
BRANCH   6  24
ATOM     24  O   UNL     1      35.519   2.062  16.476  1.00  0.00    -0.507 OA
ATOM     25  H   UNL     1      36.524   2.149  16.456  1.00  0.00     0.293 HD
ENDBRANCH   6  24
BRANCH   8  26
ATOM     26  O   UNL     1      34.547  -2.308  18.213  1.00  0.00    -0.508 OA
ATOM     27  H   UNL     1      35.082  -3.144  18.012  1.00  0.00     0.293 HD
ENDBRANCH   8  26
TORSDOF 6
ENDMDL
MODEL 8
REMARK VINA RESULT:    -6.776      3.935      8.014
REMARK INTER + INTRA:          -8.357
REMARK INTER:                  -8.168
REMARK INTRA:                  -0.188
REMARK UNBOUND:                -0.194
REMARK SMILES O=c1c(O)c(-c2ccc(O)c(O)c2)oc2cc(O)cc(O)c12
REMARK SMILES IDX 5 1 3 2 2 3 1 4 22 5 20 6 19 7 17 8 16 9 15 10 14 11 6 12
REMARK SMILES IDX 7 13 8 14 9 15 13 16 11 17 10 18 12 20 4 22 21 24 18 26
REMARK H PARENT 10 19 12 21 4 23 21 25 18 27
REMARK Flexibility Score: inf
ROOT
ATOM      1  C   UNL     1      34.080  -0.274  13.695  1.00  0.00     0.180 A 
ATOM      2  C   UNL     1      35.292  -0.367  12.988  1.00  0.00     0.208 A 
ATOM      3  C   UNL     1      35.276  -0.844  11.668  1.00  0.00     0.238 A 
ATOM      4  O   UNL     1      36.356  -0.874  11.023  1.00  0.00    -0.285 OA
ATOM      5  C   UNL     1      34.051  -1.239  11.076  1.00  0.00     0.111 A 
ATOM      6  C   UNL     1      33.923  -1.776   9.760  1.00  0.00     0.134 A 
ATOM      7  C   UNL     1      32.647  -2.008   9.231  1.00  0.00     0.093 A 
ATOM      8  C   UNL     1      31.499  -1.787   9.995  1.00  0.00     0.123 A 
ATOM      9  C   UNL     1      31.617  -1.319  11.302  1.00  0.00     0.094 A 
ATOM     10  C   UNL     1      32.874  -1.043  11.845  1.00  0.00     0.146 A 
ATOM     11  O   UNL     1      32.941  -0.589  13.091  1.00  0.00    -0.452 OA
ENDROOT
BRANCH   1  12
ATOM     12  C   UNL     1      34.021   0.196  15.098  1.00  0.00     0.025 A 
ATOM     13  C   UNL     1      34.609  -0.579  16.110  1.00  0.00     0.016 A 
ATOM     14  C   UNL     1      34.583  -0.146  17.438  1.00  0.00     0.051 A 
ATOM     15  C   UNL     1      33.984   1.072  17.774  1.00  0.00     0.157 A 
ATOM     16  C   UNL     1      33.436   1.430  15.433  1.00  0.00     0.062 A 
ATOM     17  C   UNL     1      33.411   1.867  16.767  1.00  0.00     0.158 A 
BRANCH  15  18
ATOM     18  O   UNL     1      33.970   1.477  19.108  1.00  0.00    -0.504 OA
ATOM     19  H   UNL     1      33.221   1.222  19.740  1.00  0.00     0.293 HD
ENDBRANCH  15  18
BRANCH  17  20
ATOM     20  O   UNL     1      32.824   3.089  17.091  1.00  0.00    -0.504 OA
ATOM     21  H   UNL     1      32.019   3.442  16.587  1.00  0.00     0.293 HD
ENDBRANCH  17  20
ENDBRANCH   1  12
BRANCH   2  22
ATOM     22  O   UNL     1      36.487   0.049  13.583  1.00  0.00    -0.502 OA
ATOM     23  H   UNL     1      37.319  -0.528  13.593  1.00  0.00     0.293 HD
ENDBRANCH   2  22
BRANCH   6  24
ATOM     24  O   UNL     1      35.008  -2.119   8.948  1.00  0.00    -0.507 OA
ATOM     25  H   UNL     1      35.139  -1.800   8.000  1.00  0.00     0.293 HD
ENDBRANCH   6  24
BRANCH   8  26
ATOM     26  O   UNL     1      30.235  -2.036   9.466  1.00  0.00    -0.508 OA
ATOM     27  H   UNL     1      29.622  -2.738   9.863  1.00  0.00     0.293 HD
ENDBRANCH   8  26
TORSDOF 6
ENDMDL
MODEL 9
REMARK VINA RESULT:    -6.661      4.990      8.210
REMARK INTER + INTRA:          -8.218
REMARK INTER:                  -7.915
REMARK INTRA:                  -0.303
REMARK UNBOUND:                -0.194
REMARK SMILES O=c1c(O)c(-c2ccc(O)c(O)c2)oc2cc(O)cc(O)c12
REMARK SMILES IDX 5 1 3 2 2 3 1 4 22 5 20 6 19 7 17 8 16 9 15 10 14 11 6 12
REMARK SMILES IDX 7 13 8 14 9 15 13 16 11 17 10 18 12 20 4 22 21 24 18 26
REMARK H PARENT 10 19 12 21 4 23 21 25 18 27
REMARK Flexibility Score: inf
ROOT
ATOM      1  C   UNL     1      33.601   0.336  15.088  1.00  0.00     0.180 A 
ATOM      2  C   UNL     1      32.513  -0.445  14.661  1.00  0.00     0.208 A 
ATOM      3  C   UNL     1      32.551  -1.022  13.382  1.00  0.00     0.238 A 
ATOM      4  O   UNL     1      31.599  -1.765  13.026  1.00  0.00    -0.285 OA
ATOM      5  C   UNL     1      33.667  -0.798  12.539  1.00  0.00     0.111 A 
ATOM      6  C   UNL     1      33.793  -1.301  11.209  1.00  0.00     0.134 A 
ATOM      7  C   UNL     1      34.997  -1.127  10.516  1.00  0.00     0.093 A 
ATOM      8  C   UNL     1      36.056  -0.411  11.080  1.00  0.00     0.123 A 
ATOM      9  C   UNL     1      35.921   0.135  12.355  1.00  0.00     0.094 A 
ATOM     10  C   UNL     1      34.745  -0.053  13.086  1.00  0.00     0.146 A 
ATOM     11  O   UNL     1      34.662   0.474  14.301  1.00  0.00    -0.452 OA
ENDROOT
BRANCH   1  12
ATOM     12  C   UNL     1      33.623   0.999  16.413  1.00  0.00     0.025 A 
ATOM     13  C   UNL     1      34.412   0.460  17.440  1.00  0.00     0.016 A 
ATOM     14  C   UNL     1      34.464   1.079  18.691  1.00  0.00     0.051 A 
ATOM     15  C   UNL     1      33.743   2.253  18.931  1.00  0.00     0.157 A 
ATOM     16  C   UNL     1      32.914   2.190  16.648  1.00  0.00     0.062 A 
ATOM     17  C   UNL     1      32.966   2.814  17.903  1.00  0.00     0.158 A 
BRANCH  15  18
ATOM     18  O   UNL     1      33.811   2.847  20.190  1.00  0.00    -0.504 OA
ATOM     19  H   UNL     1      34.542   2.619  20.854  1.00  0.00     0.293 HD
ENDBRANCH  15  18
BRANCH  17  20
ATOM     20  O   UNL     1      32.255   3.991  18.129  1.00  0.00    -0.504 OA
ATOM     21  H   UNL     1      32.702   4.899  18.091  1.00  0.00     0.293 HD
ENDBRANCH  17  20
ENDBRANCH   1  12
BRANCH   2  22
ATOM     22  O   UNL     1      31.432  -0.672  15.516  1.00  0.00    -0.502 OA
ATOM     23  H   UNL     1      30.848   0.078  15.867  1.00  0.00     0.293 HD
ENDBRANCH   2  22
BRANCH   6  24
ATOM     24  O   UNL     1      32.764  -1.949  10.520  1.00  0.00    -0.507 OA
ATOM     25  H   UNL     1      31.944  -1.493  10.149  1.00  0.00     0.293 HD
ENDBRANCH   6  24
BRANCH   8  26
ATOM     26  O   UNL     1      37.245  -0.229  10.378  1.00  0.00    -0.508 OA
ATOM     27  H   UNL     1      37.262  -0.188   9.366  1.00  0.00     0.293 HD
ENDBRANCH   8  26
TORSDOF 6
ENDMDL
