MODEL 1
REMARK VINA RESULT:    -4.015      0.000      0.000
REMARK INTER + INTRA:         -12.046
REMARK INTER:                  -8.709
REMARK INTRA:                  -3.337
REMARK UNBOUND:                -3.337
REMARK SMILES CCCCCCCCCCCCCCCCCCCCCC(=O)[O-]
REMARK SMILES IDX 12 1 11 2 10 3 9 4 8 5 7 6 6 7 5 8 4 9 3 10 2 11 1 12 13 13
REMARK SMILES IDX 14 14 15 15 16 16 17 17 18 18 19 19 20 20 21 21 22 22 23 23
REMARK SMILES IDX 24 24
REMARK H PARENT
REMARK Flexibility Score: inf
ROOT
ATOM      1  C   UNL     1      -6.730  26.342 -13.748  1.00  0.00     0.000 C 
ENDROOT
BRANCH   1   2
ATOM      2  C   UNL     1      -5.459  26.660 -12.945  1.00  0.00     0.000 C 
BRANCH   2   3
ATOM      3  C   UNL     1      -4.413  25.534 -13.021  1.00  0.00     0.000 C 
BRANCH   3   4
ATOM      4  C   UNL     1      -4.200  24.835 -11.667  1.00  0.00    -0.000 C 
BRANCH   4   5
ATOM      5  C   UNL     1      -5.284  23.783 -11.372  1.00  0.00    -0.000 C 
BRANCH   5   6
ATOM      6  C   UNL     1      -6.310  24.261 -10.332  1.00  0.00    -0.000 C 
BRANCH   6   7
ATOM      7  C   UNL     1      -5.716  24.615  -8.954  1.00  0.00    -0.000 C 
BRANCH   7   8
ATOM      8  C   UNL     1      -6.159  25.996  -8.422  1.00  0.00    -0.000 C 
BRANCH   8   9
ATOM      9  C   UNL     1      -7.117  26.715  -9.389  1.00  0.00    -0.000 C 
BRANCH   9  10
ATOM     10  C   UNL     1      -6.609  28.103  -9.803  1.00  0.00    -0.000 C 
BRANCH  10  11
ATOM     11  C   UNL     1      -6.702  29.133  -8.667  1.00  0.00    -0.003 C 
ATOM     12  C   UNL     1      -5.721  30.283  -8.887  1.00  0.00     0.004 C 
ENDBRANCH  10  11
ENDBRANCH   9  10
ENDBRANCH   8   9
ENDBRANCH   7   8
ENDBRANCH   6   7
ENDBRANCH   5   6
ENDBRANCH   4   5
ENDBRANCH   3   4
ENDBRANCH   2   3
ENDBRANCH   1   2
BRANCH   1  13
ATOM     13  C   UNL     1      -8.016  26.658 -12.970  1.00  0.00     0.000 C 
BRANCH  13  14
ATOM     14  C   UNL     1      -9.087  25.590 -13.226  1.00  0.00     0.000 C 
BRANCH  14  15
ATOM     15  C   UNL     1      -9.635  25.031 -11.904  1.00  0.00     0.000 C 
BRANCH  15  16
ATOM     16  C   UNL     1      -9.240  23.558 -11.667  1.00  0.00     0.000 C 
BRANCH  16  17
ATOM     17  C   UNL     1      -8.646  22.862 -12.909  1.00  0.00     0.000 C 
BRANCH  17  18
ATOM     18  C   UNL     1      -8.300  21.373 -12.721  1.00  0.00     0.000 C 
BRANCH  18  19
ATOM     19  C   UNL     1      -8.229  20.895 -11.256  1.00  0.00     0.000 C 
BRANCH  19  20
ATOM     20  C   UNL     1      -6.840  20.414 -10.789  1.00  0.00     0.006 C 
BRANCH  20  21
ATOM     21  C   UNL     1      -6.596  20.553  -9.279  1.00  0.00     0.053 C 
BRANCH  21  22
ATOM     22  C   UNL     1      -7.151  19.392  -8.514  1.00  0.00     0.041 C 
ATOM     23  O   UNL     1      -7.005  18.218  -8.948  1.00  0.00    -0.550 OA
ATOM     24  O   UNL     1      -7.821  19.604  -7.317  1.00  0.00    -0.550 OA
ENDBRANCH  21  22
ENDBRANCH  20  21
ENDBRANCH  19  20
ENDBRANCH  18  19
ENDBRANCH  17  18
ENDBRANCH  16  17
ENDBRANCH  15  16
ENDBRANCH  14  15
ENDBRANCH  13  14
ENDBRANCH   1  13
TORSDOF 20
ENDMDL
MODEL 2
REMARK VINA RESULT:    -3.953      3.436      6.422
REMARK INTER + INTRA:         -11.911
REMARK INTER:                  -8.608
REMARK INTRA:                  -3.303
REMARK UNBOUND:                -3.337
REMARK SMILES CCCCCCCCCCCCCCCCCCCCCC(=O)[O-]
REMARK SMILES IDX 12 1 11 2 10 3 9 4 8 5 7 6 6 7 5 8 4 9 3 10 2 11 1 12 13 13
REMARK SMILES IDX 14 14 15 15 16 16 17 17 18 18 19 19 20 20 21 21 22 22 23 23
REMARK SMILES IDX 24 24
REMARK H PARENT
REMARK Flexibility Score: inf
ROOT
ATOM      1  C   UNL     1      -4.269  25.018 -14.360  1.00  0.00     0.000 C 
ENDROOT
BRANCH   1   2
ATOM      2  C   UNL     1      -4.351  23.487 -14.456  1.00  0.00     0.000 C 
BRANCH   2   3
ATOM      3  C   UNL     1      -5.245  23.012 -15.615  1.00  0.00     0.000 C 
BRANCH   3   4
ATOM      4  C   UNL     1      -5.719  21.560 -15.438  1.00  0.00    -0.000 C 
BRANCH   4   5
ATOM      5  C   UNL     1      -5.188  20.923 -14.141  1.00  0.00    -0.000 C 
BRANCH   5   6
ATOM      6  C   UNL     1      -6.312  20.383 -13.240  1.00  0.00    -0.000 C 
BRANCH   6   7
ATOM      7  C   UNL     1      -5.845  19.863 -11.866  1.00  0.00    -0.000 C 
BRANCH   7   8
ATOM      8  C   UNL     1      -5.798  20.953 -10.773  1.00  0.00    -0.000 C 
BRANCH   8   9
ATOM      9  C   UNL     1      -6.367  20.460  -9.430  1.00  0.00    -0.000 C 
BRANCH   9  10
ATOM     10  C   UNL     1      -6.150  18.956  -9.211  1.00  0.00    -0.000 C 
BRANCH  10  11
ATOM     11  C   UNL     1      -7.184  18.340  -8.256  1.00  0.00    -0.003 C 
ATOM     12  C   UNL     1      -7.661  19.363  -7.228  1.00  0.00     0.004 C 
ENDBRANCH  10  11
ENDBRANCH   9  10
ENDBRANCH   8   9
ENDBRANCH   7   8
ENDBRANCH   6   7
ENDBRANCH   5   6
ENDBRANCH   4   5
ENDBRANCH   3   4
ENDBRANCH   2   3
ENDBRANCH   1   2
BRANCH   1  13
ATOM     13  C   UNL     1      -4.342  25.525 -12.913  1.00  0.00     0.000 C 
BRANCH  13  14
ATOM     14  C   UNL     1      -5.354  26.671 -12.784  1.00  0.00     0.000 C 
BRANCH  14  15
ATOM     15  C   UNL     1      -6.101  26.597 -11.444  1.00  0.00     0.000 C 
BRANCH  15  16
ATOM     16  C   UNL     1      -5.739  25.340 -10.625  1.00  0.00     0.000 C 
BRANCH  16  17
ATOM     17  C   UNL     1      -6.963  24.552 -10.114  1.00  0.00     0.000 C 
BRANCH  17  18
ATOM     18  C   UNL     1      -8.045  24.265 -11.173  1.00  0.00     0.000 C 
BRANCH  18  19
ATOM     19  C   UNL     1      -7.550  23.521 -12.431  1.00  0.00     0.000 C 
BRANCH  19  20
ATOM     20  C   UNL     1      -8.402  23.739 -13.698  1.00  0.00     0.006 C 
BRANCH  20  21
ATOM     21  C   UNL     1      -7.988  24.957 -14.538  1.00  0.00     0.053 C 
BRANCH  21  22
ATOM     22  C   UNL     1      -8.989  26.066 -14.443  1.00  0.00     0.041 C 
ATOM     23  O   UNL     1     -10.188  25.816 -14.149  1.00  0.00    -0.550 OA
ATOM     24  O   UNL     1      -8.596  27.379 -14.668  1.00  0.00    -0.550 OA
ENDBRANCH  21  22
ENDBRANCH  20  21
ENDBRANCH  19  20
ENDBRANCH  18  19
ENDBRANCH  17  18
ENDBRANCH  16  17
ENDBRANCH  15  16
ENDBRANCH  14  15
ENDBRANCH  13  14
ENDBRANCH   1  13
TORSDOF 20
ENDMDL
MODEL 3
REMARK VINA RESULT:    -3.873      3.966      7.292
REMARK INTER + INTRA:         -11.737
REMARK INTER:                  -9.321
REMARK INTRA:                  -2.417
REMARK UNBOUND:                -3.337
REMARK SMILES CCCCCCCCCCCCCCCCCCCCCC(=O)[O-]
REMARK SMILES IDX 12 1 11 2 10 3 9 4 8 5 7 6 6 7 5 8 4 9 3 10 2 11 1 12 13 13
REMARK SMILES IDX 14 14 15 15 16 16 17 17 18 18 19 19 20 20 21 21 22 22 23 23
REMARK SMILES IDX 24 24
REMARK H PARENT
REMARK Flexibility Score: inf
ROOT
ATOM      1  C   UNL     1      -5.479  26.828 -13.000  1.00  0.00     0.000 C 
ENDROOT
BRANCH   1   2
ATOM      2  C   UNL     1      -4.338  25.799 -13.024  1.00  0.00     0.000 C 
BRANCH   2   3
ATOM      3  C   UNL     1      -4.404  24.870 -14.248  1.00  0.00     0.000 C 
BRANCH   3   4
ATOM      4  C   UNL     1      -4.721  23.414 -13.867  1.00  0.00    -0.000 C 
BRANCH   4   5
ATOM      5  C   UNL     1      -3.930  22.944 -12.633  1.00  0.00    -0.000 C 
BRANCH   5   6
ATOM      6  C   UNL     1      -4.835  22.378 -11.526  1.00  0.00    -0.000 C 
BRANCH   6   7
ATOM      7  C   UNL     1      -6.303  22.158 -11.943  1.00  0.00    -0.000 C 
BRANCH   7   8
ATOM      8  C   UNL     1      -6.813  20.723 -11.686  1.00  0.00    -0.000 C 
BRANCH   8   9
ATOM      9  C   UNL     1      -7.503  20.583 -10.317  1.00  0.00    -0.000 C 
BRANCH   9  10
ATOM     10  C   UNL     1      -6.502  20.453  -9.160  1.00  0.00    -0.000 C 
BRANCH  10  11
ATOM     11  C   UNL     1      -6.117  18.994  -8.869  1.00  0.00    -0.003 C 
ATOM     12  C   UNL     1      -6.988  18.406  -7.761  1.00  0.00     0.004 C 
ENDBRANCH  10  11
ENDBRANCH   9  10
ENDBRANCH   8   9
ENDBRANCH   7   8
ENDBRANCH   6   7
ENDBRANCH   5   6
ENDBRANCH   4   5
ENDBRANCH   3   4
ENDBRANCH   2   3
ENDBRANCH   1   2
BRANCH   1  13
ATOM     13  C   UNL     1      -6.616  26.429 -12.048  1.00  0.00     0.000 C 
BRANCH  13  14
ATOM     14  C   UNL     1      -6.062  25.767 -10.780  1.00  0.00     0.000 C 
BRANCH  14  15
ATOM     15  C   UNL     1      -7.174  25.542  -9.745  1.00  0.00     0.000 C 
BRANCH  15  16
ATOM     16  C   UNL     1      -8.510  26.200 -10.150  1.00  0.00     0.000 C 
BRANCH  16  17
ATOM     17  C   UNL     1      -8.904  27.407  -9.274  1.00  0.00     0.000 C 
BRANCH  17  18
ATOM     18  C   UNL     1      -8.920  28.765 -10.002  1.00  0.00     0.000 C 
BRANCH  18  19
ATOM     19  C   UNL     1      -7.867  29.783  -9.516  1.00  0.00     0.000 C 
BRANCH  19  20
ATOM     20  C   UNL     1      -6.476  29.191  -9.210  1.00  0.00     0.006 C 
BRANCH  20  21
ATOM     21  C   UNL     1      -5.871  29.651  -7.875  1.00  0.00     0.053 C 
BRANCH  21  22
ATOM     22  C   UNL     1      -4.953  30.820  -8.051  1.00  0.00     0.041 C 
ATOM     23  O   UNL     1      -4.851  31.689  -7.144  1.00  0.00    -0.550 OA
ATOM     24  O   UNL     1      -4.200  30.945  -9.211  1.00  0.00    -0.550 OA
ENDBRANCH  21  22
ENDBRANCH  20  21
ENDBRANCH  19  20
ENDBRANCH  18  19
ENDBRANCH  17  18
ENDBRANCH  16  17
ENDBRANCH  15  16
ENDBRANCH  14  15
ENDBRANCH  13  14
ENDBRANCH   1  13
TORSDOF 20
ENDMDL
MODEL 4
REMARK VINA RESULT:    -3.838      3.578      5.084
REMARK INTER + INTRA:         -11.663
REMARK INTER:                  -7.837
REMARK INTRA:                  -3.825
REMARK UNBOUND:                -3.337
REMARK SMILES CCCCCCCCCCCCCCCCCCCCCC(=O)[O-]
REMARK SMILES IDX 12 1 11 2 10 3 9 4 8 5 7 6 6 7 5 8 4 9 3 10 2 11 1 12 13 13
REMARK SMILES IDX 14 14 15 15 16 16 17 17 18 18 19 19 20 20 21 21 22 22 23 23
REMARK SMILES IDX 24 24
REMARK H PARENT
REMARK Flexibility Score: inf
ROOT
ATOM      1  C   UNL     1      -5.393  26.801 -13.102  1.00  0.00     0.000 C 
ENDROOT
BRANCH   1   2
ATOM      2  C   UNL     1      -4.485  25.673 -13.615  1.00  0.00     0.000 C 
BRANCH   2   3
ATOM      3  C   UNL     1      -3.927  24.799 -12.478  1.00  0.00     0.000 C 
BRANCH   3   4
ATOM      4  C   UNL     1      -4.267  23.310 -12.658  1.00  0.00    -0.000 C 
BRANCH   4   5
ATOM      5  C   UNL     1      -5.385  22.843 -11.708  1.00  0.00    -0.000 C 
BRANCH   5   6
ATOM      6  C   UNL     1      -5.771  23.913 -10.673  1.00  0.00    -0.000 C 
BRANCH   6   7
ATOM      7  C   UNL     1      -7.288  24.100 -10.473  1.00  0.00    -0.000 C 
BRANCH   7   8
ATOM      8  C   UNL     1      -7.673  25.482  -9.900  1.00  0.00    -0.000 C 
BRANCH   8   9
ATOM      9  C   UNL     1      -6.468  26.436  -9.812  1.00  0.00    -0.000 C 
BRANCH   9  10
ATOM     10  C   UNL     1      -6.882  27.914  -9.812  1.00  0.00    -0.000 C 
BRANCH  10  11
ATOM     11  C   UNL     1      -8.200  28.161 -10.560  1.00  0.00    -0.003 C 
ATOM     12  C   UNL     1      -9.125  29.074  -9.757  1.00  0.00     0.004 C 
ENDBRANCH  10  11
ENDBRANCH   9  10
ENDBRANCH   8   9
ENDBRANCH   7   8
ENDBRANCH   6   7
ENDBRANCH   5   6
ENDBRANCH   4   5
ENDBRANCH   3   4
ENDBRANCH   2   3
ENDBRANCH   1   2
BRANCH   1  13
ATOM     13  C   UNL     1      -6.828  26.698 -13.641  1.00  0.00     0.000 C 
BRANCH  13  14
ATOM     14  C   UNL     1      -7.091  25.307 -14.232  1.00  0.00     0.000 C 
BRANCH  14  15
ATOM     15  C   UNL     1      -8.457  24.767 -13.783  1.00  0.00     0.000 C 
BRANCH  15  16
ATOM     16  C   UNL     1      -9.341  25.848 -13.125  1.00  0.00     0.000 C 
BRANCH  16  17
ATOM     17  C   UNL     1     -10.763  25.365 -12.773  1.00  0.00     0.000 C 
BRANCH  17  18
ATOM     18  C   UNL     1     -11.105  25.375 -11.271  1.00  0.00     0.000 C 
BRANCH  18  19
ATOM     19  C   UNL     1     -12.483  25.970 -10.916  1.00  0.00     0.000 C 
BRANCH  19  20
ATOM     20  C   UNL     1     -12.449  27.174  -9.953  1.00  0.00     0.006 C 
BRANCH  20  21
ATOM     21  C   UNL     1     -11.835  26.869  -8.578  1.00  0.00     0.053 C 
BRANCH  21  22
ATOM     22  C   UNL     1     -12.392  27.756  -7.508  1.00  0.00     0.041 C 
ATOM     23  O   UNL     1     -12.566  27.311  -6.342  1.00  0.00    -0.550 OA
ATOM     24  O   UNL     1     -12.709  29.077  -7.795  1.00  0.00    -0.550 OA
ENDBRANCH  21  22
ENDBRANCH  20  21
ENDBRANCH  19  20
ENDBRANCH  18  19
ENDBRANCH  17  18
ENDBRANCH  16  17
ENDBRANCH  15  16
ENDBRANCH  14  15
ENDBRANCH  13  14
ENDBRANCH   1  13
TORSDOF 20
ENDMDL
MODEL 5
REMARK VINA RESULT:    -3.805      3.183      6.745
REMARK INTER + INTRA:         -11.591
REMARK INTER:                  -8.411
REMARK INTRA:                  -3.180
REMARK UNBOUND:                -3.337
REMARK SMILES CCCCCCCCCCCCCCCCCCCCCC(=O)[O-]
REMARK SMILES IDX 12 1 11 2 10 3 9 4 8 5 7 6 6 7 5 8 4 9 3 10 2 11 1 12 13 13
REMARK SMILES IDX 14 14 15 15 16 16 17 17 18 18 19 19 20 20 21 21 22 22 23 23
REMARK SMILES IDX 24 24
REMARK H PARENT
REMARK Flexibility Score: inf
ROOT
ATOM      1  C   UNL     1      -8.633  26.225 -14.657  1.00  0.00     0.000 C 
ENDROOT
BRANCH   1   2
ATOM      2  C   UNL     1      -9.789  25.549 -13.903  1.00  0.00     0.000 C 
BRANCH   2   3
ATOM      3  C   UNL     1      -9.340  24.297 -13.130  1.00  0.00     0.000 C 
BRANCH   3   4
ATOM      4  C   UNL     1      -8.368  23.422 -13.939  1.00  0.00    -0.000 C 
BRANCH   4   5
ATOM      5  C   UNL     1      -7.756  22.289 -13.096  1.00  0.00    -0.000 C 
BRANCH   5   6
ATOM      6  C   UNL     1      -8.517  22.048 -11.781  1.00  0.00    -0.000 C 
BRANCH   6   7
ATOM      7  C   UNL     1      -8.002  20.859 -10.945  1.00  0.00    -0.000 C 
BRANCH   7   8
ATOM      8  C   UNL     1      -6.464  20.720 -10.946  1.00  0.00    -0.000 C 
BRANCH   8   9
ATOM      9  C   UNL     1      -5.936  20.057  -9.660  1.00  0.00    -0.000 C 
BRANCH   9  10
ATOM     10  C   UNL     1      -6.752  18.822  -9.253  1.00  0.00    -0.000 C 
BRANCH  10  11
ATOM     11  C   UNL     1      -6.727  18.567  -7.738  1.00  0.00    -0.003 C 
ATOM     12  C   UNL     1      -8.025  19.032  -7.081  1.00  0.00     0.004 C 
ENDBRANCH  10  11
ENDBRANCH   9  10
ENDBRANCH   8   9
ENDBRANCH   7   8
ENDBRANCH   6   7
ENDBRANCH   5   6
ENDBRANCH   4   5
ENDBRANCH   3   4
ENDBRANCH   2   3
ENDBRANCH   1   2
BRANCH   1  13
ATOM     13  C   UNL     1      -7.623  26.895 -13.714  1.00  0.00     0.000 C 
BRANCH  13  14
ATOM     14  C   UNL     1      -6.209  26.348 -13.950  1.00  0.00     0.000 C 
BRANCH  14  15
ATOM     15  C   UNL     1      -5.331  26.534 -12.703  1.00  0.00     0.000 C 
BRANCH  15  16
ATOM     16  C   UNL     1      -4.907  25.194 -12.065  1.00  0.00     0.000 C 
BRANCH  16  17
ATOM     17  C   UNL     1      -5.881  24.677 -10.986  1.00  0.00     0.000 C 
BRANCH  17  18
ATOM     18  C   UNL     1      -6.653  25.771 -10.224  1.00  0.00     0.000 C 
BRANCH  18  19
ATOM     19  C   UNL     1      -8.155  25.489 -10.015  1.00  0.00     0.000 C 
BRANCH  19  20
ATOM     20  C   UNL     1      -9.090  26.685 -10.285  1.00  0.00     0.006 C 
BRANCH  20  21
ATOM     21  C   UNL     1      -8.362  28.007 -10.573  1.00  0.00     0.053 C 
BRANCH  21  22
ATOM     22  C   UNL     1      -8.607  29.025  -9.503  1.00  0.00     0.041 C 
ATOM     23  O   UNL     1      -9.143  28.685  -8.416  1.00  0.00    -0.550 OA
ATOM     24  O   UNL     1      -8.232  30.347  -9.702  1.00  0.00    -0.550 OA
ENDBRANCH  21  22
ENDBRANCH  20  21
ENDBRANCH  19  20
ENDBRANCH  18  19
ENDBRANCH  17  18
ENDBRANCH  16  17
ENDBRANCH  15  16
ENDBRANCH  14  15
ENDBRANCH  13  14
ENDBRANCH   1  13
TORSDOF 20
ENDMDL
MODEL 6
REMARK VINA RESULT:    -3.773      5.745      8.487
REMARK INTER + INTRA:         -11.521
REMARK INTER:                  -7.832
REMARK INTRA:                  -3.689
REMARK UNBOUND:                -3.337
REMARK SMILES CCCCCCCCCCCCCCCCCCCCCC(=O)[O-]
REMARK SMILES IDX 12 1 11 2 10 3 9 4 8 5 7 6 6 7 5 8 4 9 3 10 2 11 1 12 13 13
REMARK SMILES IDX 14 14 15 15 16 16 17 17 18 18 19 19 20 20 21 21 22 22 23 23
REMARK SMILES IDX 24 24
REMARK H PARENT
REMARK Flexibility Score: inf
ROOT
ATOM      1  C   UNL     1      -7.382  29.853  -7.879  1.00  0.00     0.000 C 
ENDROOT
BRANCH   1   2
ATOM      2  C   UNL     1      -8.196  28.917  -6.973  1.00  0.00     0.000 C 
BRANCH   2   3
ATOM      3  C   UNL     1      -9.610  29.452  -6.687  1.00  0.00     0.000 C 
BRANCH   3   4
ATOM      4  C   UNL     1      -9.593  30.772  -5.899  1.00  0.00    -0.000 C 
BRANCH   4   5
ATOM      5  C   UNL     1     -10.085  31.965  -6.739  1.00  0.00    -0.000 C 
BRANCH   5   6
ATOM      6  C   UNL     1     -10.758  31.530  -8.052  1.00  0.00    -0.000 C 
BRANCH   6   7
ATOM      7  C   UNL     1     -12.298  31.477  -8.001  1.00  0.00    -0.000 C 
BRANCH   7   8
ATOM      8  C   UNL     1     -12.900  32.120  -6.733  1.00  0.00    -0.000 C 
BRANCH   8   9
ATOM      9  C   UNL     1     -13.643  31.097  -5.854  1.00  0.00    -0.000 C 
BRANCH   9  10
ATOM     10  C   UNL     1     -13.345  29.646  -6.255  1.00  0.00    -0.000 C 
BRANCH  10  11
ATOM     11  C   UNL     1     -12.916  28.776  -5.063  1.00  0.00    -0.003 C 
ATOM     12  C   UNL     1     -12.679  27.331  -5.494  1.00  0.00     0.004 C 
ENDBRANCH  10  11
ENDBRANCH   9  10
ENDBRANCH   8   9
ENDBRANCH   7   8
ENDBRANCH   6   7
ENDBRANCH   5   6
ENDBRANCH   4   5
ENDBRANCH   3   4
ENDBRANCH   2   3
ENDBRANCH   1   2
BRANCH   1  13
ATOM     13  C   UNL     1      -7.142  29.261  -9.276  1.00  0.00     0.000 C 
BRANCH  13  14
ATOM     14  C   UNL     1      -8.472  28.959  -9.979  1.00  0.00     0.000 C 
BRANCH  14  15
ATOM     15  C   UNL     1      -8.347  27.726 -10.887  1.00  0.00     0.000 C 
BRANCH  15  16
ATOM     16  C   UNL     1      -9.445  26.675 -10.621  1.00  0.00     0.000 C 
BRANCH  16  17
ATOM     17  C   UNL     1      -9.874  26.577  -9.143  1.00  0.00     0.000 C 
BRANCH  17  18
ATOM     18  C   UNL     1     -11.389  26.709  -8.891  1.00  0.00     0.000 C 
BRANCH  18  19
ATOM     19  C   UNL     1     -12.004  28.067  -9.289  1.00  0.00     0.000 C 
BRANCH  19  20
ATOM     20  C   UNL     1     -13.452  28.001  -9.816  1.00  0.00     0.006 C 
BRANCH  20  21
ATOM     21  C   UNL     1     -13.672  26.976 -10.940  1.00  0.00     0.053 C 
BRANCH  21  22
ATOM     22  C   UNL     1     -15.106  26.908 -11.362  1.00  0.00     0.041 C 
ATOM     23  O   UNL     1     -15.565  25.857 -11.884  1.00  0.00    -0.550 OA
ATOM     24  O   UNL     1     -15.940  28.001 -11.168  1.00  0.00    -0.550 OA
ENDBRANCH  21  22
ENDBRANCH  20  21
ENDBRANCH  19  20
ENDBRANCH  18  19
ENDBRANCH  17  18
ENDBRANCH  16  17
ENDBRANCH  15  16
ENDBRANCH  14  15
ENDBRANCH  13  14
ENDBRANCH   1  13
TORSDOF 20
ENDMDL
MODEL 7
REMARK VINA RESULT:    -3.768      2.653      4.995
REMARK INTER + INTRA:         -11.511
REMARK INTER:                  -8.007
REMARK INTRA:                  -3.504
REMARK UNBOUND:                -3.337
REMARK SMILES CCCCCCCCCCCCCCCCCCCCCC(=O)[O-]
REMARK SMILES IDX 12 1 11 2 10 3 9 4 8 5 7 6 6 7 5 8 4 9 3 10 2 11 1 12 13 13
REMARK SMILES IDX 14 14 15 15 16 16 17 17 18 18 19 19 20 20 21 21 22 22 23 23
REMARK SMILES IDX 24 24
REMARK H PARENT
REMARK Flexibility Score: inf
ROOT
ATOM      1  C   UNL     1      -7.619  25.033 -10.207  1.00  0.00     0.000 C 
ENDROOT
BRANCH   1   2
ATOM      2  C   UNL     1      -7.612  26.183  -9.188  1.00  0.00     0.000 C 
BRANCH   2   3
ATOM      3  C   UNL     1      -6.590  27.278  -9.538  1.00  0.00     0.000 C 
BRANCH   3   4
ATOM      4  C   UNL     1      -7.206  28.687  -9.517  1.00  0.00    -0.000 C 
BRANCH   4   5
ATOM      5  C   UNL     1      -8.648  28.707 -10.055  1.00  0.00    -0.000 C 
BRANCH   5   6
ATOM      6  C   UNL     1      -9.269  30.114 -10.041  1.00  0.00    -0.000 C 
BRANCH   6   7
ATOM      7  C   UNL     1     -10.339  30.336  -8.953  1.00  0.00    -0.000 C 
BRANCH   7   8
ATOM      8  C   UNL     1     -10.437  29.181  -7.933  1.00  0.00    -0.000 C 
BRANCH   8   9
ATOM      9  C   UNL     1     -11.874  28.646  -7.790  1.00  0.00    -0.000 C 
BRANCH   9  10
ATOM     10  C   UNL     1     -11.953  27.119  -7.919  1.00  0.00    -0.000 C 
BRANCH  10  11
ATOM     11  C   UNL     1     -11.564  26.620  -9.319  1.00  0.00    -0.003 C 
ATOM     12  C   UNL     1     -12.599  27.041 -10.360  1.00  0.00     0.004 C 
ENDBRANCH  10  11
ENDBRANCH   9  10
ENDBRANCH   8   9
ENDBRANCH   7   8
ENDBRANCH   6   7
ENDBRANCH   5   6
ENDBRANCH   4   5
ENDBRANCH   3   4
ENDBRANCH   2   3
ENDBRANCH   1   2
BRANCH   1  13
ATOM     13  C   UNL     1      -8.812  25.104 -11.171  1.00  0.00     0.000 C 
BRANCH  13  14
ATOM     14  C   UNL     1      -8.335  25.196 -12.626  1.00  0.00     0.000 C 
BRANCH  14  15
ATOM     15  C   UNL     1      -7.910  26.629 -12.977  1.00  0.00     0.000 C 
BRANCH  15  16
ATOM     16  C   UNL     1      -6.543  26.691 -13.691  1.00  0.00     0.000 C 
BRANCH  16  17
ATOM     17  C   UNL     1      -5.338  26.758 -12.730  1.00  0.00     0.000 C 
BRANCH  17  18
ATOM     18  C   UNL     1      -4.558  25.439 -12.567  1.00  0.00     0.000 C 
BRANCH  18  19
ATOM     19  C   UNL     1      -4.828  24.378 -13.654  1.00  0.00     0.000 C 
BRANCH  19  20
ATOM     20  C   UNL     1      -5.411  23.046 -13.139  1.00  0.00     0.006 C 
BRANCH  20  21
ATOM     21  C   UNL     1      -5.026  22.703 -11.691  1.00  0.00     0.053 C 
BRANCH  21  22
ATOM     22  C   UNL     1      -5.800  21.532 -11.170  1.00  0.00     0.041 C 
ATOM     23  O   UNL     1      -6.629  21.686 -10.234  1.00  0.00    -0.550 OA
ATOM     24  O   UNL     1      -5.614  20.273 -11.725  1.00  0.00    -0.550 OA
ENDBRANCH  21  22
ENDBRANCH  20  21
ENDBRANCH  19  20
ENDBRANCH  18  19
ENDBRANCH  17  18
ENDBRANCH  16  17
ENDBRANCH  15  16
ENDBRANCH  14  15
ENDBRANCH  13  14
ENDBRANCH   1  13
TORSDOF 20
ENDMDL
MODEL 8
REMARK VINA RESULT:    -3.733      1.422      3.385
REMARK INTER + INTRA:         -11.435
REMARK INTER:                  -9.157
REMARK INTRA:                  -2.278
REMARK UNBOUND:                -3.337
REMARK SMILES CCCCCCCCCCCCCCCCCCCCCC(=O)[O-]
REMARK SMILES IDX 12 1 11 2 10 3 9 4 8 5 7 6 6 7 5 8 4 9 3 10 2 11 1 12 13 13
REMARK SMILES IDX 14 14 15 15 16 16 17 17 18 18 19 19 20 20 21 21 22 22 23 23
REMARK SMILES IDX 24 24
REMARK H PARENT
REMARK Flexibility Score: inf
ROOT
ATOM      1  C   UNL     1      -8.072  26.820 -13.177  1.00  0.00     0.000 C 
ENDROOT
BRANCH   1   2
ATOM      2  C   UNL     1      -8.599  25.428 -12.796  1.00  0.00     0.000 C 
BRANCH   2   3
ATOM      3  C   UNL     1      -9.090  25.359 -11.339  1.00  0.00     0.000 C 
BRANCH   3   4
ATOM      4  C   UNL     1      -7.947  25.108 -10.343  1.00  0.00    -0.000 C 
BRANCH   4   5
ATOM      5  C   UNL     1      -7.962  26.103  -9.168  1.00  0.00    -0.000 C 
BRANCH   5   6
ATOM      6  C   UNL     1      -7.874  27.568  -9.627  1.00  0.00    -0.000 C 
BRANCH   6   7
ATOM      7  C   UNL     1      -6.544  28.271  -9.291  1.00  0.00    -0.000 C 
BRANCH   7   8
ATOM      8  C   UNL     1      -6.707  29.760  -8.912  1.00  0.00    -0.000 C 
BRANCH   8   9
ATOM      9  C   UNL     1      -5.422  30.571  -9.161  1.00  0.00    -0.000 C 
BRANCH   9  10
ATOM     10  C   UNL     1      -4.690  30.934  -7.862  1.00  0.00    -0.000 C 
BRANCH  10  11
ATOM     11  C   UNL     1      -5.646  31.385  -6.747  1.00  0.00    -0.003 C 
ATOM     12  C   UNL     1      -5.106  32.617  -6.024  1.00  0.00     0.004 C 
ENDBRANCH  10  11
ENDBRANCH   9  10
ENDBRANCH   8   9
ENDBRANCH   7   8
ENDBRANCH   6   7
ENDBRANCH   5   6
ENDBRANCH   4   5
ENDBRANCH   3   4
ENDBRANCH   2   3
ENDBRANCH   1   2
BRANCH   1  13
ATOM     13  C   UNL     1      -6.640  26.780 -13.729  1.00  0.00     0.000 C 
BRANCH  13  14
ATOM     14  C   UNL     1      -5.617  26.685 -12.590  1.00  0.00     0.000 C 
BRANCH  14  15
ATOM     15  C   UNL     1      -4.523  25.657 -12.915  1.00  0.00     0.000 C 
BRANCH  15  16
ATOM     16  C   UNL     1      -5.042  24.483 -13.772  1.00  0.00     0.000 C 
BRANCH  16  17
ATOM     17  C   UNL     1      -4.996  23.118 -13.055  1.00  0.00     0.000 C 
BRANCH  17  18
ATOM     18  C   UNL     1      -6.361  22.580 -12.584  1.00  0.00     0.000 C 
BRANCH  18  19
ATOM     19  C   UNL     1      -6.437  21.049 -12.408  1.00  0.00     0.000 C 
BRANCH  19  20
ATOM     20  C   UNL     1      -5.757  20.501 -11.137  1.00  0.00     0.006 C 
BRANCH  20  21
ATOM     21  C   UNL     1      -6.450  20.900  -9.825  1.00  0.00     0.053 C 
BRANCH  21  22
ATOM     22  C   UNL     1      -6.604  19.735  -8.897  1.00  0.00     0.041 C 
ATOM     23  O   UNL     1      -7.577  19.684  -8.100  1.00  0.00    -0.550 OA
ATOM     24  O   UNL     1      -5.679  18.700  -8.921  1.00  0.00    -0.550 OA
ENDBRANCH  21  22
ENDBRANCH  20  21
ENDBRANCH  19  20
ENDBRANCH  18  19
ENDBRANCH  17  18
ENDBRANCH  16  17
ENDBRANCH  15  16
ENDBRANCH  14  15
ENDBRANCH  13  14
ENDBRANCH   1  13
TORSDOF 20
ENDMDL
MODEL 9
REMARK VINA RESULT:    -3.719      6.479      9.568
REMARK INTER + INTRA:         -11.404
REMARK INTER:                  -7.049
REMARK INTRA:                  -4.355
REMARK UNBOUND:                -3.337
REMARK SMILES CCCCCCCCCCCCCCCCCCCCCC(=O)[O-]
REMARK SMILES IDX 12 1 11 2 10 3 9 4 8 5 7 6 6 7 5 8 4 9 3 10 2 11 1 12 13 13
REMARK SMILES IDX 14 14 15 15 16 16 17 17 18 18 19 19 20 20 21 21 22 22 23 23
REMARK SMILES IDX 24 24
REMARK H PARENT
REMARK Flexibility Score: inf
ROOT
ATOM      1  C   UNL     1      -8.190  28.563  -5.434  1.00  0.00     0.000 C 
ENDROOT
BRANCH   1   2
ATOM      2  C   UNL     1      -8.069  29.774  -4.496  1.00  0.00     0.000 C 
BRANCH   2   3
ATOM      3  C   UNL     1      -9.042  30.907  -4.864  1.00  0.00     0.000 C 
BRANCH   3   4
ATOM      4  C   UNL     1      -9.206  31.073  -6.384  1.00  0.00    -0.000 C 
BRANCH   4   5
ATOM      5  C   UNL     1     -10.262  32.133  -6.749  1.00  0.00    -0.000 C 
BRANCH   5   6
ATOM      6  C   UNL     1     -10.928  31.865  -8.109  1.00  0.00    -0.000 C 
BRANCH   6   7
ATOM      7  C   UNL     1     -10.670  30.460  -8.689  1.00  0.00    -0.000 C 
BRANCH   7   8
ATOM      8  C   UNL     1     -11.948  29.751  -9.190  1.00  0.00    -0.000 C 
BRANCH   8   9
ATOM      9  C   UNL     1     -12.710  29.046  -8.053  1.00  0.00    -0.000 C 
BRANCH   9  10
ATOM     10  C   UNL     1     -11.801  28.158  -7.192  1.00  0.00    -0.000 C 
BRANCH  10  11
ATOM     11  C   UNL     1     -11.872  28.508  -5.698  1.00  0.00    -0.003 C 
ATOM     12  C   UNL     1     -12.862  29.643  -5.445  1.00  0.00     0.004 C 
ENDBRANCH  10  11
ENDBRANCH   9  10
ENDBRANCH   8   9
ENDBRANCH   7   8
ENDBRANCH   6   7
ENDBRANCH   5   6
ENDBRANCH   4   5
ENDBRANCH   3   4
ENDBRANCH   2   3
ENDBRANCH   1   2
BRANCH   1  13
ATOM     13  C   UNL     1      -6.835  27.897  -5.718  1.00  0.00     0.000 C 
BRANCH  13  14
ATOM     14  C   UNL     1      -6.741  27.452  -7.183  1.00  0.00     0.000 C 
BRANCH  14  15
ATOM     15  C   UNL     1      -7.914  28.008  -8.005  1.00  0.00     0.000 C 
BRANCH  15  16
ATOM     16  C   UNL     1      -7.453  28.787  -9.255  1.00  0.00     0.000 C 
BRANCH  16  17
ATOM     17  C   UNL     1      -6.883  30.186  -8.945  1.00  0.00     0.000 C 
BRANCH  17  18
ATOM     18  C   UNL     1      -5.365  30.337  -9.161  1.00  0.00     0.000 C 
BRANCH  18  19
ATOM     19  C   UNL     1      -4.617  31.095  -8.045  1.00  0.00     0.000 C 
BRANCH  19  20
ATOM     20  C   UNL     1      -5.275  31.030  -6.652  1.00  0.00     0.006 C 
BRANCH  20  21
ATOM     21  C   UNL     1      -5.421  32.392  -5.956  1.00  0.00     0.053 C 
BRANCH  21  22
ATOM     22  C   UNL     1      -5.238  32.284  -4.474  1.00  0.00     0.041 C 
ATOM     23  O   UNL     1      -5.497  33.267  -3.730  1.00  0.00    -0.550 OA
ATOM     24  O   UNL     1      -4.793  31.095  -3.913  1.00  0.00    -0.550 OA
ENDBRANCH  21  22
ENDBRANCH  20  21
ENDBRANCH  19  20
ENDBRANCH  18  19
ENDBRANCH  17  18
ENDBRANCH  16  17
ENDBRANCH  15  16
ENDBRANCH  14  15
ENDBRANCH  13  14
ENDBRANCH   1  13
TORSDOF 20
ENDMDL
