MODEL 1
REMARK VINA RESULT:    -3.168      0.000      0.000
REMARK INTER + INTRA:          -6.986
REMARK INTER:                  -5.390
REMARK INTRA:                  -1.596
REMARK UNBOUND:                -1.596
REMARK SMILES CCCCCCCCCCCCCC(=O)[O-]
REMARK SMILES IDX 8 1 9 2 10 3 11 4 12 5 13 6 14 7 15 8 16 9 7 10 6 11 5 12
REMARK SMILES IDX 4 13 3 14 2 15 1 16
REMARK H PARENT
REMARK Flexibility Score: inf
ROOT
ATOM      1  C   UNL     1      19.800  28.016  55.914  1.00  0.00     0.000 C 
ENDROOT
BRANCH   1   2
ATOM      2  C   UNL     1      19.150  29.387  55.688  1.00  0.00     0.000 C 
BRANCH   2   3
ATOM      3  C   UNL     1      18.595  29.503  54.260  1.00  0.00     0.000 C 
BRANCH   3   4
ATOM      4  C   UNL     1      17.145  30.012  54.228  1.00  0.00     0.000 C 
BRANCH   4   5
ATOM      5  C   UNL     1      16.245  29.299  55.248  1.00  0.00     0.006 C 
BRANCH   5   6
ATOM      6  C   UNL     1      15.939  27.866  54.801  1.00  0.00     0.053 C 
BRANCH   6   7
ATOM      7  C   UNL     1      14.931  27.866  53.694  1.00  0.00     0.041 C 
ATOM      8  O   UNL     1      13.752  28.250  53.912  1.00  0.00    -0.550 OA
ATOM      9  O   UNL     1      15.308  27.490  52.411  1.00  0.00    -0.550 OA
ENDBRANCH   6   7
ENDBRANCH   5   6
ENDBRANCH   4   5
ENDBRANCH   3   4
ENDBRANCH   2   3
ENDBRANCH   1   2
BRANCH   1  10
ATOM     10  C   UNL     1      19.071  27.239  57.022  1.00  0.00     0.000 C 
BRANCH  10  11
ATOM     11  C   UNL     1      19.161  27.932  58.392  1.00  0.00    -0.000 C 
BRANCH  11  12
ATOM     12  C   UNL     1      20.592  28.239  58.872  1.00  0.00    -0.000 C 
BRANCH  12  13
ATOM     13  C   UNL     1      20.769  29.668  59.428  1.00  0.00    -0.000 C 
BRANCH  13  14
ATOM     14  C   UNL     1      21.507  30.590  58.446  1.00  0.00    -0.000 C 
BRANCH  14  15
ATOM     15  C   UNL     1      22.546  29.809  57.633  1.00  0.00    -0.003 C 
ATOM     16  C   UNL     1      22.715  30.404  56.238  1.00  0.00     0.004 C 
ENDBRANCH  14  15
ENDBRANCH  13  14
ENDBRANCH  12  13
ENDBRANCH  11  12
ENDBRANCH  10  11
ENDBRANCH   1  10
TORSDOF 12
ENDMDL
MODEL 2
REMARK VINA RESULT:    -3.075     10.690     13.011
REMARK INTER + INTRA:          -6.828
REMARK INTER:                  -5.197
REMARK INTRA:                  -1.631
REMARK UNBOUND:                -1.596
REMARK SMILES CCCCCCCCCCCCCC(=O)[O-]
REMARK SMILES IDX 8 1 9 2 10 3 11 4 12 5 13 6 14 7 15 8 16 9 7 10 6 11 5 12
REMARK SMILES IDX 4 13 3 14 2 15 1 16
REMARK H PARENT
REMARK Flexibility Score: inf
ROOT
ATOM      1  C   UNL     1      17.080  20.449  50.085  1.00  0.00     0.000 C 
ENDROOT
BRANCH   1   2
ATOM      2  C   UNL     1      17.576  19.000  50.165  1.00  0.00     0.000 C 
BRANCH   2   3
ATOM      3  C   UNL     1      18.321  18.746  51.485  1.00  0.00     0.000 C 
BRANCH   3   4
ATOM      4  C   UNL     1      17.890  17.437  52.165  1.00  0.00     0.000 C 
BRANCH   4   5
ATOM      5  C   UNL     1      16.509  17.542  52.830  1.00  0.00     0.006 C 
BRANCH   5   6
ATOM      6  C   UNL     1      16.405  18.813  53.677  1.00  0.00     0.053 C 
BRANCH   6   7
ATOM      7  C   UNL     1      17.092  18.624  54.994  1.00  0.00     0.041 C 
ATOM      8  O   UNL     1      18.217  19.151  55.202  1.00  0.00    -0.550 OA
ATOM      9  O   UNL     1      16.469  17.908  56.007  1.00  0.00    -0.550 OA
ENDBRANCH   6   7
ENDBRANCH   5   6
ENDBRANCH   4   5
ENDBRANCH   3   4
ENDBRANCH   2   3
ENDBRANCH   1   2
BRANCH   1  10
ATOM     10  C   UNL     1      15.546  20.500  49.999  1.00  0.00     0.000 C 
BRANCH  10  11
ATOM     11  C   UNL     1      14.911  19.107  49.861  1.00  0.00    -0.000 C 
BRANCH  11  12
ATOM     12  C   UNL     1      14.316  18.799  48.473  1.00  0.00    -0.000 C 
BRANCH  12  13
ATOM     13  C   UNL     1      14.577  19.902  47.425  1.00  0.00    -0.000 C 
BRANCH  13  14
ATOM     14  C   UNL     1      15.397  19.390  46.231  1.00  0.00    -0.000 C 
BRANCH  14  15
ATOM     15  C   UNL     1      16.435  18.355  46.679  1.00  0.00    -0.003 C 
ATOM     16  C   UNL     1      17.828  18.717  46.173  1.00  0.00     0.004 C 
ENDBRANCH  14  15
ENDBRANCH  13  14
ENDBRANCH  12  13
ENDBRANCH  11  12
ENDBRANCH  10  11
ENDBRANCH   1  10
TORSDOF 12
ENDMDL
MODEL 3
REMARK VINA RESULT:    -3.031     10.830     11.956
REMARK INTER + INTRA:          -6.753
REMARK INTER:                  -5.539
REMARK INTRA:                  -1.214
REMARK UNBOUND:                -1.596
REMARK SMILES CCCCCCCCCCCCCC(=O)[O-]
REMARK SMILES IDX 8 1 9 2 10 3 11 4 12 5 13 6 14 7 15 8 16 9 7 10 6 11 5 12
REMARK SMILES IDX 4 13 3 14 2 15 1 16
REMARK H PARENT
REMARK Flexibility Score: inf
ROOT
ATOM      1  C   UNL     1      18.184  18.845  51.375  1.00  0.00     0.000 C 
ENDROOT
BRANCH   1   2
ATOM      2  C   UNL     1      17.701  18.878  49.921  1.00  0.00     0.000 C 
BRANCH   2   3
ATOM      3  C   UNL     1      17.062  20.234  49.583  1.00  0.00     0.000 C 
BRANCH   3   4
ATOM      4  C   UNL     1      15.529  20.206  49.680  1.00  0.00     0.000 C 
BRANCH   4   5
ATOM      5  C   UNL     1      14.934  18.850  49.270  1.00  0.00     0.006 C 
BRANCH   5   6
ATOM      6  C   UNL     1      14.232  18.948  47.912  1.00  0.00     0.053 C 
BRANCH   6   7
ATOM      7  C   UNL     1      14.875  18.028  46.922  1.00  0.00     0.041 C 
ATOM      8  O   UNL     1      16.117  18.083  46.721  1.00  0.00    -0.550 OA
ATOM      9  O   UNL     1      14.111  17.076  46.259  1.00  0.00    -0.550 OA
ENDBRANCH   6   7
ENDBRANCH   5   6
ENDBRANCH   4   5
ENDBRANCH   3   4
ENDBRANCH   2   3
ENDBRANCH   1   2
BRANCH   1  10
ATOM     10  C   UNL     1      17.841  17.501  52.038  1.00  0.00     0.000 C 
BRANCH  10  11
ATOM     11  C   UNL     1      16.487  17.525  52.765  1.00  0.00    -0.000 C 
BRANCH  11  12
ATOM     12  C   UNL     1      16.025  18.918  53.234  1.00  0.00    -0.000 C 
BRANCH  12  13
ATOM     13  C   UNL     1      15.749  19.006  54.750  1.00  0.00    -0.000 C 
BRANCH  13  14
ATOM     14  C   UNL     1      16.726  18.151  55.572  1.00  0.00    -0.000 C 
BRANCH  14  15
ATOM     15  C   UNL     1      16.897  18.719  56.986  1.00  0.00    -0.003 C 
ATOM     16  C   UNL     1      18.256  18.342  57.569  1.00  0.00     0.004 C 
ENDBRANCH  14  15
ENDBRANCH  13  14
ENDBRANCH  12  13
ENDBRANCH  11  12
ENDBRANCH  10  11
ENDBRANCH   1  10
TORSDOF 12
ENDMDL
MODEL 4
REMARK VINA RESULT:    -3.028      3.562      5.916
REMARK INTER + INTRA:          -6.748
REMARK INTER:                  -5.063
REMARK INTRA:                  -1.685
REMARK UNBOUND:                -1.596
REMARK SMILES CCCCCCCCCCCCCC(=O)[O-]
REMARK SMILES IDX 8 1 9 2 10 3 11 4 12 5 13 6 14 7 15 8 16 9 7 10 6 11 5 12
REMARK SMILES IDX 4 13 3 14 2 15 1 16
REMARK H PARENT
REMARK Flexibility Score: inf
ROOT
ATOM      1  C   UNL     1      16.027  26.292  55.500  1.00  0.00     0.000 C 
ENDROOT
BRANCH   1   2
ATOM      2  C   UNL     1      17.515  26.163  55.843  1.00  0.00     0.000 C 
BRANCH   2   3
ATOM      3  C   UNL     1      17.782  26.575  57.299  1.00  0.00     0.000 C 
BRANCH   3   4
ATOM      4  C   UNL     1      18.282  28.022  57.423  1.00  0.00     0.000 C 
BRANCH   4   5
ATOM      5  C   UNL     1      19.541  28.141  58.296  1.00  0.00     0.006 C 
BRANCH   5   6
ATOM      6  C   UNL     1      20.620  28.968  57.591  1.00  0.00     0.053 C 
BRANCH   6   7
ATOM      7  C   UNL     1      21.272  29.910  58.555  1.00  0.00     0.041 C 
ATOM      8  O   UNL     1      20.838  30.011  59.733  1.00  0.00    -0.550 OA
ATOM      9  O   UNL     1      22.388  30.640  58.167  1.00  0.00    -0.550 OA
ENDBRANCH   6   7
ENDBRANCH   5   6
ENDBRANCH   4   5
ENDBRANCH   3   4
ENDBRANCH   2   3
ENDBRANCH   1   2
BRANCH   1  10
ATOM     10  C   UNL     1      15.830  27.099  54.206  1.00  0.00     0.000 C 
BRANCH  10  11
ATOM     11  C   UNL     1      15.216  28.486  54.458  1.00  0.00    -0.000 C 
BRANCH  11  12
ATOM     12  C   UNL     1      16.186  29.530  55.043  1.00  0.00    -0.000 C 
BRANCH  12  13
ATOM     13  C   UNL     1      17.187  30.096  54.014  1.00  0.00    -0.000 C 
BRANCH  13  14
ATOM     14  C   UNL     1      18.647  29.817  54.405  1.00  0.00    -0.000 C 
BRANCH  14  15
ATOM     15  C   UNL     1      19.172  28.557  53.705  1.00  0.00    -0.003 C 
ATOM     16  C   UNL     1      20.648  28.330  54.016  1.00  0.00     0.004 C 
ENDBRANCH  14  15
ENDBRANCH  13  14
ENDBRANCH  12  13
ENDBRANCH  11  12
ENDBRANCH  10  11
ENDBRANCH   1  10
TORSDOF 12
ENDMDL
MODEL 5
REMARK VINA RESULT:    -3.009      1.170      2.467
REMARK INTER + INTRA:          -6.716
REMARK INTER:                  -5.156
REMARK INTRA:                  -1.560
REMARK UNBOUND:                -1.596
REMARK SMILES CCCCCCCCCCCCCC(=O)[O-]
REMARK SMILES IDX 8 1 9 2 10 3 11 4 12 5 13 6 14 7 15 8 16 9 7 10 6 11 5 12
REMARK SMILES IDX 4 13 3 14 2 15 1 16
REMARK H PARENT
REMARK Flexibility Score: inf
ROOT
ATOM      1  C   UNL     1      20.428  27.809  55.253  1.00  0.00     0.000 C 
ENDROOT
BRANCH   1   2
ATOM      2  C   UNL     1      19.096  28.513  55.536  1.00  0.00     0.000 C 
BRANCH   2   3
ATOM      3  C   UNL     1      19.039  29.882  54.840  1.00  0.00     0.000 C 
BRANCH   3   4
ATOM      4  C   UNL     1      17.716  30.111  54.093  1.00  0.00     0.000 C 
BRANCH   4   5
ATOM      5  C   UNL     1      16.542  29.342  54.718  1.00  0.00     0.006 C 
BRANCH   5   6
ATOM      6  C   UNL     1      15.878  28.425  53.686  1.00  0.00     0.053 C 
BRANCH   6   7
ATOM      7  C   UNL     1      14.624  27.829  54.244  1.00  0.00     0.041 C 
ATOM      8  O   UNL     1      14.684  26.992  55.183  1.00  0.00    -0.550 OA
ATOM      9  O   UNL     1      13.386  28.234  53.761  1.00  0.00    -0.550 OA
ENDBRANCH   6   7
ENDBRANCH   5   6
ENDBRANCH   4   5
ENDBRANCH   3   4
ENDBRANCH   2   3
ENDBRANCH   1   2
BRANCH   1  10
ATOM     10  C   UNL     1      21.373  28.722  54.455  1.00  0.00     0.000 C 
BRANCH  10  11
ATOM     11  C   UNL     1      22.719  28.949  55.163  1.00  0.00    -0.000 C 
BRANCH  11  12
ATOM     12  C   UNL     1      22.830  30.274  55.940  1.00  0.00    -0.000 C 
BRANCH  12  13
ATOM     13  C   UNL     1      22.714  30.111  57.470  1.00  0.00    -0.000 C 
BRANCH  13  14
ATOM     14  C   UNL     1      21.268  30.258  57.966  1.00  0.00    -0.000 C 
BRANCH  14  15
ATOM     15  C   UNL     1      20.898  29.121  58.927  1.00  0.00    -0.003 C 
ATOM     16  C   UNL     1      21.795  27.906  58.713  1.00  0.00     0.004 C 
ENDBRANCH  14  15
ENDBRANCH  13  14
ENDBRANCH  12  13
ENDBRANCH  11  12
ENDBRANCH  10  11
ENDBRANCH   1  10
TORSDOF 12
ENDMDL
MODEL 6
REMARK VINA RESULT:    -2.997     16.616     17.787
REMARK INTER + INTRA:          -6.695
REMARK INTER:                  -5.201
REMARK INTRA:                  -1.494
REMARK UNBOUND:                -1.596
REMARK SMILES CCCCCCCCCCCCCC(=O)[O-]
REMARK SMILES IDX 8 1 9 2 10 3 11 4 12 5 13 6 14 7 15 8 16 9 7 10 6 11 5 12
REMARK SMILES IDX 4 13 3 14 2 15 1 16
REMARK H PARENT
REMARK Flexibility Score: inf
ROOT
ATOM      1  C   UNL     1      27.485  22.145  41.993  1.00  0.00     0.000 C 
ENDROOT
BRANCH   1   2
ATOM      2  C   UNL     1      25.993  21.818  42.126  1.00  0.00     0.000 C 
BRANCH   2   3
ATOM      3  C   UNL     1      25.681  20.429  41.548  1.00  0.00     0.000 C 
BRANCH   3   4
ATOM      4  C   UNL     1      24.524  19.730  42.278  1.00  0.00     0.000 C 
BRANCH   4   5
ATOM      5  C   UNL     1      23.807  18.695  41.397  1.00  0.00     0.006 C 
BRANCH   5   6
ATOM      6  C   UNL     1      22.493  18.244  42.042  1.00  0.00     0.053 C 
BRANCH   6   7
ATOM      7  C   UNL     1      22.738  17.116  42.995  1.00  0.00     0.041 C 
ATOM      8  O   UNL     1      22.753  15.928  42.578  1.00  0.00    -0.550 OA
ATOM      9  O   UNL     1      22.998  17.380  44.334  1.00  0.00    -0.550 OA
ENDBRANCH   6   7
ENDBRANCH   5   6
ENDBRANCH   4   5
ENDBRANCH   3   4
ENDBRANCH   2   3
ENDBRANCH   1   2
BRANCH   1  10
ATOM     10  C   UNL     1      28.282  20.906  41.555  1.00  0.00     0.000 C 
BRANCH  10  11
ATOM     11  C   UNL     1      29.598  20.740  42.332  1.00  0.00    -0.000 C 
BRANCH  11  12
ATOM     12  C   UNL     1      29.587  21.317  43.760  1.00  0.00    -0.000 C 
BRANCH  12  13
ATOM     13  C   UNL     1      29.261  20.275  44.851  1.00  0.00    -0.000 C 
BRANCH  13  14
ATOM     14  C   UNL     1      27.860  20.474  45.449  1.00  0.00    -0.000 C 
BRANCH  14  15
ATOM     15  C   UNL     1      26.903  19.370  44.986  1.00  0.00    -0.003 C 
ATOM     16  C   UNL     1      25.611  19.385  45.799  1.00  0.00     0.004 C 
ENDBRANCH  14  15
ENDBRANCH  13  14
ENDBRANCH  12  13
ENDBRANCH  11  12
ENDBRANCH  10  11
ENDBRANCH   1  10
TORSDOF 12
ENDMDL
MODEL 7
REMARK VINA RESULT:    -2.985     10.783     12.979
REMARK INTER + INTRA:          -6.675
REMARK INTER:                  -4.955
REMARK INTRA:                  -1.720
REMARK UNBOUND:                -1.596
REMARK SMILES CCCCCCCCCCCCCC(=O)[O-]
REMARK SMILES IDX 8 1 9 2 10 3 11 4 12 5 13 6 14 7 15 8 16 9 7 10 6 11 5 12
REMARK SMILES IDX 4 13 3 14 2 15 1 16
REMARK H PARENT
REMARK Flexibility Score: inf
ROOT
ATOM      1  C   UNL     1      16.749  20.428  49.197  1.00  0.00     0.000 C 
ENDROOT
BRANCH   1   2
ATOM      2  C   UNL     1      17.977  19.819  49.884  1.00  0.00     0.000 C 
BRANCH   2   3
ATOM      3  C   UNL     1      17.783  18.314  50.127  1.00  0.00     0.000 C 
BRANCH   3   4
ATOM      4  C   UNL     1      18.246  17.875  51.524  1.00  0.00     0.000 C 
BRANCH   4   5
ATOM      5  C   UNL     1      17.078  17.475  52.437  1.00  0.00     0.006 C 
BRANCH   5   6
ATOM      6  C   UNL     1      17.016  18.377  53.673  1.00  0.00     0.053 C 
BRANCH   6   7
ATOM      7  C   UNL     1      15.796  19.243  53.630  1.00  0.00     0.041 C 
ATOM      8  O   UNL     1      15.493  19.858  52.574  1.00  0.00    -0.550 OA
ATOM      9  O   UNL     1      14.966  19.331  54.741  1.00  0.00    -0.550 OA
ENDBRANCH   6   7
ENDBRANCH   5   6
ENDBRANCH   4   5
ENDBRANCH   3   4
ENDBRANCH   2   3
ENDBRANCH   1   2
BRANCH   1  10
ATOM     10  C   UNL     1      15.665  19.362  48.967  1.00  0.00     0.000 C 
BRANCH  10  11
ATOM     11  C   UNL     1      15.312  19.183  47.482  1.00  0.00    -0.000 C 
BRANCH  11  12
ATOM     12  C   UNL     1      16.095  18.073  46.757  1.00  0.00    -0.000 C 
BRANCH  12  13
ATOM     13  C   UNL     1      17.164  18.603  45.777  1.00  0.00    -0.000 C 
BRANCH  13  14
ATOM     14  C   UNL     1      16.995  20.101  45.481  1.00  0.00    -0.000 C 
BRANCH  14  15
ATOM     15  C   UNL     1      18.300  20.863  45.737  1.00  0.00    -0.003 C 
ATOM     16  C   UNL     1      19.312  19.990  46.472  1.00  0.00     0.004 C 
ENDBRANCH  14  15
ENDBRANCH  13  14
ENDBRANCH  12  13
ENDBRANCH  11  12
ENDBRANCH  10  11
ENDBRANCH   1  10
TORSDOF 12
ENDMDL
MODEL 8
REMARK VINA RESULT:    -2.960     11.491     13.564
REMARK INTER + INTRA:          -6.632
REMARK INTER:                  -4.777
REMARK INTRA:                  -1.856
REMARK UNBOUND:                -1.596
REMARK SMILES CCCCCCCCCCCCCC(=O)[O-]
REMARK SMILES IDX 8 1 9 2 10 3 11 4 12 5 13 6 14 7 15 8 16 9 7 10 6 11 5 12
REMARK SMILES IDX 4 13 3 14 2 15 1 16
REMARK H PARENT
REMARK Flexibility Score: inf
ROOT
ATOM      1  C   UNL     1      14.457  20.127  47.730  1.00  0.00     0.000 C 
ENDROOT
BRANCH   1   2
ATOM      2  C   UNL     1      14.070  19.393  49.019  1.00  0.00     0.000 C 
BRANCH   2   3
ATOM      3  C   UNL     1      15.251  19.346  50.001  1.00  0.00     0.000 C 
BRANCH   3   4
ATOM      4  C   UNL     1      16.348  20.365  49.658  1.00  0.00     0.000 C 
BRANCH   4   5
ATOM      5  C   UNL     1      17.759  19.841  49.964  1.00  0.00     0.006 C 
BRANCH   5   6
ATOM      6  C   UNL     1      17.743  18.327  50.195  1.00  0.00     0.053 C 
BRANCH   6   7
ATOM      7  C   UNL     1      18.189  18.005  51.587  1.00  0.00     0.041 C 
ATOM      8  O   UNL     1      17.453  17.318  52.344  1.00  0.00    -0.550 OA
ATOM      9  O   UNL     1      19.437  18.421  52.032  1.00  0.00    -0.550 OA
ENDBRANCH   6   7
ENDBRANCH   5   6
ENDBRANCH   4   5
ENDBRANCH   3   4
ENDBRANCH   2   3
ENDBRANCH   1   2
BRANCH   1  10
ATOM     10  C   UNL     1      14.219  19.237  46.499  1.00  0.00     0.000 C 
BRANCH  10  11
ATOM     11  C   UNL     1      14.951  17.888  46.590  1.00  0.00    -0.000 C 
BRANCH  11  12
ATOM     12  C   UNL     1      16.487  17.984  46.640  1.00  0.00    -0.000 C 
BRANCH  12  13
ATOM     13  C   UNL     1      17.092  18.880  45.538  1.00  0.00    -0.000 C 
BRANCH  13  14
ATOM     14  C   UNL     1      18.622  18.974  45.637  1.00  0.00    -0.000 C 
BRANCH  14  15
ATOM     15  C   UNL     1      19.044  20.103  46.586  1.00  0.00    -0.003 C 
ATOM     16  C   UNL     1      18.084  21.285  46.495  1.00  0.00     0.004 C 
ENDBRANCH  14  15
ENDBRANCH  13  14
ENDBRANCH  12  13
ENDBRANCH  11  12
ENDBRANCH  10  11
ENDBRANCH   1  10
TORSDOF 12
ENDMDL
MODEL 9
REMARK VINA RESULT:    -2.867      9.652     11.798
REMARK INTER + INTRA:          -6.475
REMARK INTER:                  -4.289
REMARK INTRA:                  -2.186
REMARK UNBOUND:                -1.596
REMARK SMILES CCCCCCCCCCCCCC(=O)[O-]
REMARK SMILES IDX 8 1 9 2 10 3 11 4 12 5 13 6 14 7 15 8 16 9 7 10 6 11 5 12
REMARK SMILES IDX 4 13 3 14 2 15 1 16
REMARK H PARENT
REMARK Flexibility Score: inf
ROOT
ATOM      1  C   UNL     1      25.283  31.372  52.852  1.00  0.00     0.000 C 
ENDROOT
BRANCH   1   2
ATOM      2  C   UNL     1      26.131  30.258  53.477  1.00  0.00     0.000 C 
BRANCH   2   3
ATOM      3  C   UNL     1      26.576  30.637  54.898  1.00  0.00     0.000 C 
BRANCH   3   4
ATOM      4  C   UNL     1      28.104  30.650  55.056  1.00  0.00     0.000 C 
BRANCH   4   5
ATOM      5  C   UNL     1      28.563  31.403  56.315  1.00  0.00     0.006 C 
BRANCH   5   6
ATOM      6  C   UNL     1      30.047  31.148  56.594  1.00  0.00     0.053 C 
BRANCH   6   7
ATOM      7  C   UNL     1      30.894  32.168  55.901  1.00  0.00     0.041 C 
ATOM      8  O   UNL     1      31.616  31.834  54.925  1.00  0.00    -0.550 OA
ATOM      9  O   UNL     1      30.849  33.498  56.301  1.00  0.00    -0.550 OA
ENDBRANCH   6   7
ENDBRANCH   5   6
ENDBRANCH   4   5
ENDBRANCH   3   4
ENDBRANCH   2   3
ENDBRANCH   1   2
BRANCH   1  10
ATOM     10  C   UNL     1      25.313  32.639  53.722  1.00  0.00     0.000 C 
BRANCH  10  11
ATOM     11  C   UNL     1      26.171  33.759  53.112  1.00  0.00    -0.000 C 
BRANCH  11  12
ATOM     12  C   UNL     1      27.366  34.206  53.976  1.00  0.00    -0.000 C 
BRANCH  12  13
ATOM     13  C   UNL     1      28.741  33.892  53.349  1.00  0.00    -0.000 C 
BRANCH  13  14
ATOM     14  C   UNL     1      28.616  33.132  52.020  1.00  0.00    -0.000 C 
BRANCH  14  15
ATOM     15  C   UNL     1      29.529  31.900  52.003  1.00  0.00    -0.003 C 
ATOM     16  C   UNL     1      28.919  30.774  51.174  1.00  0.00     0.004 C 
ENDBRANCH  14  15
ENDBRANCH  13  14
ENDBRANCH  12  13
ENDBRANCH  11  12
ENDBRANCH  10  11
ENDBRANCH   1  10
TORSDOF 12
ENDMDL
