MODEL 1
REMARK VINA RESULT:    -3.787      0.000      0.000
REMARK INTER + INTRA:          -7.987
REMARK INTER:                  -6.444
REMARK INTRA:                  -1.543
REMARK UNBOUND:                -1.543
REMARK SMILES CCCCCCCCCCCCCC(=O)[O-]
REMARK SMILES IDX 8 1 9 2 10 3 11 4 12 5 13 6 14 7 15 8 16 9 7 10 6 11 5 12
REMARK SMILES IDX 4 13 3 14 2 15 1 16
REMARK H PARENT
REMARK Flexibility Score: inf
ROOT
ATOM      1  C   UNL     1      -7.438  -4.712   5.524  1.00  0.00     0.000 C 
ENDROOT
BRANCH   1   2
ATOM      2  C   UNL     1      -8.249  -3.617   6.241  1.00  0.00     0.000 C 
BRANCH   2   3
ATOM      3  C   UNL     1      -7.618  -2.222   6.112  1.00  0.00     0.000 C 
BRANCH   3   4
ATOM      4  C   UNL     1      -6.250  -2.301   5.425  1.00  0.00     0.000 C 
BRANCH   4   5
ATOM      5  C   UNL     1      -5.415  -1.044   5.714  1.00  0.00     0.006 C 
BRANCH   5   6
ATOM      6  C   UNL     1      -5.467  -0.641   7.194  1.00  0.00     0.053 C 
BRANCH   6   7
ATOM      7  C   UNL     1      -5.747   0.821   7.361  1.00  0.00     0.041 C 
ATOM      8  O   UNL     1      -6.927   1.225   7.539  1.00  0.00    -0.550 OA
ATOM      9  O   UNL     1      -4.709   1.741   7.289  1.00  0.00    -0.550 OA
ENDBRANCH   6   7
ENDBRANCH   5   6
ENDBRANCH   4   5
ENDBRANCH   3   4
ENDBRANCH   2   3
ENDBRANCH   1   2
BRANCH   1  10
ATOM     10  C   UNL     1      -7.269  -6.020   6.319  1.00  0.00     0.000 C 
BRANCH  10  11
ATOM     11  C   UNL     1      -5.993  -6.099   7.180  1.00  0.00    -0.000 C 
BRANCH  11  12
ATOM     12  C   UNL     1      -4.704  -6.321   6.359  1.00  0.00    -0.000 C 
BRANCH  12  13
ATOM     13  C   UNL     1      -3.892  -5.027   6.183  1.00  0.00    -0.000 C 
BRANCH  13  14
ATOM     14  C   UNL     1      -3.411  -4.443   7.521  1.00  0.00    -0.000 C 
BRANCH  14  15
ATOM     15  C   UNL     1      -2.729  -3.077   7.361  1.00  0.00    -0.003 C 
ATOM     16  C   UNL     1      -1.961  -2.998   6.044  1.00  0.00     0.004 C 
ENDBRANCH  14  15
ENDBRANCH  13  14
ENDBRANCH  12  13
ENDBRANCH  11  12
ENDBRANCH  10  11
ENDBRANCH   1  10
TORSDOF 12
ENDMDL
MODEL 2
REMARK VINA RESULT:    -3.737      1.045      3.651
REMARK INTER + INTRA:          -7.902
REMARK INTER:                  -6.180
REMARK INTRA:                  -1.722
REMARK UNBOUND:                -1.543
REMARK SMILES CCCCCCCCCCCCCC(=O)[O-]
REMARK SMILES IDX 8 1 9 2 10 3 11 4 12 5 13 6 14 7 15 8 16 9 7 10 6 11 5 12
REMARK SMILES IDX 4 13 3 14 2 15 1 16
REMARK H PARENT
REMARK Flexibility Score: inf
ROOT
ATOM      1  C   UNL     1      -3.867  -5.266   5.671  1.00  0.00     0.000 C 
ENDROOT
BRANCH   1   2
ATOM      2  C   UNL     1      -2.900  -4.295   6.373  1.00  0.00     0.000 C 
BRANCH   2   3
ATOM      3  C   UNL     1      -3.044  -2.847   5.881  1.00  0.00     0.000 C 
BRANCH   3   4
ATOM      4  C   UNL     1      -4.497  -2.537   5.504  1.00  0.00     0.000 C 
BRANCH   4   5
ATOM      5  C   UNL     1      -5.181  -1.695   6.592  1.00  0.00     0.006 C 
BRANCH   5   6
ATOM      6  C   UNL     1      -5.763  -0.389   6.034  1.00  0.00     0.053 C 
BRANCH   6   7
ATOM      7  C   UNL     1      -5.782   0.695   7.068  1.00  0.00     0.041 C 
ATOM      8  O   UNL     1      -6.877   1.110   7.532  1.00  0.00    -0.550 OA
ATOM      9  O   UNL     1      -4.592   1.269   7.496  1.00  0.00    -0.550 OA
ENDBRANCH   6   7
ENDBRANCH   5   6
ENDBRANCH   4   5
ENDBRANCH   3   4
ENDBRANCH   2   3
ENDBRANCH   1   2
BRANCH   1  10
ATOM     10  C   UNL     1      -4.712  -6.138   6.618  1.00  0.00     0.000 C 
BRANCH  10  11
ATOM     11  C   UNL     1      -5.146  -5.448   7.926  1.00  0.00    -0.000 C 
BRANCH  11  12
ATOM     12  C   UNL     1      -6.589  -4.898   7.888  1.00  0.00    -0.000 C 
BRANCH  12  13
ATOM     13  C   UNL     1      -7.342  -5.319   6.614  1.00  0.00    -0.000 C 
BRANCH  13  14
ATOM     14  C   UNL     1      -8.280  -4.221   6.090  1.00  0.00    -0.000 C 
BRANCH  14  15
ATOM     15  C   UNL     1      -8.830  -3.326   7.210  1.00  0.00    -0.003 C 
ATOM     16  C   UNL     1      -9.051  -1.900   6.714  1.00  0.00     0.004 C 
ENDBRANCH  14  15
ENDBRANCH  13  14
ENDBRANCH  12  13
ENDBRANCH  11  12
ENDBRANCH  10  11
ENDBRANCH   1  10
TORSDOF 12
ENDMDL
MODEL 3
REMARK VINA RESULT:    -3.584      1.683      4.466
REMARK INTER + INTRA:          -7.642
REMARK INTER:                  -6.524
REMARK INTRA:                  -1.118
REMARK UNBOUND:                -1.543
REMARK SMILES CCCCCCCCCCCCCC(=O)[O-]
REMARK SMILES IDX 8 1 9 2 10 3 11 4 12 5 13 6 14 7 15 8 16 9 7 10 6 11 5 12
REMARK SMILES IDX 4 13 3 14 2 15 1 16
REMARK H PARENT
REMARK Flexibility Score: inf
ROOT
ATOM      1  C   UNL     1      -4.123  -5.292   5.889  1.00  0.00     0.000 C 
ENDROOT
BRANCH   1   2
ATOM      2  C   UNL     1      -3.088  -4.612   6.804  1.00  0.00     0.000 C 
BRANCH   2   3
ATOM      3  C   UNL     1      -2.677  -3.217   6.309  1.00  0.00     0.000 C 
BRANCH   3   4
ATOM      4  C   UNL     1      -3.859  -2.500   5.646  1.00  0.00     0.000 C 
BRANCH   4   5
ATOM      5  C   UNL     1      -4.654  -1.682   6.674  1.00  0.00     0.006 C 
BRANCH   5   6
ATOM      6  C   UNL     1      -5.570  -0.645   6.008  1.00  0.00     0.053 C 
BRANCH   6   7
ATOM      7  C   UNL     1      -5.803   0.539   6.894  1.00  0.00     0.041 C 
ATOM      8  O   UNL     1      -4.837   1.266   7.249  1.00  0.00    -0.550 OA
ATOM      9  O   UNL     1      -7.082   0.823   7.355  1.00  0.00    -0.550 OA
ENDBRANCH   6   7
ENDBRANCH   5   6
ENDBRANCH   4   5
ENDBRANCH   3   4
ENDBRANCH   2   3
ENDBRANCH   1   2
BRANCH   1  10
ATOM     10  C   UNL     1      -5.318  -5.930   6.622  1.00  0.00     0.000 C 
BRANCH  10  11
ATOM     11  C   UNL     1      -6.522  -4.994   6.842  1.00  0.00    -0.000 C 
BRANCH  11  12
ATOM     12  C   UNL     1      -7.282  -4.645   5.543  1.00  0.00    -0.000 C 
BRANCH  12  13
ATOM     13  C   UNL     1      -8.593  -5.437   5.401  1.00  0.00    -0.000 C 
BRANCH  13  14
ATOM     14  C   UNL     1      -8.636  -6.289   4.124  1.00  0.00    -0.000 C 
BRANCH  14  15
ATOM     15  C   UNL     1      -8.365  -7.776   4.393  1.00  0.00    -0.003 C 
ATOM     16  C   UNL     1      -9.136  -8.660   3.417  1.00  0.00     0.004 C 
ENDBRANCH  14  15
ENDBRANCH  13  14
ENDBRANCH  12  13
ENDBRANCH  11  12
ENDBRANCH  10  11
ENDBRANCH   1  10
TORSDOF 12
ENDMDL
MODEL 4
REMARK VINA RESULT:    -3.573      8.939     11.094
REMARK INTER + INTRA:          -7.623
REMARK INTER:                  -7.200
REMARK INTRA:                  -0.424
REMARK UNBOUND:                -1.543
REMARK SMILES CCCCCCCCCCCCCC(=O)[O-]
REMARK SMILES IDX 8 1 9 2 10 3 11 4 12 5 13 6 14 7 15 8 16 9 7 10 6 11 5 12
REMARK SMILES IDX 4 13 3 14 2 15 1 16
REMARK H PARENT
REMARK Flexibility Score: inf
ROOT
ATOM      1  C   UNL     1      -0.758  -6.981  -2.320  1.00  0.00     0.000 C 
ENDROOT
BRANCH   1   2
ATOM      2  C   UNL     1      -0.854  -8.485  -2.000  1.00  0.00     0.000 C 
BRANCH   2   3
ATOM      3  C   UNL     1      -1.112  -8.765  -0.512  1.00  0.00     0.000 C 
BRANCH   3   4
ATOM      4  C   UNL     1      -1.765 -10.139  -0.318  1.00  0.00     0.000 C 
BRANCH   4   5
ATOM      5  C   UNL     1      -1.873 -10.492   1.173  1.00  0.00     0.006 C 
BRANCH   5   6
ATOM      6  C   UNL     1      -2.126  -9.255   2.046  1.00  0.00     0.053 C 
BRANCH   6   7
ATOM      7  C   UNL     1      -2.353  -9.625   3.479  1.00  0.00     0.041 C 
ATOM      8  O   UNL     1      -2.037  -8.824   4.399  1.00  0.00    -0.550 OA
ATOM      9  O   UNL     1      -2.885 -10.866   3.801  1.00  0.00    -0.550 OA
ENDBRANCH   6   7
ENDBRANCH   5   6
ENDBRANCH   4   5
ENDBRANCH   3   4
ENDBRANCH   2   3
ENDBRANCH   1   2
BRANCH   1  10
ATOM     10  C   UNL     1       0.384  -6.237  -1.604  1.00  0.00     0.000 C 
BRANCH  10  11
ATOM     11  C   UNL     1       0.634  -4.798  -2.097  1.00  0.00    -0.000 C 
BRANCH  11  12
ATOM     12  C   UNL     1       0.454  -3.726  -0.999  1.00  0.00    -0.000 C 
BRANCH  12  13
ATOM     13  C   UNL     1       0.402  -2.302  -1.576  1.00  0.00    -0.000 C 
BRANCH  13  14
ATOM     14  C   UNL     1       1.616  -1.976  -2.460  1.00  0.00    -0.000 C 
BRANCH  14  15
ATOM     15  C   UNL     1       2.597  -1.005  -1.787  1.00  0.00    -0.003 C 
ATOM     16  C   UNL     1       3.754  -0.659  -2.720  1.00  0.00     0.004 C 
ENDBRANCH  14  15
ENDBRANCH  13  14
ENDBRANCH  12  13
ENDBRANCH  11  12
ENDBRANCH  10  11
ENDBRANCH   1  10
TORSDOF 12
ENDMDL
MODEL 5
REMARK VINA RESULT:    -3.519      3.206      5.438
REMARK INTER + INTRA:          -7.532
REMARK INTER:                  -6.313
REMARK INTRA:                  -1.219
REMARK UNBOUND:                -1.543
REMARK SMILES CCCCCCCCCCCCCC(=O)[O-]
REMARK SMILES IDX 8 1 9 2 10 3 11 4 12 5 13 6 14 7 15 8 16 9 7 10 6 11 5 12
REMARK SMILES IDX 4 13 3 14 2 15 1 16
REMARK H PARENT
REMARK Flexibility Score: inf
ROOT
ATOM      1  C   UNL     1      -7.679  -1.666   5.848  1.00  0.00     0.000 C 
ENDROOT
BRANCH   1   2
ATOM      2  C   UNL     1      -6.784  -0.605   6.517  1.00  0.00     0.000 C 
BRANCH   2   3
ATOM      3  C   UNL     1      -5.299  -0.761   6.157  1.00  0.00     0.000 C 
BRANCH   3   4
ATOM      4  C   UNL     1      -4.763  -2.123   6.613  1.00  0.00     0.000 C 
BRANCH   4   5
ATOM      5  C   UNL     1      -3.755  -2.686   5.601  1.00  0.00     0.006 C 
BRANCH   5   6
ATOM      6  C   UNL     1      -4.198  -4.040   5.031  1.00  0.00     0.053 C 
BRANCH   6   7
ATOM      7  C   UNL     1      -3.528  -5.182   5.731  1.00  0.00     0.041 C 
ATOM      8  O   UNL     1      -2.325  -5.459   5.485  1.00  0.00    -0.550 OA
ATOM      9  O   UNL     1      -4.242  -5.960   6.633  1.00  0.00    -0.550 OA
ENDBRANCH   6   7
ENDBRANCH   5   6
ENDBRANCH   4   5
ENDBRANCH   3   4
ENDBRANCH   2   3
ENDBRANCH   1   2
BRANCH   1  10
ATOM     10  C   UNL     1      -8.806  -2.220   6.739  1.00  0.00     0.000 C 
BRANCH  10  11
ATOM     11  C   UNL     1      -9.035  -3.740   6.629  1.00  0.00    -0.000 C 
BRANCH  11  12
ATOM     12  C   UNL     1      -7.732  -4.568   6.669  1.00  0.00    -0.000 C 
BRANCH  12  13
ATOM     13  C   UNL     1      -7.478  -5.323   5.354  1.00  0.00    -0.000 C 
BRANCH  13  14
ATOM     14  C   UNL     1      -8.775  -5.812   4.690  1.00  0.00    -0.000 C 
BRANCH  14  15
ATOM     15  C   UNL     1      -8.823  -7.339   4.537  1.00  0.00    -0.003 C 
ATOM     16  C   UNL     1      -9.259  -7.736   3.129  1.00  0.00     0.004 C 
ENDBRANCH  14  15
ENDBRANCH  13  14
ENDBRANCH  12  13
ENDBRANCH  11  12
ENDBRANCH  10  11
ENDBRANCH   1  10
TORSDOF 12
ENDMDL
MODEL 6
REMARK VINA RESULT:    -3.375      2.445      3.720
REMARK INTER + INTRA:          -7.286
REMARK INTER:                  -6.671
REMARK INTRA:                  -0.614
REMARK UNBOUND:                -1.543
REMARK SMILES CCCCCCCCCCCCCC(=O)[O-]
REMARK SMILES IDX 8 1 9 2 10 3 11 4 12 5 13 6 14 7 15 8 16 9 7 10 6 11 5 12
REMARK SMILES IDX 4 13 3 14 2 15 1 16
REMARK H PARENT
REMARK Flexibility Score: inf
ROOT
ATOM      1  C   UNL     1      -5.149  -5.582   5.887  1.00  0.00     0.000 C 
ENDROOT
BRANCH   1   2
ATOM      2  C   UNL     1      -3.897  -4.744   6.204  1.00  0.00     0.000 C 
BRANCH   2   3
ATOM      3  C   UNL     1      -4.232  -3.373   6.810  1.00  0.00     0.000 C 
BRANCH   3   4
ATOM      4  C   UNL     1      -4.286  -2.290   5.726  1.00  0.00     0.000 C 
BRANCH   4   5
ATOM      5  C   UNL     1      -5.462  -1.332   5.962  1.00  0.00     0.006 C 
BRANCH   5   6
ATOM      6  C   UNL     1      -5.421  -0.694   7.357  1.00  0.00     0.053 C 
BRANCH   6   7
ATOM      7  C   UNL     1      -5.773   0.762   7.312  1.00  0.00     0.041 C 
ATOM      8  O   UNL     1      -6.971   1.129   7.434  1.00  0.00    -0.550 OA
ATOM      9  O   UNL     1      -4.780   1.711   7.105  1.00  0.00    -0.550 OA
ENDBRANCH   6   7
ENDBRANCH   5   6
ENDBRANCH   4   5
ENDBRANCH   3   4
ENDBRANCH   2   3
ENDBRANCH   1   2
BRANCH   1  10
ATOM     10  C   UNL     1      -5.245  -6.918   6.647  1.00  0.00     0.000 C 
BRANCH  10  11
ATOM     11  C   UNL     1      -6.425  -7.820   6.233  1.00  0.00    -0.000 C 
BRANCH  11  12
ATOM     12  C   UNL     1      -5.992  -9.121   5.524  1.00  0.00    -0.000 C 
BRANCH  12  13
ATOM     13  C   UNL     1      -4.498  -9.428   5.725  1.00  0.00    -0.000 C 
BRANCH  13  14
ATOM     14  C   UNL     1      -3.814  -9.916   4.439  1.00  0.00    -0.000 C 
BRANCH  14  15
ATOM     15  C   UNL     1      -2.606  -9.055   4.046  1.00  0.00    -0.003 C 
ATOM     16  C   UNL     1      -2.166  -9.346   2.614  1.00  0.00     0.004 C 
ENDBRANCH  14  15
ENDBRANCH  13  14
ENDBRANCH  12  13
ENDBRANCH  11  12
ENDBRANCH  10  11
ENDBRANCH   1  10
TORSDOF 12
ENDMDL
MODEL 7
REMARK VINA RESULT:    -3.365      2.965      4.918
REMARK INTER + INTRA:          -7.269
REMARK INTER:                  -5.510
REMARK INTRA:                  -1.759
REMARK UNBOUND:                -1.543
REMARK SMILES CCCCCCCCCCCCCC(=O)[O-]
REMARK SMILES IDX 8 1 9 2 10 3 11 4 12 5 13 6 14 7 15 8 16 9 7 10 6 11 5 12
REMARK SMILES IDX 4 13 3 14 2 15 1 16
REMARK H PARENT
REMARK Flexibility Score: inf
ROOT
ATOM      1  C   UNL     1      -8.123  -1.744   6.316  1.00  0.00     0.000 C 
ENDROOT
BRANCH   1   2
ATOM      2  C   UNL     1      -7.125  -2.054   7.447  1.00  0.00     0.000 C 
BRANCH   2   3
ATOM      3  C   UNL     1      -5.763  -2.538   6.927  1.00  0.00     0.000 C 
BRANCH   3   4
ATOM      4  C   UNL     1      -5.838  -2.893   5.437  1.00  0.00     0.000 C 
BRANCH   4   5
ATOM      5  C   UNL     1      -4.471  -3.351   4.910  1.00  0.00     0.006 C 
BRANCH   5   6
ATOM      6  C   UNL     1      -3.376  -3.264   5.982  1.00  0.00     0.053 C 
BRANCH   6   7
ATOM      7  C   UNL     1      -2.822  -4.614   6.320  1.00  0.00     0.041 C 
ATOM      8  O   UNL     1      -2.535  -5.430   5.405  1.00  0.00    -0.550 OA
ATOM      9  O   UNL     1      -2.652  -4.983   7.648  1.00  0.00    -0.550 OA
ENDBRANCH   6   7
ENDBRANCH   5   6
ENDBRANCH   4   5
ENDBRANCH   3   4
ENDBRANCH   2   3
ENDBRANCH   1   2
BRANCH   1  10
ATOM     10  C   UNL     1      -9.518  -2.373   6.491  1.00  0.00     0.000 C 
BRANCH  10  11
ATOM     11  C   UNL     1      -9.630  -3.404   7.630  1.00  0.00    -0.000 C 
BRANCH  11  12
ATOM     12  C   UNL     1      -9.400  -4.861   7.172  1.00  0.00    -0.000 C 
BRANCH  12  13
ATOM     13  C   UNL     1      -9.387  -4.998   5.640  1.00  0.00    -0.000 C 
BRANCH  13  14
ATOM     14  C   UNL     1      -8.108  -5.670   5.116  1.00  0.00    -0.000 C 
BRANCH  14  15
ATOM     15  C   UNL     1      -7.545  -6.714   6.090  1.00  0.00    -0.003 C 
ATOM     16  C   UNL     1      -6.061  -6.475   6.354  1.00  0.00     0.004 C 
ENDBRANCH  14  15
ENDBRANCH  13  14
ENDBRANCH  12  13
ENDBRANCH  11  12
ENDBRANCH  10  11
ENDBRANCH   1  10
TORSDOF 12
ENDMDL
MODEL 8
REMARK VINA RESULT:    -3.320      2.430      5.199
REMARK INTER + INTRA:          -7.193
REMARK INTER:                  -5.800
REMARK INTRA:                  -1.393
REMARK UNBOUND:                -1.543
REMARK SMILES CCCCCCCCCCCCCC(=O)[O-]
REMARK SMILES IDX 8 1 9 2 10 3 11 4 12 5 13 6 14 7 15 8 16 9 7 10 6 11 5 12
REMARK SMILES IDX 4 13 3 14 2 15 1 16
REMARK H PARENT
REMARK Flexibility Score: inf
ROOT
ATOM      1  C   UNL     1      -6.157  -2.384   6.830  1.00  0.00     0.000 C 
ENDROOT
BRANCH   1   2
ATOM      2  C   UNL     1      -5.404  -2.262   5.492  1.00  0.00     0.000 C 
BRANCH   2   3
ATOM      3  C   UNL     1      -5.082  -3.625   4.860  1.00  0.00     0.000 C 
BRANCH   3   4
ATOM      4  C   UNL     1      -4.779  -4.672   5.938  1.00  0.00     0.000 C 
BRANCH   4   5
ATOM      5  C   UNL     1      -3.267  -4.910   6.066  1.00  0.00     0.006 C 
BRANCH   5   6
ATOM      6  C   UNL     1      -2.660  -4.165   7.263  1.00  0.00     0.053 C 
BRANCH   6   7
ATOM      7  C   UNL     1      -1.932  -2.928   6.834  1.00  0.00     0.041 C 
ATOM      8  O   UNL     1      -1.732  -1.994   7.654  1.00  0.00    -0.550 OA
ATOM      9  O   UNL     1      -1.501  -2.795   5.521  1.00  0.00    -0.550 OA
ENDBRANCH   6   7
ENDBRANCH   5   6
ENDBRANCH   4   5
ENDBRANCH   3   4
ENDBRANCH   2   3
ENDBRANCH   1   2
BRANCH   1  10
ATOM     10  C   UNL     1      -7.533  -1.693   6.866  1.00  0.00     0.000 C 
BRANCH  10  11
ATOM     11  C   UNL     1      -8.740  -2.647   6.939  1.00  0.00    -0.000 C 
BRANCH  11  12
ATOM     12  C   UNL     1      -8.364  -4.136   6.777  1.00  0.00    -0.000 C 
BRANCH  12  13
ATOM     13  C   UNL     1      -9.042  -4.782   5.557  1.00  0.00    -0.000 C 
BRANCH  13  14
ATOM     14  C   UNL     1      -8.174  -5.867   4.901  1.00  0.00    -0.000 C 
BRANCH  14  15
ATOM     15  C   UNL     1      -8.900  -7.213   4.777  1.00  0.00    -0.003 C 
ATOM     16  C   UNL     1      -8.891  -7.711   3.334  1.00  0.00     0.004 C 
ENDBRANCH  14  15
ENDBRANCH  13  14
ENDBRANCH  12  13
ENDBRANCH  11  12
ENDBRANCH  10  11
ENDBRANCH   1  10
TORSDOF 12
ENDMDL
MODEL 9
REMARK VINA RESULT:    -3.282      2.713      5.061
REMARK INTER + INTRA:          -7.127
REMARK INTER:                  -5.433
REMARK INTRA:                  -1.694
REMARK UNBOUND:                -1.543
REMARK SMILES CCCCCCCCCCCCCC(=O)[O-]
REMARK SMILES IDX 8 1 9 2 10 3 11 4 12 5 13 6 14 7 15 8 16 9 7 10 6 11 5 12
REMARK SMILES IDX 4 13 3 14 2 15 1 16
REMARK H PARENT
REMARK Flexibility Score: inf
ROOT
ATOM      1  C   UNL     1      -6.898  -1.641   5.523  1.00  0.00     0.000 C 
ENDROOT
BRANCH   1   2
ATOM      2  C   UNL     1      -5.390  -1.611   5.831  1.00  0.00     0.000 C 
BRANCH   2   3
ATOM      3  C   UNL     1      -5.076  -1.077   7.237  1.00  0.00     0.000 C 
BRANCH   3   4
ATOM      4  C   UNL     1      -4.109  -2.010   7.975  1.00  0.00     0.000 C 
BRANCH   4   5
ATOM      5  C   UNL     1      -4.398  -3.481   7.641  1.00  0.00     0.006 C 
BRANCH   5   6
ATOM      6  C   UNL     1      -3.115  -4.316   7.535  1.00  0.00     0.053 C 
BRANCH   6   7
ATOM      7  C   UNL     1      -2.627  -4.406   6.122  1.00  0.00     0.041 C 
ATOM      8  O   UNL     1      -2.675  -5.501   5.502  1.00  0.00    -0.550 OA
ATOM      9  O   UNL     1      -2.090  -3.286   5.499  1.00  0.00    -0.550 OA
ENDBRANCH   6   7
ENDBRANCH   5   6
ENDBRANCH   4   5
ENDBRANCH   3   4
ENDBRANCH   2   3
ENDBRANCH   1   2
BRANCH   1  10
ATOM     10  C   UNL     1      -7.815  -1.484   6.751  1.00  0.00     0.000 C 
BRANCH  10  11
ATOM     11  C   UNL     1      -9.209  -2.125   6.609  1.00  0.00    -0.000 C 
BRANCH  11  12
ATOM     12  C   UNL     1      -9.374  -3.433   7.414  1.00  0.00    -0.000 C 
BRANCH  12  13
ATOM     13  C   UNL     1      -8.024  -4.017   7.865  1.00  0.00    -0.000 C 
BRANCH  13  14
ATOM     14  C   UNL     1      -7.727  -5.384   7.231  1.00  0.00    -0.000 C 
BRANCH  14  15
ATOM     15  C   UNL     1      -7.239  -5.271   5.780  1.00  0.00    -0.003 C 
ATOM     16  C   UNL     1      -8.251  -5.875   4.811  1.00  0.00     0.004 C 
ENDBRANCH  14  15
ENDBRANCH  13  14
ENDBRANCH  12  13
ENDBRANCH  11  12
ENDBRANCH  10  11
ENDBRANCH   1  10
TORSDOF 12
ENDMDL
