MODEL 1
REMARK VINA RESULT:     1.906      0.000      0.000
REMARK INTER + INTRA:           2.049
REMARK INTER:                   2.184
REMARK INTRA:                  -0.136
REMARK UNBOUND:                -0.136
REMARK SMILES O=C([O-])C=Cc1ccc(O)cc1
REMARK SMILES IDX 6 1 7 2 12 3 8 4 11 5 9 6 5 7 4 8 2 9 1 10 3 11 10 12
REMARK H PARENT 10 13
REMARK Flexibility Score: inf
ROOT
ATOM      1  C   UNL     1      -8.653  -7.166  22.135  1.00  0.00    -0.025 A 
ATOM      2  C   UNL     1      -8.339  -8.505  21.845  1.00  0.00     0.012 A 
ATOM      3  C   UNL     1      -9.058  -6.830  23.443  1.00  0.00     0.012 A 
ATOM      4  C   UNL     1      -8.401  -9.482  22.843  1.00  0.00     0.047 A 
ATOM      5  C   UNL     1      -9.118  -7.811  24.438  1.00  0.00     0.047 A 
ATOM      6  C   UNL     1      -8.787  -9.140  24.140  1.00  0.00     0.115 A 
ENDROOT
BRANCH   1   7
ATOM      7  C   UNL     1      -8.583  -6.166  21.040  1.00  0.00     0.010 C 
ATOM      8  C   UNL     1      -7.447  -5.586  20.632  1.00  0.00     0.025 C 
BRANCH   8   9
ATOM      9  C   UNL     1      -7.423  -4.607  19.533  1.00  0.00     0.064 C 
ATOM     10  O   UNL     1      -7.957  -4.897  18.431  1.00  0.00    -0.545 OA
ATOM     11  O   UNL     1      -6.819  -3.365  19.693  1.00  0.00    -0.545 OA
ENDBRANCH   8   9
ENDBRANCH   1   7
BRANCH   6  12
ATOM     12  O   UNL     1      -8.845 -10.124  25.125  1.00  0.00    -0.508 OA
ATOM     13  H   UNL     1      -9.177 -11.058  24.922  1.00  0.00     0.293 HD
ENDBRANCH   6  12
TORSDOF 3
ENDMDL
MODEL 2
REMARK VINA RESULT:     2.039      0.132      1.404
REMARK INTER + INTRA:           2.202
REMARK INTER:                   2.338
REMARK INTRA:                  -0.136
REMARK UNBOUND:                -0.136
REMARK SMILES O=C([O-])C=Cc1ccc(O)cc1
REMARK SMILES IDX 6 1 7 2 12 3 8 4 11 5 9 6 5 7 4 8 2 9 1 10 3 11 10 12
REMARK H PARENT 10 13
REMARK Flexibility Score: inf
ROOT
ATOM      1  C   UNL     1      -8.709  -7.250  22.053  1.00  0.00    -0.025 A 
ATOM      2  C   UNL     1      -9.073  -6.888  23.362  1.00  0.00     0.012 A 
ATOM      3  C   UNL     1      -8.369  -8.592  21.788  1.00  0.00     0.012 A 
ATOM      4  C   UNL     1      -9.123  -7.848  24.377  1.00  0.00     0.047 A 
ATOM      5  C   UNL     1      -8.421  -9.549  22.807  1.00  0.00     0.047 A 
ATOM      6  C   UNL     1      -8.801  -9.179  24.104  1.00  0.00     0.115 A 
ENDROOT
BRANCH   1   7
ATOM      7  C   UNL     1      -8.660  -6.193  21.011  1.00  0.00     0.010 C 
ATOM      8  C   UNL     1      -7.526  -5.638  20.565  1.00  0.00     0.025 C 
BRANCH   8   9
ATOM      9  C   UNL     1      -7.525  -4.601  19.522  1.00  0.00     0.064 C 
ATOM     10  O   UNL     1      -8.243  -4.748  18.499  1.00  0.00    -0.545 OA
ATOM     11  O   UNL     1      -6.741  -3.459  19.646  1.00  0.00    -0.545 OA
ENDBRANCH   8   9
ENDBRANCH   1   7
BRANCH   6  12
ATOM     12  O   UNL     1      -8.855 -10.125  25.125  1.00  0.00    -0.508 OA
ATOM     13  H   UNL     1      -8.532 -11.074  24.986  1.00  0.00     0.293 HD
ENDBRANCH   6  12
TORSDOF 3
ENDMDL
MODEL 3
REMARK VINA RESULT:     3.546      1.201      5.716
REMARK INTER + INTRA:           3.929
REMARK INTER:                   4.067
REMARK INTRA:                  -0.138
REMARK UNBOUND:                -0.136
REMARK SMILES O=C([O-])C=Cc1ccc(O)cc1
REMARK SMILES IDX 6 1 7 2 12 3 8 4 11 5 9 6 5 7 4 8 2 9 1 10 3 11 10 12
REMARK H PARENT 10 13
REMARK Flexibility Score: inf
ROOT
ATOM      1  C   UNL     1      -8.386  -6.514  21.568  1.00  0.00    -0.025 A 
ATOM      2  C   UNL     1      -9.113  -6.860  20.416  1.00  0.00     0.012 A 
ATOM      3  C   UNL     1      -7.447  -5.466  21.491  1.00  0.00     0.012 A 
ATOM      4  C   UNL     1      -8.927  -6.158  19.221  1.00  0.00     0.047 A 
ATOM      5  C   UNL     1      -7.264  -4.767  20.294  1.00  0.00     0.047 A 
ATOM      6  C   UNL     1      -8.006  -5.110  19.156  1.00  0.00     0.115 A 
ENDROOT
BRANCH   1   7
ATOM      7  C   UNL     1      -8.611  -7.295  22.811  1.00  0.00     0.010 C 
ATOM      8  C   UNL     1      -7.880  -8.360  23.165  1.00  0.00     0.025 C 
BRANCH   8   9
ATOM      9  C   UNL     1      -8.132  -9.097  24.413  1.00  0.00     0.064 C 
ATOM     10  O   UNL     1      -9.125  -8.794  25.124  1.00  0.00    -0.545 OA
ATOM     11  O   UNL     1      -7.288 -10.124  24.822  1.00  0.00    -0.545 OA
ENDBRANCH   8   9
ENDBRANCH   1   7
BRANCH   6  12
ATOM     12  O   UNL     1      -7.831  -4.420  17.959  1.00  0.00    -0.508 OA
ATOM     13  H   UNL     1      -8.620  -4.108  17.407  1.00  0.00     0.293 HD
ENDBRANCH   6  12
TORSDOF 3
ENDMDL
MODEL 4
REMARK VINA RESULT:     4.424      1.331      5.793
REMARK INTER + INTRA:           4.935
REMARK INTER:                   5.076
REMARK INTRA:                  -0.141
REMARK UNBOUND:                -0.136
REMARK SMILES O=C([O-])C=Cc1ccc(O)cc1
REMARK SMILES IDX 6 1 7 2 12 3 8 4 11 5 9 6 5 7 4 8 2 9 1 10 3 11 10 12
REMARK H PARENT 10 13
REMARK Flexibility Score: inf
ROOT
ATOM      1  C   UNL     1      -7.984  -5.940  20.970  1.00  0.00    -0.025 A 
ATOM      2  C   UNL     1      -8.121  -6.008  19.573  1.00  0.00     0.012 A 
ATOM      3  C   UNL     1      -7.233  -4.886  21.530  1.00  0.00     0.012 A 
ATOM      4  C   UNL     1      -7.546  -5.032  18.754  1.00  0.00     0.047 A 
ATOM      5  C   UNL     1      -6.659  -3.913  20.706  1.00  0.00     0.047 A 
ATOM      6  C   UNL     1      -6.817  -3.982  19.316  1.00  0.00     0.115 A 
ENDROOT
BRANCH   1   7
ATOM      7  C   UNL     1      -8.605  -7.005  21.798  1.00  0.00     0.010 C 
ATOM      8  C   UNL     1      -8.144  -7.381  22.998  1.00  0.00     0.025 C 
BRANCH   8   9
ATOM      9  C   UNL     1      -8.799  -8.434  23.788  1.00  0.00     0.064 C 
ATOM     10  O   UNL     1      -9.070  -9.538  23.249  1.00  0.00    -0.545 OA
ATOM     11  O   UNL     1      -9.124  -8.231  25.125  1.00  0.00    -0.545 OA
ENDBRANCH   8   9
ENDBRANCH   1   7
BRANCH   6  12
ATOM     12  O   UNL     1      -6.249  -3.016  18.488  1.00  0.00    -0.508 OA
ATOM     13  H   UNL     1      -6.810  -2.476  17.841  1.00  0.00     0.293 HD
ENDBRANCH   6  12
TORSDOF 3
ENDMDL
