MODEL 1
REMARK VINA RESULT:    -4.535      0.000      0.000
REMARK INTER + INTRA:          -9.549
REMARK INTER:                  -7.716
REMARK INTRA:                  -1.833
REMARK UNBOUND:                -1.833
REMARK SMILES CCCCCCCCCCCCCC(=O)[O-]
REMARK SMILES IDX 8 1 9 2 10 3 11 4 12 5 13 6 14 7 15 8 16 9 7 10 6 11 5 12
REMARK SMILES IDX 4 13 3 14 2 15 1 16
REMARK H PARENT
REMARK Flexibility Score: inf
ROOT
ATOM      1  C   UNL     1     -35.785  41.148  42.503  1.00  0.00     0.000 C 
ENDROOT
BRANCH   1   2
ATOM      2  C   UNL     1     -36.087  41.969  41.241  1.00  0.00     0.000 C 
BRANCH   2   3
ATOM      3  C   UNL     1     -35.238  43.244  41.200  1.00  0.00     0.000 C 
BRANCH   3   4
ATOM      4  C   UNL     1     -34.655  43.471  39.797  1.00  0.00     0.000 C 
BRANCH   4   5
ATOM      5  C   UNL     1     -34.185  44.918  39.577  1.00  0.00     0.006 C 
BRANCH   5   6
ATOM      6  C   UNL     1     -34.792  45.551  38.319  1.00  0.00     0.053 C 
BRANCH   6   7
ATOM      7  C   UNL     1     -33.714  45.922  37.349  1.00  0.00     0.041 C 
ATOM      8  O   UNL     1     -32.552  46.178  37.761  1.00  0.00    -0.550 OA
ATOM      9  O   UNL     1     -34.004  46.033  35.995  1.00  0.00    -0.550 OA
ENDBRANCH   6   7
ENDBRANCH   5   6
ENDBRANCH   4   5
ENDBRANCH   3   4
ENDBRANCH   2   3
ENDBRANCH   1   2
BRANCH   1  10
ATOM     10  C   UNL     1     -34.563  41.670  43.282  1.00  0.00     0.000 C 
BRANCH  10  11
ATOM     11  C   UNL     1     -33.321  40.760  43.231  1.00  0.00    -0.000 C 
BRANCH  11  12
ATOM     12  C   UNL     1     -32.110  41.434  42.568  1.00  0.00    -0.000 C 
BRANCH  12  13
ATOM     13  C   UNL     1     -32.111  41.198  41.054  1.00  0.00    -0.000 C 
BRANCH  13  14
ATOM     14  C   UNL     1     -32.699  39.824  40.710  1.00  0.00    -0.000 C 
BRANCH  14  15
ATOM     15  C   UNL     1     -33.560  39.896  39.443  1.00  0.00    -0.003 C 
ATOM     16  C   UNL     1     -34.769  38.971  39.546  1.00  0.00     0.004 C 
ENDBRANCH  14  15
ENDBRANCH  13  14
ENDBRANCH  12  13
ENDBRANCH  11  12
ENDBRANCH  10  11
ENDBRANCH   1  10
TORSDOF 12
ENDMDL
MODEL 2
REMARK VINA RESULT:    -4.532      8.723     10.766
REMARK INTER + INTRA:          -9.544
REMARK INTER:                  -7.641
REMARK INTRA:                  -1.903
REMARK UNBOUND:                -1.833
REMARK SMILES CCCCCCCCCCCCCC(=O)[O-]
REMARK SMILES IDX 8 1 9 2 10 3 11 4 12 5 13 6 14 7 15 8 16 9 7 10 6 11 5 12
REMARK SMILES IDX 4 13 3 14 2 15 1 16
REMARK H PARENT
REMARK Flexibility Score: inf
ROOT
ATOM      1  C   UNL     1     -37.118  39.534  44.972  1.00  0.00     0.000 C 
ENDROOT
BRANCH   1   2
ATOM      2  C   UNL     1     -38.203  39.726  46.042  1.00  0.00     0.000 C 
BRANCH   2   3
ATOM      3  C   UNL     1     -39.515  39.057  45.619  1.00  0.00     0.000 C 
BRANCH   3   4
ATOM      4  C   UNL     1     -40.301  38.567  46.845  1.00  0.00     0.000 C 
BRANCH   4   5
ATOM      5  C   UNL     1     -39.547  37.487  47.639  1.00  0.00     0.006 C 
BRANCH   5   6
ATOM      6  C   UNL     1     -39.397  37.842  49.123  1.00  0.00     0.053 C 
BRANCH   6   7
ATOM      7  C   UNL     1     -40.404  37.096  49.942  1.00  0.00     0.041 C 
ATOM      8  O   UNL     1     -40.747  35.929  49.616  1.00  0.00    -0.550 OA
ATOM      9  O   UNL     1     -41.001  37.708  51.037  1.00  0.00    -0.550 OA
ENDBRANCH   6   7
ENDBRANCH   5   6
ENDBRANCH   4   5
ENDBRANCH   3   4
ENDBRANCH   2   3
ENDBRANCH   1   2
BRANCH   1  10
ATOM     10  C   UNL     1     -37.430  38.380  44.000  1.00  0.00     0.000 C 
BRANCH  10  11
ATOM     11  C   UNL     1     -36.342  37.295  43.907  1.00  0.00    -0.000 C 
BRANCH  11  12
ATOM     12  C   UNL     1     -36.790  35.944  44.485  1.00  0.00    -0.000 C 
BRANCH  12  13
ATOM     13  C   UNL     1     -36.744  35.960  46.017  1.00  0.00    -0.000 C 
BRANCH  13  14
ATOM     14  C   UNL     1     -35.427  36.562  46.523  1.00  0.00    -0.000 C 
BRANCH  14  15
ATOM     15  C   UNL     1     -35.677  37.539  47.677  1.00  0.00    -0.003 C 
ATOM     16  C   UNL     1     -34.687  38.700  47.641  1.00  0.00     0.004 C 
ENDBRANCH  14  15
ENDBRANCH  13  14
ENDBRANCH  12  13
ENDBRANCH  11  12
ENDBRANCH  10  11
ENDBRANCH   1  10
TORSDOF 12
ENDMDL
MODEL 3
REMARK VINA RESULT:    -4.503      8.029      9.629
REMARK INTER + INTRA:          -9.495
REMARK INTER:                  -7.901
REMARK INTRA:                  -1.594
REMARK UNBOUND:                -1.833
REMARK SMILES CCCCCCCCCCCCCC(=O)[O-]
REMARK SMILES IDX 8 1 9 2 10 3 11 4 12 5 13 6 14 7 15 8 16 9 7 10 6 11 5 12
REMARK SMILES IDX 4 13 3 14 2 15 1 16
REMARK H PARENT
REMARK Flexibility Score: inf
ROOT
ATOM      1  C   UNL     1     -36.964  37.665  42.966  1.00  0.00     0.000 C 
ENDROOT
BRANCH   1   2
ATOM      2  C   UNL     1     -38.058  38.613  42.454  1.00  0.00     0.000 C 
BRANCH   2   3
ATOM      3  C   UNL     1     -38.709  39.378  43.613  1.00  0.00     0.000 C 
BRANCH   3   4
ATOM      4  C   UNL     1     -38.017  39.049  44.944  1.00  0.00     0.000 C 
BRANCH   4   5
ATOM      5  C   UNL     1     -38.977  39.116  46.143  1.00  0.00     0.006 C 
BRANCH   5   6
ATOM      6  C   UNL     1     -38.834  37.911  47.081  1.00  0.00     0.053 C 
BRANCH   6   7
ATOM      7  C   UNL     1     -39.802  38.017  48.218  1.00  0.00     0.041 C 
ATOM      8  O   UNL     1     -41.033  38.158  47.992  1.00  0.00    -0.550 OA
ATOM      9  O   UNL     1     -39.339  38.011  49.528  1.00  0.00    -0.550 OA
ENDBRANCH   6   7
ENDBRANCH   5   6
ENDBRANCH   4   5
ENDBRANCH   3   4
ENDBRANCH   2   3
ENDBRANCH   1   2
BRANCH   1  10
ATOM     10  C   UNL     1     -37.239  36.189  42.623  1.00  0.00     0.000 C 
BRANCH  10  11
ATOM     11  C   UNL     1     -36.702  35.172  43.646  1.00  0.00    -0.000 C 
BRANCH  11  12
ATOM     12  C   UNL     1     -36.764  35.685  45.093  1.00  0.00    -0.000 C 
BRANCH  12  13
ATOM     13  C   UNL     1     -35.369  35.715  45.726  1.00  0.00    -0.000 C 
BRANCH  13  14
ATOM     14  C   UNL     1     -34.888  37.157  45.933  1.00  0.00    -0.000 C 
BRANCH  14  15
ATOM     15  C   UNL     1     -35.205  37.644  47.351  1.00  0.00    -0.003 C 
ATOM     16  C   UNL     1     -34.841  39.116  47.522  1.00  0.00     0.004 C 
ENDBRANCH  14  15
ENDBRANCH  13  14
ENDBRANCH  12  13
ENDBRANCH  11  12
ENDBRANCH  10  11
ENDBRANCH   1  10
TORSDOF 12
ENDMDL
MODEL 4
REMARK VINA RESULT:    -4.475      4.435      5.334
REMARK INTER + INTRA:          -9.448
REMARK INTER:                  -7.115
REMARK INTRA:                  -2.332
REMARK UNBOUND:                -1.833
REMARK SMILES CCCCCCCCCCCCCC(=O)[O-]
REMARK SMILES IDX 8 1 9 2 10 3 11 4 12 5 13 6 14 7 15 8 16 9 7 10 6 11 5 12
REMARK SMILES IDX 4 13 3 14 2 15 1 16
REMARK H PARENT
REMARK Flexibility Score: inf
ROOT
ATOM      1  C   UNL     1     -34.899  42.345  44.637  1.00  0.00     0.000 C 
ENDROOT
BRANCH   1   2
ATOM      2  C   UNL     1     -35.691  41.486  45.633  1.00  0.00     0.000 C 
BRANCH   2   3
ATOM      3  C   UNL     1     -37.078  41.141  45.079  1.00  0.00     0.000 C 
BRANCH   3   4
ATOM      4  C   UNL     1     -37.285  41.765  43.691  1.00  0.00     0.000 C 
BRANCH   4   5
ATOM      5  C   UNL     1     -37.551  40.713  42.602  1.00  0.00     0.006 C 
BRANCH   5   6
ATOM      6  C   UNL     1     -36.642  40.888  41.378  1.00  0.00     0.053 C 
BRANCH   6   7
ATOM      7  C   UNL     1     -36.978  39.875  40.330  1.00  0.00     0.041 C 
ATOM      8  O   UNL     1     -36.139  38.991  40.010  1.00  0.00    -0.550 OA
ATOM      9  O   UNL     1     -38.199  39.936  39.669  1.00  0.00    -0.550 OA
ENDBRANCH   6   7
ENDBRANCH   5   6
ENDBRANCH   4   5
ENDBRANCH   3   4
ENDBRANCH   2   3
ENDBRANCH   1   2
BRANCH   1  10
ATOM     10  C   UNL     1     -33.690  41.605  44.034  1.00  0.00     0.000 C 
BRANCH  10  11
ATOM     11  C   UNL     1     -33.679  40.083  44.262  1.00  0.00    -0.000 C 
BRANCH  11  12
ATOM     12  C   UNL     1     -33.714  39.280  42.952  1.00  0.00    -0.000 C 
BRANCH  12  13
ATOM     13  C   UNL     1     -34.577  38.022  43.102  1.00  0.00    -0.000 C 
BRANCH  13  14
ATOM     14  C   UNL     1     -35.311  38.014  44.449  1.00  0.00    -0.000 C 
BRANCH  14  15
ATOM     15  C   UNL     1     -36.715  37.414  44.307  1.00  0.00    -0.003 C 
ATOM     16  C   UNL     1     -37.010  37.041  42.857  1.00  0.00     0.004 C 
ENDBRANCH  14  15
ENDBRANCH  13  14
ENDBRANCH  12  13
ENDBRANCH  11  12
ENDBRANCH  10  11
ENDBRANCH   1  10
TORSDOF 12
ENDMDL
MODEL 5
REMARK VINA RESULT:    -4.468      8.421     10.576
REMARK INTER + INTRA:          -9.436
REMARK INTER:                  -7.698
REMARK INTRA:                  -1.738
REMARK UNBOUND:                -1.833
REMARK SMILES CCCCCCCCCCCCCC(=O)[O-]
REMARK SMILES IDX 8 1 9 2 10 3 11 4 12 5 13 6 14 7 15 8 16 9 7 10 6 11 5 12
REMARK SMILES IDX 4 13 3 14 2 15 1 16
REMARK H PARENT
REMARK Flexibility Score: inf
ROOT
ATOM      1  C   UNL     1     -35.970  36.683  46.385  1.00  0.00     0.000 C 
ENDROOT
BRANCH   1   2
ATOM      2  C   UNL     1     -36.837  37.757  47.058  1.00  0.00     0.000 C 
BRANCH   2   3
ATOM      3  C   UNL     1     -37.854  38.341  46.069  1.00  0.00     0.000 C 
BRANCH   3   4
ATOM      4  C   UNL     1     -39.273  38.306  46.657  1.00  0.00     0.000 C 
BRANCH   4   5
ATOM      5  C   UNL     1     -39.329  37.611  48.027  1.00  0.00     0.006 C 
BRANCH   5   6
ATOM      6  C   UNL     1     -40.090  36.280  47.983  1.00  0.00     0.053 C 
BRANCH   6   7
ATOM      7  C   UNL     1     -40.835  36.062  49.262  1.00  0.00     0.041 C 
ATOM      8  O   UNL     1     -41.519  36.992  49.764  1.00  0.00    -0.550 OA
ATOM      9  O   UNL     1     -40.734  34.846  49.928  1.00  0.00    -0.550 OA
ENDBRANCH   6   7
ENDBRANCH   5   6
ENDBRANCH   4   5
ENDBRANCH   3   4
ENDBRANCH   2   3
ENDBRANCH   1   2
BRANCH   1  10
ATOM     10  C   UNL     1     -36.767  35.783  45.423  1.00  0.00     0.000 C 
BRANCH  10  11
ATOM     11  C   UNL     1     -36.186  35.673  44.002  1.00  0.00    -0.000 C 
BRANCH  11  12
ATOM     12  C   UNL     1     -37.152  36.175  42.918  1.00  0.00    -0.000 C 
BRANCH  12  13
ATOM     13  C   UNL     1     -36.838  37.625  42.532  1.00  0.00    -0.000 C 
BRANCH  13  14
ATOM     14  C   UNL     1     -35.391  37.989  42.885  1.00  0.00    -0.000 C 
BRANCH  14  15
ATOM     15  C   UNL     1     -35.323  39.341  43.605  1.00  0.00    -0.003 C 
ATOM     16  C   UNL     1     -34.127  39.403  44.550  1.00  0.00     0.004 C 
ENDBRANCH  14  15
ENDBRANCH  13  14
ENDBRANCH  12  13
ENDBRANCH  11  12
ENDBRANCH  10  11
ENDBRANCH   1  10
TORSDOF 12
ENDMDL
MODEL 6
REMARK VINA RESULT:    -4.466      8.787     10.780
REMARK INTER + INTRA:          -9.432
REMARK INTER:                  -7.929
REMARK INTRA:                  -1.503
REMARK UNBOUND:                -1.833
REMARK SMILES CCCCCCCCCCCCCC(=O)[O-]
REMARK SMILES IDX 8 1 9 2 10 3 11 4 12 5 13 6 14 7 15 8 16 9 7 10 6 11 5 12
REMARK SMILES IDX 4 13 3 14 2 15 1 16
REMARK H PARENT
REMARK Flexibility Score: inf
ROOT
ATOM      1  C   UNL     1     -35.304  37.518  46.943  1.00  0.00     0.000 C 
ENDROOT
BRANCH   1   2
ATOM      2  C   UNL     1     -36.677  37.784  47.576  1.00  0.00     0.000 C 
BRANCH   2   3
ATOM      3  C   UNL     1     -37.806  37.506  46.577  1.00  0.00     0.000 C 
BRANCH   3   4
ATOM      4  C   UNL     1     -39.141  38.070  47.086  1.00  0.00     0.000 C 
BRANCH   4   5
ATOM      5  C   UNL     1     -39.272  37.992  48.616  1.00  0.00     0.006 C 
BRANCH   5   6
ATOM      6  C   UNL     1     -40.725  38.124  49.091  1.00  0.00     0.053 C 
BRANCH   6   7
ATOM      7  C   UNL     1     -41.118  36.932  49.906  1.00  0.00     0.041 C 
ATOM      8  O   UNL     1     -41.880  37.067  50.899  1.00  0.00    -0.550 OA
ATOM      9  O   UNL     1     -40.602  35.679  49.599  1.00  0.00    -0.550 OA
ENDBRANCH   6   7
ENDBRANCH   5   6
ENDBRANCH   4   5
ENDBRANCH   3   4
ENDBRANCH   2   3
ENDBRANCH   1   2
BRANCH   1  10
ATOM     10  C   UNL     1     -34.768  38.720  46.142  1.00  0.00     0.000 C 
BRANCH  10  11
ATOM     11  C   UNL     1     -34.796  38.546  44.612  1.00  0.00    -0.000 C 
BRANCH  11  12
ATOM     12  C   UNL     1     -34.908  37.077  44.176  1.00  0.00    -0.000 C 
BRANCH  12  13
ATOM     13  C   UNL     1     -36.130  36.862  43.278  1.00  0.00    -0.000 C 
BRANCH  13  14
ATOM     14  C   UNL     1     -36.821  35.530  43.596  1.00  0.00    -0.000 C 
BRANCH  14  15
ATOM     15  C   UNL     1     -35.979  34.691  44.564  1.00  0.00    -0.003 C 
ATOM     16  C   UNL     1     -36.848  34.068  45.652  1.00  0.00     0.004 C 
ENDBRANCH  14  15
ENDBRANCH  13  14
ENDBRANCH  12  13
ENDBRANCH  11  12
ENDBRANCH  10  11
ENDBRANCH   1  10
TORSDOF 12
ENDMDL
MODEL 7
REMARK VINA RESULT:    -4.452      1.532      2.737
REMARK INTER + INTRA:          -9.407
REMARK INTER:                  -8.272
REMARK INTRA:                  -1.136
REMARK UNBOUND:                -1.833
REMARK SMILES CCCCCCCCCCCCCC(=O)[O-]
REMARK SMILES IDX 8 1 9 2 10 3 11 4 12 5 13 6 14 7 15 8 16 9 7 10 6 11 5 12
REMARK SMILES IDX 4 13 3 14 2 15 1 16
REMARK H PARENT
REMARK Flexibility Score: inf
ROOT
ATOM      1  C   UNL     1     -35.653  41.785  40.645  1.00  0.00     0.000 C 
ENDROOT
BRANCH   1   2
ATOM      2  C   UNL     1     -34.322  42.441  41.043  1.00  0.00     0.000 C 
BRANCH   2   3
ATOM      3  C   UNL     1     -33.875  43.459  39.987  1.00  0.00     0.000 C 
BRANCH   3   4
ATOM      4  C   UNL     1     -34.714  44.743  40.072  1.00  0.00     0.000 C 
BRANCH   4   5
ATOM      5  C   UNL     1     -34.722  45.533  38.752  1.00  0.00     0.006 C 
BRANCH   5   6
ATOM      6  C   UNL     1     -34.012  44.788  37.615  1.00  0.00     0.053 C 
BRANCH   6   7
ATOM      7  C   UNL     1     -32.972  45.663  36.989  1.00  0.00     0.041 C 
ATOM      8  O   UNL     1     -33.310  46.586  36.201  1.00  0.00    -0.550 OA
ATOM      9  O   UNL     1     -31.625  45.429  37.235  1.00  0.00    -0.550 OA
ENDBRANCH   6   7
ENDBRANCH   5   6
ENDBRANCH   4   5
ENDBRANCH   3   4
ENDBRANCH   2   3
ENDBRANCH   1   2
BRANCH   1  10
ATOM     10  C   UNL     1     -35.707  40.284  40.984  1.00  0.00     0.000 C 
BRANCH  10  11
ATOM     11  C   UNL     1     -35.186  39.914  42.385  1.00  0.00    -0.000 C 
BRANCH  11  12
ATOM     12  C   UNL     1     -34.019  38.915  42.347  1.00  0.00    -0.000 C 
BRANCH  12  13
ATOM     13  C   UNL     1     -32.942  39.289  43.370  1.00  0.00    -0.000 C 
BRANCH  13  14
ATOM     14  C   UNL     1     -31.644  39.715  42.673  1.00  0.00    -0.000 C 
BRANCH  14  15
ATOM     15  C   UNL     1     -31.285  41.165  43.017  1.00  0.00    -0.003 C 
ATOM     16  C   UNL     1     -32.168  41.700  44.141  1.00  0.00     0.004 C 
ENDBRANCH  14  15
ENDBRANCH  13  14
ENDBRANCH  12  13
ENDBRANCH  11  12
ENDBRANCH  10  11
ENDBRANCH   1  10
TORSDOF 12
ENDMDL
MODEL 8
REMARK VINA RESULT:    -4.444      1.677      2.262
REMARK INTER + INTRA:          -9.395
REMARK INTER:                  -7.748
REMARK INTRA:                  -1.646
REMARK UNBOUND:                -1.833
REMARK SMILES CCCCCCCCCCCCCC(=O)[O-]
REMARK SMILES IDX 8 1 9 2 10 3 11 4 12 5 13 6 14 7 15 8 16 9 7 10 6 11 5 12
REMARK SMILES IDX 4 13 3 14 2 15 1 16
REMARK H PARENT
REMARK Flexibility Score: inf
ROOT
ATOM      1  C   UNL     1     -33.996  41.783  44.199  1.00  0.00     0.000 C 
ENDROOT
BRANCH   1   2
ATOM      2  C   UNL     1     -35.216  42.610  43.768  1.00  0.00     0.000 C 
BRANCH   2   3
ATOM      3  C   UNL     1     -35.338  42.651  42.240  1.00  0.00     0.000 C 
BRANCH   3   4
ATOM      4  C   UNL     1     -33.971  42.437  41.574  1.00  0.00     0.000 C 
BRANCH   4   5
ATOM      5  C   UNL     1     -33.921  42.981  40.136  1.00  0.00     0.006 C 
BRANCH   5   6
ATOM      6  C   UNL     1     -34.669  44.311  39.983  1.00  0.00     0.053 C 
BRANCH   6   7
ATOM      7  C   UNL     1     -34.671  44.746  38.551  1.00  0.00     0.041 C 
ATOM      8  O   UNL     1     -35.031  45.913  38.243  1.00  0.00    -0.550 OA
ATOM      9  O   UNL     1     -34.322  43.847  37.550  1.00  0.00    -0.550 OA
ENDBRANCH   6   7
ENDBRANCH   5   6
ENDBRANCH   4   5
ENDBRANCH   3   4
ENDBRANCH   2   3
ENDBRANCH   1   2
BRANCH   1  10
ATOM     10  C   UNL     1     -34.358  40.633  45.158  1.00  0.00     0.000 C 
BRANCH  10  11
ATOM     11  C   UNL     1     -34.331  39.228  44.529  1.00  0.00    -0.000 C 
BRANCH  11  12
ATOM     12  C   UNL     1     -33.527  39.171  43.221  1.00  0.00    -0.000 C 
BRANCH  12  13
ATOM     13  C   UNL     1     -34.416  38.744  42.048  1.00  0.00    -0.000 C 
BRANCH  13  14
ATOM     14  C   UNL     1     -33.743  39.053  40.705  1.00  0.00    -0.000 C 
BRANCH  14  15
ATOM     15  C   UNL     1     -34.786  39.345  39.620  1.00  0.00    -0.003 C 
ATOM     16  C   UNL     1     -36.190  39.426  40.213  1.00  0.00     0.004 C 
ENDBRANCH  14  15
ENDBRANCH  13  14
ENDBRANCH  12  13
ENDBRANCH  11  12
ENDBRANCH  10  11
ENDBRANCH   1  10
TORSDOF 12
ENDMDL
MODEL 9
REMARK VINA RESULT:    -4.443      6.254      7.934
REMARK INTER + INTRA:          -9.393
REMARK INTER:                  -7.226
REMARK INTRA:                  -2.167
REMARK UNBOUND:                -1.833
REMARK SMILES CCCCCCCCCCCCCC(=O)[O-]
REMARK SMILES IDX 8 1 9 2 10 3 11 4 12 5 13 6 14 7 15 8 16 9 7 10 6 11 5 12
REMARK SMILES IDX 4 13 3 14 2 15 1 16
REMARK H PARENT
REMARK Flexibility Score: inf
ROOT
ATOM      1  C   UNL     1     -37.506  41.717  43.640  1.00  0.00     0.000 C 
ENDROOT
BRANCH   1   2
ATOM      2  C   UNL     1     -37.625  40.493  42.720  1.00  0.00     0.000 C 
BRANCH   2   3
ATOM      3  C   UNL     1     -38.443  39.381  43.388  1.00  0.00     0.000 C 
BRANCH   3   4
ATOM      4  C   UNL     1     -37.523  38.310  43.993  1.00  0.00     0.000 C 
BRANCH   4   5
ATOM      5  C   UNL     1     -37.714  38.155  45.511  1.00  0.00     0.006 C 
BRANCH   5   6
ATOM      6  C   UNL     1     -38.813  39.070  46.064  1.00  0.00     0.053 C 
BRANCH   6   7
ATOM      7  C   UNL     1     -39.360  38.515  47.341  1.00  0.00     0.041 C 
ATOM      8  O   UNL     1     -38.580  38.077  48.228  1.00  0.00    -0.550 OA
ATOM      9  O   UNL     1     -40.734  38.435  47.533  1.00  0.00    -0.550 OA
ENDBRANCH   6   7
ENDBRANCH   5   6
ENDBRANCH   4   5
ENDBRANCH   3   4
ENDBRANCH   2   3
ENDBRANCH   1   2
BRANCH   1  10
ATOM     10  C   UNL     1     -36.046  42.120  43.918  1.00  0.00     0.000 C 
BRANCH  10  11
ATOM     11  C   UNL     1     -35.527  41.761  45.322  1.00  0.00    -0.000 C 
BRANCH  11  12
ATOM     12  C   UNL     1     -34.764  40.428  45.357  1.00  0.00    -0.000 C 
BRANCH  12  13
ATOM     13  C   UNL     1     -33.858  40.281  44.130  1.00  0.00    -0.000 C 
BRANCH  13  14
ATOM     14  C   UNL     1     -33.842  38.832  43.627  1.00  0.00    -0.000 C 
BRANCH  14  15
ATOM     15  C   UNL     1     -34.308  38.752  42.169  1.00  0.00    -0.003 C 
ATOM     16  C   UNL     1     -34.119  40.087  41.455  1.00  0.00     0.004 C 
ENDBRANCH  14  15
ENDBRANCH  13  14
ENDBRANCH  12  13
ENDBRANCH  11  12
ENDBRANCH  10  11
ENDBRANCH   1  10
TORSDOF 12
ENDMDL
