MODEL 1
REMARK VINA RESULT:   132.471      0.000      0.000
REMARK INTER + INTRA:         143.835
REMARK INTER:                 144.087
REMARK INTRA:                  -0.253
REMARK UNBOUND:                -0.253
REMARK SMILES C[C@@H]1[C@@H](C)CC[C@@]2(C(=O)[O-])CC[C@]3(C)C(=CC[C@H]4[C@@]5(C)CC[C@H](O)C(C)(C)[C@H]5CC[C@]43C)[C@@H]12
REMARK SMILES IDX 7 1 6 2 11 3 33 4 5 5 12 6 15 7 2 8 3 9 13 10 16 11 1 12
REMARK SMILES IDX 4 13 14 14 31 15 17 16 18 17 30 18 32 19 19 20 29 21 28 22
REMARK SMILES IDX 21 23 20 24 25 25 22 26 23 27 26 28 27 29 8 30 9 31 10 32
REMARK SMILES IDX 24 33
REMARK H PARENT 24 34
REMARK Flexibility Score: inf
ROOT
ATOM      1  C   UNL     1     -17.018 -13.052  13.503  1.00  0.00     0.017 C 
ATOM      2  C   UNL     1     -17.716 -14.453  13.481  1.00  0.00     0.014 C 
ATOM      3  C   UNL     1     -16.067 -12.963  12.250  1.00  0.00     0.014 C 
ATOM      4  C   UNL     1     -18.114 -11.895  13.553  1.00  0.00     0.030 C 
ATOM      5  C   UNL     1     -19.012 -14.456  14.286  1.00  0.00     0.004 C 
ATOM      6  C   UNL     1     -16.401 -11.835  11.268  1.00  0.00     0.013 C 
ATOM      7  C   UNL     1     -17.582 -10.543  13.059  1.00  0.00    -0.063 C 
ATOM      8  C   UNL     1     -19.467 -12.319  12.884  1.00  0.00    -0.003 C 
ATOM      9  C   UNL     1     -20.082 -13.570  13.606  1.00  0.00    -0.011 C 
ATOM     10  C   UNL     1     -16.551 -10.429  11.942  1.00  0.00    -0.006 C 
ATOM     11  C   UNL     1     -18.020  -9.411  13.644  1.00  0.00    -0.027 C 
ATOM     12  C   UNL     1     -20.509 -11.179  12.879  1.00  0.00     0.008 C 
ATOM     13  C   UNL     1     -20.935 -14.407  12.634  1.00  0.00     0.008 C 
ATOM     14  C   UNL     1     -15.181 -10.122  12.635  1.00  0.00     0.017 C 
ATOM     15  C   UNL     1     -17.018  -9.281  10.879  1.00  0.00    -0.020 C 
ATOM     16  C   UNL     1     -17.657  -8.056  13.107  1.00  0.00     0.032 C 
ATOM     17  C   UNL     1     -17.765  -8.030  11.560  1.00  0.00     0.006 C 
ATOM     18  C   UNL     1     -15.810  -8.786  10.025  1.00  0.00     0.008 C 
ATOM     19  C   UNL     1     -18.036  -9.916   9.872  1.00  0.00     0.012 C 
ATOM     20  C   UNL     1     -17.515  -6.583  10.884  1.00  0.00    -0.025 C 
ATOM     21  C   UNL     1     -15.117  -7.553  10.611  1.00  0.00     0.005 C 
ATOM     22  C   UNL     1     -15.992  -6.284  10.499  1.00  0.00     0.003 C 
ATOM     23  C   UNL     1     -18.159  -5.448  11.765  1.00  0.00     0.010 C 
ATOM     24  C   UNL     1     -18.328  -6.529   9.550  1.00  0.00     0.012 C 
ATOM     25  C   UNL     1     -15.336  -5.010  11.186  1.00  0.00    -0.006 C 
ATOM     26  C   UNL     1     -17.290  -4.829  12.880  1.00  0.00     0.033 C 
ATOM     27  C   UNL     1     -15.770  -4.962  12.678  1.00  0.00     0.120 C 
ATOM     28  C   UNL     1     -13.783  -5.056  11.128  1.00  0.00     0.014 C 
ATOM     29  C   UNL     1     -15.738  -3.716  10.419  1.00  0.00     0.014 C 
ENDROOT
BRANCH   1  30
ATOM     30  C   UNL     1     -16.143 -13.000  14.758  1.00  0.00     0.048 C 
ATOM     31  O   UNL     1     -14.953 -13.415  14.714  1.00  0.00    -0.550 OA
ATOM     32  O   UNL     1     -16.631 -12.525  15.972  1.00  0.00    -0.550 OA
ENDBRANCH   1  30
BRANCH  27  33
ATOM     33  O   UNL     1     -15.085  -3.966  13.405  1.00  0.00    -0.393 OA
ATOM     34  H   UNL     1     -14.350  -4.399  13.910  1.00  0.00     0.210 HD
ENDBRANCH  27  33
TORSDOF 2
ENDMDL
