MODEL 1
REMARK VINA RESULT:     6.161      0.000      0.000
REMARK INTER + INTRA:          12.317
REMARK INTER:                  14.085
REMARK INTRA:                  -1.767
REMARK UNBOUND:                -1.767
REMARK SMILES CCCCCCCCCCCCCCCCCCCCCCCC(=O)[O-]
REMARK SMILES IDX 13 1 14 2 15 3 16 4 17 5 18 6 19 7 20 8 21 9 22 10 23 11
REMARK SMILES IDX 24 12 25 13 26 14 12 15 11 16 10 17 9 18 8 19 7 20 6 21 5 22
REMARK SMILES IDX 4 23 3 24 2 25 1 26
REMARK H PARENT
REMARK Flexibility Score: inf
ROOT
ATOM      1  C   UNL     1      13.596  11.627 -13.057  1.00  0.00     0.000 C 
ENDROOT
BRANCH   1   2
ATOM      2  C   UNL     1      12.312  11.633 -13.915  1.00  0.00     0.000 C 
BRANCH   2   3
ATOM      3  C   UNL     1      11.078  12.260 -13.238  1.00  0.00     0.000 C 
BRANCH   3   4
ATOM      4  C   UNL     1       9.756  11.830 -13.896  1.00  0.00     0.000 C 
BRANCH   4   5
ATOM      5  C   UNL     1       8.603  11.706 -12.885  1.00  0.00     0.000 C 
BRANCH   5   6
ATOM      6  C   UNL     1       7.398  10.925 -13.442  1.00  0.00     0.000 C 
BRANCH   6   7
ATOM      7  C   UNL     1       6.927   9.816 -12.488  1.00  0.00     0.000 C 
BRANCH   7   8
ATOM      8  C   UNL     1       6.599   8.505 -13.224  1.00  0.00     0.000 C 
BRANCH   8   9
ATOM      9  C   UNL     1       5.905   8.736 -14.580  1.00  0.00     0.000 C 
BRANCH   9  10
ATOM     10  C   UNL     1       4.411   8.363 -14.615  1.00  0.00     0.006 C 
BRANCH  10  11
ATOM     11  C   UNL     1       3.504   9.557 -14.943  1.00  0.00     0.053 C 
BRANCH  11  12
ATOM     12  C   UNL     1       3.478  10.524 -13.799  1.00  0.00     0.041 C 
ATOM     13  O   UNL     1       3.645  11.756 -14.005  1.00  0.00    -0.550 OA
ATOM     14  O   UNL     1       3.310  10.061 -12.498  1.00  0.00    -0.550 OA
ENDBRANCH  11  12
ENDBRANCH  10  11
ENDBRANCH   9  10
ENDBRANCH   8   9
ENDBRANCH   7   8
ENDBRANCH   6   7
ENDBRANCH   5   6
ENDBRANCH   4   5
ENDBRANCH   3   4
ENDBRANCH   2   3
ENDBRANCH   1   2
BRANCH   1  15
ATOM     15  C   UNL     1      14.680  10.618 -13.495  1.00  0.00     0.000 C 
BRANCH  15  16
ATOM     16  C   UNL     1      14.147   9.298 -14.093  1.00  0.00     0.000 C 
BRANCH  16  17
ATOM     17  C   UNL     1      15.130   8.117 -13.991  1.00  0.00     0.000 C 
BRANCH  17  18
ATOM     18  C   UNL     1      16.098   8.063 -15.187  1.00  0.00    -0.000 C 
BRANCH  18  19
ATOM     19  C   UNL     1      17.530   8.507 -14.820  1.00  0.00    -0.000 C 
BRANCH  19  20
ATOM     20  C   UNL     1      18.466   8.662 -16.037  1.00  0.00    -0.000 C 
BRANCH  20  21
ATOM     21  C   UNL     1      19.963   8.783 -15.695  1.00  0.00    -0.000 C 
BRANCH  21  22
ATOM     22  C   UNL     1      20.572  10.189 -15.895  1.00  0.00    -0.000 C 
BRANCH  22  23
ATOM     23  C   UNL     1      21.135  10.842 -14.619  1.00  0.00    -0.000 C 
BRANCH  23  24
ATOM     24  C   UNL     1      20.560  12.246 -14.365  1.00  0.00    -0.000 C 
BRANCH  24  25
ATOM     25  C   UNL     1      19.034  12.293 -14.550  1.00  0.00    -0.003 C 
ATOM     26  C   UNL     1      18.291  11.610 -13.400  1.00  0.00     0.004 C 
ENDBRANCH  24  25
ENDBRANCH  23  24
ENDBRANCH  22  23
ENDBRANCH  21  22
ENDBRANCH  20  21
ENDBRANCH  19  20
ENDBRANCH  18  19
ENDBRANCH  17  18
ENDBRANCH  16  17
ENDBRANCH  15  16
ENDBRANCH   1  15
TORSDOF 22
ENDMDL
MODEL 2
REMARK VINA RESULT:     6.750      1.939      2.454
REMARK INTER + INTRA:          13.663
REMARK INTER:                  14.750
REMARK INTRA:                  -1.087
REMARK UNBOUND:                -1.767
REMARK SMILES CCCCCCCCCCCCCCCCCCCCCCCC(=O)[O-]
REMARK SMILES IDX 13 1 14 2 15 3 16 4 17 5 18 6 19 7 20 8 21 9 22 10 23 11
REMARK SMILES IDX 24 12 25 13 26 14 12 15 11 16 10 17 9 18 8 19 7 20 6 21 5 22
REMARK SMILES IDX 4 23 3 24 2 25 1 26
REMARK H PARENT
REMARK Flexibility Score: inf
ROOT
ATOM      1  C   UNL     1      13.094  12.027 -13.437  1.00  0.00     0.000 C 
ENDROOT
BRANCH   1   2
ATOM      2  C   UNL     1      11.692  11.605 -13.928  1.00  0.00     0.000 C 
BRANCH   2   3
ATOM      3  C   UNL     1      10.515  12.256 -13.177  1.00  0.00     0.000 C 
BRANCH   3   4
ATOM      4  C   UNL     1       9.149  11.895 -13.785  1.00  0.00     0.000 C 
BRANCH   4   5
ATOM      5  C   UNL     1       8.197  11.250 -12.764  1.00  0.00     0.000 C 
BRANCH   5   6
ATOM      6  C   UNL     1       6.917  10.685 -13.408  1.00  0.00     0.000 C 
BRANCH   6   7
ATOM      7  C   UNL     1       6.864   9.150 -13.359  1.00  0.00     0.000 C 
BRANCH   7   8
ATOM      8  C   UNL     1       5.642   8.627 -12.584  1.00  0.00     0.000 C 
BRANCH   8   9
ATOM      9  C   UNL     1       4.459   9.613 -12.592  1.00  0.00     0.000 C 
BRANCH   9  10
ATOM     10  C   UNL     1       3.335   9.284 -11.591  1.00  0.00     0.006 C 
BRANCH  10  11
ATOM     11  C   UNL     1       3.657   8.073 -10.706  1.00  0.00     0.053 C 
BRANCH  11  12
ATOM     12  C   UNL     1       3.976   8.514  -9.311  1.00  0.00     0.041 C 
ATOM     13  O   UNL     1       3.049   8.738  -8.488  1.00  0.00    -0.550 OA
ATOM     14  O   UNL     1       5.298   8.718  -8.930  1.00  0.00    -0.550 OA
ENDBRANCH  11  12
ENDBRANCH  10  11
ENDBRANCH   9  10
ENDBRANCH   8   9
ENDBRANCH   7   8
ENDBRANCH   6   7
ENDBRANCH   5   6
ENDBRANCH   4   5
ENDBRANCH   3   4
ENDBRANCH   2   3
ENDBRANCH   1   2
BRANCH   1  15
ATOM     15  C   UNL     1      14.083  10.869 -13.182  1.00  0.00     0.000 C 
BRANCH  15  16
ATOM     16  C   UNL     1      14.069   9.747 -14.243  1.00  0.00     0.000 C 
BRANCH  16  17
ATOM     17  C   UNL     1      14.983   8.553 -13.911  1.00  0.00     0.000 C 
BRANCH  17  18
ATOM     18  C   UNL     1      16.465   8.859 -14.200  1.00  0.00    -0.000 C 
BRANCH  18  19
ATOM     19  C   UNL     1      16.977   8.176 -15.486  1.00  0.00    -0.000 C 
BRANCH  19  20
ATOM     20  C   UNL     1      18.489   8.359 -15.729  1.00  0.00    -0.000 C 
BRANCH  20  21
ATOM     21  C   UNL     1      19.043   9.751 -15.369  1.00  0.00    -0.000 C 
BRANCH  21  22
ATOM     22  C   UNL     1      20.574   9.907 -15.511  1.00  0.00    -0.000 C 
BRANCH  22  23
ATOM     23  C   UNL     1      21.203  10.991 -14.618  1.00  0.00    -0.000 C 
BRANCH  23  24
ATOM     24  C   UNL     1      20.181  12.039 -14.143  1.00  0.00    -0.000 C 
BRANCH  24  25
ATOM     25  C   UNL     1      20.671  13.477 -14.376  1.00  0.00    -0.003 C 
ATOM     26  C   UNL     1      22.108  13.522 -14.900  1.00  0.00     0.004 C 
ENDBRANCH  24  25
ENDBRANCH  23  24
ENDBRANCH  22  23
ENDBRANCH  21  22
ENDBRANCH  20  21
ENDBRANCH  19  20
ENDBRANCH  18  19
ENDBRANCH  17  18
ENDBRANCH  16  17
ENDBRANCH  15  16
ENDBRANCH   1  15
TORSDOF 22
ENDMDL
MODEL 3
REMARK VINA RESULT:     6.775      4.714     12.643
REMARK INTER + INTRA:          13.722
REMARK INTER:                  14.874
REMARK INTRA:                  -1.152
REMARK UNBOUND:                -1.767
REMARK SMILES CCCCCCCCCCCCCCCCCCCCCCCC(=O)[O-]
REMARK SMILES IDX 13 1 14 2 15 3 16 4 17 5 18 6 19 7 20 8 21 9 22 10 23 11
REMARK SMILES IDX 24 12 25 13 26 14 12 15 11 16 10 17 9 18 8 19 7 20 6 21 5 22
REMARK SMILES IDX 4 23 3 24 2 25 1 26
REMARK H PARENT
REMARK Flexibility Score: inf
ROOT
ATOM      1  C   UNL     1      13.657  11.916 -13.142  1.00  0.00     0.000 C 
ENDROOT
BRANCH   1   2
ATOM      2  C   UNL     1      14.725  10.801 -13.189  1.00  0.00     0.000 C 
BRANCH   2   3
ATOM      3  C   UNL     1      14.340   9.564 -14.023  1.00  0.00     0.000 C 
BRANCH   3   4
ATOM      4  C   UNL     1      15.500   8.564 -14.173  1.00  0.00     0.000 C 
BRANCH   4   5
ATOM      5  C   UNL     1      16.878   9.246 -14.154  1.00  0.00     0.000 C 
BRANCH   5   6
ATOM      6  C   UNL     1      17.827   8.714 -15.245  1.00  0.00     0.000 C 
BRANCH   6   7
ATOM      7  C   UNL     1      18.732   9.814 -15.821  1.00  0.00     0.000 C 
BRANCH   7   8
ATOM      8  C   UNL     1      20.195   9.675 -15.361  1.00  0.00     0.000 C 
BRANCH   8   9
ATOM      9  C   UNL     1      20.569  10.666 -14.243  1.00  0.00     0.000 C 
BRANCH   9  10
ATOM     10  C   UNL     1      21.404  11.876 -14.703  1.00  0.00     0.006 C 
BRANCH  10  11
ATOM     11  C   UNL     1      20.832  13.216 -14.221  1.00  0.00     0.053 C 
BRANCH  11  12
ATOM     12  C   UNL     1      20.233  13.972 -15.367  1.00  0.00     0.041 C 
ATOM     13  O   UNL     1      20.784  15.022 -15.792  1.00  0.00    -0.550 OA
ATOM     14  O   UNL     1      19.043  13.539 -15.942  1.00  0.00    -0.550 OA
ENDBRANCH  11  12
ENDBRANCH  10  11
ENDBRANCH   9  10
ENDBRANCH   8   9
ENDBRANCH   7   8
ENDBRANCH   6   7
ENDBRANCH   5   6
ENDBRANCH   4   5
ENDBRANCH   3   4
ENDBRANCH   2   3
ENDBRANCH   1   2
BRANCH   1  15
ATOM     15  C   UNL     1      12.309  11.569 -13.811  1.00  0.00     0.000 C 
BRANCH  15  16
ATOM     16  C   UNL     1      11.075  12.273 -13.205  1.00  0.00     0.000 C 
BRANCH  16  17
ATOM     17  C   UNL     1       9.742  11.905 -13.885  1.00  0.00     0.000 C 
BRANCH  17  18
ATOM     18  C   UNL     1       8.623  11.638 -12.861  1.00  0.00    -0.000 C 
BRANCH  18  19
ATOM     19  C   UNL     1       7.408  10.914 -13.478  1.00  0.00    -0.000 C 
BRANCH  19  20
ATOM     20  C   UNL     1       6.937   9.687 -12.671  1.00  0.00    -0.000 C 
BRANCH  20  21
ATOM     21  C   UNL     1       5.412   9.568 -12.496  1.00  0.00    -0.000 C 
BRANCH  21  22
ATOM     22  C   UNL     1       4.691   8.716 -13.564  1.00  0.00    -0.000 C 
BRANCH  22  23
ATOM     23  C   UNL     1       5.318   8.766 -14.969  1.00  0.00    -0.000 C 
BRANCH  23  24
ATOM     24  C   UNL     1       4.507   9.628 -15.952  1.00  0.00    -0.000 C 
BRANCH  24  25
ATOM     25  C   UNL     1       3.759  10.769 -15.246  1.00  0.00    -0.003 C 
ATOM     26  C   UNL     1       4.182  12.146 -15.764  1.00  0.00     0.004 C 
ENDBRANCH  24  25
ENDBRANCH  23  24
ENDBRANCH  22  23
ENDBRANCH  21  22
ENDBRANCH  20  21
ENDBRANCH  19  20
ENDBRANCH  18  19
ENDBRANCH  17  18
ENDBRANCH  16  17
ENDBRANCH  15  16
ENDBRANCH   1  15
TORSDOF 22
ENDMDL
MODEL 4
REMARK VINA RESULT:     6.872      1.192      1.572
REMARK INTER + INTRA:          13.944
REMARK INTER:                  15.285
REMARK INTRA:                  -1.341
REMARK UNBOUND:                -1.767
REMARK SMILES CCCCCCCCCCCCCCCCCCCCCCCC(=O)[O-]
REMARK SMILES IDX 13 1 14 2 15 3 16 4 17 5 18 6 19 7 20 8 21 9 22 10 23 11
REMARK SMILES IDX 24 12 25 13 26 14 12 15 11 16 10 17 9 18 8 19 7 20 6 21 5 22
REMARK SMILES IDX 4 23 3 24 2 25 1 26
REMARK H PARENT
REMARK Flexibility Score: inf
ROOT
ATOM      1  C   UNL     1      13.101  12.074 -13.367  1.00  0.00     0.000 C 
ENDROOT
BRANCH   1   2
ATOM      2  C   UNL     1      11.725  11.711 -13.968  1.00  0.00     0.000 C 
BRANCH   2   3
ATOM      3  C   UNL     1      10.510  12.210 -13.163  1.00  0.00     0.000 C 
BRANCH   3   4
ATOM      4  C   UNL     1       9.169  11.822 -13.809  1.00  0.00     0.000 C 
BRANCH   4   5
ATOM      5  C   UNL     1       8.113  11.397 -12.775  1.00  0.00     0.000 C 
BRANCH   5   6
ATOM      6  C   UNL     1       7.149  10.320 -13.309  1.00  0.00     0.000 C 
BRANCH   6   7
ATOM      7  C   UNL     1       6.766   9.292 -12.232  1.00  0.00     0.000 C 
BRANCH   7   8
ATOM      8  C   UNL     1       5.246   9.063 -12.150  1.00  0.00     0.000 C 
BRANCH   8   9
ATOM      9  C   UNL     1       4.675   8.374 -13.403  1.00  0.00     0.000 C 
BRANCH   9  10
ATOM     10  C   UNL     1       3.690   9.230 -14.222  1.00  0.00     0.006 C 
BRANCH  10  11
ATOM     11  C   UNL     1       3.348  10.563 -13.542  1.00  0.00     0.053 C 
BRANCH  11  12
ATOM     12  C   UNL     1       3.604  11.707 -14.475  1.00  0.00     0.041 C 
ATOM     13  O   UNL     1       4.578  11.670 -15.273  1.00  0.00    -0.550 OA
ATOM     14  O   UNL     1       2.790  12.834 -14.436  1.00  0.00    -0.550 OA
ENDBRANCH  11  12
ENDBRANCH  10  11
ENDBRANCH   9  10
ENDBRANCH   8   9
ENDBRANCH   7   8
ENDBRANCH   6   7
ENDBRANCH   5   6
ENDBRANCH   4   5
ENDBRANCH   3   4
ENDBRANCH   2   3
ENDBRANCH   1   2
BRANCH   1  15
ATOM     15  C   UNL     1      14.064  10.886 -13.153  1.00  0.00     0.000 C 
BRANCH  15  16
ATOM     16  C   UNL     1      14.044   9.816 -14.266  1.00  0.00     0.000 C 
BRANCH  16  17
ATOM     17  C   UNL     1      14.834   8.538 -13.925  1.00  0.00     0.000 C 
BRANCH  17  18
ATOM     18  C   UNL     1      16.347   8.714 -14.151  1.00  0.00    -0.000 C 
BRANCH  18  19
ATOM     19  C   UNL     1      16.847   8.015 -15.433  1.00  0.00    -0.000 C 
BRANCH  19  20
ATOM     20  C   UNL     1      18.333   8.282 -15.749  1.00  0.00    -0.000 C 
BRANCH  20  21
ATOM     21  C   UNL     1      18.734   9.769 -15.785  1.00  0.00    -0.000 C 
BRANCH  21  22
ATOM     22  C   UNL     1      19.550  10.261 -14.569  1.00  0.00    -0.000 C 
BRANCH  22  23
ATOM     23  C   UNL     1      19.065  11.586 -13.952  1.00  0.00    -0.000 C 
BRANCH  23  24
ATOM     24  C   UNL     1      20.184  12.636 -13.843  1.00  0.00    -0.000 C 
BRANCH  24  25
ATOM     25  C   UNL     1      20.794  12.983 -15.211  1.00  0.00    -0.003 C 
ATOM     26  C   UNL     1      20.016  14.089 -15.926  1.00  0.00     0.004 C 
ENDBRANCH  24  25
ENDBRANCH  23  24
ENDBRANCH  22  23
ENDBRANCH  21  22
ENDBRANCH  20  21
ENDBRANCH  19  20
ENDBRANCH  18  19
ENDBRANCH  17  18
ENDBRANCH  16  17
ENDBRANCH  15  16
ENDBRANCH   1  15
TORSDOF 22
ENDMDL
MODEL 5
REMARK VINA RESULT:     6.888      5.167     12.966
REMARK INTER + INTRA:          13.980
REMARK INTER:                  15.214
REMARK INTRA:                  -1.234
REMARK UNBOUND:                -1.767
REMARK SMILES CCCCCCCCCCCCCCCCCCCCCCCC(=O)[O-]
REMARK SMILES IDX 13 1 14 2 15 3 16 4 17 5 18 6 19 7 20 8 21 9 22 10 23 11
REMARK SMILES IDX 24 12 25 13 26 14 12 15 11 16 10 17 9 18 8 19 7 20 6 21 5 22
REMARK SMILES IDX 4 23 3 24 2 25 1 26
REMARK H PARENT
REMARK Flexibility Score: inf
ROOT
ATOM      1  C   UNL     1       9.188  11.949 -13.081  1.00  0.00     0.000 C 
ENDROOT
BRANCH   1   2
ATOM      2  C   UNL     1      10.462  12.017 -13.952  1.00  0.00     0.000 C 
BRANCH   2   3
ATOM      3  C   UNL     1      11.770  12.259 -13.175  1.00  0.00     0.000 C 
BRANCH   3   4
ATOM      4  C   UNL     1      12.974  11.531 -13.798  1.00  0.00     0.000 C 
BRANCH   4   5
ATOM      5  C   UNL     1      14.226  11.587 -12.907  1.00  0.00     0.000 C 
BRANCH   5   6
ATOM      6  C   UNL     1      15.291  10.545 -13.300  1.00  0.00     0.000 C 
BRANCH   6   7
ATOM      7  C   UNL     1      16.709  11.137 -13.326  1.00  0.00     0.000 C 
BRANCH   7   8
ATOM      8  C   UNL     1      17.770  10.108 -13.754  1.00  0.00     0.000 C 
BRANCH   8   9
ATOM      9  C   UNL     1      18.702  10.632 -14.862  1.00  0.00     0.000 C 
BRANCH   9  10
ATOM     10  C   UNL     1      19.568  11.842 -14.461  1.00  0.00     0.006 C 
BRANCH  10  11
ATOM     11  C   UNL     1      19.365  13.054 -15.381  1.00  0.00     0.053 C 
BRANCH  11  12
ATOM     12  C   UNL     1      20.446  14.067 -15.157  1.00  0.00     0.041 C 
ATOM     13  O   UNL     1      20.649  14.976 -16.005  1.00  0.00    -0.550 OA
ATOM     14  O   UNL     1      21.257  13.984 -14.031  1.00  0.00    -0.550 OA
ENDBRANCH  11  12
ENDBRANCH  10  11
ENDBRANCH   9  10
ENDBRANCH   8   9
ENDBRANCH   7   8
ENDBRANCH   6   7
ENDBRANCH   5   6
ENDBRANCH   4   5
ENDBRANCH   3   4
ENDBRANCH   2   3
ENDBRANCH   1   2
BRANCH   1  15
ATOM     15  C   UNL     1       8.033  11.106 -13.664  1.00  0.00     0.000 C 
BRANCH  15  16
ATOM     16  C   UNL     1       6.861  10.838 -12.694  1.00  0.00     0.000 C 
BRANCH  16  17
ATOM     17  C   UNL     1       6.703   9.359 -12.291  1.00  0.00     0.000 C 
BRANCH  17  18
ATOM     18  C   UNL     1       6.671   8.425 -13.515  1.00  0.00    -0.000 C 
BRANCH  18  19
ATOM     19  C   UNL     1       5.459   8.684 -14.435  1.00  0.00    -0.000 C 
BRANCH  19  20
ATOM     20  C   UNL     1       4.114   8.222 -13.838  1.00  0.00    -0.000 C 
BRANCH  20  21
ATOM     21  C   UNL     1       2.863   8.800 -14.528  1.00  0.00    -0.000 C 
BRANCH  21  22
ATOM     22  C   UNL     1       2.278  10.071 -13.874  1.00  0.00    -0.000 C 
BRANCH  22  23
ATOM     23  C   UNL     1       2.239  11.313 -14.784  1.00  0.00    -0.000 C 
BRANCH  23  24
ATOM     24  C   UNL     1       3.636  11.898 -15.052  1.00  0.00    -0.000 C 
BRANCH  24  25
ATOM     25  C   UNL     1       3.631  13.435 -15.066  1.00  0.00    -0.003 C 
ATOM     26  C   UNL     1       2.477  14.017 -14.246  1.00  0.00     0.004 C 
ENDBRANCH  24  25
ENDBRANCH  23  24
ENDBRANCH  22  23
ENDBRANCH  21  22
ENDBRANCH  20  21
ENDBRANCH  19  20
ENDBRANCH  18  19
ENDBRANCH  17  18
ENDBRANCH  16  17
ENDBRANCH  15  16
ENDBRANCH   1  15
TORSDOF 22
ENDMDL
MODEL 6
REMARK VINA RESULT:     7.162      5.275     12.834
REMARK INTER + INTRA:          14.606
REMARK INTER:                  15.896
REMARK INTRA:                  -1.290
REMARK UNBOUND:                -1.767
REMARK SMILES CCCCCCCCCCCCCCCCCCCCCCCC(=O)[O-]
REMARK SMILES IDX 13 1 14 2 15 3 16 4 17 5 18 6 19 7 20 8 21 9 22 10 23 11
REMARK SMILES IDX 24 12 25 13 26 14 12 15 11 16 10 17 9 18 8 19 7 20 6 21 5 22
REMARK SMILES IDX 4 23 3 24 2 25 1 26
REMARK H PARENT
REMARK Flexibility Score: inf
ROOT
ATOM      1  C   UNL     1      11.872  11.683 -13.868  1.00  0.00     0.000 C 
ENDROOT
BRANCH   1   2
ATOM      2  C   UNL     1      13.174  11.899 -13.066  1.00  0.00     0.000 C 
BRANCH   2   3
ATOM      3  C   UNL     1      14.361  11.018 -13.501  1.00  0.00     0.000 C 
BRANCH   3   4
ATOM      4  C   UNL     1      13.929   9.600 -13.912  1.00  0.00     0.000 C 
BRANCH   4   5
ATOM      5  C   UNL     1      15.008   8.544 -13.619  1.00  0.00     0.000 C 
BRANCH   5   6
ATOM      6  C   UNL     1      15.669   7.990 -14.896  1.00  0.00     0.000 C 
BRANCH   6   7
ATOM      7  C   UNL     1      17.190   8.210 -14.910  1.00  0.00     0.000 C 
BRANCH   7   8
ATOM      8  C   UNL     1      17.570   9.690 -15.095  1.00  0.00     0.000 C 
BRANCH   8   9
ATOM      9  C   UNL     1      18.414  10.243 -13.931  1.00  0.00     0.000 C 
BRANCH   9  10
ATOM     10  C   UNL     1      19.659  11.044 -14.356  1.00  0.00     0.006 C 
BRANCH  10  11
ATOM     11  C   UNL     1      19.636  12.496 -13.859  1.00  0.00     0.053 C 
BRANCH  11  12
ATOM     12  C   UNL     1      20.849  13.232 -14.338  1.00  0.00     0.041 C 
ATOM     13  O   UNL     1      21.827  13.414 -13.565  1.00  0.00    -0.550 OA
ATOM     14  O   UNL     1      20.885  13.754 -15.626  1.00  0.00    -0.550 OA
ENDBRANCH  11  12
ENDBRANCH  10  11
ENDBRANCH   9  10
ENDBRANCH   8   9
ENDBRANCH   7   8
ENDBRANCH   6   7
ENDBRANCH   5   6
ENDBRANCH   4   5
ENDBRANCH   3   4
ENDBRANCH   2   3
ENDBRANCH   1   2
BRANCH   1  15
ATOM     15  C   UNL     1      10.593  12.259 -13.221  1.00  0.00     0.000 C 
BRANCH  15  16
ATOM     16  C   UNL     1       9.266  11.768 -13.840  1.00  0.00     0.000 C 
BRANCH  16  17
ATOM     17  C   UNL     1       8.230  11.284 -12.807  1.00  0.00     0.000 C 
BRANCH  17  18
ATOM     18  C   UNL     1       7.012  10.620 -13.475  1.00  0.00    -0.000 C 
BRANCH  18  19
ATOM     19  C   UNL     1       6.847   9.137 -13.081  1.00  0.00    -0.000 C 
BRANCH  19  20
ATOM     20  C   UNL     1       5.378   8.687 -12.949  1.00  0.00    -0.000 C 
BRANCH  20  21
ATOM     21  C   UNL     1       4.337   9.817 -13.064  1.00  0.00    -0.000 C 
BRANCH  21  22
ATOM     22  C   UNL     1       3.167   9.739 -12.058  1.00  0.00    -0.000 C 
BRANCH  22  23
ATOM     23  C   UNL     1       3.062   8.413 -11.283  1.00  0.00    -0.000 C 
BRANCH  23  24
ATOM     24  C   UNL     1       2.805   8.621  -9.780  1.00  0.00    -0.000 C 
BRANCH  24  25
ATOM     25  C   UNL     1       3.997   8.177  -8.918  1.00  0.00    -0.003 C 
ATOM     26  C   UNL     1       5.336   8.628  -9.505  1.00  0.00     0.004 C 
ENDBRANCH  24  25
ENDBRANCH  23  24
ENDBRANCH  22  23
ENDBRANCH  21  22
ENDBRANCH  20  21
ENDBRANCH  19  20
ENDBRANCH  18  19
ENDBRANCH  17  18
ENDBRANCH  16  17
ENDBRANCH  15  16
ENDBRANCH   1  15
TORSDOF 22
ENDMDL
MODEL 7
REMARK VINA RESULT:     7.189      1.961      4.358
REMARK INTER + INTRA:          14.667
REMARK INTER:                  15.574
REMARK INTRA:                  -0.907
REMARK UNBOUND:                -1.767
REMARK SMILES CCCCCCCCCCCCCCCCCCCCCCCC(=O)[O-]
REMARK SMILES IDX 13 1 14 2 15 3 16 4 17 5 18 6 19 7 20 8 21 9 22 10 23 11
REMARK SMILES IDX 24 12 25 13 26 14 12 15 11 16 10 17 9 18 8 19 7 20 6 21 5 22
REMARK SMILES IDX 4 23 3 24 2 25 1 26
REMARK H PARENT
REMARK Flexibility Score: inf
ROOT
ATOM      1  C   UNL     1       8.805  12.056 -12.958  1.00  0.00     0.000 C 
ENDROOT
BRANCH   1   2
ATOM      2  C   UNL     1       7.898  10.810 -12.862  1.00  0.00     0.000 C 
BRANCH   2   3
ATOM      3  C   UNL     1       6.541  10.934 -13.581  1.00  0.00     0.000 C 
BRANCH   3   4
ATOM      4  C   UNL     1       6.056   9.598 -14.169  1.00  0.00     0.000 C 
BRANCH   4   5
ATOM      5  C   UNL     1       4.649   9.696 -14.782  1.00  0.00     0.000 C 
BRANCH   5   6
ATOM      6  C   UNL     1       3.871  10.938 -14.306  1.00  0.00     0.000 C 
BRANCH   6   7
ATOM      7  C   UNL     1       2.349  10.743 -14.388  1.00  0.00     0.000 C 
BRANCH   7   8
ATOM      8  C   UNL     1       1.875   9.482 -13.643  1.00  0.00     0.000 C 
BRANCH   8   9
ATOM      9  C   UNL     1       1.971   9.619 -12.111  1.00  0.00     0.000 C 
BRANCH   9  10
ATOM     10  C   UNL     1       2.711   8.468 -11.403  1.00  0.00     0.006 C 
BRANCH  10  11
ATOM     11  C   UNL     1       4.129   8.852 -10.958  1.00  0.00     0.053 C 
BRANCH  11  12
ATOM     12  C   UNL     1       4.272   8.695  -9.476  1.00  0.00     0.041 C 
ATOM     13  O   UNL     1       5.410   8.530  -8.962  1.00  0.00    -0.550 OA
ATOM     14  O   UNL     1       3.144   8.691  -8.663  1.00  0.00    -0.550 OA
ENDBRANCH  11  12
ENDBRANCH  10  11
ENDBRANCH   9  10
ENDBRANCH   8   9
ENDBRANCH   7   8
ENDBRANCH   6   7
ENDBRANCH   5   6
ENDBRANCH   4   5
ENDBRANCH   3   4
ENDBRANCH   2   3
ENDBRANCH   1   2
BRANCH   1  15
ATOM     15  C   UNL     1      10.043  11.905 -13.868  1.00  0.00     0.000 C 
BRANCH  15  16
ATOM     16  C   UNL     1      11.398  12.206 -13.191  1.00  0.00     0.000 C 
BRANCH  16  17
ATOM     17  C   UNL     1      12.615  11.605 -13.919  1.00  0.00     0.000 C 
BRANCH  17  18
ATOM     18  C   UNL     1      13.909  11.741 -13.096  1.00  0.00    -0.000 C 
BRANCH  18  19
ATOM     19  C   UNL     1      14.799  10.482 -13.165  1.00  0.00    -0.000 C 
BRANCH  19  20
ATOM     20  C   UNL     1      14.323   9.439 -14.197  1.00  0.00    -0.000 C 
BRANCH  20  21
ATOM     21  C   UNL     1      15.224   8.197 -14.331  1.00  0.00    -0.000 C 
BRANCH  21  22
ATOM     22  C   UNL     1      16.709   8.418 -13.968  1.00  0.00    -0.000 C 
BRANCH  22  23
ATOM     23  C   UNL     1      17.282   9.788 -14.377  1.00  0.00    -0.000 C 
BRANCH  23  24
ATOM     24  C   UNL     1      18.761   9.954 -13.987  1.00  0.00    -0.000 C 
BRANCH  24  25
ATOM     25  C   UNL     1      19.487  10.973 -14.880  1.00  0.00    -0.003 C 
ATOM     26  C   UNL     1      19.060  12.412 -14.583  1.00  0.00     0.004 C 
ENDBRANCH  24  25
ENDBRANCH  23  24
ENDBRANCH  22  23
ENDBRANCH  21  22
ENDBRANCH  20  21
ENDBRANCH  19  20
ENDBRANCH  18  19
ENDBRANCH  17  18
ENDBRANCH  16  17
ENDBRANCH  15  16
ENDBRANCH   1  15
TORSDOF 22
ENDMDL
MODEL 8
REMARK VINA RESULT:     7.229      5.022     13.089
REMARK INTER + INTRA:          14.760
REMARK INTER:                  16.000
REMARK INTRA:                  -1.240
REMARK UNBOUND:                -1.767
REMARK SMILES CCCCCCCCCCCCCCCCCCCCCCCC(=O)[O-]
REMARK SMILES IDX 13 1 14 2 15 3 16 4 17 5 18 6 19 7 20 8 21 9 22 10 23 11
REMARK SMILES IDX 24 12 25 13 26 14 12 15 11 16 10 17 9 18 8 19 7 20 6 21 5 22
REMARK SMILES IDX 4 23 3 24 2 25 1 26
REMARK H PARENT
REMARK Flexibility Score: inf
ROOT
ATOM      1  C   UNL     1       8.830  12.004 -13.110  1.00  0.00     0.000 C 
ENDROOT
BRANCH   1   2
ATOM      2  C   UNL     1      10.151  11.946 -13.909  1.00  0.00     0.000 C 
BRANCH   2   3
ATOM      3  C   UNL     1      11.420  12.261 -13.095  1.00  0.00     0.000 C 
BRANCH   3   4
ATOM      4  C   UNL     1      12.678  11.587 -13.669  1.00  0.00     0.000 C 
BRANCH   4   5
ATOM      5  C   UNL     1      13.950  11.933 -12.877  1.00  0.00     0.000 C 
BRANCH   5   6
ATOM      6  C   UNL     1      15.124  10.983 -13.181  1.00  0.00     0.000 C 
BRANCH   6   7
ATOM      7  C   UNL     1      16.487  11.687 -13.084  1.00  0.00     0.000 C 
BRANCH   7   8
ATOM      8  C   UNL     1      17.662  10.738 -13.379  1.00  0.00     0.000 C 
BRANCH   8   9
ATOM      9  C   UNL     1      18.413  11.096 -14.675  1.00  0.00     0.000 C 
BRANCH   9  10
ATOM     10  C   UNL     1      19.934  10.855 -14.631  1.00  0.00     0.006 C 
BRANCH  10  11
ATOM     11  C   UNL     1      20.727  11.877 -15.456  1.00  0.00     0.053 C 
BRANCH  11  12
ATOM     12  C   UNL     1      20.508  13.261 -14.926  1.00  0.00     0.041 C 
ATOM     13  O   UNL     1      21.129  13.654 -13.903  1.00  0.00    -0.550 OA
ATOM     14  O   UNL     1      19.586  14.104 -15.537  1.00  0.00    -0.550 OA
ENDBRANCH  11  12
ENDBRANCH  10  11
ENDBRANCH   9  10
ENDBRANCH   8   9
ENDBRANCH   7   8
ENDBRANCH   6   7
ENDBRANCH   5   6
ENDBRANCH   4   5
ENDBRANCH   3   4
ENDBRANCH   2   3
ENDBRANCH   1   2
BRANCH   1  15
ATOM     15  C   UNL     1       8.017  10.692 -13.079  1.00  0.00     0.000 C 
BRANCH  15  16
ATOM     16  C   UNL     1       6.485  10.867 -13.166  1.00  0.00     0.000 C 
BRANCH  16  17
ATOM     17  C   UNL     1       5.857  10.294 -14.451  1.00  0.00     0.000 C 
BRANCH  17  18
ATOM     18  C   UNL     1       5.047  11.353 -15.223  1.00  0.00    -0.000 C 
BRANCH  18  19
ATOM     19  C   UNL     1       3.526  11.229 -14.991  1.00  0.00    -0.000 C 
BRANCH  19  20
ATOM     20  C   UNL     1       2.983   9.797 -15.171  1.00  0.00    -0.000 C 
BRANCH  20  21
ATOM     21  C   UNL     1       2.433   9.143 -13.890  1.00  0.00    -0.000 C 
BRANCH  21  22
ATOM     22  C   UNL     1       2.960   9.742 -12.567  1.00  0.00    -0.000 C 
BRANCH  22  23
ATOM     23  C   UNL     1       3.202   8.720 -11.440  1.00  0.00    -0.000 C 
BRANCH  23  24
ATOM     24  C   UNL     1       4.696   8.516 -11.133  1.00  0.00    -0.000 C 
BRANCH  24  25
ATOM     25  C   UNL     1       5.004   8.640  -9.632  1.00  0.00    -0.003 C 
ATOM     26  C   UNL     1       3.820   8.215  -8.761  1.00  0.00     0.004 C 
ENDBRANCH  24  25
ENDBRANCH  23  24
ENDBRANCH  22  23
ENDBRANCH  21  22
ENDBRANCH  20  21
ENDBRANCH  19  20
ENDBRANCH  18  19
ENDBRANCH  17  18
ENDBRANCH  16  17
ENDBRANCH  15  16
ENDBRANCH   1  15
TORSDOF 22
ENDMDL
MODEL 9
REMARK VINA RESULT:     7.293      5.218     13.295
REMARK INTER + INTRA:          14.905
REMARK INTER:                  16.033
REMARK INTRA:                  -1.128
REMARK UNBOUND:                -1.767
REMARK SMILES CCCCCCCCCCCCCCCCCCCCCCCC(=O)[O-]
REMARK SMILES IDX 13 1 14 2 15 3 16 4 17 5 18 6 19 7 20 8 21 9 22 10 23 11
REMARK SMILES IDX 24 12 25 13 26 14 12 15 11 16 10 17 9 18 8 19 7 20 6 21 5 22
REMARK SMILES IDX 4 23 3 24 2 25 1 26
REMARK H PARENT
REMARK Flexibility Score: inf
ROOT
ATOM      1  C   UNL     1      12.700  12.001 -13.375  1.00  0.00     0.000 C 
ENDROOT
BRANCH   1   2
ATOM      2  C   UNL     1      13.526  10.704 -13.524  1.00  0.00     0.000 C 
BRANCH   2   3
ATOM      3  C   UNL     1      15.042  10.869 -13.312  1.00  0.00     0.000 C 
BRANCH   3   4
ATOM      4  C   UNL     1      15.853   9.682 -13.861  1.00  0.00     0.000 C 
BRANCH   4   5
ATOM      5  C   UNL     1      17.346   9.767 -13.503  1.00  0.00     0.000 C 
BRANCH   5   6
ATOM      6  C   UNL     1      17.993  11.096 -13.936  1.00  0.00     0.000 C 
BRANCH   6   7
ATOM      7  C   UNL     1      18.826  10.951 -15.220  1.00  0.00     0.000 C 
BRANCH   7   8
ATOM      8  C   UNL     1      19.847   9.803 -15.134  1.00  0.00     0.000 C 
BRANCH   8   9
ATOM      9  C   UNL     1      21.216  10.171 -15.734  1.00  0.00     0.000 C 
BRANCH   9  10
ATOM     10  C   UNL     1      22.011  11.224 -14.938  1.00  0.00     0.006 C 
BRANCH  10  11
ATOM     11  C   UNL     1      22.116  12.572 -15.665  1.00  0.00     0.053 C 
BRANCH  11  12
ATOM     12  C   UNL     1      21.458  13.652 -14.863  1.00  0.00     0.041 C 
ATOM     13  O   UNL     1      21.571  14.858 -15.209  1.00  0.00    -0.550 OA
ATOM     14  O   UNL     1      20.751  13.331 -13.709  1.00  0.00    -0.550 OA
ENDBRANCH  11  12
ENDBRANCH  10  11
ENDBRANCH   9  10
ENDBRANCH   8   9
ENDBRANCH   7   8
ENDBRANCH   6   7
ENDBRANCH   5   6
ENDBRANCH   4   5
ENDBRANCH   3   4
ENDBRANCH   2   3
ENDBRANCH   1   2
BRANCH   1  15
ATOM     15  C   UNL     1      11.312  11.983 -14.051  1.00  0.00     0.000 C 
BRANCH  15  16
ATOM     16  C   UNL     1      10.114  12.195 -13.099  1.00  0.00     0.000 C 
BRANCH  16  17
ATOM     17  C   UNL     1       8.769  11.694 -13.658  1.00  0.00     0.000 C 
BRANCH  17  18
ATOM     18  C   UNL     1       7.876  11.085 -12.561  1.00  0.00    -0.000 C 
BRANCH  18  19
ATOM     19  C   UNL     1       6.887  10.034 -13.109  1.00  0.00    -0.000 C 
BRANCH  19  20
ATOM     20  C   UNL     1       5.967  10.568 -14.226  1.00  0.00    -0.000 C 
BRANCH  20  21
ATOM     21  C   UNL     1       4.568   9.925 -14.281  1.00  0.00    -0.000 C 
BRANCH  21  22
ATOM     22  C   UNL     1       4.236   8.971 -13.112  1.00  0.00    -0.000 C 
BRANCH  22  23
ATOM     23  C   UNL     1       3.550   9.635 -11.904  1.00  0.00    -0.000 C 
BRANCH  23  24
ATOM     24  C   UNL     1       2.742   8.638 -11.056  1.00  0.00    -0.000 C 
BRANCH  24  25
ATOM     25  C   UNL     1       3.623   7.876 -10.054  1.00  0.00    -0.003 C 
ATOM     26  C   UNL     1       4.877   8.664  -9.670  1.00  0.00     0.004 C 
ENDBRANCH  24  25
ENDBRANCH  23  24
ENDBRANCH  22  23
ENDBRANCH  21  22
ENDBRANCH  20  21
ENDBRANCH  19  20
ENDBRANCH  18  19
ENDBRANCH  17  18
ENDBRANCH  16  17
ENDBRANCH  15  16
ENDBRANCH   1  15
TORSDOF 22
ENDMDL
