MODEL 1
REMARK VINA RESULT:     6.075      0.000      0.000
REMARK INTER + INTRA:          13.805
REMARK INTER:                  15.308
REMARK INTRA:                  -1.503
REMARK UNBOUND:                -1.503
REMARK SMILES CCCCCCCCCCCCCCCCCCCCCCCCCCCC(=O)[O-]
REMARK SMILES IDX 15 1 16 2 17 3 18 4 19 5 20 6 21 7 22 8 23 9 24 10 25 11
REMARK SMILES IDX 26 12 27 13 28 14 29 15 30 16 14 17 13 18 12 19 11 20 10 21
REMARK SMILES IDX 9 22 8 23 7 24 6 25 5 26 4 27 3 28 2 29 1 30
REMARK H PARENT
REMARK Flexibility Score: inf
ROOT
ATOM      1  C   UNL     1     -30.127 -19.877 -31.165  1.00  0.00     0.000 C 
ENDROOT
BRANCH   1   2
ATOM      2  C   UNL     1     -30.803 -21.030 -30.397  1.00  0.00     0.000 C 
BRANCH   2   3
ATOM      3  C   UNL     1     -30.396 -22.435 -30.882  1.00  0.00     0.000 C 
BRANCH   3   4
ATOM      4  C   UNL     1     -30.092 -23.393 -29.717  1.00  0.00     0.000 C 
BRANCH   4   5
ATOM      5  C   UNL     1     -29.931 -22.668 -28.369  1.00  0.00     0.000 C 
BRANCH   5   6
ATOM      6  C   UNL     1     -28.545 -22.802 -27.712  1.00  0.00     0.000 C 
BRANCH   6   7
ATOM      7  C   UNL     1     -27.596 -21.647 -28.075  1.00  0.00     0.000 C 
BRANCH   7   8
ATOM      8  C   UNL     1     -27.121 -20.844 -26.847  1.00  0.00     0.000 C 
BRANCH   8   9
ATOM      9  C   UNL     1     -25.624 -20.980 -26.510  1.00  0.00     0.000 C 
BRANCH   9  10
ATOM     10  C   UNL     1     -25.131 -20.111 -25.337  1.00  0.00     0.000 C 
BRANCH  10  11
ATOM     11  C   UNL     1     -25.895 -20.350 -24.017  1.00  0.00     0.000 C 
BRANCH  11  12
ATOM     12  C   UNL     1     -25.074 -21.154 -22.997  1.00  0.00     0.006 C 
BRANCH  12  13
ATOM     13  C   UNL     1     -25.924 -21.527 -21.774  1.00  0.00     0.053 C 
BRANCH  13  14
ATOM     14  C   UNL     1     -26.830 -22.689 -22.056  1.00  0.00     0.041 C 
ATOM     15  O   UNL     1     -27.975 -22.509 -22.555  1.00  0.00    -0.550 OA
ATOM     16  O   UNL     1     -26.393 -23.982 -21.800  1.00  0.00    -0.550 OA
ENDBRANCH  13  14
ENDBRANCH  12  13
ENDBRANCH  11  12
ENDBRANCH  10  11
ENDBRANCH   9  10
ENDBRANCH   8   9
ENDBRANCH   7   8
ENDBRANCH   6   7
ENDBRANCH   5   6
ENDBRANCH   4   5
ENDBRANCH   3   4
ENDBRANCH   2   3
ENDBRANCH   1   2
BRANCH   1  17
ATOM     17  C   UNL     1     -30.284 -20.016 -32.690  1.00  0.00     0.000 C 
BRANCH  17  18
ATOM     18  C   UNL     1     -31.752 -19.939 -33.143  1.00  0.00     0.000 C 
BRANCH  18  19
ATOM     19  C   UNL     1     -32.105 -20.995 -34.200  1.00  0.00     0.000 C 
BRANCH  19  20
ATOM     20  C   UNL     1     -33.181 -20.469 -35.162  1.00  0.00     0.000 C 
BRANCH  20  21
ATOM     21  C   UNL     1     -33.628 -21.533 -36.190  1.00  0.00     0.000 C 
BRANCH  21  22
ATOM     22  C   UNL     1     -33.839 -20.972 -37.610  1.00  0.00    -0.000 C 
BRANCH  22  23
ATOM     23  C   UNL     1     -33.407 -21.914 -38.749  1.00  0.00    -0.000 C 
BRANCH  23  24
ATOM     24  C   UNL     1     -32.010 -22.546 -38.576  1.00  0.00    -0.000 C 
BRANCH  24  25
ATOM     25  C   UNL     1     -31.924 -24.042 -38.929  1.00  0.00    -0.000 C 
BRANCH  25  26
ATOM     26  C   UNL     1     -31.329 -24.890 -37.796  1.00  0.00    -0.000 C 
BRANCH  26  27
ATOM     27  C   UNL     1     -31.251 -26.370 -38.197  1.00  0.00    -0.000 C 
BRANCH  27  28
ATOM     28  C   UNL     1     -32.486 -26.834 -38.988  1.00  0.00    -0.000 C 
BRANCH  28  29
ATOM     29  C   UNL     1     -33.338 -27.849 -38.212  1.00  0.00    -0.003 C 
ATOM     30  C   UNL     1     -33.641 -29.079 -39.064  1.00  0.00     0.004 C 
ENDBRANCH  28  29
ENDBRANCH  27  28
ENDBRANCH  26  27
ENDBRANCH  25  26
ENDBRANCH  24  25
ENDBRANCH  23  24
ENDBRANCH  22  23
ENDBRANCH  21  22
ENDBRANCH  20  21
ENDBRANCH  19  20
ENDBRANCH  18  19
ENDBRANCH  17  18
ENDBRANCH   1  17
TORSDOF 26
ENDMDL
MODEL 2
REMARK VINA RESULT:     6.666      4.780     13.174
REMARK INTER + INTRA:          15.296
REMARK INTER:                  16.371
REMARK INTRA:                  -1.075
REMARK UNBOUND:                -1.503
REMARK SMILES CCCCCCCCCCCCCCCCCCCCCCCCCCCC(=O)[O-]
REMARK SMILES IDX 15 1 16 2 17 3 18 4 19 5 20 6 21 7 22 8 23 9 24 10 25 11
REMARK SMILES IDX 26 12 27 13 28 14 29 15 30 16 14 17 13 18 12 19 11 20 10 21
REMARK SMILES IDX 9 22 8 23 7 24 6 25 5 26 4 27 3 28 2 29 1 30
REMARK H PARENT
REMARK Flexibility Score: inf
ROOT
ATOM      1  C   UNL     1     -30.092 -22.941 -30.977  1.00  0.00     0.000 C 
ENDROOT
BRANCH   1   2
ATOM      2  C   UNL     1     -31.068 -22.677 -32.139  1.00  0.00     0.000 C 
BRANCH   2   3
ATOM      3  C   UNL     1     -30.626 -21.548 -33.091  1.00  0.00     0.000 C 
BRANCH   3   4
ATOM      4  C   UNL     1     -31.016 -21.826 -34.554  1.00  0.00     0.000 C 
BRANCH   4   5
ATOM      5  C   UNL     1     -32.093 -22.916 -34.691  1.00  0.00     0.000 C 
BRANCH   5   6
ATOM      6  C   UNL     1     -33.380 -22.481 -35.416  1.00  0.00     0.000 C 
BRANCH   6   7
ATOM      7  C   UNL     1     -33.389 -20.985 -35.775  1.00  0.00     0.000 C 
BRANCH   7   8
ATOM      8  C   UNL     1     -33.623 -20.723 -37.276  1.00  0.00     0.000 C 
BRANCH   8   9
ATOM      9  C   UNL     1     -33.565 -21.971 -38.179  1.00  0.00     0.000 C 
BRANCH   9  10
ATOM     10  C   UNL     1     -32.176 -22.627 -38.306  1.00  0.00     0.000 C 
BRANCH  10  11
ATOM     11  C   UNL     1     -32.203 -24.026 -38.959  1.00  0.00     0.000 C 
BRANCH  11  12
ATOM     12  C   UNL     1     -32.269 -25.160 -37.924  1.00  0.00     0.006 C 
BRANCH  12  13
ATOM     13  C   UNL     1     -31.266 -26.273 -38.260  1.00  0.00     0.053 C 
BRANCH  13  14
ATOM     14  C   UNL     1     -31.954 -27.566 -38.588  1.00  0.00     0.041 C 
ATOM     15  O   UNL     1     -31.288 -28.617 -38.794  1.00  0.00    -0.550 OA
ATOM     16  O   UNL     1     -33.341 -27.618 -38.629  1.00  0.00    -0.550 OA
ENDBRANCH  13  14
ENDBRANCH  12  13
ENDBRANCH  11  12
ENDBRANCH  10  11
ENDBRANCH   9  10
ENDBRANCH   8   9
ENDBRANCH   7   8
ENDBRANCH   6   7
ENDBRANCH   5   6
ENDBRANCH   4   5
ENDBRANCH   3   4
ENDBRANCH   2   3
ENDBRANCH   1   2
BRANCH   1  17
ATOM     17  C   UNL     1     -30.469 -22.161 -29.705  1.00  0.00     0.000 C 
BRANCH  17  18
ATOM     18  C   UNL     1     -30.808 -20.688 -29.993  1.00  0.00     0.000 C 
BRANCH  18  19
ATOM     19  C   UNL     1     -29.590 -19.875 -30.455  1.00  0.00     0.000 C 
BRANCH  19  20
ATOM     20  C   UNL     1     -28.284 -20.622 -30.148  1.00  0.00     0.000 C 
BRANCH  20  21
ATOM     21  C   UNL     1     -27.458 -19.941 -29.035  1.00  0.00     0.000 C 
BRANCH  21  22
ATOM     22  C   UNL     1     -27.022 -20.900 -27.911  1.00  0.00    -0.000 C 
BRANCH  22  23
ATOM     23  C   UNL     1     -25.521 -20.860 -27.570  1.00  0.00    -0.000 C 
BRANCH  23  24
ATOM     24  C   UNL     1     -25.185 -20.275 -26.182  1.00  0.00    -0.000 C 
BRANCH  24  25
ATOM     25  C   UNL     1     -25.411 -21.233 -24.999  1.00  0.00    -0.000 C 
BRANCH  25  26
ATOM     26  C   UNL     1     -26.128 -20.565 -23.817  1.00  0.00    -0.000 C 
BRANCH  26  27
ATOM     27  C   UNL     1     -27.599 -21.000 -23.747  1.00  0.00    -0.000 C 
BRANCH  27  28
ATOM     28  C   UNL     1     -27.794 -22.296 -22.942  1.00  0.00    -0.000 C 
BRANCH  28  29
ATOM     29  C   UNL     1     -26.903 -22.356 -21.692  1.00  0.00    -0.003 C 
ATOM     30  C   UNL     1     -26.191 -23.702 -21.587  1.00  0.00     0.004 C 
ENDBRANCH  28  29
ENDBRANCH  27  28
ENDBRANCH  26  27
ENDBRANCH  25  26
ENDBRANCH  24  25
ENDBRANCH  23  24
ENDBRANCH  22  23
ENDBRANCH  21  22
ENDBRANCH  20  21
ENDBRANCH  19  20
ENDBRANCH  18  19
ENDBRANCH  17  18
ENDBRANCH   1  17
TORSDOF 26
ENDMDL
MODEL 3
REMARK VINA RESULT:     7.289      5.270     12.486
REMARK INTER + INTRA:          16.866
REMARK INTER:                  16.898
REMARK INTRA:                  -0.033
REMARK UNBOUND:                -1.503
REMARK SMILES CCCCCCCCCCCCCCCCCCCCCCCCCCCC(=O)[O-]
REMARK SMILES IDX 15 1 16 2 17 3 18 4 19 5 20 6 21 7 22 8 23 9 24 10 25 11
REMARK SMILES IDX 26 12 27 13 28 14 29 15 30 16 14 17 13 18 12 19 11 20 10 21
REMARK SMILES IDX 9 22 8 23 7 24 6 25 5 26 4 27 3 28 2 29 1 30
REMARK H PARENT
REMARK Flexibility Score: inf
ROOT
ATOM      1  C   UNL     1     -30.288 -23.218 -30.545  1.00  0.00     0.000 C 
ENDROOT
BRANCH   1   2
ATOM      2  C   UNL     1     -31.226 -22.896 -31.724  1.00  0.00     0.000 C 
BRANCH   2   3
ATOM      3  C   UNL     1     -30.772 -21.699 -32.582  1.00  0.00     0.000 C 
BRANCH   3   4
ATOM      4  C   UNL     1     -30.831 -22.001 -34.090  1.00  0.00     0.000 C 
BRANCH   4   5
ATOM      5  C   UNL     1     -31.795 -23.149 -34.436  1.00  0.00     0.000 C 
BRANCH   5   6
ATOM      6  C   UNL     1     -33.112 -22.721 -35.110  1.00  0.00     0.000 C 
BRANCH   6   7
ATOM      7  C   UNL     1     -33.133 -21.231 -35.491  1.00  0.00     0.000 C 
BRANCH   7   8
ATOM      8  C   UNL     1     -33.588 -20.983 -36.943  1.00  0.00     0.000 C 
BRANCH   8   9
ATOM      9  C   UNL     1     -33.550 -22.218 -37.864  1.00  0.00     0.000 C 
BRANCH   9  10
ATOM     10  C   UNL     1     -32.323 -22.312 -38.791  1.00  0.00     0.000 C 
BRANCH  10  11
ATOM     11  C   UNL     1     -31.888 -23.758 -39.111  1.00  0.00     0.000 C 
BRANCH  11  12
ATOM     12  C   UNL     1     -32.185 -24.733 -37.961  1.00  0.00     0.006 C 
BRANCH  12  13
ATOM     13  C   UNL     1     -31.303 -25.985 -38.056  1.00  0.00     0.053 C 
BRANCH  13  14
ATOM     14  C   UNL     1     -32.093 -27.198 -38.451  1.00  0.00     0.041 C 
ATOM     15  O   UNL     1     -31.563 -28.123 -39.125  1.00  0.00    -0.550 OA
ATOM     16  O   UNL     1     -33.414 -27.323 -38.040  1.00  0.00    -0.550 OA
ENDBRANCH  13  14
ENDBRANCH  12  13
ENDBRANCH  11  12
ENDBRANCH  10  11
ENDBRANCH   9  10
ENDBRANCH   8   9
ENDBRANCH   7   8
ENDBRANCH   6   7
ENDBRANCH   5   6
ENDBRANCH   4   5
ENDBRANCH   3   4
ENDBRANCH   2   3
ENDBRANCH   1   2
BRANCH   1  17
ATOM     17  C   UNL     1     -30.372 -22.167 -29.424  1.00  0.00     0.000 C 
BRANCH  17  18
ATOM     18  C   UNL     1     -31.013 -20.850 -29.895  1.00  0.00     0.000 C 
BRANCH  18  19
ATOM     19  C   UNL     1     -29.996 -19.878 -30.508  1.00  0.00     0.000 C 
BRANCH  19  20
ATOM     20  C   UNL     1     -28.576 -20.463 -30.456  1.00  0.00     0.000 C 
BRANCH  20  21
ATOM     21  C   UNL     1     -27.759 -19.930 -29.259  1.00  0.00     0.000 C 
BRANCH  21  22
ATOM     22  C   UNL     1     -27.407 -21.011 -28.219  1.00  0.00    -0.000 C 
BRANCH  22  23
ATOM     23  C   UNL     1     -26.053 -20.813 -27.511  1.00  0.00    -0.000 C 
BRANCH  23  24
ATOM     24  C   UNL     1     -24.839 -21.418 -28.246  1.00  0.00    -0.000 C 
BRANCH  24  25
ATOM     25  C   UNL     1     -23.466 -20.961 -27.722  1.00  0.00    -0.000 C 
BRANCH  25  26
ATOM     26  C   UNL     1     -22.429 -20.782 -28.841  1.00  0.00    -0.000 C 
BRANCH  26  27
ATOM     27  C   UNL     1     -21.298 -21.811 -28.714  1.00  0.00    -0.000 C 
BRANCH  27  28
ATOM     28  C   UNL     1     -20.628 -22.122 -30.063  1.00  0.00    -0.000 C 
BRANCH  28  29
ATOM     29  C   UNL     1     -20.384 -20.862 -30.907  1.00  0.00    -0.003 C 
ATOM     30  C   UNL     1     -20.997 -21.004 -32.298  1.00  0.00     0.004 C 
ENDBRANCH  28  29
ENDBRANCH  27  28
ENDBRANCH  26  27
ENDBRANCH  25  26
ENDBRANCH  24  25
ENDBRANCH  23  24
ENDBRANCH  22  23
ENDBRANCH  21  22
ENDBRANCH  20  21
ENDBRANCH  19  20
ENDBRANCH  18  19
ENDBRANCH  17  18
ENDBRANCH   1  17
TORSDOF 26
ENDMDL
MODEL 4
REMARK VINA RESULT:     7.544      3.310      4.456
REMARK INTER + INTRA:          17.509
REMARK INTER:                  16.251
REMARK INTRA:                   1.258
REMARK UNBOUND:                -1.503
REMARK SMILES CCCCCCCCCCCCCCCCCCCCCCCCCCCC(=O)[O-]
REMARK SMILES IDX 15 1 16 2 17 3 18 4 19 5 20 6 21 7 22 8 23 9 24 10 25 11
REMARK SMILES IDX 26 12 27 13 28 14 29 15 30 16 14 17 13 18 12 19 11 20 10 21
REMARK SMILES IDX 9 22 8 23 7 24 6 25 5 26 4 27 3 28 2 29 1 30
REMARK H PARENT
REMARK Flexibility Score: inf
ROOT
ATOM      1  C   UNL     1     -29.475 -22.125 -33.573  1.00  0.00     0.000 C 
ENDROOT
BRANCH   1   2
ATOM      2  C   UNL     1     -29.324 -20.592 -33.541  1.00  0.00     0.000 C 
BRANCH   2   3
ATOM      3  C   UNL     1     -30.335 -19.877 -32.625  1.00  0.00     0.000 C 
BRANCH   3   4
ATOM      4  C   UNL     1     -31.530 -20.774 -32.256  1.00  0.00     0.000 C 
BRANCH   4   5
ATOM      5  C   UNL     1     -32.233 -20.333 -30.960  1.00  0.00     0.000 C 
BRANCH   5   6
ATOM      6  C   UNL     1     -31.295 -19.938 -29.805  1.00  0.00     0.000 C 
BRANCH   6   7
ATOM      7  C   UNL     1     -30.009 -20.781 -29.761  1.00  0.00     0.000 C 
BRANCH   7   8
ATOM      8  C   UNL     1     -28.725 -19.931 -29.829  1.00  0.00     0.000 C 
BRANCH   8   9
ATOM      9  C   UNL     1     -27.436 -20.649 -29.384  1.00  0.00     0.000 C 
BRANCH   9  10
ATOM     10  C   UNL     1     -27.336 -20.948 -27.876  1.00  0.00     0.000 C 
BRANCH  10  11
ATOM     11  C   UNL     1     -28.215 -22.129 -27.412  1.00  0.00     0.000 C 
BRANCH  11  12
ATOM     12  C   UNL     1     -28.467 -23.153 -28.530  1.00  0.00     0.006 C 
BRANCH  12  13
ATOM     13  C   UNL     1     -29.934 -23.603 -28.546  1.00  0.00     0.053 C 
BRANCH  13  14
ATOM     14  C   UNL     1     -30.347 -24.119 -29.893  1.00  0.00     0.041 C 
ATOM     15  O   UNL     1     -30.154 -23.433 -30.934  1.00  0.00    -0.550 OA
ATOM     16  O   UNL     1     -30.914 -25.382 -30.003  1.00  0.00    -0.550 OA
ENDBRANCH  13  14
ENDBRANCH  12  13
ENDBRANCH  11  12
ENDBRANCH  10  11
ENDBRANCH   9  10
ENDBRANCH   8   9
ENDBRANCH   7   8
ENDBRANCH   6   7
ENDBRANCH   5   6
ENDBRANCH   4   5
ENDBRANCH   3   4
ENDBRANCH   2   3
ENDBRANCH   1   2
BRANCH   1  17
ATOM     17  C   UNL     1     -30.009 -22.634 -34.923  1.00  0.00     0.000 C 
BRANCH  17  18
ATOM     18  C   UNL     1     -31.471 -23.106 -34.842  1.00  0.00     0.000 C 
BRANCH  18  19
ATOM     19  C   UNL     1     -32.431 -21.997 -34.391  1.00  0.00     0.000 C 
BRANCH  19  20
ATOM     20  C   UNL     1     -33.857 -22.265 -34.898  1.00  0.00     0.000 C 
BRANCH  20  21
ATOM     21  C   UNL     1     -34.068 -21.793 -36.354  1.00  0.00     0.000 C 
BRANCH  21  22
ATOM     22  C   UNL     1     -33.719 -20.310 -36.580  1.00  0.00    -0.000 C 
BRANCH  22  23
ATOM     23  C   UNL     1     -33.663 -19.875 -38.057  1.00  0.00    -0.000 C 
BRANCH  23  24
ATOM     24  C   UNL     1     -34.102 -20.954 -39.069  1.00  0.00    -0.000 C 
BRANCH  24  25
ATOM     25  C   UNL     1     -33.345 -22.291 -38.965  1.00  0.00    -0.000 C 
BRANCH  25  26
ATOM     26  C   UNL     1     -31.825 -22.129 -39.109  1.00  0.00    -0.000 C 
BRANCH  26  27
ATOM     27  C   UNL     1     -31.097 -23.439 -38.774  1.00  0.00    -0.000 C 
BRANCH  27  28
ATOM     28  C   UNL     1     -32.068 -24.598 -38.490  1.00  0.00    -0.000 C 
BRANCH  28  29
ATOM     29  C   UNL     1     -31.436 -25.702 -37.630  1.00  0.00    -0.003 C 
ATOM     30  C   UNL     1     -31.458 -27.045 -38.355  1.00  0.00     0.004 C 
ENDBRANCH  28  29
ENDBRANCH  27  28
ENDBRANCH  26  27
ENDBRANCH  25  26
ENDBRANCH  24  25
ENDBRANCH  23  24
ENDBRANCH  22  23
ENDBRANCH  21  22
ENDBRANCH  20  21
ENDBRANCH  19  20
ENDBRANCH  18  19
ENDBRANCH  17  18
ENDBRANCH   1  17
TORSDOF 26
ENDMDL
MODEL 5
REMARK VINA RESULT:     7.606      1.160      2.012
REMARK INTER + INTRA:          17.664
REMARK INTER:                  19.023
REMARK INTRA:                  -1.359
REMARK UNBOUND:                -1.503
REMARK SMILES CCCCCCCCCCCCCCCCCCCCCCCCCCCC(=O)[O-]
REMARK SMILES IDX 15 1 16 2 17 3 18 4 19 5 20 6 21 7 22 8 23 9 24 10 25 11
REMARK SMILES IDX 26 12 27 13 28 14 29 15 30 16 14 17 13 18 12 19 11 20 10 21
REMARK SMILES IDX 9 22 8 23 7 24 6 25 5 26 4 27 3 28 2 29 1 30
REMARK H PARENT
REMARK Flexibility Score: inf
ROOT
ATOM      1  C   UNL     1     -29.351 -19.881 -30.703  1.00  0.00     0.000 C 
ENDROOT
BRANCH   1   2
ATOM      2  C   UNL     1     -30.723 -20.555 -30.514  1.00  0.00     0.000 C 
BRANCH   2   3
ATOM      3  C   UNL     1     -30.708 -22.084 -30.709  1.00  0.00     0.000 C 
BRANCH   3   4
ATOM      4  C   UNL     1     -29.591 -22.768 -29.900  1.00  0.00     0.000 C 
BRANCH   4   5
ATOM      5  C   UNL     1     -29.938 -22.923 -28.409  1.00  0.00     0.000 C 
BRANCH   5   6
ATOM      6  C   UNL     1     -28.839 -22.478 -27.428  1.00  0.00     0.000 C 
BRANCH   6   7
ATOM      7  C   UNL     1     -27.453 -22.375 -28.087  1.00  0.00     0.000 C 
BRANCH   7   8
ATOM      8  C   UNL     1     -26.813 -20.981 -27.939  1.00  0.00     0.000 C 
BRANCH   8   9
ATOM      9  C   UNL     1     -25.985 -20.770 -26.656  1.00  0.00     0.000 C 
BRANCH   9  10
ATOM     10  C   UNL     1     -26.759 -20.175 -25.463  1.00  0.00     0.000 C 
BRANCH  10  11
ATOM     11  C   UNL     1     -26.583 -20.965 -24.148  1.00  0.00     0.000 C 
BRANCH  11  12
ATOM     12  C   UNL     1     -27.923 -21.282 -23.466  1.00  0.00     0.006 C 
BRANCH  12  13
ATOM     13  C   UNL     1     -27.859 -22.624 -22.721  1.00  0.00     0.053 C 
BRANCH  13  14
ATOM     14  C   UNL     1     -26.663 -22.706 -21.819  1.00  0.00     0.041 C 
ATOM     15  O   UNL     1     -26.138 -23.820 -21.543  1.00  0.00    -0.550 OA
ATOM     16  O   UNL     1     -26.103 -21.543 -21.309  1.00  0.00    -0.550 OA
ENDBRANCH  13  14
ENDBRANCH  12  13
ENDBRANCH  11  12
ENDBRANCH  10  11
ENDBRANCH   9  10
ENDBRANCH   8   9
ENDBRANCH   7   8
ENDBRANCH   6   7
ENDBRANCH   5   6
ENDBRANCH   4   5
ENDBRANCH   3   4
ENDBRANCH   2   3
ENDBRANCH   1   2
BRANCH   1  17
ATOM     17  C   UNL     1     -28.773 -20.110 -32.111  1.00  0.00     0.000 C 
BRANCH  17  18
ATOM     18  C   UNL     1     -29.860 -20.437 -33.150  1.00  0.00     0.000 C 
BRANCH  18  19
ATOM     19  C   UNL     1     -29.754 -21.869 -33.692  1.00  0.00     0.000 C 
BRANCH  19  20
ATOM     20  C   UNL     1     -30.927 -22.188 -34.632  1.00  0.00     0.000 C 
BRANCH  20  21
ATOM     21  C   UNL     1     -32.289 -21.749 -34.051  1.00  0.00     0.000 C 
BRANCH  21  22
ATOM     22  C   UNL     1     -33.053 -20.755 -34.947  1.00  0.00    -0.000 C 
BRANCH  22  23
ATOM     23  C   UNL     1     -33.998 -21.404 -35.976  1.00  0.00    -0.000 C 
BRANCH  23  24
ATOM     24  C   UNL     1     -33.905 -20.821 -37.402  1.00  0.00    -0.000 C 
BRANCH  24  25
ATOM     25  C   UNL     1     -33.470 -21.821 -38.487  1.00  0.00    -0.000 C 
BRANCH  25  26
ATOM     26  C   UNL     1     -32.359 -22.771 -38.014  1.00  0.00    -0.000 C 
BRANCH  26  27
ATOM     27  C   UNL     1     -32.939 -24.125 -37.582  1.00  0.00    -0.000 C 
BRANCH  27  28
ATOM     28  C   UNL     1     -31.927 -25.274 -37.726  1.00  0.00    -0.000 C 
BRANCH  28  29
ATOM     29  C   UNL     1     -32.494 -26.467 -38.510  1.00  0.00    -0.003 C 
ATOM     30  C   UNL     1     -31.557 -27.670 -38.435  1.00  0.00     0.004 C 
ENDBRANCH  28  29
ENDBRANCH  27  28
ENDBRANCH  26  27
ENDBRANCH  25  26
ENDBRANCH  24  25
ENDBRANCH  23  24
ENDBRANCH  22  23
ENDBRANCH  21  22
ENDBRANCH  20  21
ENDBRANCH  19  20
ENDBRANCH  18  19
ENDBRANCH  17  18
ENDBRANCH   1  17
TORSDOF 26
ENDMDL
MODEL 6
REMARK VINA RESULT:     7.797      3.576      4.521
REMARK INTER + INTRA:          18.145
REMARK INTER:                  18.825
REMARK INTRA:                  -0.680
REMARK UNBOUND:                -1.503
REMARK SMILES CCCCCCCCCCCCCCCCCCCCCCCCCCCC(=O)[O-]
REMARK SMILES IDX 15 1 16 2 17 3 18 4 19 5 20 6 21 7 22 8 23 9 24 10 25 11
REMARK SMILES IDX 26 12 27 13 28 14 29 15 30 16 14 17 13 18 12 19 11 20 10 21
REMARK SMILES IDX 9 22 8 23 7 24 6 25 5 26 4 27 3 28 2 29 1 30
REMARK H PARENT
REMARK Flexibility Score: inf
ROOT
ATOM      1  C   UNL     1     -29.128 -19.877 -30.719  1.00  0.00     0.000 C 
ENDROOT
BRANCH   1   2
ATOM      2  C   UNL     1     -30.556 -20.314 -30.341  1.00  0.00     0.000 C 
BRANCH   2   3
ATOM      3  C   UNL     1     -30.791 -21.835 -30.415  1.00  0.00     0.000 C 
BRANCH   3   4
ATOM      4  C   UNL     1     -29.540 -22.642 -30.022  1.00  0.00     0.000 C 
BRANCH   4   5
ATOM      5  C   UNL     1     -29.623 -23.224 -28.600  1.00  0.00     0.000 C 
BRANCH   5   6
ATOM      6  C   UNL     1     -28.790 -22.485 -27.537  1.00  0.00     0.000 C 
BRANCH   6   7
ATOM      7  C   UNL     1     -27.864 -21.414 -28.140  1.00  0.00     0.000 C 
BRANCH   7   8
ATOM      8  C   UNL     1     -26.569 -21.207 -27.329  1.00  0.00     0.000 C 
BRANCH   8   9
ATOM      9  C   UNL     1     -25.279 -21.106 -28.165  1.00  0.00     0.000 C 
BRANCH   9  10
ATOM     10  C   UNL     1     -23.973 -21.012 -27.352  1.00  0.00     0.000 C 
BRANCH  10  11
ATOM     11  C   UNL     1     -22.856 -20.207 -28.052  1.00  0.00     0.000 C 
BRANCH  11  12
ATOM     12  C   UNL     1     -21.624 -21.066 -28.378  1.00  0.00     0.006 C 
BRANCH  12  13
ATOM     13  C   UNL     1     -21.842 -21.879 -29.662  1.00  0.00     0.053 C 
BRANCH  13  14
ATOM     14  C   UNL     1     -20.729 -21.677 -30.647  1.00  0.00     0.041 C 
ATOM     15  O   UNL     1     -19.608 -22.230 -30.478  1.00  0.00    -0.550 OA
ATOM     16  O   UNL     1     -20.943 -20.902 -31.780  1.00  0.00    -0.550 OA
ENDBRANCH  13  14
ENDBRANCH  12  13
ENDBRANCH  11  12
ENDBRANCH  10  11
ENDBRANCH   9  10
ENDBRANCH   8   9
ENDBRANCH   7   8
ENDBRANCH   6   7
ENDBRANCH   5   6
ENDBRANCH   4   5
ENDBRANCH   3   4
ENDBRANCH   2   3
ENDBRANCH   1   2
BRANCH   1  17
ATOM     17  C   UNL     1     -28.846 -20.032 -32.224  1.00  0.00     0.000 C 
BRANCH  17  18
ATOM     18  C   UNL     1     -30.090 -20.464 -33.018  1.00  0.00     0.000 C 
BRANCH  18  19
ATOM     19  C   UNL     1     -29.900 -21.804 -33.742  1.00  0.00     0.000 C 
BRANCH  19  20
ATOM     20  C   UNL     1     -31.138 -22.156 -34.581  1.00  0.00     0.000 C 
BRANCH  20  21
ATOM     21  C   UNL     1     -32.400 -21.391 -34.125  1.00  0.00     0.000 C 
BRANCH  21  22
ATOM     22  C   UNL     1     -33.272 -20.883 -35.289  1.00  0.00    -0.000 C 
BRANCH  22  23
ATOM     23  C   UNL     1     -33.361 -21.836 -36.496  1.00  0.00    -0.000 C 
BRANCH  23  24
ATOM     24  C   UNL     1     -33.591 -21.144 -37.856  1.00  0.00    -0.000 C 
BRANCH  24  25
ATOM     25  C   UNL     1     -32.943 -21.847 -39.062  1.00  0.00    -0.000 C 
BRANCH  25  26
ATOM     26  C   UNL     1     -32.048 -23.028 -38.655  1.00  0.00    -0.000 C 
BRANCH  26  27
ATOM     27  C   UNL     1     -32.877 -24.155 -38.022  1.00  0.00    -0.000 C 
BRANCH  27  28
ATOM     28  C   UNL     1     -32.008 -25.327 -37.537  1.00  0.00    -0.000 C 
BRANCH  28  29
ATOM     29  C   UNL     1     -32.027 -26.518 -38.507  1.00  0.00    -0.003 C 
ATOM     30  C   UNL     1     -32.935 -27.632 -37.992  1.00  0.00     0.004 C 
ENDBRANCH  28  29
ENDBRANCH  27  28
ENDBRANCH  26  27
ENDBRANCH  25  26
ENDBRANCH  24  25
ENDBRANCH  23  24
ENDBRANCH  22  23
ENDBRANCH  21  22
ENDBRANCH  20  21
ENDBRANCH  19  20
ENDBRANCH  18  19
ENDBRANCH  17  18
ENDBRANCH   1  17
TORSDOF 26
ENDMDL
MODEL 7
REMARK VINA RESULT:     7.911      5.039     13.828
REMARK INTER + INTRA:          18.433
REMARK INTER:                  19.930
REMARK INTRA:                  -1.497
REMARK UNBOUND:                -1.503
REMARK SMILES CCCCCCCCCCCCCCCCCCCCCCCCCCCC(=O)[O-]
REMARK SMILES IDX 15 1 16 2 17 3 18 4 19 5 20 6 21 7 22 8 23 9 24 10 25 11
REMARK SMILES IDX 26 12 27 13 28 14 29 15 30 16 14 17 13 18 12 19 11 20 10 21
REMARK SMILES IDX 9 22 8 23 7 24 6 25 5 26 4 27 3 28 2 29 1 30
REMARK H PARENT
REMARK Flexibility Score: inf
ROOT
ATOM      1  C   UNL     1     -30.740 -20.991 -30.186  1.00  0.00     0.000 C 
ENDROOT
BRANCH   1   2
ATOM      2  C   UNL     1     -30.555 -20.599 -31.665  1.00  0.00     0.000 C 
BRANCH   2   3
ATOM      3  C   UNL     1     -30.761 -21.760 -32.656  1.00  0.00     0.000 C 
BRANCH   3   4
ATOM      4  C   UNL     1     -31.302 -21.284 -34.016  1.00  0.00     0.000 C 
BRANCH   4   5
ATOM      5  C   UNL     1     -32.328 -20.144 -33.888  1.00  0.00     0.000 C 
BRANCH   5   6
ATOM      6  C   UNL     1     -33.310 -20.008 -35.066  1.00  0.00     0.000 C 
BRANCH   6   7
ATOM      7  C   UNL     1     -33.830 -21.365 -35.573  1.00  0.00     0.000 C 
BRANCH   7   8
ATOM      8  C   UNL     1     -33.714 -21.525 -37.101  1.00  0.00     0.000 C 
BRANCH   8   9
ATOM      9  C   UNL     1     -32.630 -22.512 -37.579  1.00  0.00     0.000 C 
BRANCH   9  10
ATOM     10  C   UNL     1     -32.692 -23.916 -36.947  1.00  0.00     0.000 C 
BRANCH  10  11
ATOM     11  C   UNL     1     -31.448 -24.785 -37.230  1.00  0.00     0.000 C 
BRANCH  11  12
ATOM     12  C   UNL     1     -31.672 -25.781 -38.378  1.00  0.00     0.006 C 
BRANCH  12  13
ATOM     13  C   UNL     1     -32.805 -26.762 -38.044  1.00  0.00     0.053 C 
BRANCH  13  14
ATOM     14  C   UNL     1     -32.602 -28.096 -38.698  1.00  0.00     0.041 C 
ATOM     15  O   UNL     1     -31.457 -28.459 -39.084  1.00  0.00    -0.550 OA
ATOM     16  O   UNL     1     -33.679 -28.961 -38.850  1.00  0.00    -0.550 OA
ENDBRANCH  13  14
ENDBRANCH  12  13
ENDBRANCH  11  12
ENDBRANCH  10  11
ENDBRANCH   9  10
ENDBRANCH   8   9
ENDBRANCH   7   8
ENDBRANCH   6   7
ENDBRANCH   5   6
ENDBRANCH   4   5
ENDBRANCH   3   4
ENDBRANCH   2   3
ENDBRANCH   1   2
BRANCH   1  17
ATOM     17  C   UNL     1     -29.963 -22.266 -29.816  1.00  0.00     0.000 C 
BRANCH  17  18
ATOM     18  C   UNL     1     -29.514 -22.280 -28.345  1.00  0.00     0.000 C 
BRANCH  18  19
ATOM     19  C   UNL     1     -28.025 -21.949 -28.172  1.00  0.00     0.000 C 
BRANCH  19  20
ATOM     20  C   UNL     1     -27.812 -20.974 -27.004  1.00  0.00     0.000 C 
BRANCH  20  21
ATOM     21  C   UNL     1     -26.476 -21.216 -26.266  1.00  0.00     0.000 C 
BRANCH  21  22
ATOM     22  C   UNL     1     -26.451 -20.658 -24.831  1.00  0.00    -0.000 C 
BRANCH  22  23
ATOM     23  C   UNL     1     -27.456 -21.311 -23.863  1.00  0.00    -0.000 C 
BRANCH  23  24
ATOM     24  C   UNL     1     -26.961 -21.451 -22.409  1.00  0.00    -0.000 C 
BRANCH  24  25
ATOM     25  C   UNL     1     -25.924 -22.565 -22.178  1.00  0.00    -0.000 C 
BRANCH  25  26
ATOM     26  C   UNL     1     -26.565 -23.910 -21.807  1.00  0.00    -0.000 C 
BRANCH  26  27
ATOM     27  C   UNL     1     -25.799 -25.079 -22.443  1.00  0.00    -0.000 C 
BRANCH  27  28
ATOM     28  C   UNL     1     -24.282 -24.832 -22.498  1.00  0.00    -0.000 C 
BRANCH  28  29
ATOM     29  C   UNL     1     -23.543 -25.875 -23.349  1.00  0.00    -0.003 C 
ATOM     30  C   UNL     1     -22.182 -26.214 -22.746  1.00  0.00     0.004 C 
ENDBRANCH  28  29
ENDBRANCH  27  28
ENDBRANCH  26  27
ENDBRANCH  25  26
ENDBRANCH  24  25
ENDBRANCH  23  24
ENDBRANCH  22  23
ENDBRANCH  21  22
ENDBRANCH  20  21
ENDBRANCH  19  20
ENDBRANCH  18  19
ENDBRANCH  17  18
ENDBRANCH   1  17
TORSDOF 26
ENDMDL
