MODEL 1
REMARK VINA RESULT:    -3.841      0.000      0.000
REMARK INTER + INTRA:          -7.956
REMARK INTER:                  -6.536
REMARK INTRA:                  -1.420
REMARK UNBOUND:                -1.420
REMARK SMILES CCCCCCCCCCCCCC(=O)[O-]
REMARK SMILES IDX 8 1 9 2 10 3 11 4 12 5 13 6 14 7 15 8 16 9 7 10 6 11 5 12
REMARK SMILES IDX 4 13 3 14 2 15 1 16
REMARK H PARENT
REMARK Flexibility Score: inf
ROOT
ATOM      1  C   UNL     1       9.063   0.176  -6.637  1.00  0.00     0.000 C 
ENDROOT
BRANCH   1   2
ATOM      2  C   UNL     1       7.680   0.187  -7.301  1.00  0.00     0.000 C 
BRANCH   2   3
ATOM      3  C   UNL     1       7.315  -1.208  -7.831  1.00  0.00     0.000 C 
BRANCH   3   4
ATOM      4  C   UNL     1       5.907  -1.259  -8.444  1.00  0.00     0.000 C 
BRANCH   4   5
ATOM      5  C   UNL     1       5.224   0.120  -8.472  1.00  0.00     0.006 C 
BRANCH   5   6
ATOM      6  C   UNL     1       3.754   0.029  -8.903  1.00  0.00     0.053 C 
BRANCH   6   7
ATOM      7  C   UNL     1       3.160   1.385  -9.133  1.00  0.00     0.041 C 
ATOM      8  O   UNL     1       3.667   2.163  -9.983  1.00  0.00    -0.550 OA
ATOM      9  O   UNL     1       2.027   1.775  -8.432  1.00  0.00    -0.550 OA
ENDBRANCH   6   7
ENDBRANCH   5   6
ENDBRANCH   4   5
ENDBRANCH   3   4
ENDBRANCH   2   3
ENDBRANCH   1   2
BRANCH   1  10
ATOM     10  C   UNL     1       9.543   1.608  -6.347  1.00  0.00     0.000 C 
BRANCH  10  11
ATOM     11  C   UNL     1       9.725   2.443  -7.625  1.00  0.00    -0.000 C 
BRANCH  11  12
ATOM     12  C   UNL     1      11.032   2.112  -8.366  1.00  0.00    -0.000 C 
BRANCH  12  13
ATOM     13  C   UNL     1      10.841   2.033  -9.891  1.00  0.00    -0.000 C 
BRANCH  13  14
ATOM     14  C   UNL     1       9.590   1.232 -10.289  1.00  0.00    -0.000 C 
BRANCH  14  15
ATOM     15  C   UNL     1       8.623   2.048 -11.161  1.00  0.00    -0.003 C 
ATOM     16  C   UNL     1       7.213   2.120 -10.575  1.00  0.00     0.004 C 
ENDBRANCH  14  15
ENDBRANCH  13  14
ENDBRANCH  12  13
ENDBRANCH  11  12
ENDBRANCH  10  11
ENDBRANCH   1  10
TORSDOF 12
ENDMDL
MODEL 2
REMARK VINA RESULT:    -3.616      1.273      1.570
REMARK INTER + INTRA:          -7.573
REMARK INTER:                  -6.419
REMARK INTRA:                  -1.154
REMARK UNBOUND:                -1.420
REMARK SMILES CCCCCCCCCCCCCC(=O)[O-]
REMARK SMILES IDX 8 1 9 2 10 3 11 4 12 5 13 6 14 7 15 8 16 9 7 10 6 11 5 12
REMARK SMILES IDX 4 13 3 14 2 15 1 16
REMARK H PARENT
REMARK Flexibility Score: inf
ROOT
ATOM      1  C   UNL     1       8.579   0.067  -6.852  1.00  0.00     0.000 C 
ENDROOT
BRANCH   1   2
ATOM      2  C   UNL     1       7.370   0.689  -7.563  1.00  0.00     0.000 C 
BRANCH   2   3
ATOM      3  C   UNL     1       6.416  -0.399  -8.078  1.00  0.00     0.000 C 
BRANCH   3   4
ATOM      4  C   UNL     1       5.130   0.181  -8.687  1.00  0.00     0.000 C 
BRANCH   4   5
ATOM      5  C   UNL     1       4.155  -0.910  -9.162  1.00  0.00     0.006 C 
BRANCH   5   6
ATOM      6  C   UNL     1       3.261  -1.422  -8.025  1.00  0.00     0.053 C 
BRANCH   6   7
ATOM      7  C   UNL     1       1.930  -0.735  -8.016  1.00  0.00     0.041 C 
ATOM      8  O   UNL     1       1.696   0.205  -8.820  1.00  0.00    -0.550 OA
ATOM      9  O   UNL     1       0.936  -1.157  -7.143  1.00  0.00    -0.550 OA
ENDBRANCH   6   7
ENDBRANCH   5   6
ENDBRANCH   4   5
ENDBRANCH   3   4
ENDBRANCH   2   3
ENDBRANCH   1   2
BRANCH   1  10
ATOM     10  C   UNL     1       9.553   1.155  -6.372  1.00  0.00     0.000 C 
BRANCH  10  11
ATOM     11  C   UNL     1       9.834   2.217  -7.447  1.00  0.00    -0.000 C 
BRANCH  11  12
ATOM     12  C   UNL     1      10.883   1.755  -8.474  1.00  0.00    -0.000 C 
BRANCH  12  13
ATOM     13  C   UNL     1      10.526   2.172  -9.911  1.00  0.00    -0.000 C 
BRANCH  13  14
ATOM     14  C   UNL     1       9.464   1.256 -10.544  1.00  0.00    -0.000 C 
BRANCH  14  15
ATOM     15  C   UNL     1       8.528   2.015 -11.498  1.00  0.00    -0.003 C 
ATOM     16  C   UNL     1       7.159   2.303 -10.882  1.00  0.00     0.004 C 
ENDBRANCH  14  15
ENDBRANCH  13  14
ENDBRANCH  12  13
ENDBRANCH  11  12
ENDBRANCH  10  11
ENDBRANCH   1  10
TORSDOF 12
ENDMDL
MODEL 3
REMARK VINA RESULT:    -3.613      1.368      2.847
REMARK INTER + INTRA:          -7.567
REMARK INTER:                  -6.324
REMARK INTRA:                  -1.243
REMARK UNBOUND:                -1.420
REMARK SMILES CCCCCCCCCCCCCC(=O)[O-]
REMARK SMILES IDX 8 1 9 2 10 3 11 4 12 5 13 6 14 7 15 8 16 9 7 10 6 11 5 12
REMARK SMILES IDX 4 13 3 14 2 15 1 16
REMARK H PARENT
REMARK Flexibility Score: inf
ROOT
ATOM      1  C   UNL     1       6.179   0.445  -8.188  1.00  0.00     0.000 C 
ENDROOT
BRANCH   1   2
ATOM      2  C   UNL     1       4.827   0.193  -8.866  1.00  0.00     0.000 C 
BRANCH   2   3
ATOM      3  C   UNL     1       4.433  -1.289  -8.769  1.00  0.00     0.000 C 
BRANCH   3   4
ATOM      4  C   UNL     1       2.923  -1.513  -8.950  1.00  0.00     0.000 C 
BRANCH   4   5
ATOM      5  C   UNL     1       2.086  -0.801  -7.872  1.00  0.00     0.006 C 
BRANCH   5   6
ATOM      6  C   UNL     1       1.002   0.097  -8.482  1.00  0.00     0.053 C 
BRANCH   6   7
ATOM      7  C   UNL     1       1.390   1.544  -8.434  1.00  0.00     0.041 C 
ATOM      8  O   UNL     1       1.120   2.240  -7.420  1.00  0.00    -0.550 OA
ATOM      9  O   UNL     1       2.081   2.113  -9.495  1.00  0.00    -0.550 OA
ENDBRANCH   6   7
ENDBRANCH   5   6
ENDBRANCH   4   5
ENDBRANCH   3   4
ENDBRANCH   2   3
ENDBRANCH   1   2
BRANCH   1  10
ATOM     10  C   UNL     1       6.914  -0.878  -7.918  1.00  0.00     0.000 C 
BRANCH  10  11
ATOM     11  C   UNL     1       8.210  -0.684  -7.114  1.00  0.00    -0.000 C 
BRANCH  11  12
ATOM     12  C   UNL     1       8.499   0.796  -6.807  1.00  0.00    -0.000 C 
BRANCH  12  13
ATOM     13  C   UNL     1       9.784   1.299  -7.487  1.00  0.00    -0.000 C 
BRANCH  13  14
ATOM     14  C   UNL     1       9.495   2.182  -8.714  1.00  0.00    -0.000 C 
BRANCH  14  15
ATOM     15  C   UNL     1       9.367   1.364 -10.009  1.00  0.00    -0.003 C 
ATOM     16  C   UNL     1       8.344   1.948 -10.982  1.00  0.00     0.004 C 
ENDBRANCH  14  15
ENDBRANCH  13  14
ENDBRANCH  12  13
ENDBRANCH  11  12
ENDBRANCH  10  11
ENDBRANCH   1  10
TORSDOF 12
ENDMDL
MODEL 4
REMARK VINA RESULT:    -3.588      1.734      2.169
REMARK INTER + INTRA:          -7.525
REMARK INTER:                  -5.649
REMARK INTRA:                  -1.877
REMARK UNBOUND:                -1.420
REMARK SMILES CCCCCCCCCCCCCC(=O)[O-]
REMARK SMILES IDX 8 1 9 2 10 3 11 4 12 5 13 6 14 7 15 8 16 9 7 10 6 11 5 12
REMARK SMILES IDX 4 13 3 14 2 15 1 16
REMARK H PARENT
REMARK Flexibility Score: inf
ROOT
ATOM      1  C   UNL     1       9.821   1.681  -6.505  1.00  0.00     0.000 C 
ENDROOT
BRANCH   1   2
ATOM      2  C   UNL     1       8.463   1.086  -6.897  1.00  0.00     0.000 C 
BRANCH   2   3
ATOM      3  C   UNL     1       8.538  -0.447  -6.978  1.00  0.00     0.000 C 
BRANCH   3   4
ATOM      4  C   UNL     1       7.325  -1.062  -7.693  1.00  0.00     0.000 C 
BRANCH   4   5
ATOM      5  C   UNL     1       6.254  -0.016  -8.048  1.00  0.00     0.006 C 
BRANCH   5   6
ATOM      6  C   UNL     1       5.323  -0.498  -9.168  1.00  0.00     0.053 C 
BRANCH   6   7
ATOM      7  C   UNL     1       4.450  -1.628  -8.714  1.00  0.00     0.041 C 
ATOM      8  O   UNL     1       4.622  -2.787  -9.175  1.00  0.00    -0.550 OA
ATOM      9  O   UNL     1       3.469  -1.407  -7.757  1.00  0.00    -0.550 OA
ENDBRANCH   6   7
ENDBRANCH   5   6
ENDBRANCH   4   5
ENDBRANCH   3   4
ENDBRANCH   2   3
ENDBRANCH   1   2
BRANCH   1  10
ATOM     10  C   UNL     1      10.235   2.793  -7.482  1.00  0.00     0.000 C 
BRANCH  10  11
ATOM     11  C   UNL     1      11.415   2.386  -8.380  1.00  0.00    -0.000 C 
BRANCH  11  12
ATOM     12  C   UNL     1      10.997   2.179  -9.846  1.00  0.00    -0.000 C 
BRANCH  12  13
ATOM     13  C   UNL     1      10.453   0.764 -10.111  1.00  0.00    -0.000 C 
BRANCH  13  14
ATOM     14  C   UNL     1       8.978   0.771 -10.548  1.00  0.00    -0.000 C 
BRANCH  14  15
ATOM     15  C   UNL     1       8.447   2.192 -10.799  1.00  0.00    -0.003 C 
ATOM     16  C   UNL     1       6.929   2.236 -10.974  1.00  0.00     0.004 C 
ENDBRANCH  14  15
ENDBRANCH  13  14
ENDBRANCH  12  13
ENDBRANCH  11  12
ENDBRANCH  10  11
ENDBRANCH   1  10
TORSDOF 12
ENDMDL
MODEL 5
REMARK VINA RESULT:    -3.567      0.991      3.190
REMARK INTER + INTRA:          -7.489
REMARK INTER:                  -5.853
REMARK INTRA:                  -1.637
REMARK UNBOUND:                -1.420
REMARK SMILES CCCCCCCCCCCCCC(=O)[O-]
REMARK SMILES IDX 8 1 9 2 10 3 11 4 12 5 13 6 14 7 15 8 16 9 7 10 6 11 5 12
REMARK SMILES IDX 4 13 3 14 2 15 1 16
REMARK H PARENT
REMARK Flexibility Score: inf
ROOT
ATOM      1  C   UNL     1      10.439   1.351 -10.027  1.00  0.00     0.000 C 
ENDROOT
BRANCH   1   2
ATOM      2  C   UNL     1       9.139   2.059 -10.427  1.00  0.00     0.000 C 
BRANCH   2   3
ATOM      3  C   UNL     1       8.012   1.044 -10.670  1.00  0.00     0.000 C 
BRANCH   3   4
ATOM      4  C   UNL     1       6.618   1.629 -10.393  1.00  0.00     0.000 C 
BRANCH   4   5
ATOM      5  C   UNL     1       5.539   0.542 -10.244  1.00  0.00     0.006 C 
BRANCH   5   6
ATOM      6  C   UNL     1       4.777   0.661  -8.917  1.00  0.00     0.053 C 
BRANCH   6   7
ATOM      7  C   UNL     1       3.359   1.095  -9.131  1.00  0.00     0.041 C 
ATOM      8  O   UNL     1       3.109   2.166  -9.743  1.00  0.00    -0.550 OA
ATOM      9  O   UNL     1       2.314   0.297  -8.684  1.00  0.00    -0.550 OA
ENDBRANCH   6   7
ENDBRANCH   5   6
ENDBRANCH   4   5
ENDBRANCH   3   4
ENDBRANCH   2   3
ENDBRANCH   1   2
BRANCH   1  10
ATOM     10  C   UNL     1      11.038   1.978  -8.758  1.00  0.00     0.000 C 
BRANCH  10  11
ATOM     11  C   UNL     1       9.977   2.642  -7.865  1.00  0.00    -0.000 C 
BRANCH  11  12
ATOM     12  C   UNL     1       9.956   2.060  -6.441  1.00  0.00    -0.000 C 
BRANCH  12  13
ATOM     13  C   UNL     1       9.428   0.615  -6.401  1.00  0.00    -0.000 C 
BRANCH  13  14
ATOM     14  C   UNL     1       8.046   0.474  -7.061  1.00  0.00    -0.000 C 
BRANCH  14  15
ATOM     15  C   UNL     1       7.767  -0.960  -7.539  1.00  0.00    -0.003 C 
ATOM     16  C   UNL     1       8.641  -2.000  -6.837  1.00  0.00     0.004 C 
ENDBRANCH  14  15
ENDBRANCH  13  14
ENDBRANCH  12  13
ENDBRANCH  11  12
ENDBRANCH  10  11
ENDBRANCH   1  10
TORSDOF 12
ENDMDL
MODEL 6
REMARK VINA RESULT:    -3.496     10.294     12.451
REMARK INTER + INTRA:          -7.368
REMARK INTER:                  -5.922
REMARK INTRA:                  -1.446
REMARK UNBOUND:                -1.420
REMARK SMILES CCCCCCCCCCCCCC(=O)[O-]
REMARK SMILES IDX 8 1 9 2 10 3 11 4 12 5 13 6 14 7 15 8 16 9 7 10 6 11 5 12
REMARK SMILES IDX 4 13 3 14 2 15 1 16
REMARK H PARENT
REMARK Flexibility Score: inf
ROOT
ATOM      1  C   UNL     1       9.347  -2.866   0.578  1.00  0.00     0.000 C 
ENDROOT
BRANCH   1   2
ATOM      2  C   UNL     1       9.845  -3.502  -0.725  1.00  0.00     0.000 C 
BRANCH   2   3
ATOM      3  C   UNL     1       8.739  -4.338  -1.387  1.00  0.00     0.000 C 
BRANCH   3   4
ATOM      4  C   UNL     1       9.081  -5.836  -1.440  1.00  0.00     0.000 C 
BRANCH   4   5
ATOM      5  C   UNL     1       8.140  -6.689  -0.572  1.00  0.00     0.006 C 
BRANCH   5   6
ATOM      6  C   UNL     1       8.431  -6.529   0.926  1.00  0.00     0.053 C 
BRANCH   6   7
ATOM      7  C   UNL     1       7.207  -6.117   1.686  1.00  0.00     0.041 C 
ATOM      8  O   UNL     1       7.248  -6.001   2.939  1.00  0.00    -0.550 OA
ATOM      9  O   UNL     1       6.030  -5.829   1.006  1.00  0.00    -0.550 OA
ENDBRANCH   6   7
ENDBRANCH   5   6
ENDBRANCH   4   5
ENDBRANCH   3   4
ENDBRANCH   2   3
ENDBRANCH   1   2
BRANCH   1  10
ATOM     10  C   UNL     1       7.815  -2.744   0.578  1.00  0.00     0.000 C 
BRANCH  10  11
ATOM     11  C   UNL     1       7.244  -2.428   1.970  1.00  0.00    -0.000 C 
BRANCH  11  12
ATOM     12  C   UNL     1       8.310  -2.511   3.078  1.00  0.00    -0.000 C 
BRANCH  12  13
ATOM     13  C   UNL     1       7.703  -2.804   4.460  1.00  0.00    -0.000 C 
BRANCH  13  14
ATOM     14  C   UNL     1       6.514  -1.885   4.790  1.00  0.00    -0.000 C 
BRANCH  14  15
ATOM     15  C   UNL     1       6.959  -0.538   5.381  1.00  0.00    -0.003 C 
ATOM     16  C   UNL     1       6.874   0.609   4.374  1.00  0.00     0.004 C 
ENDBRANCH  14  15
ENDBRANCH  13  14
ENDBRANCH  12  13
ENDBRANCH  11  12
ENDBRANCH  10  11
ENDBRANCH   1  10
TORSDOF 12
ENDMDL
MODEL 7
REMARK VINA RESULT:    -3.496      3.556      4.961
REMARK INTER + INTRA:          -7.368
REMARK INTER:                  -5.749
REMARK INTRA:                  -1.619
REMARK UNBOUND:                -1.420
REMARK SMILES CCCCCCCCCCCCCC(=O)[O-]
REMARK SMILES IDX 8 1 9 2 10 3 11 4 12 5 13 6 14 7 15 8 16 9 7 10 6 11 5 12
REMARK SMILES IDX 4 13 3 14 2 15 1 16
REMARK H PARENT
REMARK Flexibility Score: inf
ROOT
ATOM      1  C   UNL     1       7.916   1.764  -9.651  1.00  0.00     0.000 C 
ENDROOT
BRANCH   1   2
ATOM      2  C   UNL     1       6.759   0.782  -9.430  1.00  0.00     0.000 C 
BRANCH   2   3
ATOM      3  C   UNL     1       6.739   0.274  -7.981  1.00  0.00     0.000 C 
BRANCH   3   4
ATOM      4  C   UNL     1       8.006   0.660  -7.200  1.00  0.00     0.000 C 
BRANCH   4   5
ATOM      5  C   UNL     1       8.890  -0.554  -6.869  1.00  0.00     0.006 C 
BRANCH   5   6
ATOM      6  C   UNL     1       8.183  -1.883  -7.163  1.00  0.00     0.053 C 
BRANCH   6   7
ATOM      7  C   UNL     1       8.793  -3.016  -6.395  1.00  0.00     0.041 C 
ATOM      8  O   UNL     1       9.314  -2.810  -5.268  1.00  0.00    -0.550 OA
ATOM      9  O   UNL     1       8.756  -4.305  -6.911  1.00  0.00    -0.550 OA
ENDBRANCH   6   7
ENDBRANCH   5   6
ENDBRANCH   4   5
ENDBRANCH   3   4
ENDBRANCH   2   3
ENDBRANCH   1   2
BRANCH   1  10
ATOM     10  C   UNL     1       8.166   1.990 -11.151  1.00  0.00     0.000 C 
BRANCH  10  11
ATOM     11  C   UNL     1       9.621   1.711 -11.559  1.00  0.00    -0.000 C 
BRANCH  11  12
ATOM     12  C   UNL     1      10.388   0.903 -10.497  1.00  0.00    -0.000 C 
BRANCH  12  13
ATOM     13  C   UNL     1      11.795   1.465 -10.230  1.00  0.00    -0.000 C 
BRANCH  13  14
ATOM     14  C   UNL     1      11.776   2.669  -9.272  1.00  0.00    -0.000 C 
BRANCH  14  15
ATOM     15  C   UNL     1      11.343   2.282  -7.850  1.00  0.00    -0.003 C 
ATOM     16  C   UNL     1      10.413   3.312  -7.211  1.00  0.00     0.004 C 
ENDBRANCH  14  15
ENDBRANCH  13  14
ENDBRANCH  12  13
ENDBRANCH  11  12
ENDBRANCH  10  11
ENDBRANCH   1  10
TORSDOF 12
ENDMDL
MODEL 8
REMARK VINA RESULT:    -3.484      2.649      3.584
REMARK INTER + INTRA:          -7.348
REMARK INTER:                  -5.352
REMARK INTRA:                  -1.996
REMARK UNBOUND:                -1.420
REMARK SMILES CCCCCCCCCCCCCC(=O)[O-]
REMARK SMILES IDX 8 1 9 2 10 3 11 4 12 5 13 6 14 7 15 8 16 9 7 10 6 11 5 12
REMARK SMILES IDX 4 13 3 14 2 15 1 16
REMARK H PARENT
REMARK Flexibility Score: inf
ROOT
ATOM      1  C   UNL     1       9.392   1.962  -7.268  1.00  0.00     0.000 C 
ENDROOT
BRANCH   1   2
ATOM      2  C   UNL     1       9.531   0.671  -6.453  1.00  0.00     0.000 C 
BRANCH   2   3
ATOM      3  C   UNL     1       8.478  -0.363  -6.877  1.00  0.00     0.000 C 
BRANCH   3   4
ATOM      4  C   UNL     1       7.277   0.275  -7.595  1.00  0.00     0.000 C 
BRANCH   4   5
ATOM      5  C   UNL     1       6.266  -0.768  -8.100  1.00  0.00     0.006 C 
BRANCH   5   6
ATOM      6  C   UNL     1       6.725  -2.204  -7.814  1.00  0.00     0.053 C 
BRANCH   6   7
ATOM      7  C   UNL     1       5.561  -3.131  -7.636  1.00  0.00     0.041 C 
ATOM      8  O   UNL     1       4.399  -2.757  -7.944  1.00  0.00    -0.550 OA
ATOM      9  O   UNL     1       5.766  -4.420  -7.162  1.00  0.00    -0.550 OA
ENDBRANCH   6   7
ENDBRANCH   5   6
ENDBRANCH   4   5
ENDBRANCH   3   4
ENDBRANCH   2   3
ENDBRANCH   1   2
BRANCH   1  10
ATOM     10  C   UNL     1      10.770   2.498  -7.688  1.00  0.00     0.000 C 
BRANCH  10  11
ATOM     11  C   UNL     1      11.100   2.201  -9.160  1.00  0.00    -0.000 C 
BRANCH  11  12
ATOM     12  C   UNL     1       9.840   1.949 -10.007  1.00  0.00    -0.000 C 
BRANCH  12  13
ATOM     13  C   UNL     1      10.001   0.754 -10.962  1.00  0.00    -0.000 C 
BRANCH  13  14
ATOM     14  C   UNL     1       8.893  -0.298 -10.783  1.00  0.00    -0.000 C 
BRANCH  14  15
ATOM     15  C   UNL     1       9.443  -1.661 -10.335  1.00  0.00    -0.003 C 
ATOM     16  C   UNL     1      10.762  -1.547  -9.571  1.00  0.00     0.004 C 
ENDBRANCH  14  15
ENDBRANCH  13  14
ENDBRANCH  12  13
ENDBRANCH  11  12
ENDBRANCH  10  11
ENDBRANCH   1  10
TORSDOF 12
ENDMDL
MODEL 9
REMARK VINA RESULT:    -3.473      3.391      4.022
REMARK INTER + INTRA:          -7.329
REMARK INTER:                  -6.034
REMARK INTRA:                  -1.295
REMARK UNBOUND:                -1.420
REMARK SMILES CCCCCCCCCCCCCC(=O)[O-]
REMARK SMILES IDX 8 1 9 2 10 3 11 4 12 5 13 6 14 7 15 8 16 9 7 10 6 11 5 12
REMARK SMILES IDX 4 13 3 14 2 15 1 16
REMARK H PARENT
REMARK Flexibility Score: inf
ROOT
ATOM      1  C   UNL     1       9.907   1.559  -6.737  1.00  0.00     0.000 C 
ENDROOT
BRANCH   1   2
ATOM      2  C   UNL     1       8.844   0.456  -6.681  1.00  0.00     0.000 C 
BRANCH   2   3
ATOM      3  C   UNL     1       7.738   0.706  -7.717  1.00  0.00     0.000 C 
BRANCH   3   4
ATOM      4  C   UNL     1       6.825  -0.515  -7.915  1.00  0.00     0.000 C 
BRANCH   4   5
ATOM      5  C   UNL     1       7.489  -1.829  -7.471  1.00  0.00     0.006 C 
BRANCH   5   6
ATOM      6  C   UNL     1       6.521  -3.018  -7.535  1.00  0.00     0.053 C 
BRANCH   6   7
ATOM      7  C   UNL     1       7.012  -4.175  -6.720  1.00  0.00     0.041 C 
ATOM      8  O   UNL     1       6.508  -5.319  -6.875  1.00  0.00    -0.550 OA
ATOM      9  O   UNL     1       8.050  -3.998  -5.815  1.00  0.00    -0.550 OA
ENDBRANCH   6   7
ENDBRANCH   5   6
ENDBRANCH   4   5
ENDBRANCH   3   4
ENDBRANCH   2   3
ENDBRANCH   1   2
BRANCH   1  10
ATOM     10  C   UNL     1       9.704   2.456  -7.968  1.00  0.00     0.000 C 
BRANCH  10  11
ATOM     11  C   UNL     1      10.857   2.348  -8.979  1.00  0.00    -0.000 C 
BRANCH  11  12
ATOM     12  C   UNL     1      10.569   1.327 -10.095  1.00  0.00    -0.000 C 
BRANCH  12  13
ATOM     13  C   UNL     1      10.506   1.978 -11.488  1.00  0.00    -0.000 C 
BRANCH  13  14
ATOM     14  C   UNL     1       9.124   2.577 -11.797  1.00  0.00    -0.000 C 
BRANCH  14  15
ATOM     15  C   UNL     1       7.974   1.654 -11.365  1.00  0.00    -0.003 C 
ATOM     16  C   UNL     1       6.717   2.422 -10.958  1.00  0.00     0.004 C 
ENDBRANCH  14  15
ENDBRANCH  13  14
ENDBRANCH  12  13
ENDBRANCH  11  12
ENDBRANCH  10  11
ENDBRANCH   1  10
TORSDOF 12
ENDMDL
