MODEL 1
REMARK VINA RESULT:    -4.690      0.000      0.000
REMARK INTER + INTRA:          -9.257
REMARK INTER:                  -7.981
REMARK INTRA:                  -1.277
REMARK UNBOUND:                -1.277
REMARK SMILES CCCCCCCCCCCCCC(=O)[O-]
REMARK SMILES IDX 8 1 9 2 10 3 11 4 12 5 13 6 14 7 15 8 16 9 7 10 6 11 5 12
REMARK SMILES IDX 4 13 3 14 2 15 1 16
REMARK H PARENT
REMARK Flexibility Score: inf
ROOT
ATOM      1  C   UNL     1       2.653  46.875  25.188  1.00  0.00     0.000 C 
ENDROOT
BRANCH   1   2
ATOM      2  C   UNL     1       3.559  47.796  26.028  1.00  0.00     0.000 C 
BRANCH   2   3
ATOM      3  C   UNL     1       5.035  47.347  26.071  1.00  0.00     0.000 C 
BRANCH   3   4
ATOM      4  C   UNL     1       5.755  47.565  24.729  1.00  0.00     0.000 C 
BRANCH   4   5
ATOM      5  C   UNL     1       6.368  48.971  24.610  1.00  0.00     0.006 C 
BRANCH   5   6
ATOM      6  C   UNL     1       7.869  48.933  24.294  1.00  0.00     0.053 C 
BRANCH   6   7
ATOM      7  C   UNL     1       8.659  49.441  25.458  1.00  0.00     0.041 C 
ATOM      8  O   UNL     1       8.240  50.418  26.131  1.00  0.00    -0.550 OA
ATOM      9  O   UNL     1       9.886  48.866  25.769  1.00  0.00    -0.550 OA
ENDBRANCH   6   7
ENDBRANCH   5   6
ENDBRANCH   4   5
ENDBRANCH   3   4
ENDBRANCH   2   3
ENDBRANCH   1   2
BRANCH   1  10
ATOM     10  C   UNL     1       1.270  47.459  24.840  1.00  0.00     0.000 C 
BRANCH  10  11
ATOM     11  C   UNL     1       0.634  46.909  23.550  1.00  0.00    -0.000 C 
BRANCH  11  12
ATOM     12  C   UNL     1       0.915  47.791  22.321  1.00  0.00    -0.000 C 
BRANCH  12  13
ATOM     13  C   UNL     1       1.690  49.070  22.678  1.00  0.00    -0.000 C 
BRANCH  13  14
ATOM     14  C   UNL     1       3.183  48.981  22.315  1.00  0.00    -0.000 C 
BRANCH  14  15
ATOM     15  C   UNL     1       3.560  47.619  21.711  1.00  0.00    -0.003 C 
ATOM     16  C   UNL     1       4.975  47.603  21.132  1.00  0.00     0.004 C 
ENDBRANCH  14  15
ENDBRANCH  13  14
ENDBRANCH  12  13
ENDBRANCH  11  12
ENDBRANCH  10  11
ENDBRANCH   1  10
TORSDOF 12
ENDMDL
MODEL 2
REMARK VINA RESULT:    -4.439      8.878     10.508
REMARK INTER + INTRA:          -8.830
REMARK INTER:                  -7.445
REMARK INTRA:                  -1.385
REMARK UNBOUND:                -1.277
REMARK SMILES CCCCCCCCCCCCCC(=O)[O-]
REMARK SMILES IDX 8 1 9 2 10 3 11 4 12 5 13 6 14 7 15 8 16 9 7 10 6 11 5 12
REMARK SMILES IDX 4 13 3 14 2 15 1 16
REMARK H PARENT
REMARK Flexibility Score: inf
ROOT
ATOM      1  C   UNL     1       2.947  58.705  23.272  1.00  0.00     0.000 C 
ENDROOT
BRANCH   1   2
ATOM      2  C   UNL     1       3.217  57.781  22.069  1.00  0.00     0.000 C 
BRANCH   2   3
ATOM      3  C   UNL     1       1.958  57.060  21.542  1.00  0.00     0.000 C 
BRANCH   3   4
ATOM      4  C   UNL     1       2.099  55.528  21.580  1.00  0.00     0.000 C 
BRANCH   4   5
ATOM      5  C   UNL     1       2.126  54.972  23.014  1.00  0.00     0.006 C 
BRANCH   5   6
ATOM      6  C   UNL     1       3.233  53.931  23.221  1.00  0.00     0.053 C 
BRANCH   6   7
ATOM      7  C   UNL     1       3.875  54.111  24.560  1.00  0.00     0.041 C 
ATOM      8  O   UNL     1       5.050  53.706  24.758  1.00  0.00    -0.550 OA
ATOM      9  O   UNL     1       3.157  54.682  25.604  1.00  0.00    -0.550 OA
ENDBRANCH   6   7
ENDBRANCH   5   6
ENDBRANCH   4   5
ENDBRANCH   3   4
ENDBRANCH   2   3
ENDBRANCH   1   2
BRANCH   1  10
ATOM     10  C   UNL     1       3.070  58.032  24.653  1.00  0.00     0.000 C 
BRANCH  10  11
ATOM     11  C   UNL     1       1.732  57.685  25.332  1.00  0.00    -0.000 C 
BRANCH  11  12
ATOM     12  C   UNL     1       0.517  58.278  24.598  1.00  0.00    -0.000 C 
BRANCH  12  13
ATOM     13  C   UNL     1      -0.262  59.282  25.465  1.00  0.00    -0.000 C 
BRANCH  13  14
ATOM     14  C   UNL     1       0.182  60.737  25.233  1.00  0.00    -0.000 C 
BRANCH  14  15
ATOM     15  C   UNL     1       0.259  61.097  23.741  1.00  0.00    -0.003 C 
ATOM     16  C   UNL     1      -1.119  61.195  23.087  1.00  0.00     0.004 C 
ENDBRANCH  14  15
ENDBRANCH  13  14
ENDBRANCH  12  13
ENDBRANCH  11  12
ENDBRANCH  10  11
ENDBRANCH   1  10
TORSDOF 12
ENDMDL
MODEL 3
REMARK VINA RESULT:    -4.436      9.362     11.107
REMARK INTER + INTRA:          -8.825
REMARK INTER:                  -7.424
REMARK INTRA:                  -1.400
REMARK UNBOUND:                -1.277
REMARK SMILES CCCCCCCCCCCCCC(=O)[O-]
REMARK SMILES IDX 8 1 9 2 10 3 11 4 12 5 13 6 14 7 15 8 16 9 7 10 6 11 5 12
REMARK SMILES IDX 4 13 3 14 2 15 1 16
REMARK H PARENT
REMARK Flexibility Score: inf
ROOT
ATOM      1  C   UNL     1       2.858  57.746  22.110  1.00  0.00     0.000 C 
ENDROOT
BRANCH   1   2
ATOM      2  C   UNL     1       1.372  57.393  21.902  1.00  0.00     0.000 C 
BRANCH   2   3
ATOM      3  C   UNL     1       0.630  57.031  23.206  1.00  0.00     0.000 C 
BRANCH   3   4
ATOM      4  C   UNL     1      -0.228  58.193  23.736  1.00  0.00     0.000 C 
BRANCH   4   5
ATOM      5  C   UNL     1       0.267  58.724  25.091  1.00  0.00     0.006 C 
BRANCH   5   6
ATOM      6  C   UNL     1       0.012  60.227  25.264  1.00  0.00     0.053 C 
BRANCH   6   7
ATOM      7  C   UNL     1       0.251  60.948  23.975  1.00  0.00     0.041 C 
ATOM      8  O   UNL     1       1.425  61.166  23.580  1.00  0.00    -0.550 OA
ATOM      9  O   UNL     1      -0.825  61.423  23.235  1.00  0.00    -0.550 OA
ENDBRANCH   6   7
ENDBRANCH   5   6
ENDBRANCH   4   5
ENDBRANCH   3   4
ENDBRANCH   2   3
ENDBRANCH   1   2
BRANCH   1  10
ATOM     10  C   UNL     1       3.233  58.176  23.541  1.00  0.00     0.000 C 
BRANCH  10  11
ATOM     11  C   UNL     1       3.944  57.100  24.381  1.00  0.00    -0.000 C 
BRANCH  11  12
ATOM     12  C   UNL     1       3.006  56.407  25.385  1.00  0.00    -0.000 C 
BRANCH  12  13
ATOM     13  C   UNL     1       2.984  54.879  25.213  1.00  0.00    -0.000 C 
BRANCH  13  14
ATOM     14  C   UNL     1       3.448  54.431  23.816  1.00  0.00    -0.000 C 
BRANCH  14  15
ATOM     15  C   UNL     1       2.293  53.890  22.959  1.00  0.00    -0.003 C 
ATOM     16  C   UNL     1       2.609  53.911  21.464  1.00  0.00     0.004 C 
ENDBRANCH  14  15
ENDBRANCH  13  14
ENDBRANCH  12  13
ENDBRANCH  11  12
ENDBRANCH  10  11
ENDBRANCH   1  10
TORSDOF 12
ENDMDL
MODEL 4
REMARK VINA RESULT:    -4.433     10.213     11.726
REMARK INTER + INTRA:          -8.819
REMARK INTER:                  -7.805
REMARK INTRA:                  -1.013
REMARK UNBOUND:                -1.277
REMARK SMILES CCCCCCCCCCCCCC(=O)[O-]
REMARK SMILES IDX 8 1 9 2 10 3 11 4 12 5 13 6 14 7 15 8 16 9 7 10 6 11 5 12
REMARK SMILES IDX 4 13 3 14 2 15 1 16
REMARK H PARENT
REMARK Flexibility Score: inf
ROOT
ATOM      1  C   UNL     1       2.285  57.295  21.656  1.00  0.00     0.000 C 
ENDROOT
BRANCH   1   2
ATOM      2  C   UNL     1       3.334  58.190  22.344  1.00  0.00     0.000 C 
BRANCH   2   3
ATOM      3  C   UNL     1       3.775  59.400  21.494  1.00  0.00     0.000 C 
BRANCH   3   4
ATOM      4  C   UNL     1       3.136  60.717  21.969  1.00  0.00     0.000 C 
BRANCH   4   5
ATOM      5  C   UNL     1       2.519  60.601  23.372  1.00  0.00     0.006 C 
BRANCH   5   6
ATOM      6  C   UNL     1       1.578  61.768  23.699  1.00  0.00     0.053 C 
BRANCH   6   7
ATOM      7  C   UNL     1       0.241  61.254  24.132  1.00  0.00     0.041 C 
ATOM      8  O   UNL     1      -0.700  61.159  23.302  1.00  0.00    -0.550 OA
ATOM      9  O   UNL     1       0.020  60.928  25.465  1.00  0.00    -0.550 OA
ENDBRANCH   6   7
ENDBRANCH   5   6
ENDBRANCH   4   5
ENDBRANCH   3   4
ENDBRANCH   2   3
ENDBRANCH   1   2
BRANCH   1  10
ATOM     10  C   UNL     1       1.192  56.736  22.586  1.00  0.00     0.000 C 
BRANCH  10  11
ATOM     11  C   UNL     1       0.547  57.768  23.530  1.00  0.00    -0.000 C 
BRANCH  11  12
ATOM     12  C   UNL     1       0.990  57.598  24.994  1.00  0.00    -0.000 C 
BRANCH  12  13
ATOM     13  C   UNL     1       2.466  57.187  25.119  1.00  0.00    -0.000 C 
BRANCH  13  14
ATOM     14  C   UNL     1       2.722  56.243  26.308  1.00  0.00    -0.000 C 
BRANCH  14  15
ATOM     15  C   UNL     1       3.137  54.834  25.860  1.00  0.00    -0.003 C 
ATOM     16  C   UNL     1       3.508  54.772  24.378  1.00  0.00     0.004 C 
ENDBRANCH  14  15
ENDBRANCH  13  14
ENDBRANCH  12  13
ENDBRANCH  11  12
ENDBRANCH  10  11
ENDBRANCH   1  10
TORSDOF 12
ENDMDL
MODEL 5
REMARK VINA RESULT:    -4.386     12.670     14.225
REMARK INTER + INTRA:          -8.740
REMARK INTER:                  -8.078
REMARK INTRA:                  -0.661
REMARK UNBOUND:                -1.277
REMARK SMILES CCCCCCCCCCCCCC(=O)[O-]
REMARK SMILES IDX 8 1 9 2 10 3 11 4 12 5 13 6 14 7 15 8 16 9 7 10 6 11 5 12
REMARK SMILES IDX 4 13 3 14 2 15 1 16
REMARK H PARENT
REMARK Flexibility Score: inf
ROOT
ATOM      1  C   UNL     1       0.552  60.363  24.016  1.00  0.00     0.000 C 
ENDROOT
BRANCH   1   2
ATOM      2  C   UNL     1       0.134  59.383  25.130  1.00  0.00     0.000 C 
BRANCH   2   3
ATOM      3  C   UNL     1       0.607  57.933  24.892  1.00  0.00     0.000 C 
BRANCH   3   4
ATOM      4  C   UNL     1       0.363  57.464  23.447  1.00  0.00     0.000 C 
BRANCH   4   5
ATOM      5  C   UNL     1       1.474  56.533  22.933  1.00  0.00     0.006 C 
BRANCH   5   6
ATOM      6  C   UNL     1       2.295  57.165  21.801  1.00  0.00     0.053 C 
BRANCH   6   7
ATOM      7  C   UNL     1       3.255  58.171  22.353  1.00  0.00     0.041 C 
ATOM      8  O   UNL     1       3.803  57.978  23.469  1.00  0.00    -0.550 OA
ATOM      9  O   UNL     1       3.506  59.347  21.656  1.00  0.00    -0.550 OA
ENDBRANCH   6   7
ENDBRANCH   5   6
ENDBRANCH   4   5
ENDBRANCH   3   4
ENDBRANCH   2   3
ENDBRANCH   1   2
BRANCH   1  10
ATOM     10  C   UNL     1      -0.591  61.217  23.436  1.00  0.00     0.000 C 
BRANCH  10  11
ATOM     11  C   UNL     1      -0.508  62.722  23.750  1.00  0.00    -0.000 C 
BRANCH  11  12
ATOM     12  C   UNL     1      -1.487  63.564  22.914  1.00  0.00    -0.000 C 
BRANCH  12  13
ATOM     13  C   UNL     1      -1.428  65.060  23.266  1.00  0.00    -0.000 C 
BRANCH  13  14
ATOM     14  C   UNL     1      -2.523  65.880  22.561  1.00  0.00    -0.000 C 
BRANCH  14  15
ATOM     15  C   UNL     1      -3.930  65.316  22.810  1.00  0.00    -0.003 C 
ATOM     16  C   UNL     1      -4.952  65.808  21.785  1.00  0.00     0.004 C 
ENDBRANCH  14  15
ENDBRANCH  13  14
ENDBRANCH  12  13
ENDBRANCH  11  12
ENDBRANCH  10  11
ENDBRANCH   1  10
TORSDOF 12
ENDMDL
MODEL 6
REMARK VINA RESULT:    -4.366      9.756     11.370
REMARK INTER + INTRA:          -8.706
REMARK INTER:                  -7.411
REMARK INTRA:                  -1.295
REMARK UNBOUND:                -1.277
REMARK SMILES CCCCCCCCCCCCCC(=O)[O-]
REMARK SMILES IDX 8 1 9 2 10 3 11 4 12 5 13 6 14 7 15 8 16 9 7 10 6 11 5 12
REMARK SMILES IDX 4 13 3 14 2 15 1 16
REMARK H PARENT
REMARK Flexibility Score: inf
ROOT
ATOM      1  C   UNL     1       3.115  58.141  22.530  1.00  0.00     0.000 C 
ENDROOT
BRANCH   1   2
ATOM      2  C   UNL     1       3.806  59.256  21.721  1.00  0.00     0.000 C 
BRANCH   2   3
ATOM      3  C   UNL     1       3.118  60.632  21.844  1.00  0.00     0.000 C 
BRANCH   3   4
ATOM      4  C   UNL     1       2.733  60.970  23.295  1.00  0.00     0.000 C 
BRANCH   4   5
ATOM      5  C   UNL     1       1.226  61.227  23.462  1.00  0.00     0.006 C 
BRANCH   5   6
ATOM      6  C   UNL     1       0.435  59.938  23.722  1.00  0.00     0.053 C 
BRANCH   6   7
ATOM      7  C   UNL     1      -0.002  59.874  25.151  1.00  0.00     0.041 C 
ATOM      8  O   UNL     1      -0.086  60.927  25.836  1.00  0.00    -0.550 OA
ATOM      9  O   UNL     1      -0.269  58.645  25.742  1.00  0.00    -0.550 OA
ENDBRANCH   6   7
ENDBRANCH   5   6
ENDBRANCH   4   5
ENDBRANCH   3   4
ENDBRANCH   2   3
ENDBRANCH   1   2
BRANCH   1  10
ATOM     10  C   UNL     1       3.847  57.722  23.820  1.00  0.00     0.000 C 
BRANCH  10  11
ATOM     11  C   UNL     1       2.934  57.453  25.031  1.00  0.00    -0.000 C 
BRANCH  11  12
ATOM     12  C   UNL     1       2.415  56.006  25.080  1.00  0.00    -0.000 C 
BRANCH  12  13
ATOM     13  C   UNL     1       3.542  54.970  24.932  1.00  0.00    -0.000 C 
BRANCH  13  14
ATOM     14  C   UNL     1       3.300  53.991  23.769  1.00  0.00    -0.000 C 
BRANCH  14  15
ATOM     15  C   UNL     1       2.229  54.495  22.790  1.00  0.00    -0.003 C 
ATOM     16  C   UNL     1       2.521  54.100  21.343  1.00  0.00     0.004 C 
ENDBRANCH  14  15
ENDBRANCH  13  14
ENDBRANCH  12  13
ENDBRANCH  11  12
ENDBRANCH  10  11
ENDBRANCH   1  10
TORSDOF 12
ENDMDL
MODEL 7
REMARK VINA RESULT:    -4.233      9.878     11.260
REMARK INTER + INTRA:          -8.479
REMARK INTER:                  -7.097
REMARK INTRA:                  -1.382
REMARK UNBOUND:                -1.277
REMARK SMILES CCCCCCCCCCCCCC(=O)[O-]
REMARK SMILES IDX 8 1 9 2 10 3 11 4 12 5 13 6 14 7 15 8 16 9 7 10 6 11 5 12
REMARK SMILES IDX 4 13 3 14 2 15 1 16
REMARK H PARENT
REMARK Flexibility Score: inf
ROOT
ATOM      1  C   UNL     1       0.554  57.843  24.718  1.00  0.00     0.000 C 
ENDROOT
BRANCH   1   2
ATOM      2  C   UNL     1       2.006  57.469  25.076  1.00  0.00     0.000 C 
BRANCH   2   3
ATOM      3  C   UNL     1       3.013  57.719  23.934  1.00  0.00     0.000 C 
BRANCH   3   4
ATOM      4  C   UNL     1       2.322  57.917  22.574  1.00  0.00     0.000 C 
BRANCH   4   5
ATOM      5  C   UNL     1       2.318  56.637  21.721  1.00  0.00     0.006 C 
BRANCH   5   6
ATOM      6  C   UNL     1       1.595  55.473  22.412  1.00  0.00     0.053 C 
BRANCH   6   7
ATOM      7  C   UNL     1       2.477  54.265  22.458  1.00  0.00     0.041 C 
ATOM      8  O   UNL     1       3.139  54.003  23.495  1.00  0.00    -0.550 OA
ATOM      9  O   UNL     1       2.606  53.456  21.335  1.00  0.00    -0.550 OA
ENDBRANCH   6   7
ENDBRANCH   5   6
ENDBRANCH   4   5
ENDBRANCH   3   4
ENDBRANCH   2   3
ENDBRANCH   1   2
BRANCH   1  10
ATOM     10  C   UNL     1      -0.152  58.763  25.732  1.00  0.00     0.000 C 
BRANCH  10  11
ATOM     11  C   UNL     1      -0.219  60.248  25.331  1.00  0.00    -0.000 C 
BRANCH  11  12
ATOM     12  C   UNL     1      -0.115  60.463  23.811  1.00  0.00    -0.000 C 
BRANCH  12  13
ATOM     13  C   UNL     1       0.854  61.599  23.441  1.00  0.00    -0.000 C 
BRANCH  13  14
ATOM     14  C   UNL     1       2.292  61.334  23.924  1.00  0.00    -0.000 C 
BRANCH  14  15
ATOM     15  C   UNL     1       3.345  61.996  23.022  1.00  0.00    -0.003 C 
ATOM     16  C   UNL     1       3.532  61.259  21.696  1.00  0.00     0.004 C 
ENDBRANCH  14  15
ENDBRANCH  13  14
ENDBRANCH  12  13
ENDBRANCH  11  12
ENDBRANCH  10  11
ENDBRANCH   1  10
TORSDOF 12
ENDMDL
MODEL 8
REMARK VINA RESULT:    -4.222     13.515     15.171
REMARK INTER + INTRA:          -8.460
REMARK INTER:                  -7.673
REMARK INTRA:                  -0.787
REMARK UNBOUND:                -1.277
REMARK SMILES CCCCCCCCCCCCCC(=O)[O-]
REMARK SMILES IDX 8 1 9 2 10 3 11 4 12 5 13 6 14 7 15 8 16 9 7 10 6 11 5 12
REMARK SMILES IDX 4 13 3 14 2 15 1 16
REMARK H PARENT
REMARK Flexibility Score: inf
ROOT
ATOM      1  C   UNL     1      -1.364  61.424  22.937  1.00  0.00     0.000 C 
ENDROOT
BRANCH   1   2
ATOM      2  C   UNL     1      -0.091  61.140  23.758  1.00  0.00     0.000 C 
BRANCH   2   3
ATOM      3  C   UNL     1      -0.359  60.403  25.087  1.00  0.00     0.000 C 
BRANCH   3   4
ATOM      4  C   UNL     1       0.378  59.055  25.171  1.00  0.00     0.000 C 
BRANCH   4   5
ATOM      5  C   UNL     1       1.055  58.669  23.845  1.00  0.00     0.006 C 
BRANCH   5   6
ATOM      6  C   UNL     1       0.513  57.355  23.268  1.00  0.00     0.053 C 
BRANCH   6   7
ATOM      7  C   UNL     1       1.608  56.589  22.596  1.00  0.00     0.041 C 
ATOM      8  O   UNL     1       1.926  56.850  21.407  1.00  0.00    -0.550 OA
ATOM      9  O   UNL     1       2.244  55.551  23.268  1.00  0.00    -0.550 OA
ENDBRANCH   6   7
ENDBRANCH   5   6
ENDBRANCH   4   5
ENDBRANCH   3   4
ENDBRANCH   2   3
ENDBRANCH   1   2
BRANCH   1  10
ATOM     10  C   UNL     1      -1.812  62.898  22.916  1.00  0.00     0.000 C 
BRANCH  10  11
ATOM     11  C   UNL     1      -0.740  63.914  23.350  1.00  0.00    -0.000 C 
BRANCH  11  12
ATOM     12  C   UNL     1      -1.288  65.345  23.479  1.00  0.00    -0.000 C 
BRANCH  12  13
ATOM     13  C   UNL     1      -1.229  66.121  22.153  1.00  0.00    -0.000 C 
BRANCH  13  14
ATOM     14  C   UNL     1      -2.618  66.571  21.665  1.00  0.00    -0.000 C 
BRANCH  14  15
ATOM     15  C   UNL     1      -3.755  66.014  22.535  1.00  0.00    -0.003 C 
ATOM     16  C   UNL     1      -5.017  65.705  21.729  1.00  0.00     0.004 C 
ENDBRANCH  14  15
ENDBRANCH  13  14
ENDBRANCH  12  13
ENDBRANCH  11  12
ENDBRANCH  10  11
ENDBRANCH   1  10
TORSDOF 12
ENDMDL
MODEL 9
REMARK VINA RESULT:    -4.215     14.064     15.842
REMARK INTER + INTRA:          -8.448
REMARK INTER:                  -7.716
REMARK INTRA:                  -0.732
REMARK UNBOUND:                -1.277
REMARK SMILES CCCCCCCCCCCCCC(=O)[O-]
REMARK SMILES IDX 8 1 9 2 10 3 11 4 12 5 13 6 14 7 15 8 16 9 7 10 6 11 5 12
REMARK SMILES IDX 4 13 3 14 2 15 1 16
REMARK H PARENT
REMARK Flexibility Score: inf
ROOT
ATOM      1  C   UNL     1      -0.413  61.115  23.395  1.00  0.00     0.000 C 
ENDROOT
BRANCH   1   2
ATOM      2  C   UNL     1      -0.566  62.533  23.979  1.00  0.00     0.000 C 
BRANCH   2   3
ATOM      3  C   UNL     1      -1.334  63.506  23.059  1.00  0.00     0.000 C 
BRANCH   3   4
ATOM      4  C   UNL     1      -0.982  64.978  23.335  1.00  0.00     0.000 C 
BRANCH   4   5
ATOM      5  C   UNL     1      -1.885  65.956  22.566  1.00  0.00     0.006 C 
BRANCH   5   6
ATOM      6  C   UNL     1      -3.255  66.139  23.233  1.00  0.00     0.053 C 
BRANCH   6   7
ATOM      7  C   UNL     1      -4.317  65.444  22.442  1.00  0.00     0.041 C 
ATOM      8  O   UNL     1      -4.847  66.015  21.454  1.00  0.00    -0.550 OA
ATOM      9  O   UNL     1      -4.758  64.183  22.828  1.00  0.00    -0.550 OA
ENDBRANCH   6   7
ENDBRANCH   5   6
ENDBRANCH   4   5
ENDBRANCH   3   4
ENDBRANCH   2   3
ENDBRANCH   1   2
BRANCH   1  10
ATOM     10  C   UNL     1       0.736  60.282  23.994  1.00  0.00     0.000 C 
BRANCH  10  11
ATOM     11  C   UNL     1       0.298  59.154  24.946  1.00  0.00    -0.000 C 
BRANCH  11  12
ATOM     12  C   UNL     1       0.972  57.808  24.629  1.00  0.00    -0.000 C 
BRANCH  12  13
ATOM     13  C   UNL     1       0.521  57.228  23.278  1.00  0.00    -0.000 C 
BRANCH  13  14
ATOM     14  C   UNL     1       1.672  57.126  22.261  1.00  0.00    -0.000 C 
BRANCH  14  15
ATOM     15  C   UNL     1       2.989  57.699  22.806  1.00  0.00    -0.003 C 
ATOM     16  C   UNL     1       3.564  58.804  21.919  1.00  0.00     0.004 C 
ENDBRANCH  14  15
ENDBRANCH  13  14
ENDBRANCH  12  13
ENDBRANCH  11  12
ENDBRANCH  10  11
ENDBRANCH   1  10
TORSDOF 12
ENDMDL
