MODEL 1
REMARK VINA RESULT:    -4.820      0.000      0.000
REMARK INTER + INTRA:          -9.959
REMARK INTER:                  -8.765
REMARK INTRA:                  -1.194
REMARK UNBOUND:                -1.194
REMARK SMILES CCCCCCCCCCCCCCCC(=O)[O-]
REMARK SMILES IDX 9 1 10 2 11 3 12 4 13 5 14 6 15 7 16 8 17 9 18 10 8 11 7 12
REMARK SMILES IDX 6 13 5 14 4 15 3 16 2 17 1 18
REMARK H PARENT
REMARK Flexibility Score: inf
ROOT
ATOM      1  C   UNL     1       4.013  -8.876  -3.357  1.00  0.00     0.000 C 
ENDROOT
BRANCH   1   2
ATOM      2  C   UNL     1       3.071 -10.059  -3.642  1.00  0.00     0.000 C 
BRANCH   2   3
ATOM      3  C   UNL     1       1.864 -10.093  -2.692  1.00  0.00     0.000 C 
BRANCH   3   4
ATOM      4  C   UNL     1       1.511  -8.705  -2.132  1.00  0.00     0.000 C 
BRANCH   4   5
ATOM      5  C   UNL     1       0.914  -8.767  -0.715  1.00  0.00     0.000 C 
BRANCH   5   6
ATOM      6  C   UNL     1       0.251 -10.111  -0.346  1.00  0.00     0.006 C 
BRANCH   6   7
ATOM      7  C   UNL     1      -1.280 -10.124  -0.477  1.00  0.00     0.053 C 
BRANCH   7   8
ATOM      8  C   UNL     1      -1.931  -9.169   0.475  1.00  0.00     0.041 C 
ATOM      9  O   UNL     1      -2.117  -9.499   1.676  1.00  0.00    -0.550 OA
ATOM     10  O   UNL     1      -2.305  -7.902   0.043  1.00  0.00    -0.550 OA
ENDBRANCH   7   8
ENDBRANCH   6   7
ENDBRANCH   5   6
ENDBRANCH   4   5
ENDBRANCH   3   4
ENDBRANCH   2   3
ENDBRANCH   1   2
BRANCH   1  11
ATOM     11  C   UNL     1       4.955  -8.574  -4.534  1.00  0.00     0.000 C 
BRANCH  11  12
ATOM     12  C   UNL     1       4.886  -9.648  -5.635  1.00  0.00    -0.000 C 
BRANCH  12  13
ATOM     13  C   UNL     1       4.809  -9.041  -7.045  1.00  0.00    -0.000 C 
BRANCH  13  14
ATOM     14  C   UNL     1       3.373  -8.662  -7.450  1.00  0.00    -0.000 C 
BRANCH  14  15
ATOM     15  C   UNL     1       3.126  -7.145  -7.407  1.00  0.00    -0.000 C 
BRANCH  15  16
ATOM     16  C   UNL     1       2.386  -6.705  -6.131  1.00  0.00    -0.000 C 
BRANCH  16  17
ATOM     17  C   UNL     1       1.666  -5.358  -6.304  1.00  0.00    -0.003 C 
ATOM     18  C   UNL     1       1.031  -4.854  -5.008  1.00  0.00     0.004 C 
ENDBRANCH  16  17
ENDBRANCH  15  16
ENDBRANCH  14  15
ENDBRANCH  13  14
ENDBRANCH  12  13
ENDBRANCH  11  12
ENDBRANCH   1  11
TORSDOF 14
ENDMDL
MODEL 2
REMARK VINA RESULT:    -4.523      2.352      6.445
REMARK INTER + INTRA:          -9.418
REMARK INTER:                  -8.959
REMARK INTRA:                  -0.460
REMARK UNBOUND:                -1.194
REMARK SMILES CCCCCCCCCCCCCCCC(=O)[O-]
REMARK SMILES IDX 9 1 10 2 11 3 12 4 13 5 14 6 15 7 16 8 17 9 18 10 8 11 7 12
REMARK SMILES IDX 6 13 5 14 4 15 3 16 2 17 1 18
REMARK H PARENT
REMARK Flexibility Score: inf
ROOT
ATOM      1  C   UNL     1       3.834  -8.897  -4.017  1.00  0.00     0.000 C 
ENDROOT
BRANCH   1   2
ATOM      2  C   UNL     1       4.773  -8.754  -5.228  1.00  0.00     0.000 C 
BRANCH   2   3
ATOM      3  C   UNL     1       4.049  -8.984  -6.564  1.00  0.00     0.000 C 
BRANCH   3   4
ATOM      4  C   UNL     1       3.330  -7.723  -7.074  1.00  0.00     0.000 C 
BRANCH   4   5
ATOM      5  C   UNL     1       2.463  -7.052  -5.994  1.00  0.00     0.000 C 
BRANCH   5   6
ATOM      6  C   UNL     1       1.856  -5.692  -6.399  1.00  0.00     0.006 C 
BRANCH   6   7
ATOM      7  C   UNL     1       1.791  -4.659  -5.263  1.00  0.00     0.053 C 
BRANCH   7   8
ATOM      8  C   UNL     1       0.383  -4.399  -4.824  1.00  0.00     0.041 C 
ATOM      9  O   UNL     1       0.085  -4.425  -3.601  1.00  0.00    -0.550 OA
ATOM     10  O   UNL     1      -0.594  -4.096  -5.765  1.00  0.00    -0.550 OA
ENDBRANCH   7   8
ENDBRANCH   6   7
ENDBRANCH   5   6
ENDBRANCH   4   5
ENDBRANCH   3   4
ENDBRANCH   2   3
ENDBRANCH   1   2
BRANCH   1  11
ATOM     11  C   UNL     1       2.821 -10.040  -4.189  1.00  0.00     0.000 C 
BRANCH  11  12
ATOM     12  C   UNL     1       1.782 -10.084  -3.053  1.00  0.00    -0.000 C 
BRANCH  12  13
ATOM     13  C   UNL     1       2.087  -9.071  -1.938  1.00  0.00    -0.000 C 
BRANCH  13  14
ATOM     14  C   UNL     1       1.658  -9.573  -0.547  1.00  0.00    -0.000 C 
BRANCH  14  15
ATOM     15  C   UNL     1       0.223 -10.123  -0.533  1.00  0.00    -0.000 C 
BRANCH  15  16
ATOM     16  C   UNL     1      -0.444  -9.994   0.848  1.00  0.00    -0.000 C 
BRANCH  16  17
ATOM     17  C   UNL     1      -1.950  -9.702   0.750  1.00  0.00    -0.003 C 
ATOM     18  C   UNL     1      -2.257  -8.418  -0.020  1.00  0.00     0.004 C 
ENDBRANCH  16  17
ENDBRANCH  15  16
ENDBRANCH  14  15
ENDBRANCH  13  14
ENDBRANCH  12  13
ENDBRANCH  11  12
ENDBRANCH   1  11
TORSDOF 14
ENDMDL
MODEL 3
REMARK VINA RESULT:    -4.432      7.047     10.176
REMARK INTER + INTRA:          -9.253
REMARK INTER:                  -8.638
REMARK INTRA:                  -0.614
REMARK UNBOUND:                -1.194
REMARK SMILES CCCCCCCCCCCCCCCC(=O)[O-]
REMARK SMILES IDX 9 1 10 2 11 3 12 4 13 5 14 6 15 7 16 8 17 9 18 10 8 11 7 12
REMARK SMILES IDX 6 13 5 14 4 15 3 16 2 17 1 18
REMARK H PARENT
REMARK Flexibility Score: inf
ROOT
ATOM      1  C   UNL     1       0.300  -1.658   0.256  1.00  0.00     0.000 C 
ENDROOT
BRANCH   1   2
ATOM      2  C   UNL     1       0.854  -0.707   1.332  1.00  0.00     0.000 C 
BRANCH   2   3
ATOM      3  C   UNL     1       0.339   0.731   1.167  1.00  0.00     0.000 C 
BRANCH   3   4
ATOM      4  C   UNL     1      -0.391   0.951  -0.169  1.00  0.00     0.000 C 
BRANCH   4   5
ATOM      5  C   UNL     1      -1.423   2.091  -0.106  1.00  0.00     0.000 C 
BRANCH   5   6
ATOM      6  C   UNL     1      -1.469   2.997  -1.354  1.00  0.00     0.006 C 
BRANCH   6   7
ATOM      7  C   UNL     1      -0.785   2.405  -2.597  1.00  0.00     0.053 C 
BRANCH   7   8
ATOM      8  C   UNL     1       0.416   3.201  -3.007  1.00  0.00     0.041 C 
ATOM      9  O   UNL     1       0.778   4.197  -2.328  1.00  0.00    -0.550 OA
ATOM     10  O   UNL     1       1.153   2.822  -4.122  1.00  0.00    -0.550 OA
ENDBRANCH   7   8
ENDBRANCH   6   7
ENDBRANCH   5   6
ENDBRANCH   4   5
ENDBRANCH   3   4
ENDBRANCH   2   3
ENDBRANCH   1   2
BRANCH   1  11
ATOM     11  C   UNL     1       1.113  -2.958   0.143  1.00  0.00     0.000 C 
BRANCH  11  12
ATOM     12  C   UNL     1       0.629  -3.858  -1.009  1.00  0.00    -0.000 C 
BRANCH  12  13
ATOM     13  C   UNL     1       0.330  -5.294  -0.548  1.00  0.00    -0.000 C 
BRANCH  13  14
ATOM     14  C   UNL     1       0.001  -6.236  -1.719  1.00  0.00    -0.000 C 
BRANCH  14  15
ATOM     15  C   UNL     1      -0.143  -7.701  -1.278  1.00  0.00    -0.000 C 
BRANCH  15  16
ATOM     16  C   UNL     1       1.037  -8.574  -1.740  1.00  0.00    -0.000 C 
BRANCH  16  17
ATOM     17  C   UNL     1       1.165  -9.870  -0.923  1.00  0.00    -0.003 C 
ATOM     18  C   UNL     1       0.275  -9.880   0.319  1.00  0.00     0.004 C 
ENDBRANCH  16  17
ENDBRANCH  15  16
ENDBRANCH  14  15
ENDBRANCH  13  14
ENDBRANCH  12  13
ENDBRANCH  11  12
ENDBRANCH   1  11
TORSDOF 14
ENDMDL
MODEL 4
REMARK VINA RESULT:    -4.424      6.925     10.084
REMARK INTER + INTRA:          -9.238
REMARK INTER:                  -8.517
REMARK INTRA:                  -0.721
REMARK UNBOUND:                -1.194
REMARK SMILES CCCCCCCCCCCCCCCC(=O)[O-]
REMARK SMILES IDX 9 1 10 2 11 3 12 4 13 5 14 6 15 7 16 8 17 9 18 10 8 11 7 12
REMARK SMILES IDX 6 13 5 14 4 15 3 16 2 17 1 18
REMARK H PARENT
REMARK Flexibility Score: inf
ROOT
ATOM      1  C   UNL     1       0.132  -1.898   0.005  1.00  0.00     0.000 C 
ENDROOT
BRANCH   1   2
ATOM      2  C   UNL     1       0.849  -1.137   1.134  1.00  0.00     0.000 C 
BRANCH   2   3
ATOM      3  C   UNL     1       0.479   0.354   1.166  1.00  0.00     0.000 C 
BRANCH   3   4
ATOM      4  C   UNL     1      -0.284   0.803  -0.093  1.00  0.00     0.000 C 
BRANCH   4   5
ATOM      5  C   UNL     1      -1.071   2.108   0.119  1.00  0.00     0.000 C 
BRANCH   5   6
ATOM      6  C   UNL     1      -1.344   2.920  -1.165  1.00  0.00     0.006 C 
BRANCH   6   7
ATOM      7  C   UNL     1      -0.722   2.325  -2.438  1.00  0.00     0.053 C 
BRANCH   7   8
ATOM      8  C   UNL     1       0.456   3.119  -2.910  1.00  0.00     0.041 C 
ATOM      9  O   UNL     1       0.776   4.186  -2.324  1.00  0.00    -0.550 OA
ATOM     10  O   UNL     1       1.220   2.663  -3.977  1.00  0.00    -0.550 OA
ENDBRANCH   7   8
ENDBRANCH   6   7
ENDBRANCH   5   6
ENDBRANCH   4   5
ENDBRANCH   3   4
ENDBRANCH   2   3
ENDBRANCH   1   2
BRANCH   1  11
ATOM     11  C   UNL     1       0.807  -3.240  -0.322  1.00  0.00     0.000 C 
BRANCH  11  12
ATOM     12  C   UNL     1       0.832  -3.536  -1.833  1.00  0.00    -0.000 C 
BRANCH  12  13
ATOM     13  C   UNL     1       0.301  -4.939  -2.167  1.00  0.00    -0.000 C 
BRANCH  13  14
ATOM     14  C   UNL     1       0.190  -5.842  -0.926  1.00  0.00    -0.000 C 
BRANCH  14  15
ATOM     15  C   UNL     1       0.071  -7.332  -1.287  1.00  0.00    -0.000 C 
BRANCH  15  16
ATOM     16  C   UNL     1      -1.348  -7.881  -1.060  1.00  0.00    -0.000 C 
BRANCH  16  17
ATOM     17  C   UNL     1      -1.344  -9.340  -0.574  1.00  0.00    -0.003 C 
ATOM     18  C   UNL     1       0.001  -9.767   0.011  1.00  0.00     0.004 C 
ENDBRANCH  16  17
ENDBRANCH  15  16
ENDBRANCH  14  15
ENDBRANCH  13  14
ENDBRANCH  12  13
ENDBRANCH  11  12
ENDBRANCH   1  11
TORSDOF 14
ENDMDL
MODEL 5
REMARK VINA RESULT:    -4.326      6.492      9.588
REMARK INTER + INTRA:          -9.060
REMARK INTER:                  -8.384
REMARK INTRA:                  -0.676
REMARK UNBOUND:                -1.194
REMARK SMILES CCCCCCCCCCCCCCCC(=O)[O-]
REMARK SMILES IDX 9 1 10 2 11 3 12 4 13 5 14 6 15 7 16 8 17 9 18 10 8 11 7 12
REMARK SMILES IDX 6 13 5 14 4 15 3 16 2 17 1 18
REMARK H PARENT
REMARK Flexibility Score: inf
ROOT
ATOM      1  C   UNL     1       0.862  -3.350  -0.412  1.00  0.00     0.000 C 
ENDROOT
BRANCH   1   2
ATOM      2  C   UNL     1       0.243  -2.003   0.003  1.00  0.00     0.000 C 
BRANCH   2   3
ATOM      3  C   UNL     1       0.945  -1.384   1.222  1.00  0.00     0.000 C 
BRANCH   3   4
ATOM      4  C   UNL     1       0.625   0.110   1.395  1.00  0.00     0.000 C 
BRANCH   4   5
ATOM      5  C   UNL     1       0.106   0.764   0.102  1.00  0.00     0.000 C 
BRANCH   5   6
ATOM      6  C   UNL     1      -1.035   1.784   0.302  1.00  0.00     0.006 C 
BRANCH   6   7
ATOM      7  C   UNL     1      -1.795   2.150  -0.983  1.00  0.00     0.053 C 
BRANCH   7   8
ATOM      8  C   UNL     1      -0.905   2.814  -1.989  1.00  0.00     0.041 C 
ATOM      9  O   UNL     1      -1.053   2.580  -3.217  1.00  0.00    -0.550 OA
ATOM     10  O   UNL     1       0.066   3.714  -1.570  1.00  0.00    -0.550 OA
ENDBRANCH   7   8
ENDBRANCH   6   7
ENDBRANCH   5   6
ENDBRANCH   4   5
ENDBRANCH   3   4
ENDBRANCH   2   3
ENDBRANCH   1   2
BRANCH   1  11
ATOM     11  C   UNL     1       0.735  -3.618  -1.921  1.00  0.00     0.000 C 
BRANCH  11  12
ATOM     12  C   UNL     1       0.284  -5.057  -2.229  1.00  0.00    -0.000 C 
BRANCH  12  13
ATOM     13  C   UNL     1       0.033  -5.881  -0.957  1.00  0.00    -0.000 C 
BRANCH  13  14
ATOM     14  C   UNL     1      -0.019  -7.394  -1.231  1.00  0.00    -0.000 C 
BRANCH  14  15
ATOM     15  C   UNL     1      -1.455  -7.940  -1.277  1.00  0.00    -0.000 C 
BRANCH  15  16
ATOM     16  C   UNL     1      -1.524  -9.446  -0.970  1.00  0.00    -0.000 C 
BRANCH  16  17
ATOM     17  C   UNL     1      -1.229  -9.760   0.505  1.00  0.00    -0.003 C 
ATOM     18  C   UNL     1      -2.484  -9.750   1.377  1.00  0.00     0.004 C 
ENDBRANCH  16  17
ENDBRANCH  15  16
ENDBRANCH  14  15
ENDBRANCH  13  14
ENDBRANCH  12  13
ENDBRANCH  11  12
ENDBRANCH   1  11
TORSDOF 14
ENDMDL
MODEL 6
REMARK VINA RESULT:    -4.326      5.969      8.451
REMARK INTER + INTRA:          -9.060
REMARK INTER:                  -8.458
REMARK INTRA:                  -0.602
REMARK UNBOUND:                -1.194
REMARK SMILES CCCCCCCCCCCCCCCC(=O)[O-]
REMARK SMILES IDX 9 1 10 2 11 3 12 4 13 5 14 6 15 7 16 8 17 9 18 10 8 11 7 12
REMARK SMILES IDX 6 13 5 14 4 15 3 16 2 17 1 18
REMARK H PARENT
REMARK Flexibility Score: inf
ROOT
ATOM      1  C   UNL     1       0.286  -1.699   0.258  1.00  0.00     0.000 C 
ENDROOT
BRANCH   1   2
ATOM      2  C   UNL     1       1.139  -2.971   0.105  1.00  0.00     0.000 C 
BRANCH   2   3
ATOM      3  C   UNL     1       0.625  -3.893  -1.012  1.00  0.00     0.000 C 
BRANCH   3   4
ATOM      4  C   UNL     1       0.365  -5.328  -0.523  1.00  0.00     0.000 C 
BRANCH   4   5
ATOM      5  C   UNL     1      -0.040  -6.282  -1.661  1.00  0.00     0.000 C 
BRANCH   5   6
ATOM      6  C   UNL     1      -0.187  -7.762  -1.248  1.00  0.00     0.006 C 
BRANCH   6   7
ATOM      7  C   UNL     1      -1.560  -8.127  -0.664  1.00  0.00     0.053 C 
BRANCH   7   8
ATOM      8  C   UNL     1      -1.479  -9.298   0.268  1.00  0.00     0.041 C 
ATOM      9  O   UNL     1      -2.486  -9.646   0.938  1.00  0.00    -0.550 OA
ATOM     10  O   UNL     1      -0.298 -10.023   0.370  1.00  0.00    -0.550 OA
ENDBRANCH   7   8
ENDBRANCH   6   7
ENDBRANCH   5   6
ENDBRANCH   4   5
ENDBRANCH   3   4
ENDBRANCH   2   3
ENDBRANCH   1   2
BRANCH   1  11
ATOM     11  C   UNL     1       0.835  -0.747   1.334  1.00  0.00     0.000 C 
BRANCH  11  12
ATOM     12  C   UNL     1       0.421   0.716   1.093  1.00  0.00    -0.000 C 
BRANCH  12  13
ATOM     13  C   UNL     1      -0.397   0.893  -0.196  1.00  0.00    -0.000 C 
BRANCH  13  14
ATOM     14  C   UNL     1      -1.526   1.929  -0.045  1.00  0.00    -0.000 C 
BRANCH  14  15
ATOM     15  C   UNL     1      -1.680   2.822  -1.286  1.00  0.00    -0.000 C 
BRANCH  15  16
ATOM     16  C   UNL     1      -0.998   2.225  -2.530  1.00  0.00    -0.000 C 
BRANCH  16  17
ATOM     17  C   UNL     1       0.092   3.145  -3.102  1.00  0.00    -0.003 C 
ATOM     18  C   UNL     1       0.877   2.497  -4.243  1.00  0.00     0.004 C 
ENDBRANCH  16  17
ENDBRANCH  15  16
ENDBRANCH  14  15
ENDBRANCH  13  14
ENDBRANCH  12  13
ENDBRANCH  11  12
ENDBRANCH   1  11
TORSDOF 14
ENDMDL
MODEL 7
REMARK VINA RESULT:    -4.251      6.442      9.003
REMARK INTER + INTRA:          -8.923
REMARK INTER:                  -8.060
REMARK INTRA:                  -0.863
REMARK UNBOUND:                -1.194
REMARK SMILES CCCCCCCCCCCCCCCC(=O)[O-]
REMARK SMILES IDX 9 1 10 2 11 3 12 4 13 5 14 6 15 7 16 8 17 9 18 10 8 11 7 12
REMARK SMILES IDX 6 13 5 14 4 15 3 16 2 17 1 18
REMARK H PARENT
REMARK Flexibility Score: inf
ROOT
ATOM      1  C   UNL     1       1.045  -1.505   1.190  1.00  0.00     0.000 C 
ENDROOT
BRANCH   1   2
ATOM      2  C   UNL     1       0.242  -2.195   0.073  1.00  0.00     0.000 C 
BRANCH   2   3
ATOM      3  C   UNL     1       0.938  -3.458  -0.458  1.00  0.00     0.000 C 
BRANCH   3   4
ATOM      4  C   UNL     1       0.634  -3.723  -1.943  1.00  0.00     0.000 C 
BRANCH   4   5
ATOM      5  C   UNL     1       0.188  -5.172  -2.212  1.00  0.00     0.000 C 
BRANCH   5   6
ATOM      6  C   UNL     1       0.271  -6.115  -0.993  1.00  0.00     0.006 C 
BRANCH   6   7
ATOM      7  C   UNL     1      -0.343  -7.505  -1.220  1.00  0.00     0.053 C 
BRANCH   7   8
ATOM      8  C   UNL     1       0.625  -8.603  -0.906  1.00  0.00     0.041 C 
ATOM      9  O   UNL     1       0.429  -9.358   0.082  1.00  0.00    -0.550 OA
ATOM     10  O   UNL     1       1.729  -8.812  -1.724  1.00  0.00    -0.550 OA
ENDBRANCH   7   8
ENDBRANCH   6   7
ENDBRANCH   5   6
ENDBRANCH   4   5
ENDBRANCH   3   4
ENDBRANCH   2   3
ENDBRANCH   1   2
BRANCH   1  11
ATOM     11  C   UNL     1       0.695  -0.015   1.333  1.00  0.00     0.000 C 
BRANCH  11  12
ATOM     12  C   UNL     1      -0.070   0.532   0.114  1.00  0.00    -0.000 C 
BRANCH  12  13
ATOM     13  C   UNL     1      -0.782   1.860   0.413  1.00  0.00    -0.000 C 
BRANCH  13  14
ATOM     14  C   UNL     1      -2.047   2.061  -0.441  1.00  0.00    -0.000 C 
BRANCH  14  15
ATOM     15  C   UNL     1      -1.739   2.651  -1.826  1.00  0.00    -0.000 C 
BRANCH  15  16
ATOM     16  C   UNL     1      -0.841   3.899  -1.748  1.00  0.00    -0.000 C 
BRANCH  16  17
ATOM     17  C   UNL     1       0.519   3.689  -2.432  1.00  0.00    -0.003 C 
ATOM     18  C   UNL     1       0.436   2.775  -3.653  1.00  0.00     0.004 C 
ENDBRANCH  16  17
ENDBRANCH  15  16
ENDBRANCH  14  15
ENDBRANCH  13  14
ENDBRANCH  12  13
ENDBRANCH  11  12
ENDBRANCH   1  11
TORSDOF 14
ENDMDL
MODEL 8
REMARK VINA RESULT:    -4.188      5.997      8.573
REMARK INTER + INTRA:          -8.809
REMARK INTER:                  -8.045
REMARK INTRA:                  -0.764
REMARK UNBOUND:                -1.194
REMARK SMILES CCCCCCCCCCCCCCCC(=O)[O-]
REMARK SMILES IDX 9 1 10 2 11 3 12 4 13 5 14 6 15 7 16 8 17 9 18 10 8 11 7 12
REMARK SMILES IDX 6 13 5 14 4 15 3 16 2 17 1 18
REMARK H PARENT
REMARK Flexibility Score: inf
ROOT
ATOM      1  C   UNL     1       0.774  -3.502  -1.956  1.00  0.00     0.000 C 
ENDROOT
BRANCH   1   2
ATOM      2  C   UNL     1       0.837  -3.287  -0.433  1.00  0.00     0.000 C 
BRANCH   2   3
ATOM      3  C   UNL     1       0.093  -2.019   0.014  1.00  0.00     0.000 C 
BRANCH   3   4
ATOM      4  C   UNL     1       0.853  -1.236   1.098  1.00  0.00     0.000 C 
BRANCH   4   5
ATOM      5  C   UNL     1       0.536   0.270   1.080  1.00  0.00     0.000 C 
BRANCH   5   6
ATOM      6  C   UNL     1      -0.352   0.734  -0.094  1.00  0.00     0.006 C 
BRANCH   6   7
ATOM      7  C   UNL     1      -1.004   2.111   0.106  1.00  0.00     0.053 C 
BRANCH   7   8
ATOM      8  C   UNL     1      -2.034   2.400  -0.942  1.00  0.00     0.041 C 
ATOM      9  O   UNL     1      -2.986   3.185  -0.696  1.00  0.00    -0.550 OA
ATOM     10  O   UNL     1      -1.924   1.825  -2.202  1.00  0.00    -0.550 OA
ENDBRANCH   7   8
ENDBRANCH   6   7
ENDBRANCH   5   6
ENDBRANCH   4   5
ENDBRANCH   3   4
ENDBRANCH   2   3
ENDBRANCH   1   2
BRANCH   1  11
ATOM     11  C   UNL     1       0.378  -4.939  -2.333  1.00  0.00     0.000 C 
BRANCH  11  12
ATOM     12  C   UNL     1       0.219  -5.850  -1.102  1.00  0.00    -0.000 C 
BRANCH  12  13
ATOM     13  C   UNL     1      -0.174  -7.287  -1.479  1.00  0.00    -0.000 C 
BRANCH  13  14
ATOM     14  C   UNL     1       0.411  -8.334  -0.515  1.00  0.00    -0.000 C 
BRANCH  14  15
ATOM     15  C   UNL     1       1.639  -9.053  -1.097  1.00  0.00    -0.000 C 
BRANCH  15  16
ATOM     16  C   UNL     1       1.429  -9.491  -2.557  1.00  0.00    -0.000 C 
BRANCH  16  17
ATOM     17  C   UNL     1       2.738  -9.499  -3.363  1.00  0.00    -0.003 C 
ATOM     18  C   UNL     1       2.732  -8.493  -4.514  1.00  0.00     0.004 C 
ENDBRANCH  16  17
ENDBRANCH  15  16
ENDBRANCH  14  15
ENDBRANCH  13  14
ENDBRANCH  12  13
ENDBRANCH  11  12
ENDBRANCH   1  11
TORSDOF 14
ENDMDL
MODEL 9
REMARK VINA RESULT:    -4.096      2.118      3.367
REMARK INTER + INTRA:          -8.641
REMARK INTER:                  -7.580
REMARK INTRA:                  -1.061
REMARK UNBOUND:                -1.194
REMARK SMILES CCCCCCCCCCCCCCCC(=O)[O-]
REMARK SMILES IDX 9 1 10 2 11 3 12 4 13 5 14 6 15 7 16 8 17 9 18 10 8 11 7 12
REMARK SMILES IDX 6 13 5 14 4 15 3 16 2 17 1 18
REMARK H PARENT
REMARK Flexibility Score: inf
ROOT
ATOM      1  C   UNL     1       1.403  -9.359  -2.250  1.00  0.00     0.000 C 
ENDROOT
BRANCH   1   2
ATOM      2  C   UNL     1       1.497 -10.125  -0.919  1.00  0.00     0.000 C 
BRANCH   2   3
ATOM      3  C   UNL     1       0.177 -10.100  -0.131  1.00  0.00     0.000 C 
BRANCH   3   4
ATOM      4  C   UNL     1      -1.029  -9.721  -1.007  1.00  0.00     0.000 C 
BRANCH   4   5
ATOM      5  C   UNL     1      -1.691  -8.401  -0.574  1.00  0.00     0.000 C 
BRANCH   5   6
ATOM      6  C   UNL     1      -1.329  -7.176  -1.440  1.00  0.00     0.006 C 
BRANCH   6   7
ATOM      7  C   UNL     1       0.046  -6.563  -1.133  1.00  0.00     0.053 C 
BRANCH   7   8
ATOM      8  C   UNL     1       0.167  -5.167  -1.662  1.00  0.00     0.041 C 
ATOM      9  O   UNL     1       0.499  -4.225  -0.896  1.00  0.00    -0.550 OA
ATOM     10  O   UNL     1      -0.057  -4.913  -3.010  1.00  0.00    -0.550 OA
ENDBRANCH   7   8
ENDBRANCH   6   7
ENDBRANCH   5   6
ENDBRANCH   4   5
ENDBRANCH   3   4
ENDBRANCH   2   3
ENDBRANCH   1   2
BRANCH   1  11
ATOM     11  C   UNL     1       2.316  -9.951  -3.337  1.00  0.00     0.000 C 
BRANCH  11  12
ATOM     12  C   UNL     1       3.731  -9.346  -3.312  1.00  0.00    -0.000 C 
BRANCH  12  13
ATOM     13  C   UNL     1       4.570  -9.760  -4.531  1.00  0.00    -0.000 C 
BRANCH  13  14
ATOM     14  C   UNL     1       4.831  -8.591  -5.497  1.00  0.00    -0.000 C 
BRANCH  14  15
ATOM     15  C   UNL     1       4.203  -8.815  -6.882  1.00  0.00    -0.000 C 
BRANCH  15  16
ATOM     16  C   UNL     1       3.033  -7.854  -7.161  1.00  0.00    -0.000 C 
BRANCH  16  17
ATOM     17  C   UNL     1       2.632  -7.041  -5.920  1.00  0.00    -0.003 C 
ATOM     18  C   UNL     1       1.967  -5.710  -6.272  1.00  0.00     0.004 C 
ENDBRANCH  16  17
ENDBRANCH  15  16
ENDBRANCH  14  15
ENDBRANCH  13  14
ENDBRANCH  12  13
ENDBRANCH  11  12
ENDBRANCH   1  11
TORSDOF 14
ENDMDL
