MODEL 1
REMARK VINA RESULT:    -4.405      0.000      0.000
REMARK INTER + INTRA:         -13.959
REMARK INTER:                 -10.070
REMARK INTRA:                  -3.889
REMARK UNBOUND:                -3.889
REMARK SMILES CCCCCCCCCCCCCCCCCCCCCCCC(=O)[O-]
REMARK SMILES IDX 13 1 14 2 15 3 16 4 17 5 18 6 19 7 20 8 21 9 22 10 23 11
REMARK SMILES IDX 24 12 25 13 26 14 12 15 11 16 10 17 9 18 8 19 7 20 6 21 5 22
REMARK SMILES IDX 4 23 3 24 2 25 1 26
REMARK H PARENT
REMARK Flexibility Score: inf
ROOT
ATOM      1  C   UNL     1       5.391  77.784  39.564  1.00  0.00     0.000 C 
ENDROOT
BRANCH   1   2
ATOM      2  C   UNL     1       5.622  79.309  39.548  1.00  0.00     0.000 C 
BRANCH   2   3
ATOM      3  C   UNL     1       5.527  79.962  38.157  1.00  0.00     0.000 C 
BRANCH   3   4
ATOM      4  C   UNL     1       6.877  80.198  37.448  1.00  0.00     0.000 C 
BRANCH   4   5
ATOM      5  C   UNL     1       7.298  79.102  36.451  1.00  0.00     0.000 C 
BRANCH   5   6
ATOM      6  C   UNL     1       8.778  78.698  36.593  1.00  0.00     0.000 C 
BRANCH   6   7
ATOM      7  C   UNL     1       9.298  78.858  38.030  1.00  0.00     0.000 C 
BRANCH   7   8
ATOM      8  C   UNL     1      10.350  79.971  38.164  1.00  0.00     0.000 C 
BRANCH   8   9
ATOM      9  C   UNL     1      10.475  80.428  39.626  1.00  0.00     0.000 C 
BRANCH   9  10
ATOM     10  C   UNL     1       9.428  79.781  40.546  1.00  0.00     0.006 C 
BRANCH  10  11
ATOM     11  C   UNL     1       8.456  80.807  41.148  1.00  0.00     0.053 C 
BRANCH  11  12
ATOM     12  C   UNL     1       9.069  81.465  42.345  1.00  0.00     0.041 C 
ATOM     13  O   UNL     1       9.814  80.806  43.117  1.00  0.00    -0.550 OA
ATOM     14  O   UNL     1       8.857  82.817  42.581  1.00  0.00    -0.550 OA
ENDBRANCH  11  12
ENDBRANCH  10  11
ENDBRANCH   9  10
ENDBRANCH   8   9
ENDBRANCH   7   8
ENDBRANCH   6   7
ENDBRANCH   5   6
ENDBRANCH   4   5
ENDBRANCH   3   4
ENDBRANCH   2   3
ENDBRANCH   1   2
BRANCH   1  15
ATOM     15  C   UNL     1       6.677  76.936  39.589  1.00  0.00     0.000 C 
BRANCH  15  16
ATOM     16  C   UNL     1       6.797  76.004  38.370  1.00  0.00     0.000 C 
BRANCH  16  17
ATOM     17  C   UNL     1       5.530  75.993  37.501  1.00  0.00     0.000 C 
BRANCH  17  18
ATOM     18  C   UNL     1       4.787  74.645  37.552  1.00  0.00    -0.000 C 
BRANCH  18  19
ATOM     19  C   UNL     1       4.388  74.261  38.986  1.00  0.00    -0.000 C 
BRANCH  19  20
ATOM     20  C   UNL     1       4.780  72.814  39.334  1.00  0.00    -0.000 C 
BRANCH  20  21
ATOM     21  C   UNL     1       5.980  72.745  40.295  1.00  0.00    -0.000 C 
BRANCH  21  22
ATOM     22  C   UNL     1       7.324  72.660  39.551  1.00  0.00    -0.000 C 
BRANCH  22  23
ATOM     23  C   UNL     1       7.346  71.553  38.482  1.00  0.00    -0.000 C 
BRANCH  23  24
ATOM     24  C   UNL     1       7.482  72.086  37.040  1.00  0.00    -0.000 C 
BRANCH  24  25
ATOM     25  C   UNL     1       8.709  72.993  36.869  1.00  0.00    -0.003 C 
ATOM     26  C   UNL     1      10.006  72.196  36.990  1.00  0.00     0.004 C 
ENDBRANCH  24  25
ENDBRANCH  23  24
ENDBRANCH  22  23
ENDBRANCH  21  22
ENDBRANCH  20  21
ENDBRANCH  19  20
ENDBRANCH  18  19
ENDBRANCH  17  18
ENDBRANCH  16  17
ENDBRANCH  15  16
ENDBRANCH   1  15
TORSDOF 22
ENDMDL
MODEL 2
REMARK VINA RESULT:    -4.405      1.433      5.086
REMARK INTER + INTRA:         -13.959
REMARK INTER:                 -10.697
REMARK INTRA:                  -3.262
REMARK UNBOUND:                -3.889
REMARK SMILES CCCCCCCCCCCCCCCCCCCCCCCC(=O)[O-]
REMARK SMILES IDX 13 1 14 2 15 3 16 4 17 5 18 6 19 7 20 8 21 9 22 10 23 11
REMARK SMILES IDX 24 12 25 13 26 14 12 15 11 16 10 17 9 18 8 19 7 20 6 21 5 22
REMARK SMILES IDX 4 23 3 24 2 25 1 26
REMARK H PARENT
REMARK Flexibility Score: inf
ROOT
ATOM      1  C   UNL     1       8.404  72.097  38.596  1.00  0.00     0.000 C 
ENDROOT
BRANCH   1   2
ATOM      2  C   UNL     1       8.910  72.139  37.140  1.00  0.00     0.000 C 
BRANCH   2   3
ATOM      3  C   UNL     1       8.618  73.453  36.392  1.00  0.00     0.000 C 
BRANCH   3   4
ATOM      4  C   UNL     1       7.696  74.441  37.136  1.00  0.00     0.000 C 
BRANCH   4   5
ATOM      5  C   UNL     1       8.073  75.929  36.994  1.00  0.00     0.000 C 
BRANCH   5   6
ATOM      6  C   UNL     1       9.553  76.139  36.625  1.00  0.00     0.000 C 
BRANCH   6   7
ATOM      7  C   UNL     1       9.863  77.591  36.227  1.00  0.00     0.000 C 
BRANCH   7   8
ATOM      8  C   UNL     1       8.617  78.490  36.229  1.00  0.00     0.000 C 
BRANCH   8   9
ATOM      9  C   UNL     1       8.608  79.406  37.463  1.00  0.00     0.000 C 
BRANCH   9  10
ATOM     10  C   UNL     1       9.793  79.147  38.407  1.00  0.00     0.006 C 
BRANCH  10  11
ATOM     11  C   UNL     1       9.355  78.964  39.867  1.00  0.00     0.053 C 
BRANCH  11  12
ATOM     12  C   UNL     1      10.054  79.953  40.748  1.00  0.00     0.041 C 
ATOM     13  O   UNL     1      11.073  79.607  41.403  1.00  0.00    -0.550 OA
ATOM     14  O   UNL     1       9.610  81.268  40.809  1.00  0.00    -0.550 OA
ENDBRANCH  11  12
ENDBRANCH  10  11
ENDBRANCH   9  10
ENDBRANCH   8   9
ENDBRANCH   7   8
ENDBRANCH   6   7
ENDBRANCH   5   6
ENDBRANCH   4   5
ENDBRANCH   3   4
ENDBRANCH   2   3
ENDBRANCH   1   2
BRANCH   1  15
ATOM     15  C   UNL     1       7.371  70.993  38.890  1.00  0.00     0.000 C 
BRANCH  15  16
ATOM     16  C   UNL     1       6.241  70.944  37.847  1.00  0.00     0.000 C 
BRANCH  16  17
ATOM     17  C   UNL     1       5.065  71.868  38.198  1.00  0.00     0.000 C 
BRANCH  17  18
ATOM     18  C   UNL     1       5.046  72.263  39.686  1.00  0.00    -0.000 C 
BRANCH  18  19
ATOM     19  C   UNL     1       5.002  73.788  39.877  1.00  0.00    -0.000 C 
BRANCH  19  20
ATOM     20  C   UNL     1       4.438  74.515  38.643  1.00  0.00    -0.000 C 
BRANCH  20  21
ATOM     21  C   UNL     1       4.059  75.975  38.945  1.00  0.00    -0.000 C 
BRANCH  21  22
ATOM     22  C   UNL     1       5.224  76.769  39.563  1.00  0.00    -0.000 C 
BRANCH  22  23
ATOM     23  C   UNL     1       5.651  77.971  38.703  1.00  0.00    -0.000 C 
BRANCH  23  24
ATOM     24  C   UNL     1       5.189  79.331  39.266  1.00  0.00    -0.000 C 
BRANCH  24  25
ATOM     25  C   UNL     1       4.867  79.261  40.765  1.00  0.00    -0.003 C 
ATOM     26  C   UNL     1       6.040  79.760  41.605  1.00  0.00     0.004 C 
ENDBRANCH  24  25
ENDBRANCH  23  24
ENDBRANCH  22  23
ENDBRANCH  21  22
ENDBRANCH  20  21
ENDBRANCH  19  20
ENDBRANCH  18  19
ENDBRANCH  17  18
ENDBRANCH  16  17
ENDBRANCH  15  16
ENDBRANCH   1  15
TORSDOF 22
ENDMDL
MODEL 3
REMARK VINA RESULT:    -4.244      3.579      5.782
REMARK INTER + INTRA:         -13.591
REMARK INTER:                 -10.148
REMARK INTRA:                  -3.443
REMARK UNBOUND:                -3.889
REMARK SMILES CCCCCCCCCCCCCCCCCCCCCCCC(=O)[O-]
REMARK SMILES IDX 13 1 14 2 15 3 16 4 17 5 18 6 19 7 20 8 21 9 22 10 23 11
REMARK SMILES IDX 24 12 25 13 26 14 12 15 11 16 10 17 9 18 8 19 7 20 6 21 5 22
REMARK SMILES IDX 4 23 3 24 2 25 1 26
REMARK H PARENT
REMARK Flexibility Score: inf
ROOT
ATOM      1  C   UNL     1       7.505  78.383  39.568  1.00  0.00     0.000 C 
ENDROOT
BRANCH   1   2
ATOM      2  C   UNL     1       7.880  79.641  38.758  1.00  0.00     0.000 C 
BRANCH   2   3
ATOM      3  C   UNL     1       9.060  79.455  37.786  1.00  0.00     0.000 C 
BRANCH   3   4
ATOM      4  C   UNL     1       8.809  78.463  36.631  1.00  0.00     0.000 C 
BRANCH   4   5
ATOM      5  C   UNL     1       9.959  77.477  36.348  1.00  0.00     0.000 C 
BRANCH   5   6
ATOM      6  C   UNL     1       9.574  76.011  36.623  1.00  0.00     0.000 C 
BRANCH   6   7
ATOM      7  C   UNL     1       8.080  75.843  36.946  1.00  0.00     0.000 C 
BRANCH   7   8
ATOM      8  C   UNL     1       7.733  74.435  37.453  1.00  0.00     0.000 C 
BRANCH   8   9
ATOM      9  C   UNL     1       7.664  73.438  36.286  1.00  0.00     0.000 C 
BRANCH   9  10
ATOM     10  C   UNL     1       8.837  72.445  36.279  1.00  0.00     0.006 C 
BRANCH  10  11
ATOM     11  C   UNL     1       9.374  72.156  37.688  1.00  0.00     0.053 C 
BRANCH  11  12
ATOM     12  C   UNL     1      10.844  71.874  37.638  1.00  0.00     0.041 C 
ATOM     13  O   UNL     1      11.601  72.295  38.552  1.00  0.00    -0.550 OA
ATOM     14  O   UNL     1      11.371  71.106  36.607  1.00  0.00    -0.550 OA
ENDBRANCH  11  12
ENDBRANCH  10  11
ENDBRANCH   9  10
ENDBRANCH   8   9
ENDBRANCH   7   8
ENDBRANCH   6   7
ENDBRANCH   5   6
ENDBRANCH   4   5
ENDBRANCH   3   4
ENDBRANCH   2   3
ENDBRANCH   1   2
BRANCH   1  15
ATOM     15  C   UNL     1       5.992  78.112  39.676  1.00  0.00     0.000 C 
BRANCH  15  16
ATOM     16  C   UNL     1       5.663  76.612  39.784  1.00  0.00     0.000 C 
BRANCH  16  17
ATOM     17  C   UNL     1       4.722  76.126  38.671  1.00  0.00     0.000 C 
BRANCH  17  18
ATOM     18  C   UNL     1       4.095  74.754  38.982  1.00  0.00    -0.000 C 
BRANCH  18  19
ATOM     19  C   UNL     1       4.922  73.962  40.008  1.00  0.00    -0.000 C 
BRANCH  19  20
ATOM     20  C   UNL     1       5.253  72.541  39.518  1.00  0.00    -0.000 C 
BRANCH  20  21
ATOM     21  C   UNL     1       4.638  72.236  38.141  1.00  0.00    -0.000 C 
BRANCH  21  22
ATOM     22  C   UNL     1       5.161  70.917  37.544  1.00  0.00    -0.000 C 
BRANCH  22  23
ATOM     23  C   UNL     1       6.309  70.303  38.365  1.00  0.00    -0.000 C 
BRANCH  23  24
ATOM     24  C   UNL     1       6.161  68.785  38.596  1.00  0.00    -0.000 C 
BRANCH  24  25
ATOM     25  C   UNL     1       4.732  68.393  38.997  1.00  0.00    -0.003 C 
ATOM     26  C   UNL     1       4.733  67.463  40.208  1.00  0.00     0.004 C 
ENDBRANCH  24  25
ENDBRANCH  23  24
ENDBRANCH  22  23
ENDBRANCH  21  22
ENDBRANCH  20  21
ENDBRANCH  19  20
ENDBRANCH  18  19
ENDBRANCH  17  18
ENDBRANCH  16  17
ENDBRANCH  15  16
ENDBRANCH   1  15
TORSDOF 22
ENDMDL
MODEL 4
REMARK VINA RESULT:    -4.224      1.500      2.438
REMARK INTER + INTRA:         -13.546
REMARK INTER:                 -10.133
REMARK INTRA:                  -3.413
REMARK UNBOUND:                -3.889
REMARK SMILES CCCCCCCCCCCCCCCCCCCCCCCC(=O)[O-]
REMARK SMILES IDX 13 1 14 2 15 3 16 4 17 5 18 6 19 7 20 8 21 9 22 10 23 11
REMARK SMILES IDX 24 12 25 13 26 14 12 15 11 16 10 17 9 18 8 19 7 20 6 21 5 22
REMARK SMILES IDX 4 23 3 24 2 25 1 26
REMARK H PARENT
REMARK Flexibility Score: inf
ROOT
ATOM      1  C   UNL     1       5.698  79.735  39.022  1.00  0.00     0.000 C 
ENDROOT
BRANCH   1   2
ATOM      2  C   UNL     1       5.810  79.267  37.557  1.00  0.00     0.000 C 
BRANCH   2   3
ATOM      3  C   UNL     1       6.940  79.933  36.750  1.00  0.00     0.000 C 
BRANCH   3   4
ATOM      4  C   UNL     1       7.775  78.975  35.875  1.00  0.00     0.000 C 
BRANCH   4   5
ATOM      5  C   UNL     1       8.775  78.086  36.640  1.00  0.00     0.000 C 
BRANCH   5   6
ATOM      6  C   UNL     1       9.673  78.886  37.603  1.00  0.00     0.000 C 
BRANCH   6   7
ATOM      7  C   UNL     1       9.344  78.617  39.079  1.00  0.00     0.000 C 
BRANCH   7   8
ATOM      8  C   UNL     1       9.568  79.845  39.975  1.00  0.00     0.000 C 
BRANCH   8   9
ATOM      9  C   UNL     1      10.663  80.752  39.393  1.00  0.00     0.000 C 
BRANCH   9  10
ATOM     10  C   UNL     1      11.284  81.687  40.442  1.00  0.00     0.006 C 
BRANCH  10  11
ATOM     11  C   UNL     1      10.657  81.514  41.832  1.00  0.00     0.053 C 
BRANCH  11  12
ATOM     12  C   UNL     1      11.633  80.870  42.768  1.00  0.00     0.041 C 
ATOM     13  O   UNL     1      12.028  79.693  42.558  1.00  0.00    -0.550 OA
ATOM     14  O   UNL     1      12.142  81.586  43.844  1.00  0.00    -0.550 OA
ENDBRANCH  11  12
ENDBRANCH  10  11
ENDBRANCH   9  10
ENDBRANCH   8   9
ENDBRANCH   7   8
ENDBRANCH   6   7
ENDBRANCH   5   6
ENDBRANCH   4   5
ENDBRANCH   3   4
ENDBRANCH   2   3
ENDBRANCH   1   2
BRANCH   1  15
ATOM     15  C   UNL     1       5.740  78.604  40.067  1.00  0.00     0.000 C 
BRANCH  15  16
ATOM     16  C   UNL     1       5.272  77.252  39.498  1.00  0.00     0.000 C 
BRANCH  16  17
ATOM     17  C   UNL     1       6.378  76.186  39.509  1.00  0.00     0.000 C 
BRANCH  17  18
ATOM     18  C   UNL     1       6.710  75.663  38.099  1.00  0.00    -0.000 C 
BRANCH  18  19
ATOM     19  C   UNL     1       5.466  75.603  37.198  1.00  0.00    -0.000 C 
BRANCH  19  20
ATOM     20  C   UNL     1       5.096  74.161  36.807  1.00  0.00    -0.000 C 
BRANCH  20  21
ATOM     21  C   UNL     1       4.014  73.564  37.724  1.00  0.00    -0.000 C 
BRANCH  21  22
ATOM     22  C   UNL     1       4.392  72.167  38.246  1.00  0.00    -0.000 C 
BRANCH  22  23
ATOM     23  C   UNL     1       4.967  72.198  39.674  1.00  0.00    -0.000 C 
BRANCH  23  24
ATOM     24  C   UNL     1       6.481  72.492  39.725  1.00  0.00    -0.000 C 
BRANCH  24  25
ATOM     25  C   UNL     1       7.299  71.471  38.922  1.00  0.00    -0.003 C 
ATOM     26  C   UNL     1       8.774  71.512  39.318  1.00  0.00     0.004 C 
ENDBRANCH  24  25
ENDBRANCH  23  24
ENDBRANCH  22  23
ENDBRANCH  21  22
ENDBRANCH  20  21
ENDBRANCH  19  20
ENDBRANCH  18  19
ENDBRANCH  17  18
ENDBRANCH  16  17
ENDBRANCH  15  16
ENDBRANCH   1  15
TORSDOF 22
ENDMDL
MODEL 5
REMARK VINA RESULT:    -4.194      1.441      2.482
REMARK INTER + INTRA:         -13.477
REMARK INTER:                 -10.210
REMARK INTRA:                  -3.267
REMARK UNBOUND:                -3.889
REMARK SMILES CCCCCCCCCCCCCCCCCCCCCCCC(=O)[O-]
REMARK SMILES IDX 13 1 14 2 15 3 16 4 17 5 18 6 19 7 20 8 21 9 22 10 23 11
REMARK SMILES IDX 24 12 25 13 26 14 12 15 11 16 10 17 9 18 8 19 7 20 6 21 5 22
REMARK SMILES IDX 4 23 3 24 2 25 1 26
REMARK H PARENT
REMARK Flexibility Score: inf
ROOT
ATOM      1  C   UNL     1       6.394  77.938  39.608  1.00  0.00     0.000 C 
ENDROOT
BRANCH   1   2
ATOM      2  C   UNL     1       5.546  78.814  38.664  1.00  0.00     0.000 C 
BRANCH   2   3
ATOM      3  C   UNL     1       6.004  78.811  37.194  1.00  0.00     0.000 C 
BRANCH   3   4
ATOM      4  C   UNL     1       7.334  79.543  36.918  1.00  0.00     0.000 C 
BRANCH   4   5
ATOM      5  C   UNL     1       8.535  78.632  36.601  1.00  0.00     0.000 C 
BRANCH   5   6
ATOM      6  C   UNL     1       9.590  78.618  37.723  1.00  0.00     0.000 C 
BRANCH   6   7
ATOM      7  C   UNL     1       9.507  79.857  38.627  1.00  0.00     0.000 C 
BRANCH   7   8
ATOM      8  C   UNL     1      10.882  80.475  38.924  1.00  0.00     0.000 C 
BRANCH   8   9
ATOM      9  C   UNL     1      10.769  81.564  40.002  1.00  0.00     0.000 C 
BRANCH   9  10
ATOM     10  C   UNL     1      10.099  81.061  41.290  1.00  0.00     0.006 C 
BRANCH  10  11
ATOM     11  C   UNL     1      11.024  80.163  42.125  1.00  0.00     0.053 C 
BRANCH  11  12
ATOM     12  C   UNL     1      11.446  80.870  43.376  1.00  0.00     0.041 C 
ATOM     13  O   UNL     1      10.874  80.618  44.469  1.00  0.00    -0.550 OA
ATOM     14  O   UNL     1      12.503  81.771  43.344  1.00  0.00    -0.550 OA
ENDBRANCH  11  12
ENDBRANCH  10  11
ENDBRANCH   9  10
ENDBRANCH   8   9
ENDBRANCH   7   8
ENDBRANCH   6   7
ENDBRANCH   5   6
ENDBRANCH   4   5
ENDBRANCH   3   4
ENDBRANCH   2   3
ENDBRANCH   1   2
BRANCH   1  15
ATOM     15  C   UNL     1       6.199  76.420  39.429  1.00  0.00     0.000 C 
BRANCH  15  16
ATOM     16  C   UNL     1       4.721  76.028  39.251  1.00  0.00     0.000 C 
BRANCH  16  17
ATOM     17  C   UNL     1       4.500  75.051  38.086  1.00  0.00     0.000 C 
BRANCH  17  18
ATOM     18  C   UNL     1       5.581  75.172  36.997  1.00  0.00    -0.000 C 
BRANCH  18  19
ATOM     19  C   UNL     1       5.626  73.934  36.088  1.00  0.00    -0.000 C 
BRANCH  19  20
ATOM     20  C   UNL     1       7.047  73.358  35.955  1.00  0.00    -0.000 C 
BRANCH  20  21
ATOM     21  C   UNL     1       7.850  73.467  37.263  1.00  0.00    -0.000 C 
BRANCH  21  22
ATOM     22  C   UNL     1       8.433  72.115  37.710  1.00  0.00    -0.000 C 
BRANCH  22  23
ATOM     23  C   UNL     1       7.677  71.504  38.903  1.00  0.00    -0.000 C 
BRANCH  23  24
ATOM     24  C   UNL     1       6.657  72.465  39.548  1.00  0.00    -0.000 C 
BRANCH  24  25
ATOM     25  C   UNL     1       5.250  71.856  39.622  1.00  0.00    -0.003 C 
ATOM     26  C   UNL     1       4.908  71.100  38.340  1.00  0.00     0.004 C 
ENDBRANCH  24  25
ENDBRANCH  23  24
ENDBRANCH  22  23
ENDBRANCH  21  22
ENDBRANCH  20  21
ENDBRANCH  19  20
ENDBRANCH  18  19
ENDBRANCH  17  18
ENDBRANCH  16  17
ENDBRANCH  15  16
ENDBRANCH   1  15
TORSDOF 22
ENDMDL
MODEL 6
REMARK VINA RESULT:    -4.185      4.510      8.587
REMARK INTER + INTRA:         -13.456
REMARK INTER:                  -9.906
REMARK INTRA:                  -3.550
REMARK UNBOUND:                -3.889
REMARK SMILES CCCCCCCCCCCCCCCCCCCCCCCC(=O)[O-]
REMARK SMILES IDX 13 1 14 2 15 3 16 4 17 5 18 6 19 7 20 8 21 9 22 10 23 11
REMARK SMILES IDX 24 12 25 13 26 14 12 15 11 16 10 17 9 18 8 19 7 20 6 21 5 22
REMARK SMILES IDX 4 23 3 24 2 25 1 26
REMARK H PARENT
REMARK Flexibility Score: inf
ROOT
ATOM      1  C   UNL     1       5.045  75.044  39.407  1.00  0.00     0.000 C 
ENDROOT
BRANCH   1   2
ATOM      2  C   UNL     1       4.519  74.297  38.165  1.00  0.00     0.000 C 
BRANCH   2   3
ATOM      3  C   UNL     1       5.104  74.778  36.825  1.00  0.00     0.000 C 
BRANCH   3   4
ATOM      4  C   UNL     1       6.266  73.925  36.271  1.00  0.00     0.000 C 
BRANCH   4   5
ATOM      5  C   UNL     1       7.635  74.168  36.935  1.00  0.00     0.000 C 
BRANCH   5   6
ATOM      6  C   UNL     1       8.280  72.876  37.469  1.00  0.00     0.000 C 
BRANCH   6   7
ATOM      7  C   UNL     1       7.685  72.431  38.814  1.00  0.00     0.000 C 
BRANCH   7   8
ATOM      8  C   UNL     1       7.213  70.969  38.805  1.00  0.00     0.000 C 
BRANCH   8   9
ATOM      9  C   UNL     1       5.708  70.881  39.104  1.00  0.00     0.000 C 
BRANCH   9  10
ATOM     10  C   UNL     1       4.998  69.798  38.277  1.00  0.00     0.006 C 
BRANCH  10  11
ATOM     11  C   UNL     1       5.608  68.404  38.481  1.00  0.00     0.053 C 
BRANCH  11  12
ATOM     12  C   UNL     1       4.684  67.543  39.285  1.00  0.00     0.041 C 
ATOM     13  O   UNL     1       3.750  66.917  38.719  1.00  0.00    -0.550 OA
ATOM     14  O   UNL     1       4.883  67.395  40.652  1.00  0.00    -0.550 OA
ENDBRANCH  11  12
ENDBRANCH  10  11
ENDBRANCH   9  10
ENDBRANCH   8   9
ENDBRANCH   7   8
ENDBRANCH   6   7
ENDBRANCH   5   6
ENDBRANCH   4   5
ENDBRANCH   3   4
ENDBRANCH   2   3
ENDBRANCH   1   2
BRANCH   1  15
ATOM     15  C   UNL     1       5.149  76.573  39.245  1.00  0.00     0.000 C 
BRANCH  15  16
ATOM     16  C   UNL     1       6.455  77.144  39.827  1.00  0.00     0.000 C 
BRANCH  16  17
ATOM     17  C   UNL     1       6.451  78.678  39.906  1.00  0.00     0.000 C 
BRANCH  17  18
ATOM     18  C   UNL     1       5.348  79.314  39.040  1.00  0.00    -0.000 C 
BRANCH  18  19
ATOM     19  C   UNL     1       5.924  80.054  37.823  1.00  0.00    -0.000 C 
BRANCH  19  20
ATOM     20  C   UNL     1       6.126  79.123  36.614  1.00  0.00    -0.000 C 
BRANCH  20  21
ATOM     21  C   UNL     1       7.597  79.044  36.171  1.00  0.00    -0.000 C 
BRANCH  21  22
ATOM     22  C   UNL     1       8.320  77.815  36.750  1.00  0.00    -0.000 C 
BRANCH  22  23
ATOM     23  C   UNL     1       9.605  78.183  37.514  1.00  0.00    -0.000 C 
BRANCH  23  24
ATOM     24  C   UNL     1       9.665  79.661  37.951  1.00  0.00    -0.000 C 
BRANCH  24  25
ATOM     25  C   UNL     1      10.110  79.819  39.412  1.00  0.00    -0.003 C 
ATOM     26  C   UNL     1       9.321  80.922  40.113  1.00  0.00     0.004 C 
ENDBRANCH  24  25
ENDBRANCH  23  24
ENDBRANCH  22  23
ENDBRANCH  21  22
ENDBRANCH  20  21
ENDBRANCH  19  20
ENDBRANCH  18  19
ENDBRANCH  17  18
ENDBRANCH  16  17
ENDBRANCH  15  16
ENDBRANCH   1  15
TORSDOF 22
ENDMDL
MODEL 7
REMARK VINA RESULT:    -4.169      1.518      3.919
REMARK INTER + INTRA:         -13.420
REMARK INTER:                 -10.968
REMARK INTRA:                  -2.452
REMARK UNBOUND:                -3.889
REMARK SMILES CCCCCCCCCCCCCCCCCCCCCCCC(=O)[O-]
REMARK SMILES IDX 13 1 14 2 15 3 16 4 17 5 18 6 19 7 20 8 21 9 22 10 23 11
REMARK SMILES IDX 24 12 25 13 26 14 12 15 11 16 10 17 9 18 8 19 7 20 6 21 5 22
REMARK SMILES IDX 4 23 3 24 2 25 1 26
REMARK H PARENT
REMARK Flexibility Score: inf
ROOT
ATOM      1  C   UNL     1       8.138  75.819  37.092  1.00  0.00     0.000 C 
ENDROOT
BRANCH   1   2
ATOM      2  C   UNL     1       9.582  76.108  36.634  1.00  0.00     0.000 C 
BRANCH   2   3
ATOM      3  C   UNL     1       9.870  77.584  36.300  1.00  0.00     0.000 C 
BRANCH   3   4
ATOM      4  C   UNL     1       8.647  78.523  36.364  1.00  0.00     0.000 C 
BRANCH   4   5
ATOM      5  C   UNL     1       8.443  79.249  37.707  1.00  0.00     0.000 C 
BRANCH   5   6
ATOM      6  C   UNL     1       9.686  79.188  38.616  1.00  0.00     0.000 C 
BRANCH   6   7
ATOM      7  C   UNL     1      10.550  80.455  38.520  1.00  0.00     0.000 C 
BRANCH   7   8
ATOM      8  C   UNL     1      10.816  81.102  39.888  1.00  0.00     0.000 C 
BRANCH   8   9
ATOM      9  C   UNL     1      12.040  80.464  40.564  1.00  0.00     0.000 C 
BRANCH   9  10
ATOM     10  C   UNL     1      11.750  79.991  41.997  1.00  0.00     0.006 C 
BRANCH  10  11
ATOM     11  C   UNL     1      11.970  81.096  43.040  1.00  0.00     0.053 C 
BRANCH  11  12
ATOM     12  C   UNL     1      10.811  81.157  43.986  1.00  0.00     0.041 C 
ATOM     13  O   UNL     1      10.042  82.154  43.982  1.00  0.00    -0.550 OA
ATOM     14  O   UNL     1      10.552  80.092  44.840  1.00  0.00    -0.550 OA
ENDBRANCH  11  12
ENDBRANCH  10  11
ENDBRANCH   9  10
ENDBRANCH   8   9
ENDBRANCH   7   8
ENDBRANCH   6   7
ENDBRANCH   5   6
ENDBRANCH   4   5
ENDBRANCH   3   4
ENDBRANCH   2   3
ENDBRANCH   1   2
BRANCH   1  15
ATOM     15  C   UNL     1       7.622  74.408  36.749  1.00  0.00     0.000 C 
BRANCH  15  16
ATOM     16  C   UNL     1       8.759  73.384  36.583  1.00  0.00     0.000 C 
BRANCH  16  17
ATOM     17  C   UNL     1       8.345  71.962  36.991  1.00  0.00     0.000 C 
BRANCH  17  18
ATOM     18  C   UNL     1       8.193  71.803  38.516  1.00  0.00    -0.000 C 
BRANCH  18  19
ATOM     19  C   UNL     1       6.908  71.049  38.892  1.00  0.00    -0.000 C 
BRANCH  19  20
ATOM     20  C   UNL     1       5.695  71.988  39.020  1.00  0.00    -0.000 C 
BRANCH  20  21
ATOM     21  C   UNL     1       5.964  73.168  39.970  1.00  0.00    -0.000 C 
BRANCH  21  22
ATOM     22  C   UNL     1       4.800  74.174  40.000  1.00  0.00    -0.000 C 
BRANCH  22  23
ATOM     23  C   UNL     1       4.370  74.632  38.595  1.00  0.00    -0.000 C 
BRANCH  23  24
ATOM     24  C   UNL     1       4.724  76.102  38.287  1.00  0.00    -0.000 C 
BRANCH  24  25
ATOM     25  C   UNL     1       5.386  76.803  39.482  1.00  0.00    -0.003 C 
ATOM     26  C   UNL     1       5.157  78.312  39.432  1.00  0.00     0.004 C 
ENDBRANCH  24  25
ENDBRANCH  23  24
ENDBRANCH  22  23
ENDBRANCH  21  22
ENDBRANCH  20  21
ENDBRANCH  19  20
ENDBRANCH  18  19
ENDBRANCH  17  18
ENDBRANCH  16  17
ENDBRANCH  15  16
ENDBRANCH   1  15
TORSDOF 22
ENDMDL
MODEL 8
REMARK VINA RESULT:    -4.162      1.422      3.492
REMARK INTER + INTRA:         -13.405
REMARK INTER:                  -9.858
REMARK INTRA:                  -3.546
REMARK UNBOUND:                -3.889
REMARK SMILES CCCCCCCCCCCCCCCCCCCCCCCC(=O)[O-]
REMARK SMILES IDX 13 1 14 2 15 3 16 4 17 5 18 6 19 7 20 8 21 9 22 10 23 11
REMARK SMILES IDX 24 12 25 13 26 14 12 15 11 16 10 17 9 18 8 19 7 20 6 21 5 22
REMARK SMILES IDX 4 23 3 24 2 25 1 26
REMARK H PARENT
REMARK Flexibility Score: inf
ROOT
ATOM      1  C   UNL     1       6.427  79.310  36.553  1.00  0.00     0.000 C 
ENDROOT
BRANCH   1   2
ATOM      2  C   UNL     1       7.868  78.784  36.402  1.00  0.00     0.000 C 
BRANCH   2   3
ATOM      3  C   UNL     1       8.881  79.381  37.397  1.00  0.00     0.000 C 
BRANCH   3   4
ATOM      4  C   UNL     1       9.405  78.402  38.468  1.00  0.00     0.000 C 
BRANCH   4   5
ATOM      5  C   UNL     1       9.641  79.016  39.862  1.00  0.00     0.000 C 
BRANCH   5   6
ATOM      6  C   UNL     1      10.168  80.462  39.799  1.00  0.00     0.000 C 
BRANCH   6   7
ATOM      7  C   UNL     1      11.641  80.573  40.223  1.00  0.00     0.000 C 
BRANCH   7   8
ATOM      8  C   UNL     1      11.882  80.124  41.672  1.00  0.00     0.000 C 
BRANCH   8   9
ATOM      9  C   UNL     1      12.327  81.309  42.542  1.00  0.00     0.000 C 
BRANCH   9  10
ATOM     10  C   UNL     1      11.546  81.408  43.861  1.00  0.00     0.006 C 
BRANCH  10  11
ATOM     11  C   UNL     1      10.224  80.628  43.825  1.00  0.00     0.053 C 
BRANCH  11  12
ATOM     12  C   UNL     1       9.088  81.541  43.483  1.00  0.00     0.041 C 
ATOM     13  O   UNL     1       8.246  81.204  42.610  1.00  0.00    -0.550 OA
ATOM     14  O   UNL     1       8.932  82.742  44.163  1.00  0.00    -0.550 OA
ENDBRANCH  11  12
ENDBRANCH  10  11
ENDBRANCH   9  10
ENDBRANCH   8   9
ENDBRANCH   7   8
ENDBRANCH   6   7
ENDBRANCH   5   6
ENDBRANCH   4   5
ENDBRANCH   3   4
ENDBRANCH   2   3
ENDBRANCH   1   2
BRANCH   1  15
ATOM     15  C   UNL     1       6.213  80.284  37.728  1.00  0.00     0.000 C 
BRANCH  15  16
ATOM     16  C   UNL     1       5.268  79.719  38.804  1.00  0.00     0.000 C 
BRANCH  16  17
ATOM     17  C   UNL     1       6.013  78.956  39.911  1.00  0.00     0.000 C 
BRANCH  17  18
ATOM     18  C   UNL     1       5.526  77.502  40.059  1.00  0.00    -0.000 C 
BRANCH  18  19
ATOM     19  C   UNL     1       6.173  76.570  39.022  1.00  0.00    -0.000 C 
BRANCH  19  20
ATOM     20  C   UNL     1       5.175  76.115  37.942  1.00  0.00    -0.000 C 
BRANCH  20  21
ATOM     21  C   UNL     1       5.763  75.037  37.015  1.00  0.00    -0.000 C 
BRANCH  21  22
ATOM     22  C   UNL     1       7.302  75.036  37.018  1.00  0.00    -0.000 C 
BRANCH  22  23
ATOM     23  C   UNL     1       7.898  73.682  37.441  1.00  0.00    -0.000 C 
BRANCH  23  24
ATOM     24  C   UNL     1       6.839  72.650  37.882  1.00  0.00    -0.000 C 
BRANCH  24  25
ATOM     25  C   UNL     1       6.827  72.443  39.404  1.00  0.00    -0.003 C 
ATOM     26  C   UNL     1       5.403  72.470  39.953  1.00  0.00     0.004 C 
ENDBRANCH  24  25
ENDBRANCH  23  24
ENDBRANCH  22  23
ENDBRANCH  21  22
ENDBRANCH  20  21
ENDBRANCH  19  20
ENDBRANCH  18  19
ENDBRANCH  17  18
ENDBRANCH  16  17
ENDBRANCH  15  16
ENDBRANCH   1  15
TORSDOF 22
ENDMDL
MODEL 9
REMARK VINA RESULT:    -4.129      4.919      9.261
REMARK INTER + INTRA:         -13.328
REMARK INTER:                 -10.147
REMARK INTRA:                  -3.181
REMARK UNBOUND:                -3.889
REMARK SMILES CCCCCCCCCCCCCCCCCCCCCCCC(=O)[O-]
REMARK SMILES IDX 13 1 14 2 15 3 16 4 17 5 18 6 19 7 20 8 21 9 22 10 23 11
REMARK SMILES IDX 24 12 25 13 26 14 12 15 11 16 10 17 9 18 8 19 7 20 6 21 5 22
REMARK SMILES IDX 4 23 3 24 2 25 1 26
REMARK H PARENT
REMARK Flexibility Score: inf
ROOT
ATOM      1  C   UNL     1       7.595  73.689  37.177  1.00  0.00     0.000 C 
ENDROOT
BRANCH   1   2
ATOM      2  C   UNL     1       8.070  72.276  37.574  1.00  0.00     0.000 C 
BRANCH   2   3
ATOM      3  C   UNL     1       7.790  71.887  39.037  1.00  0.00     0.000 C 
BRANCH   3   4
ATOM      4  C   UNL     1       7.016  72.939  39.859  1.00  0.00     0.000 C 
BRANCH   4   5
ATOM      5  C   UNL     1       5.496  72.705  39.964  1.00  0.00     0.000 C 
BRANCH   5   6
ATOM      6  C   UNL     1       5.081  71.275  39.572  1.00  0.00     0.000 C 
BRANCH   6   7
ATOM      7  C   UNL     1       4.349  71.220  38.222  1.00  0.00     0.000 C 
BRANCH   7   8
ATOM      8  C   UNL     1       4.280  69.802  37.636  1.00  0.00     0.000 C 
BRANCH   8   9
ATOM      9  C   UNL     1       5.689  69.273  37.324  1.00  0.00     0.000 C 
BRANCH   9  10
ATOM     10  C   UNL     1       5.986  67.929  38.006  1.00  0.00     0.006 C 
BRANCH  10  11
ATOM     11  C   UNL     1       4.774  66.985  38.006  1.00  0.00     0.053 C 
BRANCH  11  12
ATOM     12  C   UNL     1       4.493  66.499  39.394  1.00  0.00     0.041 C 
ATOM     13  O   UNL     1       3.959  65.373  39.574  1.00  0.00    -0.550 OA
ATOM     14  O   UNL     1       4.863  67.268  40.490  1.00  0.00    -0.550 OA
ENDBRANCH  11  12
ENDBRANCH  10  11
ENDBRANCH   9  10
ENDBRANCH   8   9
ENDBRANCH   7   8
ENDBRANCH   6   7
ENDBRANCH   5   6
ENDBRANCH   4   5
ENDBRANCH   3   4
ENDBRANCH   2   3
ENDBRANCH   1   2
BRANCH   1  15
ATOM     15  C   UNL     1       6.253  73.730  36.421  1.00  0.00     0.000 C 
BRANCH  15  16
ATOM     16  C   UNL     1       5.287  74.789  36.984  1.00  0.00     0.000 C 
BRANCH  16  17
ATOM     17  C   UNL     1       5.998  76.090  37.387  1.00  0.00     0.000 C 
BRANCH  17  18
ATOM     18  C   UNL     1       5.731  76.482  38.853  1.00  0.00    -0.000 C 
BRANCH  18  19
ATOM     19  C   UNL     1       5.193  77.916  38.977  1.00  0.00    -0.000 C 
BRANCH  19  20
ATOM     20  C   UNL     1       5.701  78.623  40.246  1.00  0.00    -0.000 C 
BRANCH  20  21
ATOM     21  C   UNL     1       7.048  79.332  40.023  1.00  0.00    -0.000 C 
BRANCH  21  22
ATOM     22  C   UNL     1       7.247  79.770  38.561  1.00  0.00    -0.000 C 
BRANCH  22  23
ATOM     23  C   UNL     1       8.599  79.318  37.981  1.00  0.00    -0.000 C 
BRANCH  23  24
ATOM     24  C   UNL     1       8.485  78.647  36.596  1.00  0.00    -0.000 C 
BRANCH  24  25
ATOM     25  C   UNL     1       9.092  77.237  36.580  1.00  0.00    -0.003 C 
ATOM     26  C   UNL     1      10.524  77.258  36.050  1.00  0.00     0.004 C 
ENDBRANCH  24  25
ENDBRANCH  23  24
ENDBRANCH  22  23
ENDBRANCH  21  22
ENDBRANCH  20  21
ENDBRANCH  19  20
ENDBRANCH  18  19
ENDBRANCH  17  18
ENDBRANCH  16  17
ENDBRANCH  15  16
ENDBRANCH   1  15
TORSDOF 22
ENDMDL
