MODEL 1
REMARK VINA RESULT:    -5.825      0.000      0.000
REMARK INTER + INTRA:          -6.980
REMARK INTER:                  -6.847
REMARK INTRA:                  -0.132
REMARK UNBOUND:                -0.132
REMARK SMILES O=C([O-])C=Cc1ccc(O)c(O)c1
REMARK SMILES IDX 6 1 13 2 7 3 11 4 8 5 9 6 5 7 4 8 2 9 1 10 3 11 12 12 10 14
REMARK H PARENT 12 13 10 15
REMARK Flexibility Score: inf
ROOT
ATOM      1  C   UNL     1      17.201  20.846 -12.822  1.00  0.00    -0.022 A 
ATOM      2  C   UNL     1      17.185  19.875 -11.807  1.00  0.00     0.058 A 
ATOM      3  C   UNL     1      18.243  20.820 -13.771  1.00  0.00     0.012 A 
ATOM      4  C   UNL     1      18.198  18.913 -11.719  1.00  0.00     0.157 A 
ATOM      5  C   UNL     1      19.255  19.861 -13.684  1.00  0.00     0.051 A 
ATOM      6  C   UNL     1      19.240  18.906 -12.660  1.00  0.00     0.157 A 
ENDROOT
BRANCH   1   7
ATOM      7  C   UNL     1      16.097  21.836 -12.876  1.00  0.00     0.010 C 
ATOM      8  C   UNL     1      14.966  21.730 -12.163  1.00  0.00     0.025 C 
BRANCH   8   9
ATOM      9  C   UNL     1      13.892  22.731 -12.257  1.00  0.00     0.064 C 
ATOM     10  O   UNL     1      12.883  22.493 -12.972  1.00  0.00    -0.545 OA
ATOM     11  O   UNL     1      13.970  23.934 -11.566  1.00  0.00    -0.545 OA
ENDBRANCH   8   9
ENDBRANCH   1   7
BRANCH   4  12
ATOM     12  O   UNL     1      18.150  17.972 -10.689  1.00  0.00    -0.504 OA
ATOM     13  H   UNL     1      17.330  17.855 -10.106  1.00  0.00     0.293 HD
ENDBRANCH   4  12
BRANCH   6  14
ATOM     14  O   UNL     1      20.251  17.951 -12.576  1.00  0.00    -0.504 OA
ATOM     15  H   UNL     1      20.354  17.224 -13.275  1.00  0.00     0.293 HD
ENDBRANCH   6  14
TORSDOF 4
ENDMDL
MODEL 2
REMARK VINA RESULT:    -5.803      1.551      1.806
REMARK INTER + INTRA:          -6.953
REMARK INTER:                  -6.826
REMARK INTRA:                  -0.127
REMARK UNBOUND:                -0.132
REMARK SMILES O=C([O-])C=Cc1ccc(O)c(O)c1
REMARK SMILES IDX 6 1 13 2 7 3 11 4 8 5 9 6 5 7 4 8 2 9 1 10 3 11 12 12 10 14
REMARK H PARENT 12 13 10 15
REMARK Flexibility Score: inf
ROOT
ATOM      1  C   UNL     1      17.846  19.375 -12.774  1.00  0.00    -0.022 A 
ATOM      2  C   UNL     1      18.320  18.757 -11.604  1.00  0.00     0.058 A 
ATOM      3  C   UNL     1      18.137  18.785 -14.020  1.00  0.00     0.012 A 
ATOM      4  C   UNL     1      19.090  17.590 -11.672  1.00  0.00     0.157 A 
ATOM      5  C   UNL     1      18.906  17.621 -14.089  1.00  0.00     0.051 A 
ATOM      6  C   UNL     1      19.388  17.019 -12.919  1.00  0.00     0.157 A 
ENDROOT
BRANCH   1   7
ATOM      7  C   UNL     1      17.025  20.604 -12.644  1.00  0.00     0.010 C 
ATOM      8  C   UNL     1      15.755  20.610 -12.213  1.00  0.00     0.025 C 
BRANCH   8   9
ATOM      9  C   UNL     1      14.975  21.853 -12.112  1.00  0.00     0.064 C 
ATOM     10  O   UNL     1      13.873  21.846 -11.503  1.00  0.00    -0.545 OA
ATOM     11  O   UNL     1      15.435  23.037 -12.675  1.00  0.00    -0.545 OA
ENDBRANCH   8   9
ENDBRANCH   1   7
BRANCH   4  12
ATOM     12  O   UNL     1      19.550  17.013 -10.487  1.00  0.00    -0.504 OA
ATOM     13  H   UNL     1      20.206  17.486  -9.878  1.00  0.00     0.293 HD
ENDBRANCH   4  12
BRANCH   6  14
ATOM     14  O   UNL     1      20.155  15.858 -12.993  1.00  0.00    -0.504 OA
ATOM     15  H   UNL     1      19.727  14.940 -13.017  1.00  0.00     0.293 HD
ENDBRANCH   6  14
TORSDOF 4
ENDMDL
MODEL 3
REMARK VINA RESULT:    -5.738      1.464      6.006
REMARK INTER + INTRA:          -6.877
REMARK INTER:                  -6.745
REMARK INTRA:                  -0.133
REMARK UNBOUND:                -0.132
REMARK SMILES O=C([O-])C=Cc1ccc(O)c(O)c1
REMARK SMILES IDX 6 1 13 2 7 3 11 4 8 5 9 6 5 7 4 8 2 9 1 10 3 11 12 12 10 14
REMARK H PARENT 12 13 10 15
REMARK Flexibility Score: inf
ROOT
ATOM      1  C   UNL     1      15.502  22.264 -12.859  1.00  0.00    -0.022 A 
ATOM      2  C   UNL     1      14.334  21.943 -12.147  1.00  0.00     0.058 A 
ATOM      3  C   UNL     1      15.504  23.406 -13.684  1.00  0.00     0.012 A 
ATOM      4  C   UNL     1      13.181  22.727 -12.271  1.00  0.00     0.157 A 
ATOM      5  C   UNL     1      14.353  24.188 -13.810  1.00  0.00     0.051 A 
ATOM      6  C   UNL     1      13.188  23.854 -13.109  1.00  0.00     0.157 A 
ENDROOT
BRANCH   1   7
ATOM      7  C   UNL     1      16.700  21.405 -12.681  1.00  0.00     0.010 C 
ATOM      8  C   UNL     1      16.650  20.139 -12.243  1.00  0.00     0.025 C 
BRANCH   8   9
ATOM      9  C   UNL     1      17.866  19.328 -12.071  1.00  0.00     0.064 C 
ATOM     10  O   UNL     1      18.703  19.258 -13.009  1.00  0.00    -0.545 OA
ATOM     11  O   UNL     1      18.109  18.641 -10.888  1.00  0.00    -0.545 OA
ENDBRANCH   8   9
ENDBRANCH   1   7
BRANCH   4  12
ATOM     12  O   UNL     1      12.039  22.368 -11.555  1.00  0.00    -0.504 OA
ATOM     13  H   UNL     1      11.405  21.646 -11.878  1.00  0.00     0.293 HD
ENDBRANCH   4  12
BRANCH   6  14
ATOM     14  O   UNL     1      12.042  24.636 -13.238  1.00  0.00    -0.504 OA
ATOM     15  H   UNL     1      11.804  25.344 -12.553  1.00  0.00     0.293 HD
ENDBRANCH   6  14
TORSDOF 4
ENDMDL
MODEL 4
REMARK VINA RESULT:    -5.444     12.253     14.265
REMARK INTER + INTRA:          -6.531
REMARK INTER:                  -6.399
REMARK INTRA:                  -0.132
REMARK UNBOUND:                -0.132
REMARK SMILES O=C([O-])C=Cc1ccc(O)c(O)c1
REMARK SMILES IDX 6 1 13 2 7 3 11 4 8 5 9 6 5 7 4 8 2 9 1 10 3 11 12 12 10 14
REMARK H PARENT 12 13 10 15
REMARK Flexibility Score: inf
ROOT
ATOM      1  C   UNL     1       4.815  15.547  -7.561  1.00  0.00    -0.022 A 
ATOM      2  C   UNL     1       6.177  15.874  -7.671  1.00  0.00     0.058 A 
ATOM      3  C   UNL     1       4.017  16.260  -6.644  1.00  0.00     0.012 A 
ATOM      4  C   UNL     1       6.742  16.873  -6.869  1.00  0.00     0.157 A 
ATOM      5  C   UNL     1       4.579  17.256  -5.842  1.00  0.00     0.051 A 
ATOM      6  C   UNL     1       5.941  17.566  -5.948  1.00  0.00     0.157 A 
ENDROOT
BRANCH   1   7
ATOM      7  C   UNL     1       4.266  14.488  -8.443  1.00  0.00     0.010 C 
ATOM      8  C   UNL     1       4.726  14.233  -9.677  1.00  0.00     0.025 C 
BRANCH   8   9
ATOM      9  C   UNL     1       4.141  13.180 -10.522  1.00  0.00     0.064 C 
ATOM     10  O   UNL     1       3.875  12.057 -10.018  1.00  0.00    -0.545 OA
ATOM     11  O   UNL     1       3.875  13.404 -11.867  1.00  0.00    -0.545 OA
ENDBRANCH   8   9
ENDBRANCH   1   7
BRANCH   4  12
ATOM     12  O   UNL     1       8.100  17.160  -7.003  1.00  0.00    -0.504 OA
ATOM     13  H   UNL     1       8.740  17.115  -6.218  1.00  0.00     0.293 HD
ENDBRANCH   4  12
BRANCH   6  14
ATOM     14  O   UNL     1       6.498  18.560  -5.145  1.00  0.00    -0.504 OA
ATOM     15  H   UNL     1       7.126  19.259  -5.526  1.00  0.00     0.293 HD
ENDBRANCH   6  14
TORSDOF 4
ENDMDL
MODEL 5
REMARK VINA RESULT:    -5.357      1.787      2.697
REMARK INTER + INTRA:          -6.429
REMARK INTER:                  -6.297
REMARK INTRA:                  -0.132
REMARK UNBOUND:                -0.132
REMARK SMILES O=C([O-])C=Cc1ccc(O)c(O)c1
REMARK SMILES IDX 6 1 13 2 7 3 11 4 8 5 9 6 5 7 4 8 2 9 1 10 3 11 12 12 10 14
REMARK H PARENT 12 13 10 15
REMARK Flexibility Score: inf
ROOT
ATOM      1  C   UNL     1      18.296  19.086 -12.313  1.00  0.00    -0.022 A 
ATOM      2  C   UNL     1      18.501  18.124 -13.316  1.00  0.00     0.058 A 
ATOM      3  C   UNL     1      18.994  18.957 -11.095  1.00  0.00     0.012 A 
ATOM      4  C   UNL     1      19.363  17.041 -13.106  1.00  0.00     0.157 A 
ATOM      5  C   UNL     1      19.854  17.877 -10.884  1.00  0.00     0.051 A 
ATOM      6  C   UNL     1      20.042  16.914 -11.884  1.00  0.00     0.157 A 
ENDROOT
BRANCH   1   7
ATOM      7  C   UNL     1      17.380  20.219 -12.593  1.00  0.00     0.010 C 
ATOM      8  C   UNL     1      16.249  20.449 -11.910  1.00  0.00     0.025 C 
BRANCH   8   9
ATOM      9  C   UNL     1      15.364  21.580 -12.231  1.00  0.00     0.064 C 
ATOM     10  O   UNL     1      15.771  22.486 -13.004  1.00  0.00    -0.545 OA
ATOM     11  O   UNL     1      14.084  21.664 -11.697  1.00  0.00    -0.545 OA
ENDBRANCH   8   9
ENDBRANCH   1   7
BRANCH   4  12
ATOM     12  O   UNL     1      19.531  16.103 -14.125  1.00  0.00    -0.504 OA
ATOM     13  H   UNL     1      20.084  15.263 -13.997  1.00  0.00     0.293 HD
ENDBRANCH   4  12
BRANCH   6  14
ATOM     14  O   UNL     1      20.900  15.837 -11.669  1.00  0.00    -0.504 OA
ATOM     15  H   UNL     1      20.712  14.923 -12.062  1.00  0.00     0.293 HD
ENDBRANCH   6  14
TORSDOF 4
ENDMDL
MODEL 6
REMARK VINA RESULT:    -5.351     10.951     13.147
REMARK INTER + INTRA:          -6.422
REMARK INTER:                  -6.285
REMARK INTRA:                  -0.137
REMARK UNBOUND:                -0.132
REMARK SMILES O=C([O-])C=Cc1ccc(O)c(O)c1
REMARK SMILES IDX 6 1 13 2 7 3 11 4 8 5 9 6 5 7 4 8 2 9 1 10 3 11 12 12 10 14
REMARK H PARENT 12 13 10 15
REMARK Flexibility Score: inf
ROOT
ATOM      1  C   UNL     1       6.940  15.803  -8.076  1.00  0.00    -0.022 A 
ATOM      2  C   UNL     1       7.083  17.013  -7.378  1.00  0.00     0.058 A 
ATOM      3  C   UNL     1       5.745  15.071  -7.931  1.00  0.00     0.012 A 
ATOM      4  C   UNL     1       6.069  17.477  -6.532  1.00  0.00     0.157 A 
ATOM      5  C   UNL     1       4.732  15.531  -7.086  1.00  0.00     0.051 A 
ATOM      6  C   UNL     1       4.888  16.732  -6.382  1.00  0.00     0.157 A 
ENDROOT
BRANCH   1   7
ATOM      7  C   UNL     1       8.042  15.364  -8.969  1.00  0.00     0.010 C 
ATOM      8  C   UNL     1       8.205  14.100  -9.385  1.00  0.00     0.025 C 
BRANCH   8   9
ATOM      9  C   UNL     1       9.321  13.708 -10.261  1.00  0.00     0.064 C 
ATOM     10  O   UNL     1       9.096  12.985 -11.266  1.00  0.00    -0.545 OA
ATOM     11  O   UNL     1      10.620  14.127  -9.999  1.00  0.00    -0.545 OA
ENDBRANCH   8   9
ENDBRANCH   1   7
BRANCH   4  12
ATOM     12  O   UNL     1       6.254  18.679  -5.849  1.00  0.00    -0.504 OA
ATOM     13  H   UNL     1       5.500  19.343  -5.714  1.00  0.00     0.293 HD
ENDBRANCH   4  12
BRANCH   6  14
ATOM     14  O   UNL     1       3.875  17.187  -5.540  1.00  0.00    -0.504 OA
ATOM     15  H   UNL     1       4.037  17.340  -4.551  1.00  0.00     0.293 HD
ENDBRANCH   6  14
TORSDOF 4
ENDMDL
MODEL 7
REMARK VINA RESULT:    -5.276     10.978     13.103
REMARK INTER + INTRA:          -6.334
REMARK INTER:                  -6.203
REMARK INTRA:                  -0.131
REMARK UNBOUND:                -0.132
REMARK SMILES O=C([O-])C=Cc1ccc(O)c(O)c1
REMARK SMILES IDX 6 1 13 2 7 3 11 4 8 5 9 6 5 7 4 8 2 9 1 10 3 11 12 12 10 14
REMARK H PARENT 12 13 10 15
REMARK Flexibility Score: inf
ROOT
ATOM      1  C   UNL     1       7.199  15.850  -8.298  1.00  0.00    -0.022 A 
ATOM      2  C   UNL     1       6.056  15.056  -8.110  1.00  0.00     0.058 A 
ATOM      3  C   UNL     1       7.295  17.078  -7.613  1.00  0.00     0.012 A 
ATOM      4  C   UNL     1       5.015  15.484  -7.277  1.00  0.00     0.157 A 
ATOM      5  C   UNL     1       6.257  17.506  -6.782  1.00  0.00     0.051 A 
ATOM      6  C   UNL     1       5.114  16.716  -6.611  1.00  0.00     0.157 A 
ENDROOT
BRANCH   1   7
ATOM      7  C   UNL     1       8.277  15.344  -9.184  1.00  0.00     0.010 C 
ATOM      8  C   UNL     1       8.534  14.041  -9.375  1.00  0.00     0.025 C 
BRANCH   8   9
ATOM      9  C   UNL     1       9.622  13.585 -10.254  1.00  0.00     0.064 C 
ATOM     10  O   UNL     1       9.375  12.755 -11.167  1.00  0.00    -0.545 OA
ATOM     11  O   UNL     1      10.919  14.057 -10.094  1.00  0.00    -0.545 OA
ENDBRANCH   8   9
ENDBRANCH   1   7
BRANCH   4  12
ATOM     12  O   UNL     1       3.892  14.670  -7.124  1.00  0.00    -0.504 OA
ATOM     13  H   UNL     1       3.291  14.729  -6.311  1.00  0.00     0.293 HD
ENDBRANCH   4  12
BRANCH   6  14
ATOM     14  O   UNL     1       4.081  17.147  -5.781  1.00  0.00    -0.504 OA
ATOM     15  H   UNL     1       3.112  17.111  -6.077  1.00  0.00     0.293 HD
ENDBRANCH   6  14
TORSDOF 4
ENDMDL
MODEL 8
REMARK VINA RESULT:    -5.254      2.566      6.231
REMARK INTER + INTRA:          -6.308
REMARK INTER:                  -6.179
REMARK INTRA:                  -0.129
REMARK UNBOUND:                -0.132
REMARK SMILES O=C([O-])C=Cc1ccc(O)c(O)c1
REMARK SMILES IDX 6 1 13 2 7 3 11 4 8 5 9 6 5 7 4 8 2 9 1 10 3 11 12 12 10 14
REMARK H PARENT 12 13 10 15
REMARK Flexibility Score: inf
ROOT
ATOM      1  C   UNL     1      19.111  18.685 -12.238  1.00  0.00    -0.022 A 
ATOM      2  C   UNL     1      17.877  18.969 -11.630  1.00  0.00     0.058 A 
ATOM      3  C   UNL     1      19.532  19.478 -13.323  1.00  0.00     0.012 A 
ATOM      4  C   UNL     1      17.064  20.004 -12.106  1.00  0.00     0.157 A 
ATOM      5  C   UNL     1      18.722  20.512 -13.800  1.00  0.00     0.051 A 
ATOM      6  C   UNL     1      17.486  20.779 -13.198  1.00  0.00     0.157 A 
ENDROOT
BRANCH   1   7
ATOM      7  C   UNL     1      19.937  17.583 -11.686  1.00  0.00     0.010 C 
ATOM      8  C   UNL     1      20.557  17.639 -10.498  1.00  0.00     0.025 C 
BRANCH   8   9
ATOM      9  C   UNL     1      21.377  16.526  -9.996  1.00  0.00     0.064 C 
ATOM     10  O   UNL     1      21.974  15.777 -10.813  1.00  0.00    -0.545 OA
ATOM     11  O   UNL     1      21.507  16.288  -8.633  1.00  0.00    -0.545 OA
ENDBRANCH   8   9
ENDBRANCH   1   7
BRANCH   4  12
ATOM     12  O   UNL     1      15.841  20.247 -11.480  1.00  0.00    -0.504 OA
ATOM     13  H   UNL     1      15.059  19.607 -11.560  1.00  0.00     0.293 HD
ENDBRANCH   4  12
BRANCH   6  14
ATOM     14  O   UNL     1      16.681  21.810 -13.677  1.00  0.00    -0.504 OA
ATOM     15  H   UNL     1      16.945  22.782 -13.572  1.00  0.00     0.293 HD
ENDBRANCH   6  14
TORSDOF 4
ENDMDL
MODEL 9
REMARK VINA RESULT:    -4.964      1.548      6.317
REMARK INTER + INTRA:          -5.968
REMARK INTER:                  -5.828
REMARK INTRA:                  -0.140
REMARK UNBOUND:                -0.132
REMARK SMILES O=C([O-])C=Cc1ccc(O)c(O)c1
REMARK SMILES IDX 6 1 13 2 7 3 11 4 8 5 9 6 5 7 4 8 2 9 1 10 3 11 12 12 10 14
REMARK H PARENT 12 13 10 15
REMARK Flexibility Score: inf
ROOT
ATOM      1  C   UNL     1      15.392  22.170 -12.646  1.00  0.00    -0.022 A 
ATOM      2  C   UNL     1      15.466  23.477 -13.156  1.00  0.00     0.058 A 
ATOM      3  C   UNL     1      14.141  21.672 -12.231  1.00  0.00     0.012 A 
ATOM      4  C   UNL     1      14.324  24.283 -13.230  1.00  0.00     0.157 A 
ATOM      5  C   UNL     1      13.001  22.476 -12.303  1.00  0.00     0.051 A 
ATOM      6  C   UNL     1      13.085  23.782 -12.799  1.00  0.00     0.157 A 
ENDROOT
BRANCH   1   7
ATOM      7  C   UNL     1      16.632  21.355 -12.601  1.00  0.00     0.010 C 
ATOM      8  C   UNL     1      16.711  20.151 -12.015  1.00  0.00     0.025 C 
BRANCH   8   9
ATOM      9  C   UNL     1      17.966  19.383 -11.984  1.00  0.00     0.064 C 
ATOM     10  O   UNL     1      18.132  18.503 -11.099  1.00  0.00    -0.545 OA
ATOM     11  O   UNL     1      18.969  19.611 -12.917  1.00  0.00    -0.545 OA
ENDBRANCH   8   9
ENDBRANCH   1   7
BRANCH   4  12
ATOM     12  O   UNL     1      14.442  25.579 -13.735  1.00  0.00    -0.504 OA
ATOM     13  H   UNL     1      13.661  26.224 -13.749  1.00  0.00     0.293 HD
ENDBRANCH   4  12
BRANCH   6  14
ATOM     14  O   UNL     1      11.945  24.581 -12.869  1.00  0.00    -0.504 OA
ATOM     15  H   UNL     1      11.109  24.359 -12.341  1.00  0.00     0.293 HD
ENDBRANCH   6  14
TORSDOF 4
ENDMDL
