MODEL 1
REMARK VINA RESULT:    -3.145      0.000      0.000
REMARK INTER + INTRA:          -6.974
REMARK INTER:                  -6.086
REMARK INTRA:                  -0.888
REMARK UNBOUND:                -0.888
REMARK SMILES CCCCCCCCCCCCCCCCCC(=O)[O-]
REMARK SMILES IDX 10 1 11 2 12 3 13 4 14 5 15 6 16 7 17 8 18 9 19 10 20 11
REMARK SMILES IDX 9 12 8 13 7 14 6 15 5 16 4 17 3 18 2 19 1 20
REMARK H PARENT
REMARK Flexibility Score: inf
ROOT
ATOM      1  C   UNL     1     -27.213   8.516  -5.015  1.00  0.00     0.000 C 
ENDROOT
BRANCH   1   2
ATOM      2  C   UNL     1     -28.595   8.385  -5.679  1.00  0.00     0.000 C 
BRANCH   2   3
ATOM      3  C   UNL     1     -29.730   8.203  -4.661  1.00  0.00     0.000 C 
BRANCH   3   4
ATOM      4  C   UNL     1     -31.100   8.359  -5.333  1.00  0.00     0.000 C 
BRANCH   4   5
ATOM      5  C   UNL     1     -30.981   8.258  -6.858  1.00  0.00     0.000 C 
BRANCH   5   6
ATOM      6  C   UNL     1     -32.116   9.022  -7.553  1.00  0.00     0.000 C 
BRANCH   6   7
ATOM      7  C   UNL     1     -32.778   8.222  -8.689  1.00  0.00     0.006 C 
BRANCH   7   8
ATOM      8  C   UNL     1     -34.035   7.447  -8.257  1.00  0.00     0.053 C 
BRANCH   8   9
ATOM      9  C   UNL     1     -34.027   6.026  -8.735  1.00  0.00     0.041 C 
ATOM     10  O   UNL     1     -34.115   5.081  -7.909  1.00  0.00    -0.550 OA
ATOM     11  O   UNL     1     -33.958   5.746 -10.095  1.00  0.00    -0.550 OA
ENDBRANCH   8   9
ENDBRANCH   7   8
ENDBRANCH   6   7
ENDBRANCH   5   6
ENDBRANCH   4   5
ENDBRANCH   3   4
ENDBRANCH   2   3
ENDBRANCH   1   2
BRANCH   1  12
ATOM     12  C   UNL     1     -27.049   9.742  -4.093  1.00  0.00     0.000 C 
BRANCH  12  13
ATOM     13  C   UNL     1     -26.960  11.100  -4.817  1.00  0.00    -0.000 C 
BRANCH  13  14
ATOM     14  C   UNL     1     -26.113  11.102  -6.102  1.00  0.00    -0.000 C 
BRANCH  14  15
ATOM     15  C   UNL     1     -24.601  11.125  -5.819  1.00  0.00    -0.000 C 
BRANCH  15  16
ATOM     16  C   UNL     1     -24.281  11.092  -4.316  1.00  0.00    -0.000 C 
BRANCH  16  17
ATOM     17  C   UNL     1     -23.189  10.070  -3.963  1.00  0.00    -0.000 C 
BRANCH  17  18
ATOM     18  C   UNL     1     -23.770   8.649  -3.891  1.00  0.00    -0.000 C 
BRANCH  18  19
ATOM     19  C   UNL     1     -22.706   7.564  -4.114  1.00  0.00    -0.003 C 
ATOM     20  C   UNL     1     -21.875   7.802  -5.374  1.00  0.00     0.004 C 
ENDBRANCH  18  19
ENDBRANCH  17  18
ENDBRANCH  16  17
ENDBRANCH  15  16
ENDBRANCH  14  15
ENDBRANCH  13  14
ENDBRANCH  12  13
ENDBRANCH   1  12
TORSDOF 16
ENDMDL
MODEL 2
REMARK VINA RESULT:    -2.884      0.925      1.334
REMARK INTER + INTRA:          -6.470
REMARK INTER:                  -4.942
REMARK INTRA:                  -1.529
REMARK UNBOUND:                -0.888
REMARK SMILES CCCCCCCCCCCCCCCCCC(=O)[O-]
REMARK SMILES IDX 10 1 11 2 12 3 13 4 14 5 15 6 16 7 17 8 18 9 19 10 20 11
REMARK SMILES IDX 9 12 8 13 7 14 6 15 5 16 4 17 3 18 2 19 1 20
REMARK H PARENT
REMARK Flexibility Score: inf
ROOT
ATOM      1  C   UNL     1     -26.936   8.331  -5.590  1.00  0.00     0.000 C 
ENDROOT
BRANCH   1   2
ATOM      2  C   UNL     1     -28.233   7.649  -5.122  1.00  0.00     0.000 C 
BRANCH   2   3
ATOM      3  C   UNL     1     -29.111   8.568  -4.260  1.00  0.00     0.000 C 
BRANCH   3   4
ATOM      4  C   UNL     1     -30.472   8.810  -4.926  1.00  0.00     0.000 C 
BRANCH   4   5
ATOM      5  C   UNL     1     -30.694   7.840  -6.092  1.00  0.00     0.000 C 
BRANCH   5   6
ATOM      6  C   UNL     1     -31.191   8.584  -7.340  1.00  0.00     0.000 C 
BRANCH   6   7
ATOM      7  C   UNL     1     -32.714   8.810  -7.343  1.00  0.00     0.006 C 
BRANCH   7   8
ATOM      8  C   UNL     1     -33.413   8.343  -8.632  1.00  0.00     0.053 C 
BRANCH   8   9
ATOM      9  C   UNL     1     -33.682   6.869  -8.640  1.00  0.00     0.041 C 
ATOM     10  O   UNL     1     -33.874   6.255  -7.558  1.00  0.00    -0.550 OA
ATOM     11  O   UNL     1     -33.756   6.179  -9.845  1.00  0.00    -0.550 OA
ENDBRANCH   8   9
ENDBRANCH   7   8
ENDBRANCH   6   7
ENDBRANCH   5   6
ENDBRANCH   4   5
ENDBRANCH   3   4
ENDBRANCH   2   3
ENDBRANCH   1   2
BRANCH   1  12
ATOM     12  C   UNL     1     -27.112   9.770  -6.118  1.00  0.00     0.000 C 
BRANCH  12  13
ATOM     13  C   UNL     1     -26.652  10.883  -5.156  1.00  0.00    -0.000 C 
BRANCH  13  14
ATOM     14  C   UNL     1     -25.639  10.443  -4.083  1.00  0.00    -0.000 C 
BRANCH  14  15
ATOM     15  C   UNL     1     -24.226  10.996  -4.334  1.00  0.00    -0.000 C 
BRANCH  15  16
ATOM     16  C   UNL     1     -23.126   9.977  -4.001  1.00  0.00    -0.000 C 
BRANCH  16  17
ATOM     17  C   UNL     1     -23.663   8.542  -3.875  1.00  0.00    -0.000 C 
BRANCH  17  18
ATOM     18  C   UNL     1     -23.356   7.729  -5.142  1.00  0.00    -0.000 C 
BRANCH  18  19
ATOM     19  C   UNL     1     -21.856   7.691  -5.470  1.00  0.00    -0.003 C 
ATOM     20  C   UNL     1     -21.363   6.289  -5.826  1.00  0.00     0.004 C 
ENDBRANCH  18  19
ENDBRANCH  17  18
ENDBRANCH  16  17
ENDBRANCH  15  16
ENDBRANCH  14  15
ENDBRANCH  13  14
ENDBRANCH  12  13
ENDBRANCH   1  12
TORSDOF 16
ENDMDL
MODEL 3
REMARK VINA RESULT:    -2.495      1.063      1.617
REMARK INTER + INTRA:          -5.717
REMARK INTER:                  -4.783
REMARK INTRA:                  -0.934
REMARK UNBOUND:                -0.888
REMARK SMILES CCCCCCCCCCCCCCCCCC(=O)[O-]
REMARK SMILES IDX 10 1 11 2 12 3 13 4 14 5 15 6 16 7 17 8 18 9 19 10 20 11
REMARK SMILES IDX 9 12 8 13 7 14 6 15 5 16 4 17 3 18 2 19 1 20
REMARK H PARENT
REMARK Flexibility Score: inf
ROOT
ATOM      1  C   UNL     1     -26.980   9.675  -3.970  1.00  0.00     0.000 C 
ENDROOT
BRANCH   1   2
ATOM      2  C   UNL     1     -27.936   8.787  -4.785  1.00  0.00     0.000 C 
BRANCH   2   3
ATOM      3  C   UNL     1     -29.382   8.842  -4.273  1.00  0.00     0.000 C 
BRANCH   3   4
ATOM      4  C   UNL     1     -30.297   7.943  -5.115  1.00  0.00     0.000 C 
BRANCH   4   5
ATOM      5  C   UNL     1     -30.448   8.490  -6.539  1.00  0.00     0.000 C 
BRANCH   5   6
ATOM      6  C   UNL     1     -31.928   8.604  -6.932  1.00  0.00     0.000 C 
BRANCH   6   7
ATOM      7  C   UNL     1     -32.216   8.101  -8.358  1.00  0.00     0.006 C 
BRANCH   7   8
ATOM      8  C   UNL     1     -33.700   7.796  -8.625  1.00  0.00     0.053 C 
BRANCH   8   9
ATOM      9  C   UNL     1     -33.945   6.348  -8.928  1.00  0.00     0.041 C 
ATOM     10  O   UNL     1     -34.066   5.518  -7.990  1.00  0.00    -0.550 OA
ATOM     11  O   UNL     1     -34.075   5.922 -10.245  1.00  0.00    -0.550 OA
ENDBRANCH   8   9
ENDBRANCH   7   8
ENDBRANCH   6   7
ENDBRANCH   5   6
ENDBRANCH   4   5
ENDBRANCH   3   4
ENDBRANCH   2   3
ENDBRANCH   1   2
BRANCH   1  12
ATOM     12  C   UNL     1     -26.709  11.067  -4.577  1.00  0.00     0.000 C 
BRANCH  12  13
ATOM     13  C   UNL     1     -25.869  11.067  -5.870  1.00  0.00    -0.000 C 
BRANCH  13  14
ATOM     14  C   UNL     1     -24.345  11.125  -5.659  1.00  0.00    -0.000 C 
BRANCH  14  15
ATOM     15  C   UNL     1     -23.929  10.788  -4.217  1.00  0.00    -0.000 C 
BRANCH  15  16
ATOM     16  C   UNL     1     -23.120   9.484  -4.125  1.00  0.00    -0.000 C 
BRANCH  16  17
ATOM     17  C   UNL     1     -23.941   8.247  -4.520  1.00  0.00    -0.000 C 
BRANCH  17  18
ATOM     18  C   UNL     1     -23.052   7.193  -5.198  1.00  0.00    -0.000 C 
BRANCH  18  19
ATOM     19  C   UNL     1     -23.866   6.069  -5.856  1.00  0.00    -0.003 C 
ATOM     20  C   UNL     1     -25.373   6.318  -5.798  1.00  0.00     0.004 C 
ENDBRANCH  18  19
ENDBRANCH  17  18
ENDBRANCH  16  17
ENDBRANCH  15  16
ENDBRANCH  14  15
ENDBRANCH  13  14
ENDBRANCH  12  13
ENDBRANCH   1  12
TORSDOF 16
ENDMDL
MODEL 4
REMARK VINA RESULT:    -1.874      3.084      8.353
REMARK INTER + INTRA:          -4.516
REMARK INTER:                  -3.610
REMARK INTRA:                  -0.906
REMARK UNBOUND:                -0.888
REMARK SMILES CCCCCCCCCCCCCCCCCC(=O)[O-]
REMARK SMILES IDX 10 1 11 2 12 3 13 4 14 5 15 6 16 7 17 8 18 9 19 10 20 11
REMARK SMILES IDX 9 12 8 13 7 14 6 15 5 16 4 17 3 18 2 19 1 20
REMARK H PARENT
REMARK Flexibility Score: inf
ROOT
ATOM      1  C   UNL     1     -26.362   9.897  -6.443  1.00  0.00     0.000 C 
ENDROOT
BRANCH   1   2
ATOM      2  C   UNL     1     -25.329  10.946  -5.994  1.00  0.00     0.000 C 
BRANCH   2   3
ATOM      3  C   UNL     1     -25.180  11.020  -4.468  1.00  0.00     0.000 C 
BRANCH   3   4
ATOM      4  C   UNL     1     -24.702   9.678  -3.898  1.00  0.00     0.000 C 
BRANCH   4   5
ATOM      5  C   UNL     1     -23.170   9.604  -3.876  1.00  0.00     0.000 C 
BRANCH   5   6
ATOM      6  C   UNL     1     -22.683   8.182  -4.190  1.00  0.00     0.000 C 
BRANCH   6   7
ATOM      7  C   UNL     1     -22.921   7.771  -5.654  1.00  0.00     0.006 C 
BRANCH   7   8
ATOM      8  C   UNL     1     -23.273   6.284  -5.835  1.00  0.00     0.053 C 
BRANCH   8   9
ATOM      9  C   UNL     1     -24.751   6.047  -5.910  1.00  0.00     0.041 C 
ATOM     10  O   UNL     1     -25.555   6.978  -5.642  1.00  0.00    -0.550 OA
ATOM     11  O   UNL     1     -25.242   4.810  -6.310  1.00  0.00    -0.550 OA
ENDBRANCH   8   9
ENDBRANCH   7   8
ENDBRANCH   6   7
ENDBRANCH   5   6
ENDBRANCH   4   5
ENDBRANCH   3   4
ENDBRANCH   2   3
ENDBRANCH   1   2
BRANCH   1  12
ATOM     12  C   UNL     1     -27.714   9.958  -5.704  1.00  0.00     0.000 C 
BRANCH  12  13
ATOM     13  C   UNL     1     -28.057   8.715  -4.859  1.00  0.00    -0.000 C 
BRANCH  13  14
ATOM     14  C   UNL     1     -29.136   7.794  -5.459  1.00  0.00    -0.000 C 
BRANCH  14  15
ATOM     15  C   UNL     1     -30.494   8.497  -5.627  1.00  0.00    -0.000 C 
BRANCH  15  16
ATOM     16  C   UNL     1     -31.346   7.875  -6.744  1.00  0.00    -0.000 C 
BRANCH  16  17
ATOM     17  C   UNL     1     -31.896   8.922  -7.726  1.00  0.00    -0.000 C 
BRANCH  17  18
ATOM     18  C   UNL     1     -33.107   8.371  -8.493  1.00  0.00    -0.000 C 
BRANCH  18  19
ATOM     19  C   UNL     1     -33.529   6.976  -8.006  1.00  0.00    -0.003 C 
ATOM     20  C   UNL     1     -33.806   6.008  -9.156  1.00  0.00     0.004 C 
ENDBRANCH  18  19
ENDBRANCH  17  18
ENDBRANCH  16  17
ENDBRANCH  15  16
ENDBRANCH  14  15
ENDBRANCH  13  14
ENDBRANCH  12  13
ENDBRANCH   1  12
TORSDOF 16
ENDMDL
MODEL 5
REMARK VINA RESULT:    -1.695      2.982      7.852
REMARK INTER + INTRA:          -4.168
REMARK INTER:                  -3.052
REMARK INTRA:                  -1.116
REMARK UNBOUND:                -0.888
REMARK SMILES CCCCCCCCCCCCCCCCCC(=O)[O-]
REMARK SMILES IDX 10 1 11 2 12 3 13 4 14 5 15 6 16 7 17 8 18 9 19 10 20 11
REMARK SMILES IDX 9 12 8 13 7 14 6 15 5 16 4 17 3 18 2 19 1 20
REMARK H PARENT
REMARK Flexibility Score: inf
ROOT
ATOM      1  C   UNL     1     -25.925  10.885  -6.011  1.00  0.00     0.000 C 
ENDROOT
BRANCH   1   2
ATOM      2  C   UNL     1     -24.415  11.014  -5.744  1.00  0.00     0.000 C 
BRANCH   2   3
ATOM      3  C   UNL     1     -24.059  10.868  -4.258  1.00  0.00     0.000 C 
BRANCH   3   4
ATOM      4  C   UNL     1     -23.893   9.391  -3.876  1.00  0.00     0.000 C 
BRANCH   4   5
ATOM      5  C   UNL     1     -22.464   8.908  -4.147  1.00  0.00     0.000 C 
BRANCH   5   6
ATOM      6  C   UNL     1     -22.449   7.793  -5.202  1.00  0.00     0.000 C 
BRANCH   6   7
ATOM      7  C   UNL     1     -23.857   7.302  -5.583  1.00  0.00     0.006 C 
BRANCH   7   8
ATOM      8  C   UNL     1     -23.909   5.826  -6.015  1.00  0.00     0.053 C 
BRANCH   8   9
ATOM      9  C   UNL     1     -25.305   5.282  -6.041  1.00  0.00     0.041 C 
ATOM     10  O   UNL     1     -26.283   6.040  -5.814  1.00  0.00    -0.550 OA
ATOM     11  O   UNL     1     -25.528   3.945  -6.351  1.00  0.00    -0.550 OA
ENDBRANCH   8   9
ENDBRANCH   7   8
ENDBRANCH   6   7
ENDBRANCH   5   6
ENDBRANCH   4   5
ENDBRANCH   3   4
ENDBRANCH   2   3
ENDBRANCH   1   2
BRANCH   1  12
ATOM     12  C   UNL     1     -26.824  11.105  -4.777  1.00  0.00     0.000 C 
BRANCH  12  13
ATOM     13  C   UNL     1     -27.516   9.838  -4.235  1.00  0.00    -0.000 C 
BRANCH  13  14
ATOM     14  C   UNL     1     -27.710   8.708  -5.263  1.00  0.00    -0.000 C 
BRANCH  14  15
ATOM     15  C   UNL     1     -28.956   7.852  -4.979  1.00  0.00    -0.000 C 
BRANCH  15  16
ATOM     16  C   UNL     1     -30.260   8.552  -5.391  1.00  0.00    -0.000 C 
BRANCH  16  17
ATOM     17  C   UNL     1     -30.788   8.073  -6.753  1.00  0.00    -0.000 C 
BRANCH  17  18
ATOM     18  C   UNL     1     -31.761   9.098  -7.355  1.00  0.00    -0.000 C 
BRANCH  18  19
ATOM     19  C   UNL     1     -32.823   8.446  -8.254  1.00  0.00    -0.003 C 
ATOM     20  C   UNL     1     -33.086   6.985  -7.893  1.00  0.00     0.004 C 
ENDBRANCH  18  19
ENDBRANCH  17  18
ENDBRANCH  16  17
ENDBRANCH  15  16
ENDBRANCH  14  15
ENDBRANCH  13  14
ENDBRANCH  12  13
ENDBRANCH   1  12
TORSDOF 16
ENDMDL
MODEL 6
REMARK VINA RESULT:    -1.244      4.024      9.324
REMARK INTER + INTRA:          -3.296
REMARK INTER:                  -2.237
REMARK INTRA:                  -1.059
REMARK UNBOUND:                -0.888
REMARK SMILES CCCCCCCCCCCCCCCCCC(=O)[O-]
REMARK SMILES IDX 10 1 11 2 12 3 13 4 14 5 15 6 16 7 17 8 18 9 19 10 20 11
REMARK SMILES IDX 9 12 8 13 7 14 6 15 5 16 4 17 3 18 2 19 1 20
REMARK H PARENT
REMARK Flexibility Score: inf
ROOT
ATOM      1  C   UNL     1     -29.031   8.279  -5.601  1.00  0.00     0.000 C 
ENDROOT
BRANCH   1   2
ATOM      2  C   UNL     1     -28.870   9.240  -4.409  1.00  0.00     0.000 C 
BRANCH   2   3
ATOM      3  C   UNL     1     -27.409   9.405  -3.970  1.00  0.00     0.000 C 
BRANCH   3   4
ATOM      4  C   UNL     1     -26.449   9.090  -5.126  1.00  0.00     0.000 C 
BRANCH   4   5
ATOM      5  C   UNL     1     -25.506  10.268  -5.395  1.00  0.00     0.000 C 
BRANCH   5   6
ATOM      6  C   UNL     1     -24.395  10.338  -4.337  1.00  0.00     0.000 C 
BRANCH   6   7
ATOM      7  C   UNL     1     -23.844   8.955  -3.948  1.00  0.00     0.006 C 
BRANCH   7   8
ATOM      8  C   UNL     1     -22.437   8.664  -4.501  1.00  0.00     0.053 C 
BRANCH   8   9
ATOM      9  C   UNL     1     -22.379   7.388  -5.284  1.00  0.00     0.041 C 
ATOM     10  O   UNL     1     -23.419   6.701  -5.453  1.00  0.00    -0.550 OA
ATOM     11  O   UNL     1     -21.182   6.975  -5.859  1.00  0.00    -0.550 OA
ENDBRANCH   8   9
ENDBRANCH   7   8
ENDBRANCH   6   7
ENDBRANCH   5   6
ENDBRANCH   4   5
ENDBRANCH   3   4
ENDBRANCH   2   3
ENDBRANCH   1   2
BRANCH   1  12
ATOM     12  C   UNL     1     -30.462   7.747  -5.818  1.00  0.00     0.000 C 
BRANCH  12  13
ATOM     13  C   UNL     1     -31.468   8.776  -6.372  1.00  0.00    -0.000 C 
BRANCH  13  14
ATOM     14  C   UNL     1     -31.486   8.913  -7.905  1.00  0.00    -0.000 C 
BRANCH  14  15
ATOM     15  C   UNL     1     -32.819   8.465  -8.528  1.00  0.00    -0.000 C 
BRANCH  15  16
ATOM     16  C   UNL     1     -33.695   7.675  -7.543  1.00  0.00    -0.000 C 
BRANCH  16  17
ATOM     17  C   UNL     1     -34.123   6.306  -8.095  1.00  0.00    -0.000 C 
BRANCH  17  18
ATOM     18  C   UNL     1     -33.144   5.819  -9.174  1.00  0.00    -0.000 C 
BRANCH  18  19
ATOM     19  C   UNL     1     -33.849   5.460 -10.491  1.00  0.00    -0.003 C 
ATOM     20  C   UNL     1     -32.906   5.492 -11.694  1.00  0.00     0.004 C 
ENDBRANCH  18  19
ENDBRANCH  17  18
ENDBRANCH  16  17
ENDBRANCH  15  16
ENDBRANCH  14  15
ENDBRANCH  13  14
ENDBRANCH  12  13
ENDBRANCH   1  12
TORSDOF 16
ENDMDL
MODEL 7
REMARK VINA RESULT:    -0.153      1.249      2.813
REMARK INTER + INTRA:          -1.185
REMARK INTER:                  -0.584
REMARK INTRA:                  -0.600
REMARK UNBOUND:                -0.888
REMARK SMILES CCCCCCCCCCCCCCCCCC(=O)[O-]
REMARK SMILES IDX 10 1 11 2 12 3 13 4 14 5 15 6 16 7 17 8 18 9 19 10 20 11
REMARK SMILES IDX 9 12 8 13 7 14 6 15 5 16 4 17 3 18 2 19 1 20
REMARK H PARENT
REMARK Flexibility Score: inf
ROOT
ATOM      1  C   UNL     1     -26.350   8.421  -5.372  1.00  0.00     0.000 C 
ENDROOT
BRANCH   1   2
ATOM      2  C   UNL     1     -27.662   8.631  -4.595  1.00  0.00     0.000 C 
BRANCH   2   3
ATOM      3  C   UNL     1     -28.891   8.712  -5.512  1.00  0.00     0.000 C 
BRANCH   3   4
ATOM      4  C   UNL     1     -30.075   7.944  -4.911  1.00  0.00     0.000 C 
BRANCH   4   5
ATOM      5  C   UNL     1     -31.169   7.710  -5.959  1.00  0.00     0.000 C 
BRANCH   5   6
ATOM      6  C   UNL     1     -30.987   8.643  -7.165  1.00  0.00     0.000 C 
BRANCH   6   7
ATOM      7  C   UNL     1     -32.085   8.475  -8.231  1.00  0.00     0.006 C 
BRANCH   7   8
ATOM      8  C   UNL     1     -33.403   7.900  -7.685  1.00  0.00     0.053 C 
BRANCH   8   9
ATOM      9  C   UNL     1     -33.803   6.627  -8.367  1.00  0.00     0.041 C 
ATOM     10  O   UNL     1     -33.930   5.566  -7.703  1.00  0.00    -0.550 OA
ATOM     11  O   UNL     1     -34.070   6.620  -9.731  1.00  0.00    -0.550 OA
ENDBRANCH   8   9
ENDBRANCH   7   8
ENDBRANCH   6   7
ENDBRANCH   5   6
ENDBRANCH   4   5
ENDBRANCH   3   4
ENDBRANCH   2   3
ENDBRANCH   1   2
BRANCH   1  12
ATOM     12  C   UNL     1     -26.202   7.035  -6.034  1.00  0.00     0.000 C 
BRANCH  12  13
ATOM     13  C   UNL     1     -25.021   6.186  -5.523  1.00  0.00    -0.000 C 
BRANCH  13  14
ATOM     14  C   UNL     1     -23.626   6.777  -5.795  1.00  0.00    -0.000 C 
BRANCH  14  15
ATOM     15  C   UNL     1     -22.867   7.132  -4.504  1.00  0.00    -0.000 C 
BRANCH  15  16
ATOM     16  C   UNL     1     -22.874   8.640  -4.211  1.00  0.00    -0.000 C 
BRANCH  16  17
ATOM     17  C   UNL     1     -23.073   9.490  -5.476  1.00  0.00    -0.000 C 
BRANCH  17  18
ATOM     18  C   UNL     1     -23.422  10.942  -5.112  1.00  0.00    -0.000 C 
BRANCH  18  19
ATOM     19  C   UNL     1     -24.329  11.038  -3.875  1.00  0.00    -0.003 C 
ATOM     20  C   UNL     1     -25.811  11.124  -4.235  1.00  0.00     0.004 C 
ENDBRANCH  18  19
ENDBRANCH  17  18
ENDBRANCH  16  17
ENDBRANCH  15  16
ENDBRANCH  14  15
ENDBRANCH  13  14
ENDBRANCH  12  13
ENDBRANCH   1  12
TORSDOF 16
ENDMDL
