MODEL 1
REMARK VINA RESULT:    -4.139      0.000      0.000
REMARK INTER + INTRA:          -7.608
REMARK INTER:                  -7.043
REMARK INTRA:                  -0.566
REMARK UNBOUND:                -0.566
REMARK SMILES CCCCCCCCCCCCCC(=O)[O-]
REMARK SMILES IDX 8 1 9 2 10 3 11 4 12 5 13 6 14 7 15 8 16 9 7 10 6 11 5 12
REMARK SMILES IDX 4 13 3 14 2 15 1 16
REMARK H PARENT
REMARK Flexibility Score: inf
ROOT
ATOM      1  C   UNL     1       2.418  -0.364  57.699  1.00  0.00     0.000 C 
ENDROOT
BRANCH   1   2
ATOM      2  C   UNL     1       1.112   0.394  57.426  1.00  0.00     0.000 C 
BRANCH   2   3
ATOM      3  C   UNL     1       0.047  -0.540  56.835  1.00  0.00     0.000 C 
BRANCH   3   4
ATOM      4  C   UNL     1      -1.384  -0.115  57.200  1.00  0.00     0.000 C 
BRANCH   4   5
ATOM      5  C   UNL     1      -2.255  -1.300  57.656  1.00  0.00     0.006 C 
BRANCH   5   6
ATOM      6  C   UNL     1      -1.833  -1.831  59.033  1.00  0.00     0.053 C 
BRANCH   6   7
ATOM      7  C   UNL     1      -2.986  -2.429  59.778  1.00  0.00     0.041 C 
ATOM      8  O   UNL     1      -4.139  -2.422  59.273  1.00  0.00    -0.550 OA
ATOM      9  O   UNL     1      -2.782  -3.022  61.018  1.00  0.00    -0.550 OA
ENDBRANCH   6   7
ENDBRANCH   5   6
ENDBRANCH   4   5
ENDBRANCH   3   4
ENDBRANCH   2   3
ENDBRANCH   1   2
BRANCH   1  10
ATOM     10  C   UNL     1       3.621   0.591  57.688  1.00  0.00     0.000 C 
BRANCH  10  11
ATOM     11  C   UNL     1       3.322   1.916  56.968  1.00  0.00    -0.000 C 
BRANCH  11  12
ATOM     12  C   UNL     1       4.599   2.642  56.514  1.00  0.00    -0.000 C 
BRANCH  12  13
ATOM     13  C   UNL     1       5.813   2.332  57.410  1.00  0.00    -0.000 C 
BRANCH  13  14
ATOM     14  C   UNL     1       7.188   2.652  56.790  1.00  0.00    -0.000 C 
BRANCH  14  15
ATOM     15  C   UNL     1       8.365   2.653  57.781  1.00  0.00    -0.003 C 
ATOM     16  C   UNL     1       7.915   2.740  59.239  1.00  0.00     0.004 C 
ENDBRANCH  14  15
ENDBRANCH  13  14
ENDBRANCH  12  13
ENDBRANCH  11  12
ENDBRANCH  10  11
ENDBRANCH   1  10
TORSDOF 12
ENDMDL
MODEL 2
REMARK VINA RESULT:    -4.011     12.414     16.202
REMARK INTER + INTRA:          -7.390
REMARK INTER:                  -5.471
REMARK INTRA:                  -1.919
REMARK UNBOUND:                -0.566
REMARK SMILES CCCCCCCCCCCCCC(=O)[O-]
REMARK SMILES IDX 8 1 9 2 10 3 11 4 12 5 13 6 14 7 15 8 16 9 7 10 6 11 5 12
REMARK SMILES IDX 4 13 3 14 2 15 1 16
REMARK H PARENT
REMARK Flexibility Score: inf
ROOT
ATOM      1  C   UNL     1      -3.615 -10.596  66.365  1.00  0.00     0.000 C 
ENDROOT
BRANCH   1   2
ATOM      2  C   UNL     1      -3.727 -10.871  64.860  1.00  0.00     0.000 C 
BRANCH   2   3
ATOM      3  C   UNL     1      -5.102 -10.446  64.324  1.00  0.00     0.000 C 
BRANCH   3   4
ATOM      4  C   UNL     1      -5.807  -9.431  65.236  1.00  0.00     0.000 C 
BRANCH   4   5
ATOM      5  C   UNL     1      -5.695  -7.988  64.713  1.00  0.00     0.006 C 
BRANCH   5   6
ATOM      6  C   UNL     1      -4.878  -7.093  65.655  1.00  0.00     0.053 C 
BRANCH   6   7
ATOM      7  C   UNL     1      -3.433  -7.045  65.266  1.00  0.00     0.041 C 
ATOM      8  O   UNL     1      -2.566  -6.658  66.093  1.00  0.00    -0.550 OA
ATOM      9  O   UNL     1      -3.038  -7.458  64.000  1.00  0.00    -0.550 OA
ENDBRANCH   6   7
ENDBRANCH   5   6
ENDBRANCH   4   5
ENDBRANCH   3   4
ENDBRANCH   2   3
ENDBRANCH   1   2
BRANCH   1  10
ATOM     10  C   UNL     1      -3.674 -11.905  67.168  1.00  0.00     0.000 C 
BRANCH  10  11
ATOM     11  C   UNL     1      -5.002 -12.079  67.923  1.00  0.00    -0.000 C 
BRANCH  11  12
ATOM     12  C   UNL     1      -6.057 -12.833  67.094  1.00  0.00    -0.000 C 
BRANCH  12  13
ATOM     13  C   UNL     1      -5.468 -14.031  66.326  1.00  0.00    -0.000 C 
BRANCH  13  14
ATOM     14  C   UNL     1      -5.826 -14.090  64.827  1.00  0.00    -0.000 C 
BRANCH  14  15
ATOM     15  C   UNL     1      -4.641 -14.372  63.886  1.00  0.00    -0.003 C 
ATOM     16  C   UNL     1      -4.957 -14.063  62.422  1.00  0.00     0.004 C 
ENDBRANCH  14  15
ENDBRANCH  13  14
ENDBRANCH  12  13
ENDBRANCH  11  12
ENDBRANCH  10  11
ENDBRANCH   1  10
TORSDOF 12
ENDMDL
MODEL 3
REMARK VINA RESULT:    -3.900     12.438     15.532
REMARK INTER + INTRA:          -7.202
REMARK INTER:                  -5.409
REMARK INTRA:                  -1.793
REMARK UNBOUND:                -0.566
REMARK SMILES CCCCCCCCCCCCCC(=O)[O-]
REMARK SMILES IDX 8 1 9 2 10 3 11 4 12 5 13 6 14 7 15 8 16 9 7 10 6 11 5 12
REMARK SMILES IDX 4 13 3 14 2 15 1 16
REMARK H PARENT
REMARK Flexibility Score: inf
ROOT
ATOM      1  C   UNL     1      -3.391 -10.634  65.182  1.00  0.00     0.000 C 
ENDROOT
BRANCH   1   2
ATOM      2  C   UNL     1      -3.694 -10.996  66.642  1.00  0.00     0.000 C 
BRANCH   2   3
ATOM      3  C   UNL     1      -3.366 -12.470  66.923  1.00  0.00     0.000 C 
BRANCH   3   4
ATOM      4  C   UNL     1      -4.611 -13.371  66.895  1.00  0.00     0.000 C 
BRANCH   4   5
ATOM      5  C   UNL     1      -4.588 -14.377  65.731  1.00  0.00     0.006 C 
BRANCH   5   6
ATOM      6  C   UNL     1      -5.520 -13.958  64.586  1.00  0.00     0.053 C 
BRANCH   6   7
ATOM      7  C   UNL     1      -4.783 -13.809  63.291  1.00  0.00     0.041 C 
ATOM      8  O   UNL     1      -3.574 -13.459  63.287  1.00  0.00    -0.550 OA
ATOM      9  O   UNL     1      -5.421 -14.088  62.089  1.00  0.00    -0.550 OA
ENDBRANCH   6   7
ENDBRANCH   5   6
ENDBRANCH   4   5
ENDBRANCH   3   4
ENDBRANCH   2   3
ENDBRANCH   1   2
BRANCH   1  10
ATOM     10  C   UNL     1      -4.681 -10.289  64.422  1.00  0.00     0.000 C 
BRANCH  10  11
ATOM     11  C   UNL     1      -5.868 -10.013  65.360  1.00  0.00    -0.000 C 
BRANCH  11  12
ATOM     12  C   UNL     1      -6.397  -8.575  65.233  1.00  0.00    -0.000 C 
BRANCH  12  13
ATOM     13  C   UNL     1      -6.071  -7.708  66.464  1.00  0.00    -0.000 C 
BRANCH  13  14
ATOM     14  C   UNL     1      -5.164  -6.491  66.189  1.00  0.00    -0.000 C 
BRANCH  14  15
ATOM     15  C   UNL     1      -4.441  -6.512  64.830  1.00  0.00    -0.003 C 
ATOM     16  C   UNL     1      -2.982  -6.955  64.939  1.00  0.00     0.004 C 
ENDBRANCH  14  15
ENDBRANCH  13  14
ENDBRANCH  12  13
ENDBRANCH  11  12
ENDBRANCH  10  11
ENDBRANCH   1  10
TORSDOF 12
ENDMDL
MODEL 4
REMARK VINA RESULT:    -3.874     11.612     15.870
REMARK INTER + INTRA:          -7.157
REMARK INTER:                  -5.559
REMARK INTRA:                  -1.598
REMARK UNBOUND:                -0.566
REMARK SMILES CCCCCCCCCCCCCC(=O)[O-]
REMARK SMILES IDX 8 1 9 2 10 3 11 4 12 5 13 6 14 7 15 8 16 9 7 10 6 11 5 12
REMARK SMILES IDX 4 13 3 14 2 15 1 16
REMARK H PARENT
REMARK Flexibility Score: inf
ROOT
ATOM      1  C   UNL     1      -5.717 -10.858  66.015  1.00  0.00     0.000 C 
ENDROOT
BRANCH   1   2
ATOM      2  C   UNL     1      -5.214 -10.431  64.631  1.00  0.00     0.000 C 
BRANCH   2   3
ATOM      3  C   UNL     1      -3.695 -10.631  64.511  1.00  0.00     0.000 C 
BRANCH   3   4
ATOM      4  C   UNL     1      -2.965  -9.364  64.040  1.00  0.00     0.000 C 
BRANCH   4   5
ATOM      5  C   UNL     1      -3.245  -8.149  64.942  1.00  0.00     0.006 C 
BRANCH   5   6
ATOM      6  C   UNL     1      -3.322  -6.841  64.143  1.00  0.00     0.053 C 
BRANCH   6   7
ATOM      7  C   UNL     1      -4.648  -6.165  64.305  1.00  0.00     0.041 C 
ATOM      8  O   UNL     1      -4.708  -4.918  64.464  1.00  0.00    -0.550 OA
ATOM      9  O   UNL     1      -5.821  -6.908  64.251  1.00  0.00    -0.550 OA
ENDBRANCH   6   7
ENDBRANCH   5   6
ENDBRANCH   4   5
ENDBRANCH   3   4
ENDBRANCH   2   3
ENDBRANCH   1   2
BRANCH   1  10
ATOM     10  C   UNL     1      -4.575 -10.848  67.043  1.00  0.00     0.000 C 
BRANCH  10  11
ATOM     11  C   UNL     1      -4.523 -12.132  67.887  1.00  0.00    -0.000 C 
BRANCH  11  12
ATOM     12  C   UNL     1      -3.616 -13.208  67.266  1.00  0.00    -0.000 C 
BRANCH  12  13
ATOM     13  C   UNL     1      -4.403 -14.261  66.462  1.00  0.00    -0.000 C 
BRANCH  13  14
ATOM     14  C   UNL     1      -4.079 -14.312  64.955  1.00  0.00    -0.000 C 
BRANCH  14  15
ATOM     15  C   UNL     1      -5.292 -14.143  64.023  1.00  0.00    -0.003 C 
ATOM     16  C   UNL     1      -4.901 -14.051  62.548  1.00  0.00     0.004 C 
ENDBRANCH  14  15
ENDBRANCH  13  14
ENDBRANCH  12  13
ENDBRANCH  11  12
ENDBRANCH  10  11
ENDBRANCH   1  10
TORSDOF 12
ENDMDL
MODEL 5
REMARK VINA RESULT:    -3.794     12.011     16.542
REMARK INTER + INTRA:          -7.021
REMARK INTER:                  -5.043
REMARK INTRA:                  -1.978
REMARK UNBOUND:                -0.566
REMARK SMILES CCCCCCCCCCCCCC(=O)[O-]
REMARK SMILES IDX 8 1 9 2 10 3 11 4 12 5 13 6 14 7 15 8 16 9 7 10 6 11 5 12
REMARK SMILES IDX 4 13 3 14 2 15 1 16
REMARK H PARENT
REMARK Flexibility Score: inf
ROOT
ATOM      1  C   UNL     1      -4.123 -14.003  65.010  1.00  0.00     0.000 C 
ENDROOT
BRANCH   1   2
ATOM      2  C   UNL     1      -4.818 -12.923  64.170  1.00  0.00     0.000 C 
BRANCH   2   3
ATOM      3  C   UNL     1      -4.118 -11.565  64.332  1.00  0.00     0.000 C 
BRANCH   3   4
ATOM      4  C   UNL     1      -5.104 -10.386  64.332  1.00  0.00     0.000 C 
BRANCH   4   5
ATOM      5  C   UNL     1      -4.578  -9.176  65.124  1.00  0.00     0.006 C 
BRANCH   5   6
ATOM      6  C   UNL     1      -3.222  -8.686  64.599  1.00  0.00     0.053 C 
BRANCH   6   7
ATOM      7  C   UNL     1      -3.081  -7.200  64.715  1.00  0.00     0.041 C 
ATOM      8  O   UNL     1      -2.398  -6.699  65.646  1.00  0.00    -0.550 OA
ATOM      9  O   UNL     1      -3.681  -6.368  63.778  1.00  0.00    -0.550 OA
ENDBRANCH   6   7
ENDBRANCH   5   6
ENDBRANCH   4   5
ENDBRANCH   3   4
ENDBRANCH   2   3
ENDBRANCH   1   2
BRANCH   1  10
ATOM     10  C   UNL     1      -5.076 -14.570  66.073  1.00  0.00     0.000 C 
BRANCH  10  11
ATOM     11  C   UNL     1      -6.495 -13.987  65.970  1.00  0.00    -0.000 C 
BRANCH  11  12
ATOM     12  C   UNL     1      -6.932 -13.269  67.258  1.00  0.00    -0.000 C 
BRANCH  12  13
ATOM     13  C   UNL     1      -6.868 -11.735  67.137  1.00  0.00    -0.000 C 
BRANCH  13  14
ATOM     14  C   UNL     1      -5.877 -11.040  68.093  1.00  0.00    -0.000 C 
BRANCH  14  15
ATOM     15  C   UNL     1      -4.643 -11.879  68.472  1.00  0.00    -0.003 C 
ATOM     16  C   UNL     1      -3.344 -11.324  67.886  1.00  0.00     0.004 C 
ENDBRANCH  14  15
ENDBRANCH  13  14
ENDBRANCH  12  13
ENDBRANCH  11  12
ENDBRANCH  10  11
ENDBRANCH   1  10
TORSDOF 12
ENDMDL
MODEL 6
REMARK VINA RESULT:    -3.793      3.926      5.675
REMARK INTER + INTRA:          -7.019
REMARK INTER:                  -5.534
REMARK INTRA:                  -1.485
REMARK UNBOUND:                -0.566
REMARK SMILES CCCCCCCCCCCCCC(=O)[O-]
REMARK SMILES IDX 8 1 9 2 10 3 11 4 12 5 13 6 14 7 15 8 16 9 7 10 6 11 5 12
REMARK SMILES IDX 4 13 3 14 2 15 1 16
REMARK H PARENT
REMARK Flexibility Score: inf
ROOT
ATOM      1  C   UNL     1      -1.873  -1.684  57.553  1.00  0.00     0.000 C 
ENDROOT
BRANCH   1   2
ATOM      2  C   UNL     1      -3.040  -1.660  58.550  1.00  0.00     0.000 C 
BRANCH   2   3
ATOM      3  C   UNL     1      -2.601  -2.189  59.924  1.00  0.00     0.000 C 
BRANCH   3   4
ATOM      4  C   UNL     1      -3.343  -1.510  61.086  1.00  0.00     0.000 C 
BRANCH   4   5
ATOM      5  C   UNL     1      -3.421  -2.401  62.338  1.00  0.00     0.006 C 
BRANCH   5   6
ATOM      6  C   UNL     1      -2.987  -3.844  62.049  1.00  0.00     0.053 C 
BRANCH   6   7
ATOM      7  C   UNL     1      -2.968  -4.681  63.290  1.00  0.00     0.041 C 
ATOM      8  O   UNL     1      -3.283  -5.898  63.239  1.00  0.00    -0.550 OA
ATOM      9  O   UNL     1      -2.572  -4.123  64.500  1.00  0.00    -0.550 OA
ENDBRANCH   6   7
ENDBRANCH   5   6
ENDBRANCH   4   5
ENDBRANCH   3   4
ENDBRANCH   2   3
ENDBRANCH   1   2
BRANCH   1  10
ATOM     10  C   UNL     1      -0.592  -2.206  58.220  1.00  0.00     0.000 C 
BRANCH  10  11
ATOM     11  C   UNL     1       0.685  -1.625  57.590  1.00  0.00    -0.000 C 
BRANCH  11  12
ATOM     12  C   UNL     1       0.492  -0.183  57.091  1.00  0.00    -0.000 C 
BRANCH  12  13
ATOM     13  C   UNL     1       1.240   0.852  57.952  1.00  0.00    -0.000 C 
BRANCH  13  14
ATOM     14  C   UNL     1       0.344   1.886  58.664  1.00  0.00    -0.000 C 
BRANCH  14  15
ATOM     15  C   UNL     1      -0.686   1.291  59.641  1.00  0.00    -0.003 C 
ATOM     16  C   UNL     1      -2.111   1.772  59.369  1.00  0.00     0.004 C 
ENDBRANCH  14  15
ENDBRANCH  13  14
ENDBRANCH  12  13
ENDBRANCH  11  12
ENDBRANCH  10  11
ENDBRANCH   1  10
TORSDOF 12
ENDMDL
MODEL 7
REMARK VINA RESULT:    -3.787     12.071     14.432
REMARK INTER + INTRA:          -7.009
REMARK INTER:                  -5.462
REMARK INTRA:                  -1.548
REMARK UNBOUND:                -0.566
REMARK SMILES CCCCCCCCCCCCCC(=O)[O-]
REMARK SMILES IDX 8 1 9 2 10 3 11 4 12 5 13 6 14 7 15 8 16 9 7 10 6 11 5 12
REMARK SMILES IDX 4 13 3 14 2 15 1 16
REMARK H PARENT
REMARK Flexibility Score: inf
ROOT
ATOM      1  C   UNL     1      -4.256  -8.880  66.230  1.00  0.00     0.000 C 
ENDROOT
BRANCH   1   2
ATOM      2  C   UNL     1      -3.650  -8.953  64.823  1.00  0.00     0.000 C 
BRANCH   2   3
ATOM      3  C   UNL     1      -3.423 -10.411  64.396  1.00  0.00     0.000 C 
BRANCH   3   4
ATOM      4  C   UNL     1      -3.523 -11.396  65.572  1.00  0.00     0.000 C 
BRANCH   4   5
ATOM      5  C   UNL     1      -4.704 -12.372  65.427  1.00  0.00     0.006 C 
BRANCH   5   6
ATOM      6  C   UNL     1      -5.115 -12.569  63.961  1.00  0.00     0.053 C 
BRANCH   6   7
ATOM      7  C   UNL     1      -4.695 -13.908  63.439  1.00  0.00     0.041 C 
ATOM      8  O   UNL     1      -4.906 -14.214  62.237  1.00  0.00    -0.550 OA
ATOM      9  O   UNL     1      -4.042 -14.808  64.273  1.00  0.00    -0.550 OA
ENDBRANCH   6   7
ENDBRANCH   5   6
ENDBRANCH   4   5
ENDBRANCH   3   4
ENDBRANCH   2   3
ENDBRANCH   1   2
BRANCH   1  10
ATOM     10  C   UNL     1      -5.776  -8.665  66.164  1.00  0.00     0.000 C 
BRANCH  10  11
ATOM     11  C   UNL     1      -6.259  -8.272  64.758  1.00  0.00    -0.000 C 
BRANCH  11  12
ATOM     12  C   UNL     1      -6.768  -6.822  64.694  1.00  0.00    -0.000 C 
BRANCH  12  13
ATOM     13  C   UNL     1      -5.969  -5.952  63.706  1.00  0.00    -0.000 C 
BRANCH  13  14
ATOM     14  C   UNL     1      -5.129  -4.829  64.348  1.00  0.00    -0.000 C 
BRANCH  14  15
ATOM     15  C   UNL     1      -3.845  -5.300  65.055  1.00  0.00    -0.003 C 
ATOM     16  C   UNL     1      -3.936  -5.206  66.578  1.00  0.00     0.004 C 
ENDBRANCH  14  15
ENDBRANCH  13  14
ENDBRANCH  12  13
ENDBRANCH  11  12
ENDBRANCH  10  11
ENDBRANCH   1  10
TORSDOF 12
ENDMDL
MODEL 8
REMARK VINA RESULT:    -3.744     13.797     17.007
REMARK INTER + INTRA:          -6.936
REMARK INTER:                  -5.373
REMARK INTRA:                  -1.564
REMARK UNBOUND:                -0.566
REMARK SMILES CCCCCCCCCCCCCC(=O)[O-]
REMARK SMILES IDX 8 1 9 2 10 3 11 4 12 5 13 6 14 7 15 8 16 9 7 10 6 11 5 12
REMARK SMILES IDX 4 13 3 14 2 15 1 16
REMARK H PARENT
REMARK Flexibility Score: inf
ROOT
ATOM      1  C   UNL     1      -3.000 -11.200  68.519  1.00  0.00     0.000 C 
ENDROOT
BRANCH   1   2
ATOM      2  C   UNL     1      -4.381 -10.785  69.042  1.00  0.00     0.000 C 
BRANCH   2   3
ATOM      3  C   UNL     1      -4.976  -9.654  68.189  1.00  0.00     0.000 C 
BRANCH   3   4
ATOM      4  C   UNL     1      -6.142 -10.128  67.306  1.00  0.00     0.000 C 
BRANCH   4   5
ATOM      5  C   UNL     1      -5.680 -10.584  65.911  1.00  0.00     0.006 C 
BRANCH   5   6
ATOM      6  C   UNL     1      -5.243  -9.403  65.032  1.00  0.00     0.053 C 
BRANCH   6   7
ATOM      7  C   UNL     1      -3.773  -9.429  64.752  1.00  0.00     0.041 C 
ATOM      8  O   UNL     1      -3.105  -8.362  64.771  1.00  0.00    -0.550 OA
ATOM      9  O   UNL     1      -3.133 -10.636  64.499  1.00  0.00    -0.550 OA
ENDBRANCH   6   7
ENDBRANCH   5   6
ENDBRANCH   4   5
ENDBRANCH   3   4
ENDBRANCH   2   3
ENDBRANCH   1   2
BRANCH   1  10
ATOM     10  C   UNL     1      -3.090 -12.497  67.700  1.00  0.00     0.000 C 
BRANCH  10  11
ATOM     11  C   UNL     1      -3.958 -13.569  68.378  1.00  0.00    -0.000 C 
BRANCH  11  12
ATOM     12  C   UNL     1      -4.908 -14.269  67.392  1.00  0.00    -0.000 C 
BRANCH  12  13
ATOM     13  C   UNL     1      -4.440 -14.155  65.929  1.00  0.00    -0.000 C 
BRANCH  13  14
ATOM     14  C   UNL     1      -5.568 -14.147  64.876  1.00  0.00    -0.000 C 
BRANCH  14  15
ATOM     15  C   UNL     1      -5.275 -13.316  63.615  1.00  0.00    -0.003 C 
ATOM     16  C   UNL     1      -4.904 -14.177  62.407  1.00  0.00     0.004 C 
ENDBRANCH  14  15
ENDBRANCH  13  14
ENDBRANCH  12  13
ENDBRANCH  11  12
ENDBRANCH  10  11
ENDBRANCH   1  10
TORSDOF 12
ENDMDL
MODEL 9
REMARK VINA RESULT:    -3.743     11.032     13.261
REMARK INTER + INTRA:          -6.935
REMARK INTER:                  -5.335
REMARK INTRA:                  -1.600
REMARK UNBOUND:                -0.566
REMARK SMILES CCCCCCCCCCCCCC(=O)[O-]
REMARK SMILES IDX 8 1 9 2 10 3 11 4 12 5 13 6 14 7 15 8 16 9 7 10 6 11 5 12
REMARK SMILES IDX 4 13 3 14 2 15 1 16
REMARK H PARENT
REMARK Flexibility Score: inf
ROOT
ATOM      1  C   UNL     1      -5.824  -6.801  65.954  1.00  0.00     0.000 C 
ENDROOT
BRANCH   1   2
ATOM      2  C   UNL     1      -4.842  -7.946  66.234  1.00  0.00     0.000 C 
BRANCH   2   3
ATOM      3  C   UNL     1      -4.842  -8.965  65.085  1.00  0.00     0.000 C 
BRANCH   3   4
ATOM      4  C   UNL     1      -3.432  -9.464  64.734  1.00  0.00     0.000 C 
BRANCH   4   5
ATOM      5  C   UNL     1      -3.413 -10.951  64.335  1.00  0.00     0.006 C 
BRANCH   5   6
ATOM      6  C   UNL     1      -4.815 -11.573  64.357  1.00  0.00     0.053 C 
BRANCH   6   7
ATOM      7  C   UNL     1      -4.792 -13.017  63.963  1.00  0.00     0.041 C 
ATOM      8  O   UNL     1      -4.137 -13.850  64.643  1.00  0.00    -0.550 OA
ATOM      9  O   UNL     1      -5.517 -13.451  62.860  1.00  0.00    -0.550 OA
ENDBRANCH   6   7
ENDBRANCH   5   6
ENDBRANCH   4   5
ENDBRANCH   3   4
ENDBRANCH   2   3
ENDBRANCH   1   2
BRANCH   1  10
ATOM     10  C   UNL     1      -6.495  -6.976  64.583  1.00  0.00     0.000 C 
BRANCH  10  11
ATOM     11  C   UNL     1      -6.195  -5.813  63.622  1.00  0.00    -0.000 C 
BRANCH  11  12
ATOM     12  C   UNL     1      -4.932  -5.030  64.021  1.00  0.00    -0.000 C 
BRANCH  12  13
ATOM     13  C   UNL     1      -3.695  -5.432  63.196  1.00  0.00    -0.000 C 
BRANCH  13  14
ATOM     14  C   UNL     1      -2.505  -5.970  64.016  1.00  0.00    -0.000 C 
BRANCH  14  15
ATOM     15  C   UNL     1      -2.073  -5.081  65.196  1.00  0.00    -0.003 C 
ATOM     16  C   UNL     1      -1.896  -5.863  66.498  1.00  0.00     0.004 C 
ENDBRANCH  14  15
ENDBRANCH  13  14
ENDBRANCH  12  13
ENDBRANCH  11  12
ENDBRANCH  10  11
ENDBRANCH   1  10
TORSDOF 12
ENDMDL
