MODEL 1
REMARK VINA RESULT:    -3.351      0.000      0.000
REMARK INTER + INTRA:          -5.857
REMARK INTER:                  -5.310
REMARK INTRA:                  -0.546
REMARK UNBOUND:                -0.546
REMARK SMILES CCCCCCCCCCCC(=O)[O-]
REMARK SMILES IDX 7 1 8 2 9 3 10 4 11 5 12 6 13 7 14 8 6 9 5 10 4 11 3 12 2 13
REMARK SMILES IDX 1 14
REMARK H PARENT
REMARK Flexibility Score: inf
ROOT
ATOM      1  C   UNL     1       2.560  77.389   6.137  1.00  0.00     0.000 C 
ENDROOT
BRANCH   1   2
ATOM      2  C   UNL     1       2.328  78.823   6.650  1.00  0.00     0.000 C 
BRANCH   2   3
ATOM      3  C   UNL     1       2.910  79.124   8.046  1.00  0.00     0.000 C 
BRANCH   3   4
ATOM      4  C   UNL     1       4.070  78.206   8.479  1.00  0.00     0.006 C 
BRANCH   4   5
ATOM      5  C   UNL     1       3.712  77.217   9.600  1.00  0.00     0.053 C 
BRANCH   5   6
ATOM      6  C   UNL     1       4.186  77.692  10.939  1.00  0.00     0.041 C 
ATOM      7  O   UNL     1       3.371  78.191  11.758  1.00  0.00    -0.550 OA
ATOM      8  O   UNL     1       5.533  77.615  11.269  1.00  0.00    -0.550 OA
ENDBRANCH   5   6
ENDBRANCH   4   5
ENDBRANCH   3   4
ENDBRANCH   2   3
ENDBRANCH   1   2
BRANCH   1   9
ATOM      9  C   UNL     1       3.149  77.287   4.719  1.00  0.00     0.000 C 
BRANCH   9  10
ATOM     10  C   UNL     1       4.687  77.291   4.708  1.00  0.00    -0.000 C 
BRANCH  10  11
ATOM     11  C   UNL     1       5.277  77.136   3.294  1.00  0.00    -0.000 C 
BRANCH  11  12
ATOM     12  C   UNL     1       6.537  77.978   3.011  1.00  0.00    -0.000 C 
BRANCH  12  13
ATOM     13  C   UNL     1       7.550  78.043   4.168  1.00  0.00    -0.003 C 
ATOM     14  C   UNL     1       8.931  78.523   3.723  1.00  0.00     0.004 C 
ENDBRANCH  12  13
ENDBRANCH  11  12
ENDBRANCH  10  11
ENDBRANCH   9  10
ENDBRANCH   1   9
TORSDOF 10
ENDMDL
MODEL 2
REMARK VINA RESULT:    -3.184      2.927      6.330
REMARK INTER + INTRA:          -5.592
REMARK INTER:                  -5.036
REMARK INTRA:                  -0.556
REMARK UNBOUND:                -0.546
REMARK SMILES CCCCCCCCCCCC(=O)[O-]
REMARK SMILES IDX 7 1 8 2 9 3 10 4 11 5 12 6 13 7 14 8 6 9 5 10 4 11 3 12 2 13
REMARK SMILES IDX 1 14
REMARK H PARENT
REMARK Flexibility Score: inf
ROOT
ATOM      1  C   UNL     1       2.930  77.326   5.296  1.00  0.00     0.000 C 
ENDROOT
BRANCH   1   2
ATOM      2  C   UNL     1       4.454  77.324   5.065  1.00  0.00     0.000 C 
BRANCH   2   3
ATOM      3  C   UNL     1       4.899  76.982   3.629  1.00  0.00     0.000 C 
BRANCH   3   4
ATOM      4  C   UNL     1       5.881  77.988   2.995  1.00  0.00     0.006 C 
BRANCH   4   5
ATOM      5  C   UNL     1       7.344  77.517   2.970  1.00  0.00     0.053 C 
BRANCH   5   6
ATOM      6  C   UNL     1       8.177  78.221   3.996  1.00  0.00     0.041 C 
ATOM      7  O   UNL     1       9.200  78.865   3.646  1.00  0.00    -0.550 OA
ATOM      8  O   UNL     1       7.843  78.137   5.342  1.00  0.00    -0.550 OA
ENDBRANCH   5   6
ENDBRANCH   4   5
ENDBRANCH   3   4
ENDBRANCH   2   3
ENDBRANCH   1   2
BRANCH   1   9
ATOM      9  C   UNL     1       2.488  77.599   6.746  1.00  0.00     0.000 C 
BRANCH   9  10
ATOM     10  C   UNL     1       2.817  79.027   7.212  1.00  0.00    -0.000 C 
BRANCH  10  11
ATOM     11  C   UNL     1       3.517  79.063   8.583  1.00  0.00    -0.000 C 
BRANCH  11  12
ATOM     12  C   UNL     1       3.868  77.685   9.180  1.00  0.00    -0.000 C 
BRANCH  12  13
ATOM     13  C   UNL     1       3.842  77.615  10.717  1.00  0.00    -0.003 C 
ATOM     14  C   UNL     1       5.234  77.706  11.340  1.00  0.00     0.004 C 
ENDBRANCH  12  13
ENDBRANCH  11  12
ENDBRANCH  10  11
ENDBRANCH   9  10
ENDBRANCH   1   9
TORSDOF 10
ENDMDL
MODEL 3
REMARK VINA RESULT:    -3.125     21.784     23.533
REMARK INTER + INTRA:          -5.498
REMARK INTER:                  -5.024
REMARK INTRA:                  -0.473
REMARK UNBOUND:                -0.546
REMARK SMILES CCCCCCCCCCCC(=O)[O-]
REMARK SMILES IDX 7 1 8 2 9 3 10 4 11 5 12 6 13 7 14 8 6 9 5 10 4 11 3 12 2 13
REMARK SMILES IDX 1 14
REMARK H PARENT
REMARK Flexibility Score: inf
ROOT
ATOM      1  C   UNL     1      -0.198  59.951  -4.857  1.00  0.00     0.000 C 
ENDROOT
BRANCH   1   2
ATOM      2  C   UNL     1       1.286  60.317  -4.661  1.00  0.00     0.000 C 
BRANCH   2   3
ATOM      3  C   UNL     1       2.283  59.484  -5.492  1.00  0.00     0.000 C 
BRANCH   3   4
ATOM      4  C   UNL     1       1.709  58.891  -6.794  1.00  0.00     0.006 C 
BRANCH   4   5
ATOM      5  C   UNL     1       2.664  58.958  -7.997  1.00  0.00     0.053 C 
BRANCH   5   6
ATOM      6  C   UNL     1       3.422  60.249  -8.040  1.00  0.00     0.041 C 
ATOM      7  O   UNL     1       2.805  61.343  -8.124  1.00  0.00    -0.550 OA
ATOM      8  O   UNL     1       4.812  60.242  -8.021  1.00  0.00    -0.550 OA
ENDBRANCH   5   6
ENDBRANCH   4   5
ENDBRANCH   3   4
ENDBRANCH   2   3
ENDBRANCH   1   2
BRANCH   1   9
ATOM      9  C   UNL     1      -1.118  60.285  -3.668  1.00  0.00     0.000 C 
BRANCH   9  10
ATOM     10  C   UNL     1      -2.382  59.411  -3.627  1.00  0.00    -0.000 C 
BRANCH  10  11
ATOM     11  C   UNL     1      -3.572  60.043  -4.374  1.00  0.00    -0.000 C 
BRANCH  11  12
ATOM     12  C   UNL     1      -4.161  59.190  -5.515  1.00  0.00    -0.000 C 
BRANCH  12  13
ATOM     13  C   UNL     1      -3.838  59.689  -6.934  1.00  0.00    -0.003 C 
ATOM     14  C   UNL     1      -4.814  60.756  -7.427  1.00  0.00     0.004 C 
ENDBRANCH  12  13
ENDBRANCH  11  12
ENDBRANCH  10  11
ENDBRANCH   9  10
ENDBRANCH   1   9
TORSDOF 10
ENDMDL
MODEL 4
REMARK VINA RESULT:    -2.978     21.962     23.134
REMARK INTER + INTRA:          -5.265
REMARK INTER:                  -4.614
REMARK INTRA:                  -0.651
REMARK UNBOUND:                -0.546
REMARK SMILES CCCCCCCCCCCC(=O)[O-]
REMARK SMILES IDX 7 1 8 2 9 3 10 4 11 5 12 6 13 7 14 8 6 9 5 10 4 11 3 12 2 13
REMARK SMILES IDX 1 14
REMARK H PARENT
REMARK Flexibility Score: inf
ROOT
ATOM      1  C   UNL     1      -0.314  60.260  -4.288  1.00  0.00     0.000 C 
ENDROOT
BRANCH   1   2
ATOM      2  C   UNL     1      -1.659  60.363  -3.543  1.00  0.00     0.000 C 
BRANCH   2   3
ATOM      3  C   UNL     1      -2.880  60.669  -4.433  1.00  0.00     0.000 C 
BRANCH   3   4
ATOM      4  C   UNL     1      -3.993  59.604  -4.401  1.00  0.00     0.006 C 
BRANCH   4   5
ATOM      5  C   UNL     1      -4.214  58.875  -5.736  1.00  0.00     0.053 C 
BRANCH   5   6
ATOM      6  C   UNL     1      -4.106  59.804  -6.907  1.00  0.00     0.041 C 
ATOM      7  O   UNL     1      -3.191  59.648  -7.756  1.00  0.00    -0.550 OA
ATOM      8  O   UNL     1      -4.995  60.863  -7.039  1.00  0.00    -0.550 OA
ENDBRANCH   5   6
ENDBRANCH   4   5
ENDBRANCH   3   4
ENDBRANCH   2   3
ENDBRANCH   1   2
BRANCH   1   9
ATOM      9  C   UNL     1      -0.276  59.232  -5.434  1.00  0.00     0.000 C 
BRANCH   9  10
ATOM     10  C   UNL     1       0.993  59.343  -6.295  1.00  0.00    -0.000 C 
BRANCH  10  11
ATOM     11  C   UNL     1       2.080  60.223  -5.649  1.00  0.00    -0.000 C 
BRANCH  11  12
ATOM     12  C   UNL     1       2.961  61.013  -6.638  1.00  0.00    -0.000 C 
BRANCH  12  13
ATOM     13  C   UNL     1       3.148  60.353  -8.015  1.00  0.00    -0.003 C 
ATOM     14  C   UNL     1       4.225  59.269  -8.014  1.00  0.00     0.004 C 
ENDBRANCH  12  13
ENDBRANCH  11  12
ENDBRANCH  10  11
ENDBRANCH   9  10
ENDBRANCH   1   9
TORSDOF 10
ENDMDL
MODEL 5
REMARK VINA RESULT:    -2.345     21.654     23.027
REMARK INTER + INTRA:          -4.262
REMARK INTER:                  -4.164
REMARK INTRA:                  -0.098
REMARK UNBOUND:                -0.546
REMARK SMILES CCCCCCCCCCCC(=O)[O-]
REMARK SMILES IDX 7 1 8 2 9 3 10 4 11 5 12 6 13 7 14 8 6 9 5 10 4 11 3 12 2 13
REMARK SMILES IDX 1 14
REMARK H PARENT
REMARK Flexibility Score: inf
ROOT
ATOM      1  C   UNL     1       1.168  60.524  -4.872  1.00  0.00     0.000 C 
ENDROOT
BRANCH   1   2
ATOM      2  C   UNL     1      -0.042  60.313  -3.941  1.00  0.00     0.000 C 
BRANCH   2   3
ATOM      3  C   UNL     1      -1.296  59.724  -4.617  1.00  0.00     0.000 C 
BRANCH   3   4
ATOM      4  C   UNL     1      -2.451  59.376  -3.657  1.00  0.00     0.006 C 
BRANCH   4   5
ATOM      5  C   UNL     1      -3.757  58.966  -4.357  1.00  0.00     0.053 C 
BRANCH   5   6
ATOM      6  C   UNL     1      -4.079  59.865  -5.511  1.00  0.00     0.041 C 
ATOM      7  O   UNL     1      -4.045  61.115  -5.370  1.00  0.00    -0.550 OA
ATOM      8  O   UNL     1      -4.451  59.321  -6.735  1.00  0.00    -0.550 OA
ENDBRANCH   5   6
ENDBRANCH   4   5
ENDBRANCH   3   4
ENDBRANCH   2   3
ENDBRANCH   1   2
BRANCH   1   9
ATOM      9  C   UNL     1       1.695  59.252  -5.560  1.00  0.00     0.000 C 
BRANCH   9  10
ATOM     10  C   UNL     1       0.949  58.925  -6.865  1.00  0.00    -0.000 C 
BRANCH  10  11
ATOM     11  C   UNL     1       1.757  59.290  -8.124  1.00  0.00    -0.000 C 
BRANCH  11  12
ATOM     12  C   UNL     1       3.018  60.142  -7.874  1.00  0.00    -0.000 C 
BRANCH  12  13
ATOM     13  C   UNL     1       4.353  59.417  -8.116  1.00  0.00    -0.003 C 
ATOM     14  C   UNL     1       5.552  60.364  -8.125  1.00  0.00     0.004 C 
ENDBRANCH  12  13
ENDBRANCH  11  12
ENDBRANCH  10  11
ENDBRANCH   9  10
ENDBRANCH   1   9
TORSDOF 10
ENDMDL
MODEL 6
REMARK VINA RESULT:    -2.056      1.540      2.192
REMARK INTER + INTRA:          -3.804
REMARK INTER:                  -3.120
REMARK INTRA:                  -0.684
REMARK UNBOUND:                -0.546
REMARK SMILES CCCCCCCCCCCC(=O)[O-]
REMARK SMILES IDX 7 1 8 2 9 3 10 4 11 5 12 6 13 7 14 8 6 9 5 10 4 11 3 12 2 13
REMARK SMILES IDX 1 14
REMARK H PARENT
REMARK Flexibility Score: inf
ROOT
ATOM      1  C   UNL     1       4.442  77.111   6.728  1.00  0.00     0.000 C 
ENDROOT
BRANCH   1   2
ATOM      2  C   UNL     1       3.428  77.630   7.767  1.00  0.00     0.000 C 
BRANCH   2   3
ATOM      3  C   UNL     1       3.729  79.031   8.335  1.00  0.00     0.000 C 
BRANCH   3   4
ATOM      4  C   UNL     1       3.966  79.080   9.857  1.00  0.00     0.006 C 
BRANCH   4   5
ATOM      5  C   UNL     1       4.290  77.718  10.493  1.00  0.00     0.053 C 
BRANCH   5   6
ATOM      6  C   UNL     1       5.381  77.821  11.514  1.00  0.00     0.041 C 
ATOM      7  O   UNL     1       5.876  78.942  11.800  1.00  0.00    -0.550 OA
ATOM      8  O   UNL     1       5.874  76.675  12.125  1.00  0.00    -0.550 OA
ENDBRANCH   5   6
ENDBRANCH   4   5
ENDBRANCH   3   4
ENDBRANCH   2   3
ENDBRANCH   1   2
BRANCH   1   9
ATOM      9  C   UNL     1       5.616  78.061   6.428  1.00  0.00     0.000 C 
BRANCH   9  10
ATOM     10  C   UNL     1       6.854  77.327   5.887  1.00  0.00    -0.000 C 
BRANCH  10  11
ATOM     11  C   UNL     1       7.912  78.284   5.306  1.00  0.00    -0.000 C 
BRANCH  11  12
ATOM     12  C   UNL     1       7.986  78.328   3.766  1.00  0.00    -0.000 C 
BRANCH  12  13
ATOM     13  C   UNL     1       6.969  77.430   3.040  1.00  0.00    -0.003 C 
ATOM     14  C   UNL     1       5.841  78.222   2.381  1.00  0.00     0.004 C 
ENDBRANCH  12  13
ENDBRANCH  11  12
ENDBRANCH  10  11
ENDBRANCH   9  10
ENDBRANCH   1   9
TORSDOF 10
ENDMDL
MODEL 7
REMARK VINA RESULT:    -1.916     21.818     22.741
REMARK INTER + INTRA:          -3.583
REMARK INTER:                  -3.358
REMARK INTRA:                  -0.225
REMARK UNBOUND:                -0.546
REMARK SMILES CCCCCCCCCCCC(=O)[O-]
REMARK SMILES IDX 7 1 8 2 9 3 10 4 11 5 12 6 13 7 14 8 6 9 5 10 4 11 3 12 2 13
REMARK SMILES IDX 1 14
REMARK H PARENT
REMARK Flexibility Score: inf
ROOT
ATOM      1  C   UNL     1       2.509  59.962  -5.796  1.00  0.00     0.000 C 
ENDROOT
BRANCH   1   2
ATOM      2  C   UNL     1       1.172  60.656  -5.467  1.00  0.00     0.000 C 
BRANCH   2   3
ATOM      3  C   UNL     1       0.047  59.718  -4.985  1.00  0.00     0.000 C 
BRANCH   3   4
ATOM      4  C   UNL     1      -0.975  60.365  -4.029  1.00  0.00     0.006 C 
BRANCH   4   5
ATOM      5  C   UNL     1      -2.033  59.394  -3.481  1.00  0.00     0.053 C 
BRANCH   5   6
ATOM      6  C   UNL     1      -3.382  59.636  -4.086  1.00  0.00     0.041 C 
ATOM      7  O   UNL     1      -4.424  59.318  -3.456  1.00  0.00    -0.550 OA
ATOM      8  O   UNL     1      -3.487  60.181  -5.359  1.00  0.00    -0.550 OA
ENDBRANCH   5   6
ENDBRANCH   4   5
ENDBRANCH   3   4
ENDBRANCH   2   3
ENDBRANCH   1   2
BRANCH   1   9
ATOM      9  C   UNL     1       2.812  59.803  -7.297  1.00  0.00     0.000 C 
BRANCH   9  10
ATOM     10  C   UNL     1       4.064  58.951  -7.566  1.00  0.00    -0.000 C 
BRANCH  10  11
ATOM     11  C   UNL     1       5.289  59.795  -7.963  1.00  0.00    -0.000 C 
BRANCH  11  12
ATOM     12  C   UNL     1       6.654  59.102  -7.779  1.00  0.00    -0.000 C 
BRANCH  12  13
ATOM     13  C   UNL     1       7.877  59.970  -8.123  1.00  0.00    -0.003 C 
ATOM     14  C   UNL     1       9.204  59.269  -7.834  1.00  0.00     0.004 C 
ENDBRANCH  12  13
ENDBRANCH  11  12
ENDBRANCH  10  11
ENDBRANCH   9  10
ENDBRANCH   1   9
TORSDOF 10
ENDMDL
MODEL 8
REMARK VINA RESULT:    -1.093     21.267     22.996
REMARK INTER + INTRA:          -2.278
REMARK INTER:                  -1.867
REMARK INTRA:                  -0.410
REMARK UNBOUND:                -0.546
REMARK SMILES CCCCCCCCCCCC(=O)[O-]
REMARK SMILES IDX 7 1 8 2 9 3 10 4 11 5 12 6 13 7 14 8 6 9 5 10 4 11 3 12 2 13
REMARK SMILES IDX 1 14
REMARK H PARENT
REMARK Flexibility Score: inf
ROOT
ATOM      1  C   UNL     1      -3.606  60.839  -5.135  1.00  0.00     0.000 C 
ENDROOT
BRANCH   1   2
ATOM      2  C   UNL     1      -3.254  60.467  -6.589  1.00  0.00     0.000 C 
BRANCH   2   3
ATOM      3  C   UNL     1      -2.768  59.019  -6.797  1.00  0.00     0.000 C 
BRANCH   3   4
ATOM      4  C   UNL     1      -1.332  58.886  -7.342  1.00  0.00     0.006 C 
BRANCH   4   5
ATOM      5  C   UNL     1      -0.237  58.936  -6.264  1.00  0.00     0.053 C 
BRANCH   5   6
ATOM      6  C   UNL     1       1.131  59.064  -6.860  1.00  0.00     0.041 C 
ATOM      7  O   UNL     1       1.292  58.956  -8.104  1.00  0.00    -0.550 OA
ATOM      8  O   UNL     1       2.233  59.269  -6.039  1.00  0.00    -0.550 OA
ENDBRANCH   5   6
ENDBRANCH   4   5
ENDBRANCH   3   4
ENDBRANCH   2   3
ENDBRANCH   1   2
BRANCH   1   9
ATOM      9  C   UNL     1      -3.625  59.661  -4.144  1.00  0.00     0.000 C 
BRANCH   9  10
ATOM     10  C   UNL     1      -2.221  59.273  -3.650  1.00  0.00    -0.000 C 
BRANCH  10  11
ATOM     11  C   UNL     1      -1.458  60.456  -3.026  1.00  0.00    -0.000 C 
BRANCH  11  12
ATOM     12  C   UNL     1       0.076  60.401  -3.171  1.00  0.00    -0.000 C 
BRANCH  12  13
ATOM     13  C   UNL     1       0.864  61.033  -2.010  1.00  0.00    -0.003 C 
ATOM     14  C   UNL     1       0.619  60.332  -0.674  1.00  0.00     0.004 C 
ENDBRANCH  12  13
ENDBRANCH  11  12
ENDBRANCH  10  11
ENDBRANCH   9  10
ENDBRANCH   1   9
TORSDOF 10
ENDMDL
MODEL 9
REMARK VINA RESULT:    -1.048     20.446     22.049
REMARK INTER + INTRA:          -2.207
REMARK INTER:                  -2.191
REMARK INTRA:                  -0.016
REMARK UNBOUND:                -0.546
REMARK SMILES CCCCCCCCCCCC(=O)[O-]
REMARK SMILES IDX 7 1 8 2 9 3 10 4 11 5 12 6 13 7 14 8 6 9 5 10 4 11 3 12 2 13
REMARK SMILES IDX 1 14
REMARK H PARENT
REMARK Flexibility Score: inf
ROOT
ATOM      1  C   UNL     1      -1.955  60.004  -3.635  1.00  0.00     0.000 C 
ENDROOT
BRANCH   1   2
ATOM      2  C   UNL     1      -0.916  59.720  -4.738  1.00  0.00     0.000 C 
BRANCH   2   3
ATOM      3  C   UNL     1       0.461  60.381  -4.527  1.00  0.00     0.000 C 
BRANCH   3   4
ATOM      4  C   UNL     1       1.073  60.179  -3.127  1.00  0.00     0.006 C 
BRANCH   4   5
ATOM      5  C   UNL     1       0.545  61.150  -2.058  1.00  0.00     0.053 C 
BRANCH   5   6
ATOM      6  C   UNL     1       1.034  60.794  -0.687  1.00  0.00     0.041 C 
ATOM      7  O   UNL     1       0.876  59.628  -0.242  1.00  0.00    -0.550 OA
ATOM      8  O   UNL     1       1.633  61.760   0.111  1.00  0.00    -0.550 OA
ENDBRANCH   5   6
ENDBRANCH   4   5
ENDBRANCH   3   4
ENDBRANCH   2   3
ENDBRANCH   1   2
BRANCH   1   9
ATOM      9  C   UNL     1      -3.191  59.085  -3.647  1.00  0.00     0.000 C 
BRANCH   9  10
ATOM     10  C   UNL     1      -3.995  59.182  -4.954  1.00  0.00    -0.000 C 
BRANCH  10  11
ATOM     11  C   UNL     1      -3.997  60.602  -5.552  1.00  0.00    -0.000 C 
BRANCH  11  12
ATOM     12  C   UNL     1      -4.599  60.719  -6.967  1.00  0.00    -0.000 C 
BRANCH  12  13
ATOM     13  C   UNL     1      -4.344  59.512  -7.886  1.00  0.00    -0.003 C 
ATOM     14  C   UNL     1      -2.857  59.250  -8.125  1.00  0.00     0.004 C 
ENDBRANCH  12  13
ENDBRANCH  11  12
ENDBRANCH  10  11
ENDBRANCH   9  10
ENDBRANCH   1   9
TORSDOF 10
ENDMDL
