MODEL 1
REMARK VINA RESULT:    -6.730      0.000      0.000
REMARK INTER + INTRA:          -8.206
REMARK INTER:                  -7.910
REMARK INTRA:                  -0.296
REMARK UNBOUND:                -0.296
REMARK SMILES O=c1cc(-c2ccc(O)c(O)c2)oc2cc(O)cc(O)c12
REMARK SMILES IDX 4 1 3 2 2 3 1 4 21 5 19 6 18 7 16 8 15 9 14 10 13 11 5 12
REMARK SMILES IDX 6 13 7 14 8 15 12 16 10 17 9 18 11 20 20 22 17 24
REMARK H PARENT 9 19 11 21 20 23 17 25
REMARK Flexibility Score: inf
ROOT
ATOM      1  C   UNL     1      -8.140  15.364  -3.579  1.00  0.00     0.138 A 
ATOM      2  C   UNL     1      -9.202  16.151  -3.115  1.00  0.00     0.100 A 
ATOM      3  C   UNL     1      -9.238  16.543  -1.776  1.00  0.00     0.197 A 
ATOM      4  O   UNL     1     -10.171  17.300  -1.403  1.00  0.00    -0.289 OA
ATOM      5  C   UNL     1      -8.220  16.115  -0.891  1.00  0.00     0.107 A 
ATOM      6  C   UNL     1      -8.175  16.417   0.503  1.00  0.00     0.134 A 
ATOM      7  C   UNL     1      -7.058  16.036   1.256  1.00  0.00     0.093 A 
ATOM      8  C   UNL     1      -6.012  15.312   0.679  1.00  0.00     0.123 A 
ATOM      9  C   UNL     1      -6.071  14.966  -0.669  1.00  0.00     0.094 A 
ATOM     10  C   UNL     1      -7.156  15.360  -1.455  1.00  0.00     0.146 A 
ATOM     11  O   UNL     1      -7.168  15.021  -2.740  1.00  0.00    -0.456 OA
ENDROOT
BRANCH   1  12
ATOM     12  C   UNL     1      -8.052  14.919  -4.993  1.00  0.00     0.021 A 
ATOM     13  C   UNL     1      -6.892  14.264  -5.442  1.00  0.00     0.016 A 
ATOM     14  C   UNL     1      -6.788  13.829  -6.765  1.00  0.00     0.051 A 
ATOM     15  C   UNL     1      -7.842  14.033  -7.661  1.00  0.00     0.157 A 
ATOM     16  C   UNL     1      -9.117  15.109  -5.896  1.00  0.00     0.062 A 
ATOM     17  C   UNL     1      -9.013  14.672  -7.225  1.00  0.00     0.158 A 
BRANCH  15  18
ATOM     18  O   UNL     1      -7.708  13.589  -8.976  1.00  0.00    -0.504 OA
ATOM     19  H   UNL     1      -6.845  13.696  -9.494  1.00  0.00     0.293 HD
ENDBRANCH  15  18
BRANCH  17  20
ATOM     20  O   UNL     1     -10.072  14.867  -8.111  1.00  0.00    -0.504 OA
ATOM     21  H   UNL     1     -10.093  15.655  -8.748  1.00  0.00     0.293 HD
ENDBRANCH  17  20
ENDBRANCH   1  12
BRANCH   6  22
ATOM     22  O   UNL     1      -9.205  17.061   1.197  1.00  0.00    -0.507 OA
ATOM     23  H   UNL     1      -9.171  18.015   1.522  1.00  0.00     0.293 HD
ENDBRANCH   6  22
BRANCH   8  24
ATOM     24  O   UNL     1      -4.910  14.925   1.440  1.00  0.00    -0.508 OA
ATOM     25  H   UNL     1      -4.132  15.552   1.602  1.00  0.00     0.293 HD
ENDBRANCH   8  24
TORSDOF 5
ENDMDL
MODEL 2
REMARK VINA RESULT:    -6.721      1.537      3.353
REMARK INTER + INTRA:          -8.196
REMARK INTER:                  -7.900
REMARK INTRA:                  -0.296
REMARK UNBOUND:                -0.296
REMARK SMILES O=c1cc(-c2ccc(O)c(O)c2)oc2cc(O)cc(O)c12
REMARK SMILES IDX 4 1 3 2 2 3 1 4 21 5 19 6 18 7 16 8 15 9 14 10 13 11 5 12
REMARK SMILES IDX 6 13 7 14 8 15 12 16 10 17 9 18 11 20 20 22 17 24
REMARK H PARENT 9 19 11 21 20 23 17 25
REMARK Flexibility Score: inf
ROOT
ATOM      1  C   UNL     1      -7.377  15.151  -2.175  1.00  0.00     0.138 A 
ATOM      2  C   UNL     1      -6.476  14.429  -1.380  1.00  0.00     0.100 A 
ATOM      3  C   UNL     1      -6.526  14.555   0.009  1.00  0.00     0.197 A 
ATOM      4  O   UNL     1      -5.746  13.848   0.698  1.00  0.00    -0.289 OA
ATOM      5  C   UNL     1      -7.463  15.434   0.601  1.00  0.00     0.107 A 
ATOM      6  C   UNL     1      -7.577  15.675   2.003  1.00  0.00     0.134 A 
ATOM      7  C   UNL     1      -8.619  16.479   2.482  1.00  0.00     0.093 A 
ATOM      8  C   UNL     1      -9.514  17.098   1.606  1.00  0.00     0.123 A 
ATOM      9  C   UNL     1      -9.378  16.912   0.233  1.00  0.00     0.094 A 
ATOM     10  C   UNL     1      -8.370  16.089  -0.275  1.00  0.00     0.146 A 
ATOM     11  O   UNL     1      -8.283  15.928  -1.591  1.00  0.00    -0.456 OA
ENDROOT
BRANCH   1  12
ATOM     12  C   UNL     1      -7.368  15.054  -3.657  1.00  0.00     0.021 A 
ATOM     13  C   UNL     1      -8.387  15.678  -4.397  1.00  0.00     0.016 A 
ATOM     14  C   UNL     1      -8.397  15.608  -5.793  1.00  0.00     0.051 A 
ATOM     15  C   UNL     1      -7.386  14.924  -6.473  1.00  0.00     0.157 A 
ATOM     16  C   UNL     1      -6.344  14.378  -4.348  1.00  0.00     0.062 A 
ATOM     17  C   UNL     1      -6.352  14.308  -5.749  1.00  0.00     0.158 A 
BRANCH  15  18
ATOM     18  O   UNL     1      -7.423  14.870  -7.866  1.00  0.00    -0.504 OA
ATOM     19  H   UNL     1      -8.215  15.212  -8.396  1.00  0.00     0.293 HD
ENDBRANCH  15  18
BRANCH  17  20
ATOM     20  O   UNL     1      -5.335  13.634  -6.424  1.00  0.00    -0.504 OA
ATOM     21  H   UNL     1      -5.297  13.607  -7.436  1.00  0.00     0.293 HD
ENDBRANCH  17  20
ENDBRANCH   1  12
BRANCH   6  22
ATOM     22  O   UNL     1      -6.686  15.174   2.957  1.00  0.00    -0.507 OA
ATOM     23  H   UNL     1      -6.124  14.345   2.841  1.00  0.00     0.293 HD
ENDBRANCH   6  22
BRANCH   8  24
ATOM     24  O   UNL     1     -10.539  17.907   2.093  1.00  0.00    -0.508 OA
ATOM     25  H   UNL     1     -10.455  18.917   2.110  1.00  0.00     0.293 HD
ENDBRANCH   8  24
TORSDOF 5
ENDMDL
MODEL 3
REMARK VINA RESULT:    -6.661      0.596      1.488
REMARK INTER + INTRA:          -8.126
REMARK INTER:                  -7.809
REMARK INTRA:                  -0.316
REMARK UNBOUND:                -0.296
REMARK SMILES O=c1cc(-c2ccc(O)c(O)c2)oc2cc(O)cc(O)c12
REMARK SMILES IDX 4 1 3 2 2 3 1 4 21 5 19 6 18 7 16 8 15 9 14 10 13 11 5 12
REMARK SMILES IDX 6 13 7 14 8 15 12 16 10 17 9 18 11 20 20 22 17 24
REMARK H PARENT 9 19 11 21 20 23 17 25
REMARK Flexibility Score: inf
ROOT
ATOM      1  C   UNL     1      -8.139  15.379  -3.548  1.00  0.00     0.138 A 
ATOM      2  C   UNL     1      -9.222  16.145  -3.094  1.00  0.00     0.100 A 
ATOM      3  C   UNL     1      -9.274  16.544  -1.758  1.00  0.00     0.197 A 
ATOM      4  O   UNL     1     -10.226  17.283  -1.395  1.00  0.00    -0.289 OA
ATOM      5  C   UNL     1      -8.251  16.147  -0.866  1.00  0.00     0.107 A 
ATOM      6  C   UNL     1      -8.220  16.460   0.526  1.00  0.00     0.134 A 
ATOM      7  C   UNL     1      -7.097  16.110   1.287  1.00  0.00     0.093 A 
ATOM      8  C   UNL     1      -6.032  15.407   0.720  1.00  0.00     0.123 A 
ATOM      9  C   UNL     1      -6.077  15.050  -0.625  1.00  0.00     0.094 A 
ATOM     10  C   UNL     1      -7.167  15.414  -1.419  1.00  0.00     0.146 A 
ATOM     11  O   UNL     1      -7.164  15.065  -2.702  1.00  0.00    -0.456 OA
ENDROOT
BRANCH   1  12
ATOM     12  C   UNL     1      -8.034  14.927  -4.959  1.00  0.00     0.021 A 
ATOM     13  C   UNL     1      -9.131  15.093  -5.822  1.00  0.00     0.016 A 
ATOM     14  C   UNL     1      -9.054  14.682  -7.155  1.00  0.00     0.051 A 
ATOM     15  C   UNL     1      -7.881  14.108  -7.652  1.00  0.00     0.157 A 
ATOM     16  C   UNL     1      -6.849  14.361  -5.467  1.00  0.00     0.062 A 
ATOM     17  C   UNL     1      -6.771  13.949  -6.806  1.00  0.00     0.158 A 
BRANCH  15  18
ATOM     18  O   UNL     1      -7.835  13.707  -8.986  1.00  0.00    -0.504 OA
ATOM     19  H   UNL     1      -7.166  13.024  -9.320  1.00  0.00     0.293 HD
ENDBRANCH  15  18
BRANCH  17  20
ATOM     20  O   UNL     1      -5.594  13.388  -7.300  1.00  0.00    -0.504 OA
ATOM     21  H   UNL     1      -4.991  12.820  -6.716  1.00  0.00     0.293 HD
ENDBRANCH  17  20
ENDBRANCH   1  12
BRANCH   6  22
ATOM     22  O   UNL     1      -9.267  17.084   1.210  1.00  0.00    -0.507 OA
ATOM     23  H   UNL     1     -10.177  17.274   0.820  1.00  0.00     0.293 HD
ENDBRANCH   6  22
BRANCH   8  24
ATOM     24  O   UNL     1      -4.925  15.052   1.489  1.00  0.00    -0.508 OA
ATOM     25  H   UNL     1      -4.012  15.456   1.323  1.00  0.00     0.293 HD
ENDBRANCH   8  24
TORSDOF 5
ENDMDL
MODEL 4
REMARK VINA RESULT:    -6.433      1.739      7.372
REMARK INTER + INTRA:          -7.857
REMARK INTER:                  -7.589
REMARK INTRA:                  -0.268
REMARK UNBOUND:                -0.296
REMARK SMILES O=c1cc(-c2ccc(O)c(O)c2)oc2cc(O)cc(O)c12
REMARK SMILES IDX 4 1 3 2 2 3 1 4 21 5 19 6 18 7 16 8 15 9 14 10 13 11 5 12
REMARK SMILES IDX 6 13 7 14 8 15 12 16 10 17 9 18 11 20 20 22 17 24
REMARK H PARENT 9 19 11 21 20 23 17 25
REMARK Flexibility Score: inf
ROOT
ATOM      1  C   UNL     1      -7.387  14.346  -2.841  1.00  0.00     0.138 A 
ATOM      2  C   UNL     1      -7.421  12.946  -2.896  1.00  0.00     0.100 A 
ATOM      3  C   UNL     1      -7.520  12.305  -4.132  1.00  0.00     0.197 A 
ATOM      4  O   UNL     1      -7.487  11.047  -4.153  1.00  0.00    -0.289 OA
ATOM      5  C   UNL     1      -7.617  13.073  -5.316  1.00  0.00     0.107 A 
ATOM      6  C   UNL     1      -7.764  12.530  -6.627  1.00  0.00     0.134 A 
ATOM      7  C   UNL     1      -7.733  13.385  -7.736  1.00  0.00     0.093 A 
ATOM      8  C   UNL     1      -7.621  14.769  -7.577  1.00  0.00     0.123 A 
ATOM      9  C   UNL     1      -7.532  15.312  -6.298  1.00  0.00     0.094 A 
ATOM     10  C   UNL     1      -7.525  14.484  -5.174  1.00  0.00     0.146 A 
ATOM     11  O   UNL     1      -7.424  15.043  -3.972  1.00  0.00    -0.456 OA
ENDROOT
BRANCH   1  12
ATOM     12  C   UNL     1      -7.283  15.079  -1.554  1.00  0.00     0.021 A 
ATOM     13  C   UNL     1      -8.290  15.991  -1.193  1.00  0.00     0.016 A 
ATOM     14  C   UNL     1      -8.218  16.687   0.015  1.00  0.00     0.051 A 
ATOM     15  C   UNL     1      -7.148  16.479   0.889  1.00  0.00     0.157 A 
ATOM     16  C   UNL     1      -6.213  14.862  -0.664  1.00  0.00     0.062 A 
ATOM     17  C   UNL     1      -6.141  15.560   0.551  1.00  0.00     0.158 A 
BRANCH  15  18
ATOM     18  O   UNL     1      -7.103  17.189   2.088  1.00  0.00    -0.504 OA
ATOM     19  H   UNL     1      -7.253  16.743   2.984  1.00  0.00     0.293 HD
ENDBRANCH  15  18
BRANCH  17  20
ATOM     20  O   UNL     1      -5.077  15.340   1.425  1.00  0.00    -0.504 OA
ATOM     21  H   UNL     1      -5.099  15.671   2.383  1.00  0.00     0.293 HD
ENDBRANCH  17  20
ENDBRANCH   1  12
BRANCH   6  22
ATOM     22  O   UNL     1      -7.967  11.172  -6.892  1.00  0.00    -0.507 OA
ATOM     23  H   UNL     1      -7.249  10.530  -7.190  1.00  0.00     0.293 HD
ENDBRANCH   6  22
BRANCH   8  24
ATOM     24  O   UNL     1      -7.606  15.612  -8.686  1.00  0.00    -0.508 OA
ATOM     25  H   UNL     1      -7.589  16.620  -8.585  1.00  0.00     0.293 HD
ENDBRANCH   8  24
TORSDOF 5
ENDMDL
MODEL 5
REMARK VINA RESULT:    -6.354      2.874      5.372
REMARK INTER + INTRA:          -7.765
REMARK INTER:                  -7.495
REMARK INTRA:                  -0.270
REMARK UNBOUND:                -0.296
REMARK SMILES O=c1cc(-c2ccc(O)c(O)c2)oc2cc(O)cc(O)c12
REMARK SMILES IDX 4 1 3 2 2 3 1 4 21 5 19 6 18 7 16 8 15 9 14 10 13 11 5 12
REMARK SMILES IDX 6 13 7 14 8 15 12 16 10 17 9 18 11 20 20 22 17 24
REMARK H PARENT 9 19 11 21 20 23 17 25
REMARK Flexibility Score: inf
ROOT
ATOM      1  C   UNL     1      -7.457  16.028   1.025  1.00  0.00     0.138 A 
ATOM      2  C   UNL     1      -7.479  14.814   1.724  1.00  0.00     0.100 A 
ATOM      3  C   UNL     1      -7.178  14.795   3.087  1.00  0.00     0.197 A 
ATOM      4  O   UNL     1      -7.267  13.700   3.700  1.00  0.00    -0.289 OA
ATOM      5  C   UNL     1      -6.822  15.996   3.744  1.00  0.00     0.107 A 
ATOM      6  C   UNL     1      -6.455  16.091   5.121  1.00  0.00     0.134 A 
ATOM      7  C   UNL     1      -6.234  17.351   5.690  1.00  0.00     0.093 A 
ATOM      8  C   UNL     1      -6.308  18.514   4.919  1.00  0.00     0.123 A 
ATOM      9  C   UNL     1      -6.613  18.427   3.564  1.00  0.00     0.094 A 
ATOM     10  C   UNL     1      -6.872  17.188   2.973  1.00  0.00     0.146 A 
ATOM     11  O   UNL     1      -7.172  17.150   1.679  1.00  0.00    -0.456 OA
ENDROOT
BRANCH   1  12
ATOM     12  C   UNL     1      -7.768  16.106  -0.424  1.00  0.00     0.021 A 
ATOM     13  C   UNL     1      -8.798  16.953  -0.867  1.00  0.00     0.016 A 
ATOM     14  C   UNL     1      -9.105  17.049  -2.226  1.00  0.00     0.051 A 
ATOM     15  C   UNL     1      -8.385  16.309  -3.167  1.00  0.00     0.157 A 
ATOM     16  C   UNL     1      -7.035  15.373  -1.378  1.00  0.00     0.062 A 
ATOM     17  C   UNL     1      -7.342  15.469  -2.744  1.00  0.00     0.158 A 
BRANCH  15  18
ATOM     18  O   UNL     1      -8.715  16.425  -4.517  1.00  0.00    -0.504 OA
ATOM     19  H   UNL     1      -9.674  16.518  -4.830  1.00  0.00     0.293 HD
ENDBRANCH  15  18
BRANCH  17  20
ATOM     20  O   UNL     1      -6.612  14.738  -3.680  1.00  0.00    -0.504 OA
ATOM     21  H   UNL     1      -6.414  13.753  -3.546  1.00  0.00     0.293 HD
ENDBRANCH  17  20
ENDBRANCH   1  12
BRANCH   6  22
ATOM     22  O   UNL     1      -6.270  14.987   5.958  1.00  0.00    -0.507 OA
ATOM     23  H   UNL     1      -7.002  14.359   6.253  1.00  0.00     0.293 HD
ENDBRANCH   6  22
BRANCH   8  24
ATOM     24  O   UNL     1      -6.072  19.762   5.493  1.00  0.00    -0.508 OA
ATOM     25  H   UNL     1      -6.626  20.573   5.244  1.00  0.00     0.293 HD
ENDBRANCH   8  24
TORSDOF 5
ENDMDL
MODEL 6
REMARK VINA RESULT:    -6.084      1.780      7.065
REMARK INTER + INTRA:          -7.447
REMARK INTER:                  -7.176
REMARK INTRA:                  -0.271
REMARK UNBOUND:                -0.296
REMARK SMILES O=c1cc(-c2ccc(O)c(O)c2)oc2cc(O)cc(O)c12
REMARK SMILES IDX 4 1 3 2 2 3 1 4 21 5 19 6 18 7 16 8 15 9 14 10 13 11 5 12
REMARK SMILES IDX 6 13 7 14 8 15 12 16 10 17 9 18 11 20 20 22 17 24
REMARK H PARENT 9 19 11 21 20 23 17 25
REMARK Flexibility Score: inf
ROOT
ATOM      1  C   UNL     1      -8.539  15.043  -2.052  1.00  0.00     0.138 A 
ATOM      2  C   UNL     1      -9.731  14.307  -2.056  1.00  0.00     0.100 A 
ATOM      3  C   UNL     1     -10.265  13.861  -3.266  1.00  0.00     0.197 A 
ATOM      4  O   UNL     1     -11.303  13.151  -3.232  1.00  0.00    -0.289 OA
ATOM      5  C   UNL     1      -9.616  14.183  -4.481  1.00  0.00     0.107 A 
ATOM      6  C   UNL     1     -10.090  13.819  -5.777  1.00  0.00     0.134 A 
ATOM      7  C   UNL     1      -9.302  14.092  -6.901  1.00  0.00     0.093 A 
ATOM      8  C   UNL     1      -8.086  14.771  -6.783  1.00  0.00     0.123 A 
ATOM      9  C   UNL     1      -7.641  15.178  -5.528  1.00  0.00     0.094 A 
ATOM     10  C   UNL     1      -8.387  14.890  -4.383  1.00  0.00     0.146 A 
ATOM     11  O   UNL     1      -7.919  15.284  -3.203  1.00  0.00    -0.456 OA
ENDROOT
BRANCH   1  12
ATOM     12  C   UNL     1      -7.927  15.541  -0.794  1.00  0.00     0.021 A 
ATOM     13  C   UNL     1      -8.597  16.521  -0.040  1.00  0.00     0.016 A 
ATOM     14  C   UNL     1      -8.046  17.001   1.150  1.00  0.00     0.051 A 
ATOM     15  C   UNL     1      -6.824  16.505   1.614  1.00  0.00     0.157 A 
ATOM     16  C   UNL     1      -6.703  15.035  -0.316  1.00  0.00     0.062 A 
ATOM     17  C   UNL     1      -6.150  15.516   0.881  1.00  0.00     0.158 A 
BRANCH  15  18
ATOM     18  O   UNL     1      -6.299  17.005   2.805  1.00  0.00    -0.504 OA
ATOM     19  H   UNL     1      -5.893  17.931   2.868  1.00  0.00     0.293 HD
ENDBRANCH  15  18
BRANCH  17  20
ATOM     20  O   UNL     1      -4.937  15.010   1.345  1.00  0.00    -0.504 OA
ATOM     21  H   UNL     1      -4.132  14.916   0.735  1.00  0.00     0.293 HD
ENDBRANCH  17  20
ENDBRANCH   1  12
BRANCH   6  22
ATOM     22  O   UNL     1     -11.328  13.214  -6.014  1.00  0.00    -0.507 OA
ATOM     23  H   UNL     1     -12.041  13.068  -5.316  1.00  0.00     0.293 HD
ENDBRANCH   6  22
BRANCH   8  24
ATOM     24  O   UNL     1      -7.317  15.051  -7.910  1.00  0.00    -0.508 OA
ATOM     25  H   UNL     1      -6.650  14.383  -8.276  1.00  0.00     0.293 HD
ENDBRANCH   8  24
TORSDOF 5
ENDMDL
MODEL 7
REMARK VINA RESULT:    -5.773      1.835      6.969
REMARK INTER + INTRA:          -7.081
REMARK INTER:                  -6.791
REMARK INTRA:                  -0.290
REMARK UNBOUND:                -0.296
REMARK SMILES O=c1cc(-c2ccc(O)c(O)c2)oc2cc(O)cc(O)c12
REMARK SMILES IDX 4 1 3 2 2 3 1 4 21 5 19 6 18 7 16 8 15 9 14 10 13 11 5 12
REMARK SMILES IDX 6 13 7 14 8 15 12 16 10 17 9 18 11 20 20 22 17 24
REMARK H PARENT 9 19 11 21 20 23 17 25
REMARK Flexibility Score: inf
ROOT
ATOM      1  C   UNL     1      -8.115  15.304  -1.426  1.00  0.00     0.138 A 
ATOM      2  C   UNL     1      -9.445  14.938  -1.676  1.00  0.00     0.100 A 
ATOM      3  C   UNL     1      -9.796  14.421  -2.923  1.00  0.00     0.197 A 
ATOM      4  O   UNL     1     -10.984  14.044  -3.097  1.00  0.00    -0.289 OA
ATOM      5  C   UNL     1      -8.816  14.302  -3.936  1.00  0.00     0.107 A 
ATOM      6  C   UNL     1      -9.067  13.829  -5.259  1.00  0.00     0.134 A 
ATOM      7  C   UNL     1      -7.995  13.644  -6.141  1.00  0.00     0.093 A 
ATOM      8  C   UNL     1      -6.689  13.974  -5.768  1.00  0.00     0.123 A 
ATOM      9  C   UNL     1      -6.441  14.487  -4.498  1.00  0.00     0.094 A 
ATOM     10  C   UNL     1      -7.484  14.650  -3.583  1.00  0.00     0.146 A 
ATOM     11  O   UNL     1      -7.202  15.130  -2.376  1.00  0.00    -0.456 OA
ENDROOT
BRANCH   1  12
ATOM     12  C   UNL     1      -7.686  15.858  -0.117  1.00  0.00     0.021 A 
ATOM     13  C   UNL     1      -6.352  15.705   0.296  1.00  0.00     0.016 A 
ATOM     14  C   UNL     1      -5.922  16.223   1.520  1.00  0.00     0.051 A 
ATOM     15  C   UNL     1      -6.813  16.912   2.348  1.00  0.00     0.157 A 
ATOM     16  C   UNL     1      -8.578  16.565   0.715  1.00  0.00     0.062 A 
ATOM     17  C   UNL     1      -8.146  17.087   1.943  1.00  0.00     0.158 A 
BRANCH  15  18
ATOM     18  O   UNL     1      -6.355  17.417   3.564  1.00  0.00    -0.504 OA
ATOM     19  H   UNL     1      -6.809  18.193   4.030  1.00  0.00     0.293 HD
ENDBRANCH  15  18
BRANCH  17  20
ATOM     20  O   UNL     1      -9.036  17.783   2.760  1.00  0.00    -0.504 OA
ATOM     21  H   UNL     1      -9.563  17.317   3.490  1.00  0.00     0.293 HD
ENDBRANCH  17  20
ENDBRANCH   1  12
BRANCH   6  22
ATOM     22  O   UNL     1     -10.342  13.551  -5.761  1.00  0.00    -0.507 OA
ATOM     23  H   UNL     1     -10.797  12.652  -5.713  1.00  0.00     0.293 HD
ENDBRANCH   6  22
BRANCH   8  24
ATOM     24  O   UNL     1      -5.631  13.800  -6.658  1.00  0.00    -0.508 OA
ATOM     25  H   UNL     1      -5.370  12.883  -6.998  1.00  0.00     0.293 HD
ENDBRANCH   8  24
TORSDOF 5
ENDMDL
MODEL 8
REMARK VINA RESULT:    -5.760      3.205      8.478
REMARK INTER + INTRA:          -7.066
REMARK INTER:                  -6.757
REMARK INTRA:                  -0.309
REMARK UNBOUND:                -0.296
REMARK SMILES O=c1cc(-c2ccc(O)c(O)c2)oc2cc(O)cc(O)c12
REMARK SMILES IDX 4 1 3 2 2 3 1 4 21 5 19 6 18 7 16 8 15 9 14 10 13 11 5 12
REMARK SMILES IDX 6 13 7 14 8 15 12 16 10 17 9 18 11 20 20 22 17 24
REMARK H PARENT 9 19 11 21 20 23 17 25
REMARK Flexibility Score: inf
ROOT
ATOM      1  C   UNL     1      -7.593  16.499   2.039  1.00  0.00     0.138 A 
ATOM      2  C   UNL     1      -7.718  15.121   2.258  1.00  0.00     0.100 A 
ATOM      3  C   UNL     1      -8.042  14.278   1.194  1.00  0.00     0.197 A 
ATOM      4  O   UNL     1      -8.086  13.039   1.409  1.00  0.00    -0.289 OA
ATOM      5  C   UNL     1      -8.272  14.825  -0.090  1.00  0.00     0.107 A 
ATOM      6  C   UNL     1      -8.649  14.068  -1.240  1.00  0.00     0.134 A 
ATOM      7  C   UNL     1      -8.737  14.703  -2.485  1.00  0.00     0.093 A 
ATOM      8  C   UNL     1      -8.521  16.078  -2.611  1.00  0.00     0.123 A 
ATOM      9  C   UNL     1      -8.206  16.834  -1.485  1.00  0.00     0.094 A 
ATOM     10  C   UNL     1      -8.077  16.225  -0.235  1.00  0.00     0.146 A 
ATOM     11  O   UNL     1      -7.761  16.981   0.811  1.00  0.00    -0.456 OA
ENDROOT
BRANCH   1  12
ATOM     12  C   UNL     1      -7.251  17.441   3.135  1.00  0.00     0.021 A 
ATOM     13  C   UNL     1      -6.548  16.970   4.257  1.00  0.00     0.016 A 
ATOM     14  C   UNL     1      -6.208  17.838   5.298  1.00  0.00     0.051 A 
ATOM     15  C   UNL     1      -6.555  19.190   5.233  1.00  0.00     0.157 A 
ATOM     16  C   UNL     1      -7.586  18.807   3.067  1.00  0.00     0.062 A 
ATOM     17  C   UNL     1      -7.244  19.679   4.112  1.00  0.00     0.158 A 
BRANCH  15  18
ATOM     18  O   UNL     1      -6.203  20.031   6.288  1.00  0.00    -0.504 OA
ATOM     19  H   UNL     1      -6.739  20.070   7.146  1.00  0.00     0.293 HD
ENDBRANCH  15  18
BRANCH  17  20
ATOM     20  O   UNL     1      -7.582  21.030   4.037  1.00  0.00    -0.504 OA
ATOM     21  H   UNL     1      -7.018  21.744   4.484  1.00  0.00     0.293 HD
ENDBRANCH  17  20
ENDBRANCH   1  12
BRANCH   6  22
ATOM     22  O   UNL     1      -8.970  12.708  -1.210  1.00  0.00    -0.507 OA
ATOM     23  H   UNL     1      -9.286  12.173  -2.004  1.00  0.00     0.293 HD
ENDBRANCH   6  22
BRANCH   8  24
ATOM     24  O   UNL     1      -8.625  16.703  -3.852  1.00  0.00    -0.508 OA
ATOM     25  H   UNL     1      -8.522  17.705  -3.951  1.00  0.00     0.293 HD
ENDBRANCH   8  24
TORSDOF 5
ENDMDL
MODEL 9
REMARK VINA RESULT:    -5.621      1.963      2.680
REMARK INTER + INTRA:          -6.903
REMARK INTER:                  -6.636
REMARK INTRA:                  -0.268
REMARK UNBOUND:                -0.296
REMARK SMILES O=c1cc(-c2ccc(O)c(O)c2)oc2cc(O)cc(O)c12
REMARK SMILES IDX 4 1 3 2 2 3 1 4 21 5 19 6 18 7 16 8 15 9 14 10 13 11 5 12
REMARK SMILES IDX 6 13 7 14 8 15 12 16 10 17 9 18 11 20 20 22 17 24
REMARK H PARENT 9 19 11 21 20 23 17 25
REMARK Flexibility Score: inf
ROOT
ATOM      1  C   UNL     1      -8.329  15.242  -1.953  1.00  0.00     0.138 A 
ATOM      2  C   UNL     1      -9.498  14.677  -1.425  1.00  0.00     0.100 A 
ATOM      3  C   UNL     1      -9.775  14.807  -0.063  1.00  0.00     0.197 A 
ATOM      4  O   UNL     1     -10.861  14.343   0.369  1.00  0.00    -0.289 OA
ATOM      5  C   UNL     1      -8.858  15.480   0.779  1.00  0.00     0.107 A 
ATOM      6  C   UNL     1      -9.015  15.638   2.189  1.00  0.00     0.134 A 
ATOM      7  C   UNL     1      -8.101  16.424   2.901  1.00  0.00     0.093 A 
ATOM      8  C   UNL     1      -7.002  17.008   2.265  1.00  0.00     0.123 A 
ATOM      9  C   UNL     1      -6.812  16.815   0.899  1.00  0.00     0.094 A 
ATOM     10  C   UNL     1      -7.724  16.065   0.154  1.00  0.00     0.146 A 
ATOM     11  O   UNL     1      -7.512  15.917  -1.150  1.00  0.00    -0.456 OA
ENDROOT
BRANCH   1  12
ATOM     12  C   UNL     1      -7.985  15.133  -3.393  1.00  0.00     0.021 A 
ATOM     13  C   UNL     1      -8.712  15.879  -4.336  1.00  0.00     0.016 A 
ATOM     14  C   UNL     1      -8.404  15.800  -5.696  1.00  0.00     0.051 A 
ATOM     15  C   UNL     1      -7.359  14.983  -6.137  1.00  0.00     0.157 A 
ATOM     16  C   UNL     1      -6.924  14.322  -3.841  1.00  0.00     0.062 A 
ATOM     17  C   UNL     1      -6.613  14.242  -5.206  1.00  0.00     0.158 A 
BRANCH  15  18
ATOM     18  O   UNL     1      -7.076  14.923  -7.501  1.00  0.00    -0.504 OA
ATOM     19  H   UNL     1      -6.186  15.223  -7.879  1.00  0.00     0.293 HD
ENDBRANCH  15  18
BRANCH  17  20
ATOM     20  O   UNL     1      -5.562  13.435  -5.640  1.00  0.00    -0.504 OA
ATOM     21  H   UNL     1      -4.705  13.831  -6.007  1.00  0.00     0.293 HD
ENDBRANCH  17  20
ENDBRANCH   1  12
BRANCH   6  22
ATOM     22  O   UNL     1     -10.028  15.029   2.935  1.00  0.00    -0.507 OA
ATOM     23  H   UNL     1     -10.189  15.179   3.919  1.00  0.00     0.293 HD
ENDBRANCH   6  22
BRANCH   8  24
ATOM     24  O   UNL     1      -6.090  17.776   2.985  1.00  0.00    -0.508 OA
ATOM     25  H   UNL     1      -5.256  18.153   2.552  1.00  0.00     0.293 HD
ENDBRANCH   8  24
TORSDOF 5
ENDMDL
