MODEL 1
REMARK VINA RESULT:    -4.243      0.000      0.000
REMARK INTER + INTRA:         -10.440
REMARK INTER:                  -8.212
REMARK INTRA:                  -2.228
REMARK UNBOUND:                -2.228
REMARK SMILES CCCCCCCCCCCCCCCCCC(=O)[O-]
REMARK SMILES IDX 10 1 11 2 12 3 13 4 14 5 15 6 16 7 17 8 18 9 19 10 20 11
REMARK SMILES IDX 9 12 8 13 7 14 6 15 5 16 4 17 3 18 2 19 1 20
REMARK H PARENT
REMARK Flexibility Score: inf
ROOT
ATOM      1  C   UNL     1       0.980  -3.727  -8.344  1.00  0.00     0.000 C 
ENDROOT
BRANCH   1   2
ATOM      2  C   UNL     1       1.874  -2.496  -8.158  1.00  0.00     0.000 C 
BRANCH   2   3
ATOM      3  C   UNL     1       3.260  -2.901  -7.632  1.00  0.00     0.000 C 
BRANCH   3   4
ATOM      4  C   UNL     1       4.398  -2.093  -8.275  1.00  0.00     0.000 C 
BRANCH   4   5
ATOM      5  C   UNL     1       5.192  -2.907  -9.309  1.00  0.00     0.000 C 
BRANCH   5   6
ATOM      6  C   UNL     1       6.499  -2.199  -9.730  1.00  0.00     0.000 C 
BRANCH   6   7
ATOM      7  C   UNL     1       6.526  -0.699  -9.381  1.00  0.00     0.006 C 
BRANCH   7   8
ATOM      8  C   UNL     1       7.553  -0.326  -8.302  1.00  0.00     0.053 C 
BRANCH   8   9
ATOM      9  C   UNL     1       7.088   0.825  -7.463  1.00  0.00     0.041 C 
ATOM     10  O   UNL     1       6.139   0.672  -6.650  1.00  0.00    -0.550 OA
ATOM     11  O   UNL     1       7.714   2.061  -7.563  1.00  0.00    -0.550 OA
ENDBRANCH   8   9
ENDBRANCH   7   8
ENDBRANCH   6   7
ENDBRANCH   5   6
ENDBRANCH   4   5
ENDBRANCH   3   4
ENDBRANCH   2   3
ENDBRANCH   1   2
BRANCH   1  12
ATOM     12  C   UNL     1       1.123  -4.304  -9.760  1.00  0.00     0.000 C 
BRANCH  12  13
ATOM     13  C   UNL     1       1.657  -5.746  -9.768  1.00  0.00    -0.000 C 
BRANCH  13  14
ATOM     14  C   UNL     1       3.178  -5.839 -10.017  1.00  0.00    -0.000 C 
BRANCH  14  15
ATOM     15  C   UNL     1       3.932  -6.394  -8.796  1.00  0.00    -0.000 C 
BRANCH  15  16
ATOM     16  C   UNL     1       2.990  -7.003  -7.746  1.00  0.00    -0.000 C 
BRANCH  16  17
ATOM     17  C   UNL     1       3.217  -6.418  -6.341  1.00  0.00    -0.000 C 
BRANCH  17  18
ATOM     18  C   UNL     1       4.668  -5.959  -6.114  1.00  0.00    -0.000 C 
BRANCH  18  19
ATOM     19  C   UNL     1       5.253  -6.409  -4.760  1.00  0.00    -0.003 C 
ATOM     20  C   UNL     1       4.579  -7.672  -4.224  1.00  0.00     0.004 C 
ENDBRANCH  18  19
ENDBRANCH  17  18
ENDBRANCH  16  17
ENDBRANCH  15  16
ENDBRANCH  14  15
ENDBRANCH  13  14
ENDBRANCH  12  13
ENDBRANCH   1  12
TORSDOF 16
ENDMDL
MODEL 2
REMARK VINA RESULT:    -4.161      2.843      6.401
REMARK INTER + INTRA:         -10.282
REMARK INTER:                  -8.486
REMARK INTRA:                  -1.796
REMARK UNBOUND:                -2.228
REMARK SMILES CCCCCCCCCCCCCCCCCC(=O)[O-]
REMARK SMILES IDX 10 1 11 2 12 3 13 4 14 5 15 6 16 7 17 8 18 9 19 10 20 11
REMARK SMILES IDX 9 12 8 13 7 14 6 15 5 16 4 17 3 18 2 19 1 20
REMARK H PARENT
REMARK Flexibility Score: inf
ROOT
ATOM      1  C   UNL     1       2.844  -3.052  -7.514  1.00  0.00     0.000 C 
ENDROOT
BRANCH   1   2
ATOM      2  C   UNL     1       1.748  -4.115  -7.652  1.00  0.00     0.000 C 
BRANCH   2   3
ATOM      3  C   UNL     1       1.797  -4.775  -9.038  1.00  0.00     0.000 C 
BRANCH   3   4
ATOM      4  C   UNL     1       2.160  -6.267  -8.972  1.00  0.00     0.000 C 
BRANCH   4   5
ATOM      5  C   UNL     1       3.669  -6.518  -9.132  1.00  0.00     0.000 C 
BRANCH   5   6
ATOM      6  C   UNL     1       4.384  -6.664  -7.771  1.00  0.00     0.000 C 
BRANCH   6   7
ATOM      7  C   UNL     1       3.438  -7.045  -6.616  1.00  0.00     0.006 C 
BRANCH   7   8
ATOM      8  C   UNL     1       3.754  -6.341  -5.289  1.00  0.00     0.053 C 
BRANCH   8   9
ATOM      9  C   UNL     1       4.933  -6.956  -4.598  1.00  0.00     0.041 C 
ATOM     10  O   UNL     1       4.867  -8.136  -4.166  1.00  0.00    -0.550 OA
ATOM     11  O   UNL     1       6.111  -6.235  -4.449  1.00  0.00    -0.550 OA
ENDBRANCH   8   9
ENDBRANCH   7   8
ENDBRANCH   6   7
ENDBRANCH   5   6
ENDBRANCH   4   5
ENDBRANCH   3   4
ENDBRANCH   2   3
ENDBRANCH   1   2
BRANCH   1  12
ATOM     12  C   UNL     1       3.447  -2.701  -8.882  1.00  0.00     0.000 C 
BRANCH  12  13
ATOM     13  C   UNL     1       4.911  -3.151  -9.024  1.00  0.00    -0.000 C 
BRANCH  13  14
ATOM     14  C   UNL     1       5.722  -2.304 -10.028  1.00  0.00    -0.000 C 
BRANCH  14  15
ATOM     15  C   UNL     1       7.025  -1.765  -9.411  1.00  0.00    -0.000 C 
BRANCH  15  16
ATOM     16  C   UNL     1       6.925  -0.284  -9.017  1.00  0.00    -0.000 C 
BRANCH  16  17
ATOM     17  C   UNL     1       6.042  -0.064  -7.776  1.00  0.00    -0.000 C 
BRANCH  17  18
ATOM     18  C   UNL     1       6.793   0.626  -6.624  1.00  0.00    -0.000 C 
BRANCH  18  19
ATOM     19  C   UNL     1       8.323   0.666  -6.822  1.00  0.00    -0.003 C 
ATOM     20  C   UNL     1       9.070  -0.136  -5.757  1.00  0.00     0.004 C 
ENDBRANCH  18  19
ENDBRANCH  17  18
ENDBRANCH  16  17
ENDBRANCH  15  16
ENDBRANCH  14  15
ENDBRANCH  13  14
ENDBRANCH  12  13
ENDBRANCH   1  12
TORSDOF 16
ENDMDL
MODEL 3
REMARK VINA RESULT:    -4.108      3.339      6.358
REMARK INTER + INTRA:         -10.177
REMARK INTER:                  -7.944
REMARK INTRA:                  -2.234
REMARK UNBOUND:                -2.228
REMARK SMILES CCCCCCCCCCCCCCCCCC(=O)[O-]
REMARK SMILES IDX 10 1 11 2 12 3 13 4 14 5 15 6 16 7 17 8 18 9 19 10 20 11
REMARK SMILES IDX 9 12 8 13 7 14 6 15 5 16 4 17 3 18 2 19 1 20
REMARK H PARENT
REMARK Flexibility Score: inf
ROOT
ATOM      1  C   UNL     1       3.000  -4.637  -6.776  1.00  0.00     0.000 C 
ENDROOT
BRANCH   1   2
ATOM      2  C   UNL     1       2.739  -6.127  -7.025  1.00  0.00     0.000 C 
BRANCH   2   3
ATOM      3  C   UNL     1       2.876  -6.465  -8.517  1.00  0.00     0.000 C 
BRANCH   3   4
ATOM      4  C   UNL     1       4.112  -7.327  -8.819  1.00  0.00     0.000 C 
BRANCH   4   5
ATOM      5  C   UNL     1       5.342  -6.488  -9.203  1.00  0.00     0.000 C 
BRANCH   5   6
ATOM      6  C   UNL     1       6.232  -6.165  -7.983  1.00  0.00     0.000 C 
BRANCH   6   7
ATOM      7  C   UNL     1       6.267  -7.290  -6.932  1.00  0.00     0.006 C 
BRANCH   7   8
ATOM      8  C   UNL     1       6.027  -6.809  -5.493  1.00  0.00     0.053 C 
BRANCH   8   9
ATOM      9  C   UNL     1       5.164  -7.761  -4.723  1.00  0.00     0.041 C 
ATOM     10  O   UNL     1       5.016  -7.617  -3.482  1.00  0.00    -0.550 OA
ATOM     11  O   UNL     1       4.506  -8.795  -5.378  1.00  0.00    -0.550 OA
ENDBRANCH   8   9
ENDBRANCH   7   8
ENDBRANCH   6   7
ENDBRANCH   5   6
ENDBRANCH   4   5
ENDBRANCH   3   4
ENDBRANCH   2   3
ENDBRANCH   1   2
BRANCH   1  12
ATOM     12  C   UNL     1       1.912  -3.770  -7.426  1.00  0.00     0.000 C 
BRANCH  12  13
ATOM     13  C   UNL     1       2.488  -2.615  -8.262  1.00  0.00    -0.000 C 
BRANCH  13  14
ATOM     14  C   UNL     1       4.028  -2.532  -8.221  1.00  0.00    -0.000 C 
BRANCH  14  15
ATOM     15  C   UNL     1       4.656  -2.724  -9.613  1.00  0.00    -0.000 C 
BRANCH  15  16
ATOM     16  C   UNL     1       6.159  -2.408  -9.632  1.00  0.00    -0.000 C 
BRANCH  16  17
ATOM     17  C   UNL     1       6.456  -0.939  -9.285  1.00  0.00    -0.000 C 
BRANCH  17  18
ATOM     18  C   UNL     1       7.815  -0.753  -8.588  1.00  0.00    -0.000 C 
BRANCH  18  19
ATOM     19  C   UNL     1       7.802   0.327  -7.488  1.00  0.00    -0.003 C 
ATOM     20  C   UNL     1       6.406   0.553  -6.908  1.00  0.00     0.004 C 
ENDBRANCH  18  19
ENDBRANCH  17  18
ENDBRANCH  16  17
ENDBRANCH  15  16
ENDBRANCH  14  15
ENDBRANCH  13  14
ENDBRANCH  12  13
ENDBRANCH   1  12
TORSDOF 16
ENDMDL
MODEL 4
REMARK VINA RESULT:    -4.058      1.484      2.675
REMARK INTER + INTRA:         -10.082
REMARK INTER:                  -8.176
REMARK INTRA:                  -1.906
REMARK UNBOUND:                -2.228
REMARK SMILES CCCCCCCCCCCCCCCCCC(=O)[O-]
REMARK SMILES IDX 10 1 11 2 12 3 13 4 14 5 15 6 16 7 17 8 18 9 19 10 20 11
REMARK SMILES IDX 9 12 8 13 7 14 6 15 5 16 4 17 3 18 2 19 1 20
REMARK H PARENT
REMARK Flexibility Score: inf
ROOT
ATOM      1  C   UNL     1       2.959  -6.170  -6.552  1.00  0.00     0.000 C 
ENDROOT
BRANCH   1   2
ATOM      2  C   UNL     1       3.648  -4.821  -6.789  1.00  0.00     0.000 C 
BRANCH   2   3
ATOM      3  C   UNL     1       2.628  -3.751  -7.206  1.00  0.00     0.000 C 
BRANCH   3   4
ATOM      4  C   UNL     1       3.243  -2.661  -8.097  1.00  0.00     0.000 C 
BRANCH   4   5
ATOM      5  C   UNL     1       4.294  -3.215  -9.074  1.00  0.00     0.000 C 
BRANCH   5   6
ATOM      6  C   UNL     1       5.360  -2.160  -9.444  1.00  0.00     0.000 C 
BRANCH   6   7
ATOM      7  C   UNL     1       5.601  -1.115  -8.338  1.00  0.00     0.006 C 
BRANCH   7   8
ATOM      8  C   UNL     1       6.902  -0.317  -8.505  1.00  0.00     0.053 C 
BRANCH   8   9
ATOM      9  C   UNL     1       7.111   0.651  -7.380  1.00  0.00     0.041 C 
ATOM     10  O   UNL     1       6.183   0.879  -6.562  1.00  0.00    -0.550 OA
ATOM     11  O   UNL     1       8.337   1.285  -7.221  1.00  0.00    -0.550 OA
ENDBRANCH   8   9
ENDBRANCH   7   8
ENDBRANCH   6   7
ENDBRANCH   5   6
ENDBRANCH   4   5
ENDBRANCH   3   4
ENDBRANCH   2   3
ENDBRANCH   1   2
BRANCH   1  12
ATOM     12  C   UNL     1       3.201  -7.127  -7.729  1.00  0.00     0.000 C 
BRANCH  12  13
ATOM     13  C   UNL     1       4.695  -7.370  -8.004  1.00  0.00    -0.000 C 
BRANCH  13  14
ATOM     14  C   UNL     1       5.134  -8.832  -7.777  1.00  0.00    -0.000 C 
BRANCH  14  15
ATOM     15  C   UNL     1       4.325  -9.511  -6.657  1.00  0.00    -0.000 C 
BRANCH  15  16
ATOM     16  C   UNL     1       5.060  -9.502  -5.308  1.00  0.00    -0.000 C 
BRANCH  16  17
ATOM     17  C   UNL     1       4.438  -8.512  -4.306  1.00  0.00    -0.000 C 
BRANCH  17  18
ATOM     18  C   UNL     1       5.464  -7.519  -3.735  1.00  0.00    -0.000 C 
BRANCH  18  19
ATOM     19  C   UNL     1       6.257  -6.759  -4.818  1.00  0.00    -0.003 C 
ATOM     20  C   UNL     1       7.708  -7.229  -4.915  1.00  0.00     0.004 C 
ENDBRANCH  18  19
ENDBRANCH  17  18
ENDBRANCH  16  17
ENDBRANCH  15  16
ENDBRANCH  14  15
ENDBRANCH  13  14
ENDBRANCH  12  13
ENDBRANCH   1  12
TORSDOF 16
ENDMDL
MODEL 5
REMARK VINA RESULT:    -3.946      3.774      7.257
REMARK INTER + INTRA:          -9.865
REMARK INTER:                  -8.511
REMARK INTRA:                  -1.354
REMARK UNBOUND:                -2.228
REMARK SMILES CCCCCCCCCCCCCCCCCC(=O)[O-]
REMARK SMILES IDX 10 1 11 2 12 3 13 4 14 5 15 6 16 7 17 8 18 9 19 10 20 11
REMARK SMILES IDX 9 12 8 13 7 14 6 15 5 16 4 17 3 18 2 19 1 20
REMARK H PARENT
REMARK Flexibility Score: inf
ROOT
ATOM      1  C   UNL     1       2.404  -2.852  -7.920  1.00  0.00     0.000 C 
ENDROOT
BRANCH   1   2
ATOM      2  C   UNL     1       1.990  -4.173  -7.261  1.00  0.00     0.000 C 
BRANCH   2   3
ATOM      3  C   UNL     1       2.553  -5.372  -8.040  1.00  0.00     0.000 C 
BRANCH   3   4
ATOM      4  C   UNL     1       3.205  -6.420  -7.124  1.00  0.00     0.000 C 
BRANCH   4   5
ATOM      5  C   UNL     1       4.624  -6.024  -6.685  1.00  0.00     0.000 C 
BRANCH   5   6
ATOM      6  C   UNL     1       4.748  -5.909  -5.149  1.00  0.00     0.000 C 
BRANCH   6   7
ATOM      7  C   UNL     1       5.679  -6.966  -4.527  1.00  0.00     0.006 C 
BRANCH   7   8
ATOM      8  C   UNL     1       4.988  -8.302  -4.214  1.00  0.00     0.053 C 
BRANCH   8   9
ATOM      9  C   UNL     1       5.285  -9.340  -5.253  1.00  0.00     0.041 C 
ATOM     10  O   UNL     1       6.378  -9.963  -5.230  1.00  0.00    -0.550 OA
ATOM     11  O   UNL     1       4.347  -9.635  -6.234  1.00  0.00    -0.550 OA
ENDBRANCH   8   9
ENDBRANCH   7   8
ENDBRANCH   6   7
ENDBRANCH   5   6
ENDBRANCH   4   5
ENDBRANCH   3   4
ENDBRANCH   2   3
ENDBRANCH   1   2
BRANCH   1  12
ATOM     12  C   UNL     1       2.401  -2.974  -9.450  1.00  0.00     0.000 C 
BRANCH  12  13
ATOM     13  C   UNL     1       3.751  -2.593 -10.083  1.00  0.00    -0.000 C 
BRANCH  13  14
ATOM     14  C   UNL     1       4.893  -2.443  -9.056  1.00  0.00    -0.000 C 
BRANCH  14  15
ATOM     15  C   UNL     1       6.169  -1.860  -9.689  1.00  0.00    -0.000 C 
BRANCH  15  16
ATOM     16  C   UNL     1       6.927  -0.924  -8.735  1.00  0.00    -0.000 C 
BRANCH  16  17
ATOM     17  C   UNL     1       5.981  -0.116  -7.828  1.00  0.00    -0.000 C 
BRANCH  17  18
ATOM     18  C   UNL     1       6.717   0.946  -6.994  1.00  0.00    -0.000 C 
BRANCH  18  19
ATOM     19  C   UNL     1       7.307   2.094  -7.839  1.00  0.00    -0.003 C 
ATOM     20  C   UNL     1       6.244   3.100  -8.278  1.00  0.00     0.004 C 
ENDBRANCH  18  19
ENDBRANCH  17  18
ENDBRANCH  16  17
ENDBRANCH  15  16
ENDBRANCH  14  15
ENDBRANCH  13  14
ENDBRANCH  12  13
ENDBRANCH   1  12
TORSDOF 16
ENDMDL
MODEL 6
REMARK VINA RESULT:    -3.828      3.382      7.541
REMARK INTER + INTRA:          -9.637
REMARK INTER:                  -8.344
REMARK INTRA:                  -1.292
REMARK UNBOUND:                -2.228
REMARK SMILES CCCCCCCCCCCCCCCCCC(=O)[O-]
REMARK SMILES IDX 10 1 11 2 12 3 13 4 14 5 15 6 16 7 17 8 18 9 19 10 20 11
REMARK SMILES IDX 9 12 8 13 7 14 6 15 5 16 4 17 3 18 2 19 1 20
REMARK H PARENT
REMARK Flexibility Score: inf
ROOT
ATOM      1  C   UNL     1       3.897  -2.551  -8.015  1.00  0.00     0.000 C 
ENDROOT
BRANCH   1   2
ATOM      2  C   UNL     1       2.378  -2.762  -8.029  1.00  0.00     0.000 C 
BRANCH   2   3
ATOM      3  C   UNL     1       2.007  -4.109  -7.391  1.00  0.00     0.000 C 
BRANCH   3   4
ATOM      4  C   UNL     1       2.480  -5.310  -8.225  1.00  0.00     0.000 C 
BRANCH   4   5
ATOM      5  C   UNL     1       3.116  -6.415  -7.366  1.00  0.00     0.000 C 
BRANCH   5   6
ATOM      6  C   UNL     1       4.491  -5.997  -6.801  1.00  0.00     0.000 C 
BRANCH   6   7
ATOM      7  C   UNL     1       4.535  -5.948  -5.262  1.00  0.00     0.006 C 
BRANCH   7   8
ATOM      8  C   UNL     1       5.558  -6.905  -4.634  1.00  0.00     0.053 C 
BRANCH   8   9
ATOM      9  C   UNL     1       5.632  -8.206  -5.374  1.00  0.00     0.041 C 
ATOM     10  O   UNL     1       6.623  -8.461  -6.106  1.00  0.00    -0.550 OA
ATOM     11  O   UNL     1       4.618  -9.146  -5.238  1.00  0.00    -0.550 OA
ENDBRANCH   8   9
ENDBRANCH   7   8
ENDBRANCH   6   7
ENDBRANCH   5   6
ENDBRANCH   4   5
ENDBRANCH   3   4
ENDBRANCH   2   3
ENDBRANCH   1   2
BRANCH   1  12
ATOM     12  C   UNL     1       4.468  -2.566  -9.440  1.00  0.00     0.000 C 
BRANCH  12  13
ATOM     13  C   UNL     1       5.984  -2.304  -9.479  1.00  0.00    -0.000 C 
BRANCH  13  14
ATOM     14  C   UNL     1       6.351  -0.806  -9.413  1.00  0.00    -0.000 C 
BRANCH  14  15
ATOM     15  C   UNL     1       7.531  -0.540  -8.461  1.00  0.00    -0.000 C 
BRANCH  15  16
ATOM     16  C   UNL     1       7.104   0.199  -7.184  1.00  0.00    -0.000 C 
BRANCH  16  17
ATOM     17  C   UNL     1       6.364   1.515  -7.485  1.00  0.00    -0.000 C 
BRANCH  17  18
ATOM     18  C   UNL     1       7.247   2.541  -8.216  1.00  0.00    -0.000 C 
BRANCH  18  19
ATOM     19  C   UNL     1       6.479   3.390  -9.250  1.00  0.00    -0.003 C 
ATOM     20  C   UNL     1       5.648   4.494  -8.597  1.00  0.00     0.004 C 
ENDBRANCH  18  19
ENDBRANCH  17  18
ENDBRANCH  16  17
ENDBRANCH  15  16
ENDBRANCH  14  15
ENDBRANCH  13  14
ENDBRANCH  12  13
ENDBRANCH   1  12
TORSDOF 16
ENDMDL
MODEL 7
REMARK VINA RESULT:    -3.828      3.186      6.676
REMARK INTER + INTRA:          -9.636
REMARK INTER:                  -8.269
REMARK INTRA:                  -1.367
REMARK UNBOUND:                -2.228
REMARK SMILES CCCCCCCCCCCCCCCCCC(=O)[O-]
REMARK SMILES IDX 10 1 11 2 12 3 13 4 14 5 15 6 16 7 17 8 18 9 19 10 20 11
REMARK SMILES IDX 9 12 8 13 7 14 6 15 5 16 4 17 3 18 2 19 1 20
REMARK H PARENT
REMARK Flexibility Score: inf
ROOT
ATOM      1  C   UNL     1       2.739  -2.852  -7.871  1.00  0.00     0.000 C 
ENDROOT
BRANCH   1   2
ATOM      2  C   UNL     1       2.162  -4.094  -7.181  1.00  0.00     0.000 C 
BRANCH   2   3
ATOM      3  C   UNL     1       2.738  -5.378  -7.797  1.00  0.00     0.000 C 
BRANCH   3   4
ATOM      4  C   UNL     1       4.108  -5.754  -7.212  1.00  0.00     0.000 C 
BRANCH   4   5
ATOM      5  C   UNL     1       4.172  -5.571  -5.686  1.00  0.00     0.000 C 
BRANCH   5   6
ATOM      6  C   UNL     1       3.936  -6.897  -4.929  1.00  0.00     0.000 C 
BRANCH   6   7
ATOM      7  C   UNL     1       5.154  -7.363  -4.109  1.00  0.00     0.006 C 
BRANCH   7   8
ATOM      8  C   UNL     1       6.478  -6.706  -4.528  1.00  0.00     0.053 C 
BRANCH   8   9
ATOM      9  C   UNL     1       7.551  -7.722  -4.774  1.00  0.00     0.041 C 
ATOM     10  O   UNL     1       7.299  -8.949  -4.654  1.00  0.00    -0.550 OA
ATOM     11  O   UNL     1       8.824  -7.317  -5.156  1.00  0.00    -0.550 OA
ENDBRANCH   8   9
ENDBRANCH   7   8
ENDBRANCH   6   7
ENDBRANCH   5   6
ENDBRANCH   4   5
ENDBRANCH   3   4
ENDBRANCH   2   3
ENDBRANCH   1   2
BRANCH   1  12
ATOM     12  C   UNL     1       2.784  -3.039  -9.395  1.00  0.00     0.000 C 
BRANCH  12  13
ATOM     13  C   UNL     1       4.199  -2.874  -9.976  1.00  0.00    -0.000 C 
BRANCH  13  14
ATOM     14  C   UNL     1       5.131  -2.018  -9.093  1.00  0.00    -0.000 C 
BRANCH  14  15
ATOM     15  C   UNL     1       6.191  -1.272  -9.923  1.00  0.00    -0.000 C 
BRANCH  15  16
ATOM     16  C   UNL     1       7.584  -1.911  -9.815  1.00  0.00    -0.000 C 
BRANCH  16  17
ATOM     17  C   UNL     1       8.660  -0.906  -9.367  1.00  0.00    -0.000 C 
BRANCH  17  18
ATOM     18  C   UNL     1       8.545  -0.534  -7.879  1.00  0.00    -0.000 C 
BRANCH  18  19
ATOM     19  C   UNL     1       7.832   0.812  -7.632  1.00  0.00    -0.003 C 
ATOM     20  C   UNL     1       6.536   0.647  -6.838  1.00  0.00     0.004 C 
ENDBRANCH  18  19
ENDBRANCH  17  18
ENDBRANCH  16  17
ENDBRANCH  15  16
ENDBRANCH  14  15
ENDBRANCH  13  14
ENDBRANCH  12  13
ENDBRANCH   1  12
TORSDOF 16
ENDMDL
MODEL 8
REMARK VINA RESULT:    -3.716      2.336      3.727
REMARK INTER + INTRA:          -9.420
REMARK INTER:                  -8.297
REMARK INTRA:                  -1.123
REMARK UNBOUND:                -2.228
REMARK SMILES CCCCCCCCCCCCCCCCCC(=O)[O-]
REMARK SMILES IDX 10 1 11 2 12 3 13 4 14 5 15 6 16 7 17 8 18 9 19 10 20 11
REMARK SMILES IDX 9 12 8 13 7 14 6 15 5 16 4 17 3 18 2 19 1 20
REMARK H PARENT
REMARK Flexibility Score: inf
ROOT
ATOM      1  C   UNL     1       4.539  -1.877  -8.333  1.00  0.00     0.000 C 
ENDROOT
BRANCH   1   2
ATOM      2  C   UNL     1       5.755  -1.790  -9.262  1.00  0.00     0.000 C 
BRANCH   2   3
ATOM      3  C   UNL     1       6.539  -0.493  -9.016  1.00  0.00     0.000 C 
BRANCH   3   4
ATOM      4  C   UNL     1       6.382   0.033  -7.581  1.00  0.00     0.000 C 
BRANCH   4   5
ATOM      5  C   UNL     1       6.336   1.568  -7.512  1.00  0.00     0.000 C 
BRANCH   5   6
ATOM      6  C   UNL     1       7.331   2.226  -8.494  1.00  0.00     0.000 C 
BRANCH   6   7
ATOM      7  C   UNL     1       6.650   3.094  -9.570  1.00  0.00     0.006 C 
BRANCH   7   8
ATOM      8  C   UNL     1       5.523   3.988  -9.032  1.00  0.00     0.053 C 
BRANCH   8   9
ATOM      9  C   UNL     1       5.987   5.394  -8.804  1.00  0.00     0.041 C 
ATOM     10  O   UNL     1       6.436   6.074  -9.763  1.00  0.00    -0.550 OA
ATOM     11  O   UNL     1       5.905   5.962  -7.539  1.00  0.00    -0.550 OA
ENDBRANCH   8   9
ENDBRANCH   7   8
ENDBRANCH   6   7
ENDBRANCH   5   6
ENDBRANCH   4   5
ENDBRANCH   3   4
ENDBRANCH   2   3
ENDBRANCH   1   2
BRANCH   1  12
ATOM     12  C   UNL     1       3.365  -2.584  -9.026  1.00  0.00     0.000 C 
BRANCH  12  13
ATOM     13  C   UNL     1       3.212  -4.053  -8.594  1.00  0.00    -0.000 C 
BRANCH  13  14
ATOM     14  C   UNL     1       3.147  -4.241  -7.063  1.00  0.00    -0.000 C 
BRANCH  14  15
ATOM     15  C   UNL     1       3.489  -5.682  -6.642  1.00  0.00    -0.000 C 
BRANCH  15  16
ATOM     16  C   UNL     1       4.876  -6.127  -7.131  1.00  0.00    -0.000 C 
BRANCH  16  17
ATOM     17  C   UNL     1       5.757  -6.665  -5.990  1.00  0.00    -0.000 C 
BRANCH  17  18
ATOM     18  C   UNL     1       5.061  -6.603  -4.619  1.00  0.00    -0.000 C 
BRANCH  18  19
ATOM     19  C   UNL     1       4.776  -7.991  -4.009  1.00  0.00    -0.003 C 
ATOM     20  C   UNL     1       4.974  -9.123  -5.016  1.00  0.00     0.004 C 
ENDBRANCH  18  19
ENDBRANCH  17  18
ENDBRANCH  16  17
ENDBRANCH  15  16
ENDBRANCH  14  15
ENDBRANCH  13  14
ENDBRANCH  12  13
ENDBRANCH   1  12
TORSDOF 16
ENDMDL
MODEL 9
REMARK VINA RESULT:    -3.607      1.714      3.092
REMARK INTER + INTRA:          -9.209
REMARK INTER:                  -7.726
REMARK INTRA:                  -1.483
REMARK UNBOUND:                -2.228
REMARK SMILES CCCCCCCCCCCCCCCCCC(=O)[O-]
REMARK SMILES IDX 10 1 11 2 12 3 13 4 14 5 15 6 16 7 17 8 18 9 19 10 20 11
REMARK SMILES IDX 9 12 8 13 7 14 6 15 5 16 4 17 3 18 2 19 1 20
REMARK H PARENT
REMARK Flexibility Score: inf
ROOT
ATOM      1  C   UNL     1       2.395  -4.148  -7.160  1.00  0.00     0.000 C 
ENDROOT
BRANCH   1   2
ATOM      2  C   UNL     1       2.436  -4.020  -8.687  1.00  0.00     0.000 C 
BRANCH   2   3
ATOM      3  C   UNL     1       2.890  -2.613  -9.106  1.00  0.00     0.000 C 
BRANCH   3   4
ATOM      4  C   UNL     1       4.129  -2.636 -10.015  1.00  0.00     0.000 C 
BRANCH   4   5
ATOM      5  C   UNL     1       5.447  -2.652  -9.223  1.00  0.00     0.000 C 
BRANCH   5   6
ATOM      6  C   UNL     1       6.076  -1.246  -9.108  1.00  0.00     0.000 C 
BRANCH   6   7
ATOM      7  C   UNL     1       5.658  -0.488  -7.834  1.00  0.00     0.006 C 
BRANCH   7   8
ATOM      8  C   UNL     1       6.783   0.347  -7.205  1.00  0.00     0.053 C 
BRANCH   8   9
ATOM      9  C   UNL     1       7.180   1.497  -8.079  1.00  0.00     0.041 C 
ATOM     10  O   UNL     1       8.253   1.451  -8.735  1.00  0.00    -0.550 OA
ATOM     11  O   UNL     1       6.357   2.611  -8.186  1.00  0.00    -0.550 OA
ENDBRANCH   8   9
ENDBRANCH   7   8
ENDBRANCH   6   7
ENDBRANCH   5   6
ENDBRANCH   4   5
ENDBRANCH   3   4
ENDBRANCH   2   3
ENDBRANCH   1   2
BRANCH   1  12
ATOM     12  C   UNL     1       3.627  -4.900  -6.637  1.00  0.00     0.000 C 
BRANCH  12  13
ATOM     13  C   UNL     1       3.291  -6.306  -6.111  1.00  0.00    -0.000 C 
BRANCH  13  14
ATOM     14  C   UNL     1       3.978  -6.643  -4.770  1.00  0.00    -0.000 C 
BRANCH  14  15
ATOM     15  C   UNL     1       5.474  -6.280  -4.779  1.00  0.00    -0.000 C 
BRANCH  15  16
ATOM     16  C   UNL     1       6.342  -7.367  -5.431  1.00  0.00    -0.000 C 
BRANCH  16  17
ATOM     17  C   UNL     1       5.967  -8.782  -4.956  1.00  0.00    -0.000 C 
BRANCH  17  18
ATOM     18  C   UNL     1       6.054  -9.830  -6.079  1.00  0.00    -0.000 C 
BRANCH  18  19
ATOM     19  C   UNL     1       5.325  -9.410  -7.372  1.00  0.00    -0.003 C 
ATOM     20  C   UNL     1       3.834  -9.740  -7.335  1.00  0.00     0.004 C 
ENDBRANCH  18  19
ENDBRANCH  17  18
ENDBRANCH  16  17
ENDBRANCH  15  16
ENDBRANCH  14  15
ENDBRANCH  13  14
ENDBRANCH  12  13
ENDBRANCH   1  12
TORSDOF 16
ENDMDL
