MODEL 1
REMARK VINA RESULT:    -4.456      0.000      0.000
REMARK INTER + INTRA:         -11.563
REMARK INTER:                  -8.625
REMARK INTRA:                  -2.938
REMARK UNBOUND:                -2.938
REMARK SMILES CCCCCCCCCCCCCCCCCC(=O)[O-]
REMARK SMILES IDX 10 1 11 2 12 3 13 4 14 5 15 6 16 7 17 8 18 9 19 10 20 11
REMARK SMILES IDX 9 12 8 13 7 14 6 15 5 16 4 17 3 18 2 19 1 20
REMARK H PARENT
REMARK Flexibility Score: inf
ROOT
ATOM      1  C   UNL     1      15.125 -16.615  39.914  1.00  0.00     0.000 C 
ENDROOT
BRANCH   1   2
ATOM      2  C   UNL     1      13.857 -17.368  39.493  1.00  0.00     0.000 C 
BRANCH   2   3
ATOM      3  C   UNL     1      14.021 -17.986  38.097  1.00  0.00     0.000 C 
BRANCH   3   4
ATOM      4  C   UNL     1      13.836 -16.958  36.969  1.00  0.00     0.000 C 
BRANCH   4   5
ATOM      5  C   UNL     1      14.955 -17.028  35.915  1.00  0.00     0.000 C 
BRANCH   5   6
ATOM      6  C   UNL     1      16.356 -17.047  36.545  1.00  0.00     0.000 C 
BRANCH   6   7
ATOM      7  C   UNL     1      16.991 -15.647  36.617  1.00  0.00     0.006 C 
BRANCH   7   8
ATOM      8  C   UNL     1      16.620 -14.780  35.407  1.00  0.00     0.053 C 
BRANCH   8   9
ATOM      9  C   UNL     1      17.280 -13.437  35.463  1.00  0.00     0.041 C 
ATOM     10  O   UNL     1      16.662 -12.448  35.940  1.00  0.00    -0.550 OA
ATOM     11  O   UNL     1      18.561 -13.268  34.956  1.00  0.00    -0.550 OA
ENDBRANCH   8   9
ENDBRANCH   7   8
ENDBRANCH   6   7
ENDBRANCH   5   6
ENDBRANCH   4   5
ENDBRANCH   3   4
ENDBRANCH   2   3
ENDBRANCH   1   2
BRANCH   1  12
ATOM     12  C   UNL     1      14.801 -15.162  40.296  1.00  0.00     0.000 C 
BRANCH  12  13
ATOM     13  C   UNL     1      15.813 -14.159  39.719  1.00  0.00    -0.000 C 
BRANCH  13  14
ATOM     14  C   UNL     1      15.144 -13.060  38.879  1.00  0.00    -0.000 C 
BRANCH  14  15
ATOM     15  C   UNL     1      14.091 -13.653  37.935  1.00  0.00    -0.000 C 
BRANCH  15  16
ATOM     16  C   UNL     1      12.870 -12.728  37.821  1.00  0.00    -0.000 C 
BRANCH  16  17
ATOM     17  C   UNL     1      11.753 -13.096  38.810  1.00  0.00    -0.000 C 
BRANCH  17  18
ATOM     18  C   UNL     1      11.545 -14.613  38.932  1.00  0.00    -0.000 C 
BRANCH  18  19
ATOM     19  C   UNL     1      10.313 -15.063  38.138  1.00  0.00    -0.003 C 
ATOM     20  C   UNL     1      10.274 -16.581  37.992  1.00  0.00     0.004 C 
ENDBRANCH  18  19
ENDBRANCH  17  18
ENDBRANCH  16  17
ENDBRANCH  15  16
ENDBRANCH  14  15
ENDBRANCH  13  14
ENDBRANCH  12  13
ENDBRANCH   1  12
TORSDOF 16
ENDMDL
MODEL 2
REMARK VINA RESULT:    -4.340      1.170      3.050
REMARK INTER + INTRA:         -11.337
REMARK INTER:                  -8.372
REMARK INTRA:                  -2.965
REMARK UNBOUND:                -2.938
REMARK SMILES CCCCCCCCCCCCCCCCCC(=O)[O-]
REMARK SMILES IDX 10 1 11 2 12 3 13 4 14 5 15 6 16 7 17 8 18 9 19 10 20 11
REMARK SMILES IDX 9 12 8 13 7 14 6 15 5 16 4 17 3 18 2 19 1 20
REMARK H PARENT
REMARK Flexibility Score: inf
ROOT
ATOM      1  C   UNL     1      15.094 -13.034  38.911  1.00  0.00     0.000 C 
ENDROOT
BRANCH   1   2
ATOM      2  C   UNL     1      15.725 -14.190  39.698  1.00  0.00     0.000 C 
BRANCH   2   3
ATOM      3  C   UNL     1      14.721 -15.335  39.892  1.00  0.00     0.000 C 
BRANCH   3   4
ATOM      4  C   UNL     1      15.340 -16.716  39.630  1.00  0.00     0.000 C 
BRANCH   4   5
ATOM      5  C   UNL     1      15.224 -17.147  38.157  1.00  0.00     0.000 C 
BRANCH   5   6
ATOM      6  C   UNL     1      16.554 -17.015  37.399  1.00  0.00     0.000 C 
BRANCH   6   7
ATOM      7  C   UNL     1      16.549 -15.851  36.394  1.00  0.00     0.006 C 
BRANCH   7   8
ATOM      8  C   UNL     1      17.655 -14.827  36.688  1.00  0.00     0.053 C 
BRANCH   8   9
ATOM      9  C   UNL     1      17.618 -13.679  35.727  1.00  0.00     0.041 C 
ATOM     10  O   UNL     1      16.718 -12.804  35.821  1.00  0.00    -0.550 OA
ATOM     11  O   UNL     1      18.556 -13.594  34.707  1.00  0.00    -0.550 OA
ENDBRANCH   8   9
ENDBRANCH   7   8
ENDBRANCH   6   7
ENDBRANCH   5   6
ENDBRANCH   4   5
ENDBRANCH   3   4
ENDBRANCH   2   3
ENDBRANCH   1   2
BRANCH   1  12
ATOM     12  C   UNL     1      14.051 -13.554  37.910  1.00  0.00     0.000 C 
BRANCH  12  13
ATOM     13  C   UNL     1      12.675 -12.894  38.092  1.00  0.00    -0.000 C 
BRANCH  13  14
ATOM     14  C   UNL     1      11.525 -13.913  38.094  1.00  0.00    -0.000 C 
BRANCH  14  15
ATOM     15  C   UNL     1      11.076 -14.231  39.524  1.00  0.00    -0.000 C 
BRANCH  15  16
ATOM     16  C   UNL     1      11.144 -15.741  39.800  1.00  0.00    -0.000 C 
BRANCH  16  17
ATOM     17  C   UNL     1      11.474 -16.558  38.541  1.00  0.00    -0.000 C 
BRANCH  17  18
ATOM     18  C   UNL     1      11.699 -18.047  38.843  1.00  0.00    -0.000 C 
BRANCH  18  19
ATOM     19  C   UNL     1      12.018 -18.263  40.328  1.00  0.00    -0.003 C 
ATOM     20  C   UNL     1      12.927 -19.473  40.527  1.00  0.00     0.004 C 
ENDBRANCH  18  19
ENDBRANCH  17  18
ENDBRANCH  16  17
ENDBRANCH  15  16
ENDBRANCH  14  15
ENDBRANCH  13  14
ENDBRANCH  12  13
ENDBRANCH   1  12
TORSDOF 16
ENDMDL
MODEL 3
REMARK VINA RESULT:    -4.289     11.249     14.522
REMARK INTER + INTRA:         -11.238
REMARK INTER:                  -9.137
REMARK INTRA:                  -2.102
REMARK UNBOUND:                -2.938
REMARK SMILES CCCCCCCCCCCCCCCCCC(=O)[O-]
REMARK SMILES IDX 10 1 11 2 12 3 13 4 14 5 15 6 16 7 17 8 18 9 19 10 20 11
REMARK SMILES IDX 9 12 8 13 7 14 6 15 5 16 4 17 3 18 2 19 1 20
REMARK H PARENT
REMARK Flexibility Score: inf
ROOT
ATOM      1  C   UNL     1      24.227 -27.618  33.886  1.00  0.00     0.000 C 
ENDROOT
BRANCH   1   2
ATOM      2  C   UNL     1      23.724 -26.172  33.972  1.00  0.00     0.000 C 
BRANCH   2   3
ATOM      3  C   UNL     1      22.189 -26.124  34.008  1.00  0.00     0.000 C 
BRANCH   3   4
ATOM      4  C   UNL     1      21.614 -24.970  33.173  1.00  0.00     0.000 C 
BRANCH   4   5
ATOM      5  C   UNL     1      20.142 -24.670  33.513  1.00  0.00     0.000 C 
BRANCH   5   6
ATOM      6  C   UNL     1      19.623 -23.405  32.813  1.00  0.00     0.000 C 
BRANCH   6   7
ATOM      7  C   UNL     1      20.372 -22.136  33.253  1.00  0.00     0.006 C 
BRANCH   7   8
ATOM      8  C   UNL     1      19.813 -20.872  32.584  1.00  0.00     0.053 C 
BRANCH   8   9
ATOM      9  C   UNL     1      20.780 -20.290  31.601  1.00  0.00     0.041 C 
ATOM     10  O   UNL     1      20.362 -19.604  30.632  1.00  0.00    -0.550 OA
ATOM     11  O   UNL     1      22.141 -20.534  31.734  1.00  0.00    -0.550 OA
ENDBRANCH   8   9
ENDBRANCH   7   8
ENDBRANCH   6   7
ENDBRANCH   5   6
ENDBRANCH   4   5
ENDBRANCH   3   4
ENDBRANCH   2   3
ENDBRANCH   1   2
BRANCH   1  12
ATOM     12  C   UNL     1      25.173 -27.802  32.690  1.00  0.00     0.000 C 
BRANCH  12  13
ATOM     13  C   UNL     1      24.444 -27.708  31.339  1.00  0.00    -0.000 C 
BRANCH  13  14
ATOM     14  C   UNL     1      25.155 -26.775  30.347  1.00  0.00    -0.000 C 
BRANCH  14  15
ATOM     15  C   UNL     1      26.449 -26.215  30.949  1.00  0.00    -0.000 C 
BRANCH  15  16
ATOM     16  C   UNL     1      26.457 -24.680  30.907  1.00  0.00    -0.000 C 
BRANCH  16  17
ATOM     17  C   UNL     1      25.068 -24.088  30.619  1.00  0.00    -0.000 C 
BRANCH  17  18
ATOM     18  C   UNL     1      24.733 -22.895  31.526  1.00  0.00    -0.000 C 
BRANCH  18  19
ATOM     19  C   UNL     1      25.028 -23.223  32.995  1.00  0.00    -0.003 C 
ATOM     20  C   UNL     1      24.144 -22.404  33.931  1.00  0.00     0.004 C 
ENDBRANCH  18  19
ENDBRANCH  17  18
ENDBRANCH  16  17
ENDBRANCH  15  16
ENDBRANCH  14  15
ENDBRANCH  13  14
ENDBRANCH  12  13
ENDBRANCH   1  12
TORSDOF 16
ENDMDL
MODEL 4
REMARK VINA RESULT:    -4.284      2.984      5.874
REMARK INTER + INTRA:         -11.228
REMARK INTER:                  -8.350
REMARK INTRA:                  -2.878
REMARK UNBOUND:                -2.938
REMARK SMILES CCCCCCCCCCCCCCCCCC(=O)[O-]
REMARK SMILES IDX 10 1 11 2 12 3 13 4 14 5 15 6 16 7 17 8 18 9 19 10 20 11
REMARK SMILES IDX 9 12 8 13 7 14 6 15 5 16 4 17 3 18 2 19 1 20
REMARK H PARENT
REMARK Flexibility Score: inf
ROOT
ATOM      1  C   UNL     1      14.083 -13.105  37.638  1.00  0.00     0.000 C 
ENDROOT
BRANCH   1   2
ATOM      2  C   UNL     1      12.659 -12.829  38.135  1.00  0.00     0.000 C 
BRANCH   2   3
ATOM      3  C   UNL     1      11.859 -14.133  38.266  1.00  0.00     0.000 C 
BRANCH   3   4
ATOM      4  C   UNL     1      11.270 -14.329  39.671  1.00  0.00     0.000 C 
BRANCH   4   5
ATOM      5  C   UNL     1      11.675 -15.674  40.301  1.00  0.00     0.000 C 
BRANCH   5   6
ATOM      6  C   UNL     1      11.736 -16.812  39.270  1.00  0.00     0.000 C 
BRANCH   6   7
ATOM      7  C   UNL     1      11.835 -18.199  39.926  1.00  0.00     0.006 C 
BRANCH   7   8
ATOM      8  C   UNL     1      13.289 -18.613  40.189  1.00  0.00     0.053 C 
BRANCH   8   9
ATOM      9  C   UNL     1      13.764 -19.633  39.200  1.00  0.00     0.041 C 
ATOM     10  O   UNL     1      13.112 -19.840  38.143  1.00  0.00    -0.550 OA
ATOM     11  O   UNL     1      14.904 -20.379  39.463  1.00  0.00    -0.550 OA
ENDBRANCH   8   9
ENDBRANCH   7   8
ENDBRANCH   6   7
ENDBRANCH   5   6
ENDBRANCH   4   5
ENDBRANCH   3   4
ENDBRANCH   2   3
ENDBRANCH   1   2
BRANCH   1  12
ATOM     12  C   UNL     1      15.112 -12.861  38.753  1.00  0.00     0.000 C 
BRANCH  12  13
ATOM     13  C   UNL     1      16.007 -14.084  39.011  1.00  0.00    -0.000 C 
BRANCH  13  14
ATOM     14  C   UNL     1      15.200 -15.352  39.330  1.00  0.00    -0.000 C 
BRANCH  14  15
ATOM     15  C   UNL     1      15.575 -16.495  38.380  1.00  0.00    -0.000 C 
BRANCH  15  16
ATOM     16  C   UNL     1      14.616 -16.552  37.181  1.00  0.00    -0.000 C 
BRANCH  16  17
ATOM     17  C   UNL     1      15.350 -16.722  35.842  1.00  0.00    -0.000 C 
BRANCH  17  18
ATOM     18  C   UNL     1      16.689 -15.972  35.801  1.00  0.00    -0.000 C 
BRANCH  18  19
ATOM     19  C   UNL     1      16.496 -14.531  35.312  1.00  0.00    -0.003 C 
ATOM     20  C   UNL     1      17.785 -13.726  35.442  1.00  0.00     0.004 C 
ENDBRANCH  18  19
ENDBRANCH  17  18
ENDBRANCH  16  17
ENDBRANCH  15  16
ENDBRANCH  14  15
ENDBRANCH  13  14
ENDBRANCH  12  13
ENDBRANCH   1  12
TORSDOF 16
ENDMDL
MODEL 5
REMARK VINA RESULT:    -4.240      3.677      5.220
REMARK INTER + INTRA:         -11.144
REMARK INTER:                  -8.356
REMARK INTRA:                  -2.787
REMARK UNBOUND:                -2.938
REMARK SMILES CCCCCCCCCCCCCCCCCC(=O)[O-]
REMARK SMILES IDX 10 1 11 2 12 3 13 4 14 5 15 6 16 7 17 8 18 9 19 10 20 11
REMARK SMILES IDX 9 12 8 13 7 14 6 15 5 16 4 17 3 18 2 19 1 20
REMARK H PARENT
REMARK Flexibility Score: inf
ROOT
ATOM      1  C   UNL     1      16.261 -14.172  35.492  1.00  0.00     0.000 C 
ENDROOT
BRANCH   1   2
ATOM      2  C   UNL     1      15.670 -15.491  36.005  1.00  0.00     0.000 C 
BRANCH   2   3
ATOM      3  C   UNL     1      16.732 -16.601  36.021  1.00  0.00     0.000 C 
BRANCH   3   4
ATOM      4  C   UNL     1      16.845 -17.291  37.389  1.00  0.00     0.000 C 
BRANCH   4   5
ATOM      5  C   UNL     1      15.491 -17.813  37.903  1.00  0.00     0.000 C 
BRANCH   5   6
ATOM      6  C   UNL     1      15.579 -18.372  39.331  1.00  0.00     0.000 C 
BRANCH   6   7
ATOM      7  C   UNL     1      14.282 -19.069  39.774  1.00  0.00     0.006 C 
BRANCH   7   8
ATOM      8  C   UNL     1      14.524 -20.519  40.216  1.00  0.00     0.053 C 
BRANCH   8   9
ATOM      9  C   UNL     1      14.137 -21.497  39.152  1.00  0.00     0.041 C 
ATOM     10  O   UNL     1      14.926 -22.422  38.824  1.00  0.00    -0.550 OA
ATOM     11  O   UNL     1      12.920 -21.367  38.495  1.00  0.00    -0.550 OA
ENDBRANCH   8   9
ENDBRANCH   7   8
ENDBRANCH   6   7
ENDBRANCH   5   6
ENDBRANCH   4   5
ENDBRANCH   3   4
ENDBRANCH   2   3
ENDBRANCH   1   2
BRANCH   1  12
ATOM     12  C   UNL     1      16.437 -13.166  36.639  1.00  0.00     0.000 C 
BRANCH  12  13
ATOM     13  C   UNL     1      15.396 -13.351  37.755  1.00  0.00    -0.000 C 
BRANCH  13  14
ATOM     14  C   UNL     1      16.030 -13.753  39.096  1.00  0.00    -0.000 C 
BRANCH  14  15
ATOM     15  C   UNL     1      15.149 -14.764  39.839  1.00  0.00    -0.000 C 
BRANCH  15  16
ATOM     16  C   UNL     1      13.749 -14.839  39.211  1.00  0.00    -0.000 C 
BRANCH  16  17
ATOM     17  C   UNL     1      12.795 -15.752  39.998  1.00  0.00    -0.000 C 
BRANCH  17  18
ATOM     18  C   UNL     1      11.716 -16.388  39.109  1.00  0.00    -0.000 C 
BRANCH  18  19
ATOM     19  C   UNL     1      12.170 -16.437  37.645  1.00  0.00    -0.003 C 
ATOM     20  C   UNL     1      11.886 -17.801  37.024  1.00  0.00     0.004 C 
ENDBRANCH  18  19
ENDBRANCH  17  18
ENDBRANCH  16  17
ENDBRANCH  15  16
ENDBRANCH  14  15
ENDBRANCH  13  14
ENDBRANCH  12  13
ENDBRANCH   1  12
TORSDOF 16
ENDMDL
MODEL 6
REMARK VINA RESULT:    -4.146      3.215      5.448
REMARK INTER + INTRA:         -10.962
REMARK INTER:                  -8.666
REMARK INTRA:                  -2.297
REMARK UNBOUND:                -2.938
REMARK SMILES CCCCCCCCCCCCCCCCCC(=O)[O-]
REMARK SMILES IDX 10 1 11 2 12 3 13 4 14 5 15 6 16 7 17 8 18 9 19 10 20 11
REMARK SMILES IDX 9 12 8 13 7 14 6 15 5 16 4 17 3 18 2 19 1 20
REMARK H PARENT
REMARK Flexibility Score: inf
ROOT
ATOM      1  C   UNL     1      13.971 -15.546  39.433  1.00  0.00     0.000 C 
ENDROOT
BRANCH   1   2
ATOM      2  C   UNL     1      13.967 -17.078  39.371  1.00  0.00     0.000 C 
BRANCH   2   3
ATOM      3  C   UNL     1      12.671 -17.650  39.965  1.00  0.00     0.000 C 
BRANCH   3   4
ATOM      4  C   UNL     1      12.803 -19.128  40.363  1.00  0.00     0.000 C 
BRANCH   4   5
ATOM      5  C   UNL     1      14.173 -19.721  39.986  1.00  0.00     0.000 C 
BRANCH   5   6
ATOM      6  C   UNL     1      14.055 -20.890  38.996  1.00  0.00     0.000 C 
BRANCH   6   7
ATOM      7  C   UNL     1      12.611 -21.121  38.522  1.00  0.00     0.006 C 
BRANCH   7   8
ATOM      8  C   UNL     1      12.487 -21.070  36.993  1.00  0.00     0.053 C 
BRANCH   8   9
ATOM      9  C   UNL     1      12.079 -19.712  36.513  1.00  0.00     0.041 C 
ATOM     10  O   UNL     1      12.918 -18.774  36.480  1.00  0.00    -0.550 OA
ATOM     11  O   UNL     1      10.764 -19.472  36.137  1.00  0.00    -0.550 OA
ENDBRANCH   8   9
ENDBRANCH   7   8
ENDBRANCH   6   7
ENDBRANCH   5   6
ENDBRANCH   4   5
ENDBRANCH   3   4
ENDBRANCH   2   3
ENDBRANCH   1   2
BRANCH   1  12
ATOM     12  C   UNL     1      15.134 -15.033  40.295  1.00  0.00     0.000 C 
BRANCH  12  13
ATOM     13  C   UNL     1      15.902 -13.880  39.629  1.00  0.00    -0.000 C 
BRANCH  13  14
ATOM     14  C   UNL     1      15.082 -13.175  38.538  1.00  0.00    -0.000 C 
BRANCH  14  15
ATOM     15  C   UNL     1      15.839 -13.161  37.204  1.00  0.00    -0.000 C 
BRANCH  15  16
ATOM     16  C   UNL     1      17.218 -13.823  37.347  1.00  0.00    -0.000 C 
BRANCH  16  17
ATOM     17  C   UNL     1      17.444 -14.947  36.325  1.00  0.00    -0.000 C 
BRANCH  17  18
ATOM     18  C   UNL     1      16.131 -15.517  35.769  1.00  0.00    -0.000 C 
BRANCH  18  19
ATOM     19  C   UNL     1      15.882 -16.936  36.296  1.00  0.00    -0.003 C 
ATOM     20  C   UNL     1      17.020 -17.396  37.202  1.00  0.00     0.004 C 
ENDBRANCH  18  19
ENDBRANCH  17  18
ENDBRANCH  16  17
ENDBRANCH  15  16
ENDBRANCH  14  15
ENDBRANCH  13  14
ENDBRANCH  12  13
ENDBRANCH   1  12
TORSDOF 16
ENDMDL
MODEL 7
REMARK VINA RESULT:    -4.124      2.701      5.647
REMARK INTER + INTRA:         -10.919
REMARK INTER:                  -8.425
REMARK INTRA:                  -2.494
REMARK UNBOUND:                -2.938
REMARK SMILES CCCCCCCCCCCCCCCCCC(=O)[O-]
REMARK SMILES IDX 10 1 11 2 12 3 13 4 14 5 15 6 16 7 17 8 18 9 19 10 20 11
REMARK SMILES IDX 9 12 8 13 7 14 6 15 5 16 4 17 3 18 2 19 1 20
REMARK H PARENT
REMARK Flexibility Score: inf
ROOT
ATOM      1  C   UNL     1      16.577 -16.192  35.865  1.00  0.00     0.000 C 
ENDROOT
BRANCH   1   2
ATOM      2  C   UNL     1      16.668 -14.760  35.323  1.00  0.00     0.000 C 
BRANCH   2   3
ATOM      3  C   UNL     1      17.544 -13.884  36.230  1.00  0.00     0.000 C 
BRANCH   3   4
ATOM      4  C   UNL     1      17.418 -14.257  37.715  1.00  0.00     0.000 C 
BRANCH   4   5
ATOM      5  C   UNL     1      16.253 -13.531  38.410  1.00  0.00     0.000 C 
BRANCH   5   6
ATOM      6  C   UNL     1      15.702 -14.316  39.611  1.00  0.00     0.000 C 
BRANCH   6   7
ATOM      7  C   UNL     1      14.199 -14.617  39.481  1.00  0.00     0.006 C 
BRANCH   7   8
ATOM      8  C   UNL     1      13.577 -13.943  38.250  1.00  0.00     0.053 C 
BRANCH   8   9
ATOM      9  C   UNL     1      12.083 -13.914  38.328  1.00  0.00     0.041 C 
ATOM     10  O   UNL     1      11.497 -12.946  38.880  1.00  0.00    -0.550 OA
ATOM     11  O   UNL     1      11.338 -14.972  37.825  1.00  0.00    -0.550 OA
ENDBRANCH   8   9
ENDBRANCH   7   8
ENDBRANCH   6   7
ENDBRANCH   5   6
ENDBRANCH   4   5
ENDBRANCH   3   4
ENDBRANCH   2   3
ENDBRANCH   1   2
BRANCH   1  12
ATOM     12  C   UNL     1      15.122 -16.686  35.870  1.00  0.00     0.000 C 
BRANCH  12  13
ATOM     13  C   UNL     1      14.717 -17.324  37.209  1.00  0.00    -0.000 C 
BRANCH  13  14
ATOM     14  C   UNL     1      15.927 -17.663  38.093  1.00  0.00    -0.000 C 
BRANCH  14  15
ATOM     15  C   UNL     1      15.490 -18.411  39.358  1.00  0.00    -0.000 C 
BRANCH  15  16
ATOM     16  C   UNL     1      13.993 -18.202  39.632  1.00  0.00    -0.000 C 
BRANCH  16  17
ATOM     17  C   UNL     1      13.342 -19.411  40.321  1.00  0.00    -0.000 C 
BRANCH  17  18
ATOM     18  C   UNL     1      14.343 -20.538  40.609  1.00  0.00    -0.000 C 
BRANCH  18  19
ATOM     19  C   UNL     1      13.864 -21.865  40.005  1.00  0.00    -0.003 C 
ATOM     20  C   UNL     1      14.620 -22.192  38.721  1.00  0.00     0.004 C 
ENDBRANCH  18  19
ENDBRANCH  17  18
ENDBRANCH  16  17
ENDBRANCH  15  16
ENDBRANCH  14  15
ENDBRANCH  13  14
ENDBRANCH  12  13
ENDBRANCH   1  12
TORSDOF 16
ENDMDL
MODEL 8
REMARK VINA RESULT:    -4.119      2.840      4.875
REMARK INTER + INTRA:         -10.909
REMARK INTER:                  -7.912
REMARK INTRA:                  -2.997
REMARK UNBOUND:                -2.938
REMARK SMILES CCCCCCCCCCCCCCCCCC(=O)[O-]
REMARK SMILES IDX 10 1 11 2 12 3 13 4 14 5 15 6 16 7 17 8 18 9 19 10 20 11
REMARK SMILES IDX 9 12 8 13 7 14 6 15 5 16 4 17 3 18 2 19 1 20
REMARK H PARENT
REMARK Flexibility Score: inf
ROOT
ATOM      1  C   UNL     1      15.396 -16.720  35.854  1.00  0.00     0.000 C 
ENDROOT
BRANCH   1   2
ATOM      2  C   UNL     1      14.863 -17.355  37.145  1.00  0.00     0.000 C 
BRANCH   2   3
ATOM      3  C   UNL     1      16.014 -17.747  38.082  1.00  0.00     0.000 C 
BRANCH   3   4
ATOM      4  C   UNL     1      15.529 -18.482  39.341  1.00  0.00     0.000 C 
BRANCH   4   5
ATOM      5  C   UNL     1      14.244 -19.293  39.094  1.00  0.00     0.000 C 
BRANCH   5   6
ATOM      6  C   UNL     1      13.098 -18.879  40.029  1.00  0.00     0.000 C 
BRANCH   6   7
ATOM      7  C   UNL     1      11.723 -18.941  39.343  1.00  0.00     0.006 C 
BRANCH   7   8
ATOM      8  C   UNL     1      11.371 -17.628  38.629  1.00  0.00     0.053 C 
BRANCH   8   9
ATOM      9  C   UNL     1      11.267 -17.811  37.147  1.00  0.00     0.041 C 
ATOM     10  O   UNL     1      10.782 -16.898  36.429  1.00  0.00    -0.550 OA
ATOM     11  O   UNL     1      11.673 -19.004  36.563  1.00  0.00    -0.550 OA
ENDBRANCH   8   9
ENDBRANCH   7   8
ENDBRANCH   6   7
ENDBRANCH   5   6
ENDBRANCH   4   5
ENDBRANCH   3   4
ENDBRANCH   2   3
ENDBRANCH   1   2
BRANCH   1  12
ATOM     12  C   UNL     1      16.716 -15.977  36.112  1.00  0.00     0.000 C 
BRANCH  12  13
ATOM     13  C   UNL     1      16.690 -14.529  35.597  1.00  0.00    -0.000 C 
BRANCH  13  14
ATOM     14  C   UNL     1      16.411 -13.509  36.712  1.00  0.00    -0.000 C 
BRANCH  14  15
ATOM     15  C   UNL     1      16.792 -14.076  38.084  1.00  0.00    -0.000 C 
BRANCH  15  16
ATOM     16  C   UNL     1      15.771 -13.661  39.154  1.00  0.00    -0.000 C 
BRANCH  16  17
ATOM     17  C   UNL     1      15.301 -14.844  40.015  1.00  0.00    -0.000 C 
BRANCH  17  18
ATOM     18  C   UNL     1      13.815 -15.171  39.811  1.00  0.00    -0.000 C 
BRANCH  18  19
ATOM     19  C   UNL     1      13.259 -14.452  38.575  1.00  0.00    -0.003 C 
ATOM     20  C   UNL     1      11.857 -13.911  38.835  1.00  0.00     0.004 C 
ENDBRANCH  18  19
ENDBRANCH  17  18
ENDBRANCH  16  17
ENDBRANCH  15  16
ENDBRANCH  14  15
ENDBRANCH  13  14
ENDBRANCH  12  13
ENDBRANCH   1  12
TORSDOF 16
ENDMDL
MODEL 9
REMARK VINA RESULT:    -4.112      2.938      5.363
REMARK INTER + INTRA:         -10.896
REMARK INTER:                  -8.486
REMARK INTRA:                  -2.410
REMARK UNBOUND:                -2.938
REMARK SMILES CCCCCCCCCCCCCCCCCC(=O)[O-]
REMARK SMILES IDX 10 1 11 2 12 3 13 4 14 5 15 6 16 7 17 8 18 9 19 10 20 11
REMARK SMILES IDX 9 12 8 13 7 14 6 15 5 16 4 17 3 18 2 19 1 20
REMARK H PARENT
REMARK Flexibility Score: inf
ROOT
ATOM      1  C   UNL     1      15.108 -17.661  39.663  1.00  0.00     0.000 C 
ENDROOT
BRANCH   1   2
ATOM      2  C   UNL     1      13.805 -16.988  39.214  1.00  0.00     0.000 C 
BRANCH   2   3
ATOM      3  C   UNL     1      13.894 -15.462  39.365  1.00  0.00     0.000 C 
BRANCH   3   4
ATOM      4  C   UNL     1      15.314 -14.982  39.700  1.00  0.00     0.000 C 
BRANCH   4   5
ATOM      5  C   UNL     1      15.596 -13.559  39.184  1.00  0.00     0.000 C 
BRANCH   5   6
ATOM      6  C   UNL     1      15.953 -13.535  37.690  1.00  0.00     0.000 C 
BRANCH   6   7
ATOM      7  C   UNL     1      17.132 -14.462  37.349  1.00  0.00     0.006 C 
BRANCH   7   8
ATOM      8  C   UNL     1      16.891 -15.253  36.056  1.00  0.00     0.053 C 
BRANCH   8   9
ATOM      9  C   UNL     1      16.464 -16.660  36.336  1.00  0.00     0.041 C 
ATOM     10  O   UNL     1      15.326 -17.060  35.974  1.00  0.00    -0.550 OA
ATOM     11  O   UNL     1      17.307 -17.519  37.029  1.00  0.00    -0.550 OA
ENDBRANCH   8   9
ENDBRANCH   7   8
ENDBRANCH   6   7
ENDBRANCH   5   6
ENDBRANCH   4   5
ENDBRANCH   3   4
ENDBRANCH   2   3
ENDBRANCH   1   2
BRANCH   1  12
ATOM     12  C   UNL     1      15.083 -19.166  39.356  1.00  0.00     0.000 C 
BRANCH  12  13
ATOM     13  C   UNL     1      14.139 -19.945  40.287  1.00  0.00    -0.000 C 
BRANCH  13  14
ATOM     14  C   UNL     1      14.360 -21.464  40.219  1.00  0.00    -0.000 C 
BRANCH  14  15
ATOM     15  C   UNL     1      14.498 -21.934  38.766  1.00  0.00    -0.000 C 
BRANCH  15  16
ATOM     16  C   UNL     1      13.229 -22.665  38.301  1.00  0.00    -0.000 C 
BRANCH  16  17
ATOM     17  C   UNL     1      12.432 -21.864  37.260  1.00  0.00    -0.000 C 
BRANCH  17  18
ATOM     18  C   UNL     1      11.372 -20.954  37.898  1.00  0.00    -0.000 C 
BRANCH  18  19
ATOM     19  C   UNL     1      11.587 -19.491  37.491  1.00  0.00    -0.003 C 
ATOM     20  C   UNL     1      12.655 -19.371  36.408  1.00  0.00     0.004 C 
ENDBRANCH  18  19
ENDBRANCH  17  18
ENDBRANCH  16  17
ENDBRANCH  15  16
ENDBRANCH  14  15
ENDBRANCH  13  14
ENDBRANCH  12  13
ENDBRANCH   1  12
TORSDOF 16
ENDMDL
