MODEL 1
REMARK VINA RESULT:    -6.702      0.000      0.000
REMARK INTER + INTRA:         -13.173
REMARK INTER:                 -12.188
REMARK INTRA:                  -0.985
REMARK UNBOUND:                -0.985
REMARK SMILES CCCCCCCCCCCCCCCC(=O)[O-]
REMARK SMILES IDX 9 1 10 2 11 3 12 4 13 5 14 6 15 7 16 8 17 9 18 10 8 11 7 12
REMARK SMILES IDX 6 13 5 14 4 15 3 16 2 17 1 18
REMARK H PARENT
REMARK Flexibility Score: inf
ROOT
ATOM      1  C   UNL     1      17.783  71.858  71.721  1.00  0.00     0.000 C 
ENDROOT
BRANCH   1   2
ATOM      2  C   UNL     1      19.281  71.846  72.057  1.00  0.00     0.000 C 
BRANCH   2   3
ATOM      3  C   UNL     1      19.996  70.692  71.346  1.00  0.00     0.000 C 
BRANCH   3   4
ATOM      4  C   UNL     1      21.329  71.160  70.742  1.00  0.00     0.000 C 
BRANCH   4   5
ATOM      5  C   UNL     1      21.720  72.576  71.195  1.00  0.00     0.000 C 
BRANCH   5   6
ATOM      6  C   UNL     1      23.089  72.618  71.890  1.00  0.00     0.006 C 
BRANCH   6   7
ATOM      7  C   UNL     1      22.928  72.730  73.409  1.00  0.00     0.053 C 
BRANCH   7   8
ATOM      8  C   UNL     1      23.490  71.520  74.087  1.00  0.00     0.041 C 
ATOM      9  O   UNL     1      23.433  70.395  73.525  1.00  0.00    -0.550 OA
ATOM     10  O   UNL     1      24.119  71.643  75.320  1.00  0.00    -0.550 OA
ENDBRANCH   7   8
ENDBRANCH   6   7
ENDBRANCH   5   6
ENDBRANCH   4   5
ENDBRANCH   3   4
ENDBRANCH   2   3
ENDBRANCH   1   2
BRANCH   1  11
ATOM     11  C   UNL     1      17.021  72.970  72.461  1.00  0.00     0.000 C 
BRANCH  11  12
ATOM     12  C   UNL     1      15.981  72.416  73.450  1.00  0.00    -0.000 C 
BRANCH  12  13
ATOM     13  C   UNL     1      14.579  72.284  72.829  1.00  0.00    -0.000 C 
BRANCH  13  14
ATOM     14  C   UNL     1      14.193  70.858  72.395  1.00  0.00    -0.000 C 
BRANCH  14  15
ATOM     15  C   UNL     1      14.180  69.858  73.561  1.00  0.00    -0.000 C 
BRANCH  15  16
ATOM     16  C   UNL     1      13.553  70.484  74.813  1.00  0.00    -0.000 C 
BRANCH  16  17
ATOM     17  C   UNL     1      14.054  69.788  76.085  1.00  0.00    -0.003 C 
ATOM     18  C   UNL     1      15.134  70.614  76.776  1.00  0.00     0.004 C 
ENDBRANCH  16  17
ENDBRANCH  15  16
ENDBRANCH  14  15
ENDBRANCH  13  14
ENDBRANCH  12  13
ENDBRANCH  11  12
ENDBRANCH   1  11
TORSDOF 14
ENDMDL
MODEL 2
REMARK VINA RESULT:    -6.671      7.406     10.872
REMARK INTER + INTRA:         -13.116
REMARK INTER:                 -11.581
REMARK INTRA:                  -1.535
REMARK UNBOUND:                -0.985
REMARK SMILES CCCCCCCCCCCCCCCC(=O)[O-]
REMARK SMILES IDX 9 1 10 2 11 3 12 4 13 5 14 6 15 7 16 8 17 9 18 10 8 11 7 12
REMARK SMILES IDX 6 13 5 14 4 15 3 16 2 17 1 18
REMARK H PARENT
REMARK Flexibility Score: inf
ROOT
ATOM      1  C   UNL     1      11.030  71.986  72.756  1.00  0.00     0.000 C 
ENDROOT
BRANCH   1   2
ATOM      2  C   UNL     1      11.338  72.135  74.253  1.00  0.00     0.000 C 
BRANCH   2   3
ATOM      3  C   UNL     1      10.048  72.275  75.069  1.00  0.00     0.000 C 
BRANCH   3   4
ATOM      4  C   UNL     1      10.322  72.073  76.568  1.00  0.00     0.000 C 
BRANCH   4   5
ATOM      5  C   UNL     1       9.778  73.225  77.430  1.00  0.00     0.000 C 
BRANCH   5   6
ATOM      6  C   UNL     1       8.337  73.609  77.063  1.00  0.00     0.006 C 
BRANCH   6   7
ATOM      7  C   UNL     1       7.348  72.544  77.544  1.00  0.00     0.053 C 
BRANCH   7   8
ATOM      8  C   UNL     1       6.005  72.754  76.917  1.00  0.00     0.041 C 
ATOM      9  O   UNL     1       5.681  72.111  75.884  1.00  0.00    -0.550 OA
ATOM     10  O   UNL     1       5.093  73.624  77.501  1.00  0.00    -0.550 OA
ENDBRANCH   7   8
ENDBRANCH   6   7
ENDBRANCH   5   6
ENDBRANCH   4   5
ENDBRANCH   3   4
ENDBRANCH   2   3
ENDBRANCH   1   2
BRANCH   1  11
ATOM     11  C   UNL     1      12.080  72.672  71.867  1.00  0.00     0.000 C 
BRANCH  11  12
ATOM     12  C   UNL     1      13.306  73.151  72.663  1.00  0.00    -0.000 C 
BRANCH  12  13
ATOM     13  C   UNL     1      14.638  72.799  71.977  1.00  0.00    -0.000 C 
BRANCH  13  14
ATOM     14  C   UNL     1      15.426  71.653  72.638  1.00  0.00    -0.000 C 
BRANCH  14  15
ATOM     15  C   UNL     1      14.804  70.272  72.382  1.00  0.00    -0.000 C 
BRANCH  15  16
ATOM     16  C   UNL     1      14.147  69.721  73.653  1.00  0.00    -0.000 C 
BRANCH  16  17
ATOM     17  C   UNL     1      14.663  70.450  74.899  1.00  0.00    -0.003 C 
ATOM     18  C   UNL     1      13.854  70.069  76.135  1.00  0.00     0.004 C 
ENDBRANCH  16  17
ENDBRANCH  15  16
ENDBRANCH  14  15
ENDBRANCH  13  14
ENDBRANCH  12  13
ENDBRANCH  11  12
ENDBRANCH   1  11
TORSDOF 14
ENDMDL
MODEL 3
REMARK VINA RESULT:    -6.631      1.148      1.604
REMARK INTER + INTRA:         -13.042
REMARK INTER:                 -11.814
REMARK INTRA:                  -1.229
REMARK UNBOUND:                -0.985
REMARK SMILES CCCCCCCCCCCCCCCC(=O)[O-]
REMARK SMILES IDX 9 1 10 2 11 3 12 4 13 5 14 6 15 7 16 8 17 9 18 10 8 11 7 12
REMARK SMILES IDX 6 13 5 14 4 15 3 16 2 17 1 18
REMARK H PARENT
REMARK Flexibility Score: inf
ROOT
ATOM      1  C   UNL     1      19.340  72.260  72.075  1.00  0.00     0.000 C 
ENDROOT
BRANCH   1   2
ATOM      2  C   UNL     1      19.767  70.917  71.466  1.00  0.00     0.000 C 
BRANCH   2   3
ATOM      3  C   UNL     1      21.205  70.984  70.941  1.00  0.00     0.000 C 
BRANCH   3   4
ATOM      4  C   UNL     1      21.779  72.402  71.088  1.00  0.00     0.000 C 
BRANCH   4   5
ATOM      5  C   UNL     1      23.046  72.442  71.958  1.00  0.00     0.000 C 
BRANCH   5   6
ATOM      6  C   UNL     1      22.735  72.649  73.448  1.00  0.00     0.006 C 
BRANCH   6   7
ATOM      7  C   UNL     1      23.365  71.542  74.297  1.00  0.00     0.053 C 
BRANCH   7   8
ATOM      8  C   UNL     1      22.304  70.735  74.978  1.00  0.00     0.041 C 
ATOM      9  O   UNL     1      21.088  71.008  74.799  1.00  0.00    -0.550 OA
ATOM     10  O   UNL     1      22.657  69.651  75.772  1.00  0.00    -0.550 OA
ENDBRANCH   7   8
ENDBRANCH   6   7
ENDBRANCH   5   6
ENDBRANCH   4   5
ENDBRANCH   3   4
ENDBRANCH   2   3
ENDBRANCH   1   2
BRANCH   1  11
ATOM     11  C   UNL     1      17.955  72.193  72.740  1.00  0.00     0.000 C 
BRANCH  11  12
ATOM     12  C   UNL     1      16.908  73.055  72.013  1.00  0.00    -0.000 C 
BRANCH  12  13
ATOM     13  C   UNL     1      15.493  72.452  72.073  1.00  0.00    -0.000 C 
BRANCH  13  14
ATOM     14  C   UNL     1      15.444  70.931  72.304  1.00  0.00    -0.000 C 
BRANCH  14  15
ATOM     15  C   UNL     1      14.019  70.404  72.534  1.00  0.00    -0.000 C 
BRANCH  15  16
ATOM     16  C   UNL     1      13.515  70.777  73.933  1.00  0.00    -0.000 C 
BRANCH  16  17
ATOM     17  C   UNL     1      14.560  70.437  75.003  1.00  0.00    -0.003 C 
ATOM     18  C   UNL     1      13.927  69.696  76.176  1.00  0.00     0.004 C 
ENDBRANCH  16  17
ENDBRANCH  15  16
ENDBRANCH  14  15
ENDBRANCH  13  14
ENDBRANCH  12  13
ENDBRANCH  11  12
ENDBRANCH   1  11
TORSDOF 14
ENDMDL
MODEL 4
REMARK VINA RESULT:    -6.605      1.848      4.254
REMARK INTER + INTRA:         -12.995
REMARK INTER:                 -11.450
REMARK INTRA:                  -1.546
REMARK UNBOUND:                -0.985
REMARK SMILES CCCCCCCCCCCCCCCC(=O)[O-]
REMARK SMILES IDX 9 1 10 2 11 3 12 4 13 5 14 6 15 7 16 8 17 9 18 10 8 11 7 12
REMARK SMILES IDX 6 13 5 14 4 15 3 16 2 17 1 18
REMARK H PARENT
REMARK Flexibility Score: inf
ROOT
ATOM      1  C   UNL     1      15.538  70.753  76.939  1.00  0.00     0.000 C 
ENDROOT
BRANCH   1   2
ATOM      2  C   UNL     1      16.583  71.345  75.982  1.00  0.00     0.000 C 
BRANCH   2   3
ATOM      3  C   UNL     1      17.794  71.881  76.753  1.00  0.00     0.000 C 
BRANCH   3   4
ATOM      4  C   UNL     1      19.028  70.996  76.521  1.00  0.00     0.000 C 
BRANCH   4   5
ATOM      5  C   UNL     1      19.398  70.870  75.034  1.00  0.00     0.000 C 
BRANCH   5   6
ATOM      6  C   UNL     1      20.451  71.899  74.597  1.00  0.00     0.006 C 
BRANCH   6   7
ATOM      7  C   UNL     1      21.416  71.292  73.574  1.00  0.00     0.053 C 
BRANCH   7   8
ATOM      8  C   UNL     1      22.679  70.849  74.242  1.00  0.00     0.041 C 
ATOM      9  O   UNL     1      23.797  71.150  73.747  1.00  0.00    -0.550 OA
ATOM     10  O   UNL     1      22.622  70.144  75.438  1.00  0.00    -0.550 OA
ENDBRANCH   7   8
ENDBRANCH   6   7
ENDBRANCH   5   6
ENDBRANCH   4   5
ENDBRANCH   3   4
ENDBRANCH   2   3
ENDBRANCH   1   2
BRANCH   1  11
ATOM     11  C   UNL     1      14.394  70.042  76.197  1.00  0.00     0.000 C 
BRANCH  11  12
ATOM     12  C   UNL     1      14.071  70.697  74.844  1.00  0.00    -0.000 C 
BRANCH  12  13
ATOM     13  C   UNL     1      14.089  69.695  73.675  1.00  0.00    -0.000 C 
BRANCH  13  14
ATOM     14  C   UNL     1      14.528  70.283  72.322  1.00  0.00    -0.000 C 
BRANCH  14  15
ATOM     15  C   UNL     1      15.199  71.658  72.456  1.00  0.00    -0.000 C 
BRANCH  15  16
ATOM     16  C   UNL     1      16.720  71.546  72.287  1.00  0.00    -0.000 C 
BRANCH  16  17
ATOM     17  C   UNL     1      17.410  72.872  72.630  1.00  0.00    -0.003 C 
ATOM     18  C   UNL     1      17.533  73.763  71.399  1.00  0.00     0.004 C 
ENDBRANCH  16  17
ENDBRANCH  15  16
ENDBRANCH  14  15
ENDBRANCH  13  14
ENDBRANCH  12  13
ENDBRANCH  11  12
ENDBRANCH   1  11
TORSDOF 14
ENDMDL
MODEL 5
REMARK VINA RESULT:    -6.567      2.479      5.019
REMARK INTER + INTRA:         -12.927
REMARK INTER:                 -11.483
REMARK INTRA:                  -1.444
REMARK UNBOUND:                -0.985
REMARK SMILES CCCCCCCCCCCCCCCC(=O)[O-]
REMARK SMILES IDX 9 1 10 2 11 3 12 4 13 5 14 6 15 7 16 8 17 9 18 10 8 11 7 12
REMARK SMILES IDX 6 13 5 14 4 15 3 16 2 17 1 18
REMARK H PARENT
REMARK Flexibility Score: inf
ROOT
ATOM      1  C   UNL     1      16.063  71.134  75.836  1.00  0.00     0.000 C 
ENDROOT
BRANCH   1   2
ATOM      2  C   UNL     1      17.023  71.644  76.920  1.00  0.00     0.000 C 
BRANCH   2   3
ATOM      3  C   UNL     1      16.793  70.912  78.248  1.00  0.00     0.000 C 
BRANCH   3   4
ATOM      4  C   UNL     1      18.056  70.150  78.680  1.00  0.00     0.000 C 
BRANCH   4   5
ATOM      5  C   UNL     1      19.313  70.606  77.922  1.00  0.00     0.000 C 
BRANCH   5   6
ATOM      6  C   UNL     1      20.004  69.456  77.174  1.00  0.00     0.006 C 
BRANCH   6   7
ATOM      7  C   UNL     1      20.673  69.961  75.893  1.00  0.00     0.053 C 
BRANCH   7   8
ATOM      8  C   UNL     1      22.162  69.868  76.007  1.00  0.00     0.041 C 
ATOM      9  O   UNL     1      22.899  70.561  75.257  1.00  0.00    -0.550 OA
ATOM     10  O   UNL     1      22.736  69.051  76.973  1.00  0.00    -0.550 OA
ENDBRANCH   7   8
ENDBRANCH   6   7
ENDBRANCH   5   6
ENDBRANCH   4   5
ENDBRANCH   3   4
ENDBRANCH   2   3
ENDBRANCH   1   2
BRANCH   1  11
ATOM     11  C   UNL     1      14.821  70.444  76.425  1.00  0.00     0.000 C 
BRANCH  11  12
ATOM     12  C   UNL     1      13.986  69.719  75.357  1.00  0.00    -0.000 C 
BRANCH  12  13
ATOM     13  C   UNL     1      13.558  70.644  74.203  1.00  0.00    -0.000 C 
BRANCH  13  14
ATOM     14  C   UNL     1      14.288  70.400  72.870  1.00  0.00    -0.000 C 
BRANCH  14  15
ATOM     15  C   UNL     1      15.002  71.652  72.339  1.00  0.00    -0.000 C 
BRANCH  15  16
ATOM     16  C   UNL     1      16.473  71.354  72.024  1.00  0.00    -0.000 C 
BRANCH  16  17
ATOM     17  C   UNL     1      17.385  72.465  72.557  1.00  0.00    -0.003 C 
ATOM     18  C   UNL     1      18.622  71.885  73.236  1.00  0.00     0.004 C 
ENDBRANCH  16  17
ENDBRANCH  15  16
ENDBRANCH  14  15
ENDBRANCH  13  14
ENDBRANCH  12  13
ENDBRANCH  11  12
ENDBRANCH   1  11
TORSDOF 14
ENDMDL
MODEL 6
REMARK VINA RESULT:    -6.548      1.461      3.026
REMARK INTER + INTRA:         -12.892
REMARK INTER:                 -11.477
REMARK INTRA:                  -1.415
REMARK UNBOUND:                -0.985
REMARK SMILES CCCCCCCCCCCCCCCC(=O)[O-]
REMARK SMILES IDX 9 1 10 2 11 3 12 4 13 5 14 6 15 7 16 8 17 9 18 10 8 11 7 12
REMARK SMILES IDX 6 13 5 14 4 15 3 16 2 17 1 18
REMARK H PARENT
REMARK Flexibility Score: inf
ROOT
ATOM      1  C   UNL     1      14.940  72.406  72.353  1.00  0.00     0.000 C 
ENDROOT
BRANCH   1   2
ATOM      2  C   UNL     1      16.367  72.924  72.121  1.00  0.00     0.000 C 
BRANCH   2   3
ATOM      3  C   UNL     1      17.394  71.797  72.278  1.00  0.00     0.000 C 
BRANCH   3   4
ATOM      4  C   UNL     1      18.765  72.357  72.687  1.00  0.00     0.000 C 
BRANCH   4   5
ATOM      5  C   UNL     1      19.908  71.838  71.799  1.00  0.00     0.000 C 
BRANCH   5   6
ATOM      6  C   UNL     1      20.333  70.406  72.158  1.00  0.00     0.006 C 
BRANCH   6   7
ATOM      7  C   UNL     1      21.857  70.264  72.125  1.00  0.00     0.053 C 
BRANCH   7   8
ATOM      8  C   UNL     1      22.431  70.436  73.496  1.00  0.00     0.041 C 
ATOM      9  O   UNL     1      23.651  70.710  73.643  1.00  0.00    -0.550 OA
ATOM     10  O   UNL     1      21.607  70.342  74.611  1.00  0.00    -0.550 OA
ENDBRANCH   7   8
ENDBRANCH   6   7
ENDBRANCH   5   6
ENDBRANCH   4   5
ENDBRANCH   3   4
ENDBRANCH   2   3
ENDBRANCH   1   2
BRANCH   1  11
ATOM     11  C   UNL     1      14.866  70.870  72.368  1.00  0.00     0.000 C 
BRANCH  11  12
ATOM     12  C   UNL     1      13.677  70.345  73.190  1.00  0.00    -0.000 C 
BRANCH  12  13
ATOM     13  C   UNL     1      14.114  69.617  74.474  1.00  0.00    -0.000 C 
BRANCH  13  14
ATOM     14  C   UNL     1      13.819  70.374  75.782  1.00  0.00    -0.000 C 
BRANCH  14  15
ATOM     15  C   UNL     1      15.058  70.532  76.676  1.00  0.00    -0.000 C 
BRANCH  15  16
ATOM     16  C   UNL     1      16.221  71.160  75.898  1.00  0.00    -0.000 C 
BRANCH  16  17
ATOM     17  C   UNL     1      17.369  71.543  76.839  1.00  0.00    -0.003 C 
ATOM     18  C   UNL     1      18.719  71.417  76.141  1.00  0.00     0.004 C 
ENDBRANCH  16  17
ENDBRANCH  15  16
ENDBRANCH  14  15
ENDBRANCH  13  14
ENDBRANCH  12  13
ENDBRANCH  11  12
ENDBRANCH   1  11
TORSDOF 14
ENDMDL
MODEL 7
REMARK VINA RESULT:    -6.501      4.024      5.163
REMARK INTER + INTRA:         -12.807
REMARK INTER:                 -11.316
REMARK INTRA:                  -1.491
REMARK UNBOUND:                -0.985
REMARK SMILES CCCCCCCCCCCCCCCC(=O)[O-]
REMARK SMILES IDX 9 1 10 2 11 3 12 4 13 5 14 6 15 7 16 8 17 9 18 10 8 11 7 12
REMARK SMILES IDX 6 13 5 14 4 15 3 16 2 17 1 18
REMARK H PARENT
REMARK Flexibility Score: inf
ROOT
ATOM      1  C   UNL     1      16.990  71.900  75.378  1.00  0.00     0.000 C 
ENDROOT
BRANCH   1   2
ATOM      2  C   UNL     1      17.785  71.194  76.486  1.00  0.00     0.000 C 
BRANCH   2   3
ATOM      3  C   UNL     1      19.292  71.403  76.299  1.00  0.00     0.000 C 
BRANCH   3   4
ATOM      4  C   UNL     1      19.997  70.073  75.989  1.00  0.00     0.000 C 
BRANCH   4   5
ATOM      5  C   UNL     1      20.808  69.539  77.180  1.00  0.00     0.000 C 
BRANCH   5   6
ATOM      6  C   UNL     1      19.948  68.745  78.174  1.00  0.00     0.006 C 
BRANCH   6   7
ATOM      7  C   UNL     1      19.816  69.493  79.504  1.00  0.00     0.053 C 
BRANCH   7   8
ATOM      8  C   UNL     1      18.376  69.742  79.826  1.00  0.00     0.041 C 
ATOM      9  O   UNL     1      17.529  68.819  79.695  1.00  0.00    -0.550 OA
ATOM     10  O   UNL     1      17.977  70.979  80.316  1.00  0.00    -0.550 OA
ENDBRANCH   7   8
ENDBRANCH   6   7
ENDBRANCH   5   6
ENDBRANCH   4   5
ENDBRANCH   3   4
ENDBRANCH   2   3
ENDBRANCH   1   2
BRANCH   1  11
ATOM     11  C   UNL     1      17.478  71.525  73.970  1.00  0.00     0.000 C 
BRANCH  11  12
ATOM     12  C   UNL     1      17.224  72.638  72.940  1.00  0.00    -0.000 C 
BRANCH  12  13
ATOM     13  C   UNL     1      15.949  72.404  72.110  1.00  0.00    -0.000 C 
BRANCH  13  14
ATOM     14  C   UNL     1      15.285  71.030  72.314  1.00  0.00    -0.000 C 
BRANCH  14  15
ATOM     15  C   UNL     1      13.753  71.111  72.402  1.00  0.00    -0.000 C 
BRANCH  15  16
ATOM     16  C   UNL     1      13.272  70.873  73.839  1.00  0.00    -0.000 C 
BRANCH  16  17
ATOM     17  C   UNL     1      14.095  69.772  74.519  1.00  0.00    -0.003 C 
ATOM     18  C   UNL     1      14.001  69.872  76.038  1.00  0.00     0.004 C 
ENDBRANCH  16  17
ENDBRANCH  15  16
ENDBRANCH  14  15
ENDBRANCH  13  14
ENDBRANCH  12  13
ENDBRANCH  11  12
ENDBRANCH   1  11
TORSDOF 14
ENDMDL
MODEL 8
REMARK VINA RESULT:    -6.468      3.571      7.375
REMARK INTER + INTRA:         -12.747
REMARK INTER:                 -10.858
REMARK INTRA:                  -1.889
REMARK UNBOUND:                -0.985
REMARK SMILES CCCCCCCCCCCCCCCC(=O)[O-]
REMARK SMILES IDX 9 1 10 2 11 3 12 4 13 5 14 6 15 7 16 8 17 9 18 10 8 11 7 12
REMARK SMILES IDX 6 13 5 14 4 15 3 16 2 17 1 18
REMARK H PARENT
REMARK Flexibility Score: inf
ROOT
ATOM      1  C   UNL     1      19.366  71.096  73.876  1.00  0.00     0.000 C 
ENDROOT
BRANCH   1   2
ATOM      2  C   UNL     1      19.078  72.515  73.363  1.00  0.00     0.000 C 
BRANCH   2   3
ATOM      3  C   UNL     1      18.390  72.476  71.994  1.00  0.00     0.000 C 
BRANCH   3   4
ATOM      4  C   UNL     1      17.120  71.611  72.042  1.00  0.00     0.000 C 
BRANCH   4   5
ATOM      5  C   UNL     1      15.832  72.450  72.056  1.00  0.00     0.000 C 
BRANCH   5   6
ATOM      6  C   UNL     1      15.050  72.313  73.371  1.00  0.00     0.006 C 
BRANCH   6   7
ATOM      7  C   UNL     1      15.484  71.060  74.137  1.00  0.00     0.053 C 
BRANCH   7   8
ATOM      8  C   UNL     1      14.419  70.011  74.075  1.00  0.00     0.041 C 
ATOM      9  O   UNL     1      13.969  69.630  72.963  1.00  0.00    -0.550 OA
ATOM     10  O   UNL     1      13.956  69.420  75.245  1.00  0.00    -0.550 OA
ENDBRANCH   7   8
ENDBRANCH   6   7
ENDBRANCH   5   6
ENDBRANCH   4   5
ENDBRANCH   3   4
ENDBRANCH   2   3
ENDBRANCH   1   2
BRANCH   1  11
ATOM     11  C   UNL     1      20.839  70.900  74.270  1.00  0.00     0.000 C 
BRANCH  11  12
ATOM     12  C   UNL     1      21.732  72.068  73.818  1.00  0.00    -0.000 C 
BRANCH  12  13
ATOM     13  C   UNL     1      22.533  71.749  72.543  1.00  0.00    -0.000 C 
BRANCH  13  14
ATOM     14  C   UNL     1      22.236  72.668  71.344  1.00  0.00    -0.000 C 
BRANCH  14  15
ATOM     15  C   UNL     1      21.589  71.925  70.165  1.00  0.00    -0.000 C 
BRANCH  15  16
ATOM     16  C   UNL     1      21.118  70.528  70.588  1.00  0.00    -0.000 C 
BRANCH  16  17
ATOM     17  C   UNL     1      20.752  69.678  69.365  1.00  0.00    -0.003 C 
ATOM     18  C   UNL     1      19.755  68.584  69.733  1.00  0.00     0.004 C 
ENDBRANCH  16  17
ENDBRANCH  15  16
ENDBRANCH  14  15
ENDBRANCH  13  14
ENDBRANCH  12  13
ENDBRANCH  11  12
ENDBRANCH   1  11
TORSDOF 14
ENDMDL
MODEL 9
REMARK VINA RESULT:    -6.427      1.935      3.182
REMARK INTER + INTRA:         -12.673
REMARK INTER:                 -11.056
REMARK INTRA:                  -1.617
REMARK UNBOUND:                -0.985
REMARK SMILES CCCCCCCCCCCCCCCC(=O)[O-]
REMARK SMILES IDX 9 1 10 2 11 3 12 4 13 5 14 6 15 7 16 8 17 9 18 10 8 11 7 12
REMARK SMILES IDX 6 13 5 14 4 15 3 16 2 17 1 18
REMARK H PARENT
REMARK Flexibility Score: inf
ROOT
ATOM      1  C   UNL     1      19.693  71.079  74.287  1.00  0.00     0.000 C 
ENDROOT
BRANCH   1   2
ATOM      2  C   UNL     1      20.655  72.230  73.962  1.00  0.00     0.000 C 
BRANCH   2   3
ATOM      3  C   UNL     1      22.097  71.724  73.836  1.00  0.00     0.000 C 
BRANCH   3   4
ATOM      4  C   UNL     1      22.733  72.200  72.520  1.00  0.00     0.000 C 
BRANCH   4   5
ATOM      5  C   UNL     1      21.687  72.612  71.471  1.00  0.00     0.000 C 
BRANCH   5   6
ATOM      6  C   UNL     1      21.536  71.576  70.346  1.00  0.00     0.006 C 
BRANCH   6   7
ATOM      7  C   UNL     1      20.283  70.721  70.555  1.00  0.00     0.053 C 
BRANCH   7   8
ATOM      8  C   UNL     1      20.655  69.286  70.762  1.00  0.00     0.041 C 
ATOM      9  O   UNL     1      21.444  68.964  71.689  1.00  0.00    -0.550 OA
ATOM     10  O   UNL     1      20.094  68.300  69.961  1.00  0.00    -0.550 OA
ENDBRANCH   7   8
ENDBRANCH   6   7
ENDBRANCH   5   6
ENDBRANCH   4   5
ENDBRANCH   3   4
ENDBRANCH   2   3
ENDBRANCH   1   2
BRANCH   1  11
ATOM     11  C   UNL     1      18.217  71.501  74.199  1.00  0.00     0.000 C 
BRANCH  11  12
ATOM     12  C   UNL     1      17.851  72.083  72.823  1.00  0.00    -0.000 C 
BRANCH  12  13
ATOM     13  C   UNL     1      16.518  71.537  72.279  1.00  0.00    -0.000 C 
BRANCH  13  14
ATOM     14  C   UNL     1      15.276  72.365  72.656  1.00  0.00    -0.000 C 
BRANCH  14  15
ATOM     15  C   UNL     1      13.958  71.687  72.254  1.00  0.00    -0.000 C 
BRANCH  15  16
ATOM     16  C   UNL     1      13.718  70.418  73.083  1.00  0.00    -0.000 C 
BRANCH  16  17
ATOM     17  C   UNL     1      13.381  70.768  74.537  1.00  0.00    -0.003 C 
ATOM     18  C   UNL     1      14.370  70.121  75.503  1.00  0.00     0.004 C 
ENDBRANCH  16  17
ENDBRANCH  15  16
ENDBRANCH  14  15
ENDBRANCH  13  14
ENDBRANCH  12  13
ENDBRANCH  11  12
ENDBRANCH   1  11
TORSDOF 14
ENDMDL
