MODEL 1
REMARK VINA RESULT:    -5.011      0.000      0.000
REMARK INTER + INTRA:          -6.012
REMARK INTER:                  -5.743
REMARK INTRA:                  -0.269
REMARK UNBOUND:                -0.269
REMARK SMILES O=C([O-])C=Cc1ccc(O)cc1
REMARK SMILES IDX 6 1 7 2 12 3 8 4 11 5 9 6 5 7 4 8 2 9 1 10 3 11 10 12
REMARK H PARENT 10 13
REMARK Flexibility Score: inf
ROOT
ATOM      1  C   UNL     1     -10.303  -5.475  -7.914  1.00  0.00    -0.025 A 
ATOM      2  C   UNL     1     -11.036  -5.181  -9.077  1.00  0.00     0.012 A 
ATOM      3  C   UNL     1      -9.529  -4.468  -7.318  1.00  0.00     0.012 A 
ATOM      4  C   UNL     1     -11.034  -3.885  -9.602  1.00  0.00     0.047 A 
ATOM      5  C   UNL     1      -9.529  -3.174  -7.845  1.00  0.00     0.047 A 
ATOM      6  C   UNL     1     -10.283  -2.877  -8.985  1.00  0.00     0.115 A 
ENDROOT
BRANCH   1   7
ATOM      7  C   UNL     1     -10.246  -6.849  -7.372  1.00  0.00     0.010 C 
ATOM      8  C   UNL     1     -11.016  -7.325  -6.380  1.00  0.00     0.025 C 
BRANCH   8   9
ATOM      9  C   UNL     1     -11.914  -6.519  -5.533  1.00  0.00     0.064 C 
ATOM     10  O   UNL     1     -11.447  -5.938  -4.519  1.00  0.00    -0.545 OA
ATOM     11  O   UNL     1     -13.250  -6.328  -5.866  1.00  0.00    -0.545 OA
ENDBRANCH   8   9
ENDBRANCH   1   7
BRANCH   6  12
ATOM     12  O   UNL     1     -10.275  -1.582  -9.498  1.00  0.00    -0.508 OA
ATOM     13  H   UNL     1      -9.432  -1.020  -9.505  1.00  0.00     0.293 HD
ENDBRANCH   6  12
TORSDOF 3
ENDMDL
MODEL 2
REMARK VINA RESULT:    -4.972      0.201      1.413
REMARK INTER + INTRA:          -5.968
REMARK INTER:                  -5.684
REMARK INTRA:                  -0.284
REMARK UNBOUND:                -0.269
REMARK SMILES O=C([O-])C=Cc1ccc(O)cc1
REMARK SMILES IDX 6 1 7 2 12 3 8 4 11 5 9 6 5 7 4 8 2 9 1 10 3 11 10 12
REMARK H PARENT 10 13
REMARK Flexibility Score: inf
ROOT
ATOM      1  C   UNL     1     -10.209  -5.490  -7.964  1.00  0.00    -0.025 A 
ATOM      2  C   UNL     1      -9.518  -4.454  -7.311  1.00  0.00     0.012 A 
ATOM      3  C   UNL     1     -10.974  -5.193  -9.102  1.00  0.00     0.012 A 
ATOM      4  C   UNL     1      -9.549  -3.154  -7.823  1.00  0.00     0.047 A 
ATOM      5  C   UNL     1     -11.004  -3.892  -9.612  1.00  0.00     0.047 A 
ATOM      6  C   UNL     1     -10.291  -2.870  -8.978  1.00  0.00     0.115 A 
ENDROOT
BRANCH   1   7
ATOM      7  C   UNL     1     -10.235  -6.861  -7.412  1.00  0.00     0.010 C 
ATOM      8  C   UNL     1     -11.124  -7.322  -6.519  1.00  0.00     0.025 C 
BRANCH   8   9
ATOM      9  C   UNL     1     -12.108  -6.502  -5.789  1.00  0.00     0.064 C 
ATOM     10  O   UNL     1     -11.749  -5.889  -4.750  1.00  0.00    -0.545 OA
ATOM     11  O   UNL     1     -13.404  -6.331  -6.261  1.00  0.00    -0.545 OA
ENDBRANCH   8   9
ENDBRANCH   1   7
BRANCH   6  12
ATOM     12  O   UNL     1     -10.329  -1.578  -9.497  1.00  0.00    -0.508 OA
ATOM     13  H   UNL     1      -9.666  -0.871  -9.206  1.00  0.00     0.293 HD
ENDBRANCH   6  12
TORSDOF 3
ENDMDL
MODEL 3
REMARK VINA RESULT:    -4.873      1.509      4.638
REMARK INTER + INTRA:          -5.854
REMARK INTER:                  -5.569
REMARK INTRA:                  -0.285
REMARK UNBOUND:                -0.269
REMARK SMILES O=C([O-])C=Cc1ccc(O)cc1
REMARK SMILES IDX 6 1 7 2 12 3 8 4 11 5 9 6 5 7 4 8 2 9 1 10 3 11 10 12
REMARK H PARENT 10 13
REMARK Flexibility Score: inf
ROOT
ATOM      1  C   UNL     1     -10.995  -5.810  -7.501  1.00  0.00    -0.025 A 
ATOM      2  C   UNL     1     -11.007  -5.943  -6.102  1.00  0.00     0.012 A 
ATOM      3  C   UNL     1     -12.186  -5.999  -8.219  1.00  0.00     0.012 A 
ATOM      4  C   UNL     1     -12.204  -6.206  -5.429  1.00  0.00     0.047 A 
ATOM      5  C   UNL     1     -13.381  -6.263  -7.544  1.00  0.00     0.047 A 
ATOM      6  C   UNL     1     -13.396  -6.365  -6.149  1.00  0.00     0.115 A 
ENDROOT
BRANCH   1   7
ATOM      7  C   UNL     1      -9.734  -5.585  -8.239  1.00  0.00     0.010 C 
ATOM      8  C   UNL     1      -9.205  -4.385  -8.524  1.00  0.00     0.025 C 
BRANCH   8   9
ATOM      9  C   UNL     1      -9.874  -3.086  -8.326  1.00  0.00     0.064 C 
ATOM     10  O   UNL     1      -9.729  -2.479  -7.233  1.00  0.00    -0.545 OA
ATOM     11  O   UNL     1     -10.603  -2.481  -9.344  1.00  0.00    -0.545 OA
ENDBRANCH   8   9
ENDBRANCH   1   7
BRANCH   6  12
ATOM     12  O   UNL     1     -14.594  -6.627  -5.490  1.00  0.00    -0.508 OA
ATOM     13  H   UNL     1     -15.338  -5.942  -5.452  1.00  0.00     0.293 HD
ENDBRANCH   6  12
TORSDOF 3
ENDMDL
MODEL 4
REMARK VINA RESULT:    -4.659     16.683     17.789
REMARK INTER + INTRA:          -5.608
REMARK INTER:                  -5.381
REMARK INTRA:                  -0.227
REMARK UNBOUND:                -0.269
REMARK SMILES O=C([O-])C=Cc1ccc(O)cc1
REMARK SMILES IDX 6 1 7 2 12 3 8 4 11 5 9 6 5 7 4 8 2 9 1 10 3 11 10 12
REMARK H PARENT 10 13
REMARK Flexibility Score: inf
ROOT
ATOM      1  C   UNL     1     -12.289   4.883   5.772  1.00  0.00    -0.025 A 
ATOM      2  C   UNL     1     -10.980   5.364   5.601  1.00  0.00     0.012 A 
ATOM      3  C   UNL     1     -12.722   4.511   7.054  1.00  0.00     0.012 A 
ATOM      4  C   UNL     1     -10.137   5.521   6.706  1.00  0.00     0.047 A 
ATOM      5  C   UNL     1     -11.877   4.669   8.157  1.00  0.00     0.047 A 
ATOM      6  C   UNL     1     -10.586   5.177   7.988  1.00  0.00     0.115 A 
ENDROOT
BRANCH   1   7
ATOM      7  C   UNL     1     -13.179   4.657   4.614  1.00  0.00     0.010 C 
ATOM      8  C   UNL     1     -14.003   5.572   4.078  1.00  0.00     0.025 C 
BRANCH   8   9
ATOM      9  C   UNL     1     -14.308   6.893   4.658  1.00  0.00     0.064 C 
ATOM     10  O   UNL     1     -14.079   7.930   3.982  1.00  0.00    -0.545 OA
ATOM     11  O   UNL     1     -14.909   7.017   5.905  1.00  0.00    -0.545 OA
ENDBRANCH   8   9
ENDBRANCH   1   7
BRANCH   6  12
ATOM     12  O   UNL     1      -9.756   5.330   9.096  1.00  0.00    -0.508 OA
ATOM     13  H   UNL     1     -10.036   5.014  10.016  1.00  0.00     0.293 HD
ENDBRANCH   6  12
TORSDOF 3
ENDMDL
MODEL 5
REMARK VINA RESULT:    -4.489      1.564      5.187
REMARK INTER + INTRA:          -5.414
REMARK INTER:                  -5.128
REMARK INTRA:                  -0.286
REMARK UNBOUND:                -0.269
REMARK SMILES O=C([O-])C=Cc1ccc(O)cc1
REMARK SMILES IDX 6 1 7 2 12 3 8 4 11 5 9 6 5 7 4 8 2 9 1 10 3 11 10 12
REMARK H PARENT 10 13
REMARK Flexibility Score: inf
ROOT
ATOM      1  C   UNL     1     -10.082  -3.458  -9.221  1.00  0.00    -0.025 A 
ATOM      2  C   UNL     1      -9.545  -3.279  -7.934  1.00  0.00     0.012 A 
ATOM      3  C   UNL     1     -11.011  -4.487  -9.439  1.00  0.00     0.012 A 
ATOM      4  C   UNL     1      -9.974  -4.082  -6.873  1.00  0.00     0.047 A 
ATOM      5  C   UNL     1     -11.438  -5.289  -8.376  1.00  0.00     0.047 A 
ATOM      6  C   UNL     1     -10.925  -5.088  -7.091  1.00  0.00     0.115 A 
ENDROOT
BRANCH   1   7
ATOM      7  C   UNL     1      -9.606  -2.659 -10.368  1.00  0.00     0.010 C 
ATOM      8  C   UNL     1     -10.026  -1.423 -10.682  1.00  0.00     0.025 C 
BRANCH   8   9
ATOM      9  C   UNL     1     -11.165  -0.724 -10.060  1.00  0.00     0.064 C 
ATOM     10  O   UNL     1     -10.946   0.161  -9.192  1.00  0.00    -0.545 OA
ATOM     11  O   UNL     1     -12.474  -0.967 -10.460  1.00  0.00    -0.545 OA
ENDBRANCH   8   9
ENDBRANCH   1   7
BRANCH   6  12
ATOM     12  O   UNL     1     -11.360  -5.893  -6.041  1.00  0.00    -0.508 OA
ATOM     13  H   UNL     1     -11.067  -5.723  -5.087  1.00  0.00     0.293 HD
ENDBRANCH   6  12
TORSDOF 3
ENDMDL
MODEL 6
REMARK VINA RESULT:    -4.385     16.504     17.439
REMARK INTER + INTRA:          -5.294
REMARK INTER:                  -5.076
REMARK INTRA:                  -0.218
REMARK UNBOUND:                -0.269
REMARK SMILES O=C([O-])C=Cc1ccc(O)cc1
REMARK SMILES IDX 6 1 7 2 12 3 8 4 11 5 9 6 5 7 4 8 2 9 1 10 3 11 10 12
REMARK H PARENT 10 13
REMARK Flexibility Score: inf
ROOT
ATOM      1  C   UNL     1     -11.675   5.733   6.056  1.00  0.00    -0.025 A 
ATOM      2  C   UNL     1     -12.710   6.684   6.066  1.00  0.00     0.012 A 
ATOM      3  C   UNL     1     -11.748   4.649   5.168  1.00  0.00     0.012 A 
ATOM      4  C   UNL     1     -13.772   6.580   5.162  1.00  0.00     0.047 A 
ATOM      5  C   UNL     1     -12.811   4.546   4.266  1.00  0.00     0.047 A 
ATOM      6  C   UNL     1     -13.824   5.511   4.257  1.00  0.00     0.115 A 
ENDROOT
BRANCH   1   7
ATOM      7  C   UNL     1     -10.571   5.792   7.036  1.00  0.00     0.010 C 
ATOM      8  C   UNL     1     -10.502   5.082   8.172  1.00  0.00     0.025 C 
BRANCH   8   9
ATOM      9  C   UNL     1     -11.591   4.266   8.739  1.00  0.00     0.064 C 
ATOM     10  O   UNL     1     -11.401   3.038   8.940  1.00  0.00    -0.545 OA
ATOM     11  O   UNL     1     -12.800   4.835   9.124  1.00  0.00    -0.545 OA
ENDBRANCH   8   9
ENDBRANCH   1   7
BRANCH   6  12
ATOM     12  O   UNL     1     -14.876   5.397   3.353  1.00  0.00    -0.508 OA
ATOM     13  H   UNL     1     -14.739   5.010   2.427  1.00  0.00     0.293 HD
ENDBRANCH   6  12
TORSDOF 3
ENDMDL
MODEL 7
REMARK VINA RESULT:    -4.336     16.637     17.550
REMARK INTER + INTRA:          -5.239
REMARK INTER:                  -5.032
REMARK INTRA:                  -0.207
REMARK UNBOUND:                -0.269
REMARK SMILES O=C([O-])C=Cc1ccc(O)cc1
REMARK SMILES IDX 6 1 7 2 12 3 8 4 11 5 9 6 5 7 4 8 2 9 1 10 3 11 10 12
REMARK H PARENT 10 13
REMARK Flexibility Score: inf
ROOT
ATOM      1  C   UNL     1     -12.924   4.378   6.284  1.00  0.00    -0.025 A 
ATOM      2  C   UNL     1     -12.903   4.647   4.905  1.00  0.00     0.012 A 
ATOM      3  C   UNL     1     -13.649   5.224   7.138  1.00  0.00     0.012 A 
ATOM      4  C   UNL     1     -13.641   5.715   4.384  1.00  0.00     0.047 A 
ATOM      5  C   UNL     1     -14.385   6.291   6.614  1.00  0.00     0.047 A 
ATOM      6  C   UNL     1     -14.386   6.539   5.238  1.00  0.00     0.115 A 
ENDROOT
BRANCH   1   7
ATOM      7  C   UNL     1     -12.112   3.289   6.865  1.00  0.00     0.010 C 
ATOM      8  C   UNL     1     -10.990   3.455   7.583  1.00  0.00     0.025 C 
BRANCH   8   9
ATOM      9  C   UNL     1     -10.267   4.728   7.758  1.00  0.00     0.064 C 
ATOM     10  O   UNL     1     -10.224   5.260   8.898  1.00  0.00    -0.545 OA
ATOM     11  O   UNL     1      -9.571   5.318   6.710  1.00  0.00    -0.545 OA
ENDBRANCH   8   9
ENDBRANCH   1   7
BRANCH   6  12
ATOM     12  O   UNL     1     -15.125   7.604   4.730  1.00  0.00    -0.508 OA
ATOM     13  H   UNL     1     -16.136   7.576   4.690  1.00  0.00     0.293 HD
ENDBRANCH   6  12
TORSDOF 3
ENDMDL
MODEL 8
REMARK VINA RESULT:    -4.330      1.789      2.543
REMARK INTER + INTRA:          -5.231
REMARK INTER:                  -5.003
REMARK INTRA:                  -0.228
REMARK UNBOUND:                -0.269
REMARK SMILES O=C([O-])C=Cc1ccc(O)cc1
REMARK SMILES IDX 6 1 7 2 12 3 8 4 11 5 9 6 5 7 4 8 2 9 1 10 3 11 10 12
REMARK H PARENT 10 13
REMARK Flexibility Score: inf
ROOT
ATOM      1  C   UNL     1     -11.136  -6.074  -8.303  1.00  0.00    -0.025 A 
ATOM      2  C   UNL     1     -10.586  -5.884  -7.023  1.00  0.00     0.012 A 
ATOM      3  C   UNL     1     -11.061  -5.034  -9.243  1.00  0.00     0.012 A 
ATOM      4  C   UNL     1      -9.925  -4.693  -6.709  1.00  0.00     0.047 A 
ATOM      5  C   UNL     1     -10.400  -3.844  -8.926  1.00  0.00     0.047 A 
ATOM      6  C   UNL     1      -9.827  -3.670  -7.662  1.00  0.00     0.115 A 
ENDROOT
BRANCH   1   7
ATOM      7  C   UNL     1     -11.886  -7.301  -8.641  1.00  0.00     0.010 C 
ATOM      8  C   UNL     1     -13.159  -7.553  -8.297  1.00  0.00     0.025 C 
BRANCH   8   9
ATOM      9  C   UNL     1     -13.970  -6.746  -7.368  1.00  0.00     0.064 C 
ATOM     10  O   UNL     1     -14.750  -5.874  -7.829  1.00  0.00    -0.545 OA
ATOM     11  O   UNL     1     -13.947  -6.975  -5.997  1.00  0.00    -0.545 OA
ENDBRANCH   8   9
ENDBRANCH   1   7
BRANCH   6  12
ATOM     12  O   UNL     1      -9.170  -2.480  -7.361  1.00  0.00    -0.508 OA
ATOM     13  H   UNL     1      -9.363  -1.625  -7.869  1.00  0.00     0.293 HD
ENDBRANCH   6  12
TORSDOF 3
ENDMDL
MODEL 9
REMARK VINA RESULT:    -4.213     16.635     17.527
REMARK INTER + INTRA:          -5.097
REMARK INTER:                  -4.969
REMARK INTRA:                  -0.128
REMARK UNBOUND:                -0.269
REMARK SMILES O=C([O-])C=Cc1ccc(O)cc1
REMARK SMILES IDX 6 1 7 2 12 3 8 4 11 5 9 6 5 7 4 8 2 9 1 10 3 11 10 12
REMARK H PARENT 10 13
REMARK Flexibility Score: inf
ROOT
ATOM      1  C   UNL     1     -13.678   5.750   6.211  1.00  0.00    -0.025 A 
ATOM      2  C   UNL     1     -13.272   4.796   5.261  1.00  0.00     0.012 A 
ATOM      3  C   UNL     1     -14.388   6.883   5.785  1.00  0.00     0.012 A 
ATOM      4  C   UNL     1     -13.620   4.949   3.915  1.00  0.00     0.047 A 
ATOM      5  C   UNL     1     -14.734   7.034   4.439  1.00  0.00     0.047 A 
ATOM      6  C   UNL     1     -14.355   6.068   3.501  1.00  0.00     0.115 A 
ENDROOT
BRANCH   1   7
ATOM      7  C   UNL     1     -13.277   5.638   7.628  1.00  0.00     0.010 C 
ATOM      8  C   UNL     1     -12.034   5.822   8.101  1.00  0.00     0.025 C 
BRANCH   8   9
ATOM      9  C   UNL     1     -10.821   5.976   7.279  1.00  0.00     0.064 C 
ATOM     10  O   UNL     1      -9.999   5.026   7.209  1.00  0.00    -0.545 OA
ATOM     11  O   UNL     1     -10.598   7.120   6.521  1.00  0.00    -0.545 OA
ENDBRANCH   8   9
ENDBRANCH   1   7
BRANCH   6  12
ATOM     12  O   UNL     1     -14.708   6.230   2.164  1.00  0.00    -0.508 OA
ATOM     13  H   UNL     1     -14.523   7.093   1.668  1.00  0.00     0.293 HD
ENDBRANCH   6  12
TORSDOF 3
ENDMDL
