MODEL 1
REMARK VINA RESULT:    -6.146      0.000      0.000
REMARK INTER + INTRA:         -15.450
REMARK INTER:                 -13.332
REMARK INTRA:                  -2.118
REMARK UNBOUND:                -2.118
REMARK SMILES CCCCCCCCCCCCCCCCCCCCCC(=O)[O-]
REMARK SMILES IDX 12 1 11 2 10 3 9 4 8 5 7 6 6 7 5 8 4 9 3 10 2 11 1 12 13 13
REMARK SMILES IDX 14 14 15 15 16 16 17 17 18 18 19 19 20 20 21 21 22 22 23 23
REMARK SMILES IDX 24 24
REMARK H PARENT
REMARK Flexibility Score: inf
ROOT
ATOM      1  C   UNL     1       8.175  13.712   0.194  1.00  0.00     0.000 C 
ENDROOT
BRANCH   1   2
ATOM      2  C   UNL     1       7.024  13.434   1.175  1.00  0.00     0.000 C 
BRANCH   2   3
ATOM      3  C   UNL     1       5.646  13.446   0.492  1.00  0.00     0.000 C 
BRANCH   3   4
ATOM      4  C   UNL     1       5.092  14.869   0.296  1.00  0.00    -0.000 C 
BRANCH   4   5
ATOM      5  C   UNL     1       3.632  15.010   0.765  1.00  0.00    -0.000 C 
BRANCH   5   6
ATOM      6  C   UNL     1       3.255  14.145   1.983  1.00  0.00    -0.000 C 
BRANCH   6   7
ATOM      7  C   UNL     1       2.266  14.848   2.929  1.00  0.00    -0.000 C 
BRANCH   7   8
ATOM      8  C   UNL     1       2.911  15.243   4.267  1.00  0.00    -0.000 C 
BRANCH   8   9
ATOM      9  C   UNL     1       4.070  16.243   4.099  1.00  0.00    -0.000 C 
BRANCH   9  10
ATOM     10  C   UNL     1       5.449  15.610   4.364  1.00  0.00    -0.000 C 
BRANCH  10  11
ATOM     11  C   UNL     1       6.594  16.175   3.504  1.00  0.00    -0.003 C 
ATOM     12  C   UNL     1       7.953  15.563   3.840  1.00  0.00     0.004 C 
ENDBRANCH  10  11
ENDBRANCH   9  10
ENDBRANCH   8   9
ENDBRANCH   7   8
ENDBRANCH   6   7
ENDBRANCH   5   6
ENDBRANCH   4   5
ENDBRANCH   3   4
ENDBRANCH   2   3
ENDBRANCH   1   2
BRANCH   1  13
ATOM     13  C   UNL     1       9.154  14.781   0.708  1.00  0.00     0.000 C 
BRANCH  13  14
ATOM     14  C   UNL     1      10.505  14.241   1.219  1.00  0.00     0.000 C 
BRANCH  14  15
ATOM     15  C   UNL     1      11.723  15.145   0.945  1.00  0.00     0.000 C 
BRANCH  15  16
ATOM     16  C   UNL     1      11.390  16.524   0.348  1.00  0.00     0.000 C 
BRANCH  16  17
ATOM     17  C   UNL     1      11.615  17.678   1.339  1.00  0.00     0.000 C 
BRANCH  17  18
ATOM     18  C   UNL     1      10.632  17.622   2.528  1.00  0.00     0.000 C 
BRANCH  18  19
ATOM     19  C   UNL     1      10.796  18.782   3.523  1.00  0.00     0.000 C 
BRANCH  19  20
ATOM     20  C   UNL     1      12.245  19.274   3.636  1.00  0.00     0.006 C 
BRANCH  20  21
ATOM     21  C   UNL     1      12.625  19.537   5.097  1.00  0.00     0.053 C 
BRANCH  21  22
ATOM     22  C   UNL     1      14.099  19.369   5.298  1.00  0.00     0.041 C 
ATOM     23  O   UNL     1      14.809  18.878   4.380  1.00  0.00    -0.550 OA
ATOM     24  O   UNL     1      14.679  19.706   6.516  1.00  0.00    -0.550 OA
ENDBRANCH  21  22
ENDBRANCH  20  21
ENDBRANCH  19  20
ENDBRANCH  18  19
ENDBRANCH  17  18
ENDBRANCH  16  17
ENDBRANCH  15  16
ENDBRANCH  14  15
ENDBRANCH  13  14
ENDBRANCH   1  13
TORSDOF 20
ENDMDL
MODEL 2
REMARK VINA RESULT:    -6.101      1.708      3.504
REMARK INTER + INTRA:         -15.352
REMARK INTER:                 -13.417
REMARK INTRA:                  -1.935
REMARK UNBOUND:                -2.118
REMARK SMILES CCCCCCCCCCCCCCCCCCCCCC(=O)[O-]
REMARK SMILES IDX 12 1 11 2 10 3 9 4 8 5 7 6 6 7 5 8 4 9 3 10 2 11 1 12 13 13
REMARK SMILES IDX 14 14 15 15 16 16 17 17 18 18 19 19 20 20 21 21 22 22 23 23
REMARK SMILES IDX 24 24
REMARK H PARENT
REMARK Flexibility Score: inf
ROOT
ATOM      1  C   UNL     1      11.325  13.952   0.449  1.00  0.00     0.000 C 
ENDROOT
BRANCH   1   2
ATOM      2  C   UNL     1      10.116  13.598   1.332  1.00  0.00     0.000 C 
BRANCH   2   3
ATOM      3  C   UNL     1       8.773  13.831   0.619  1.00  0.00     0.000 C 
BRANCH   3   4
ATOM      4  C   UNL     1       7.744  14.553   1.506  1.00  0.00    -0.000 C 
BRANCH   4   5
ATOM      5  C   UNL     1       8.185  14.640   2.979  1.00  0.00    -0.000 C 
BRANCH   5   6
ATOM      6  C   UNL     1       7.492  15.743   3.801  1.00  0.00    -0.000 C 
BRANCH   6   7
ATOM      7  C   UNL     1       6.079  16.070   3.286  1.00  0.00    -0.000 C 
BRANCH   7   8
ATOM      8  C   UNL     1       4.979  15.628   4.264  1.00  0.00    -0.000 C 
BRANCH   8   9
ATOM      9  C   UNL     1       3.701  15.150   3.549  1.00  0.00    -0.000 C 
BRANCH   9  10
ATOM     10  C   UNL     1       3.776  15.307   2.019  1.00  0.00    -0.000 C 
BRANCH  10  11
ATOM     11  C   UNL     1       3.611  13.998   1.227  1.00  0.00    -0.003 C 
ATOM     12  C   UNL     1       4.559  12.894   1.692  1.00  0.00     0.004 C 
ENDBRANCH  10  11
ENDBRANCH   9  10
ENDBRANCH   8   9
ENDBRANCH   7   8
ENDBRANCH   6   7
ENDBRANCH   5   6
ENDBRANCH   4   5
ENDBRANCH   3   4
ENDBRANCH   2   3
ENDBRANCH   1   2
BRANCH   1  13
ATOM     13  C   UNL     1      11.974  15.293   0.834  1.00  0.00     0.000 C 
BRANCH  13  14
ATOM     14  C   UNL     1      10.990  16.462   1.037  1.00  0.00     0.000 C 
BRANCH  14  15
ATOM     15  C   UNL     1      11.564  17.685   1.780  1.00  0.00     0.000 C 
BRANCH  15  16
ATOM     16  C   UNL     1      10.650  18.274   2.870  1.00  0.00     0.000 C 
BRANCH  16  17
ATOM     17  C   UNL     1      11.430  18.822   4.077  1.00  0.00     0.000 C 
BRANCH  17  18
ATOM     18  C   UNL     1      12.806  19.391   3.670  1.00  0.00     0.000 C 
BRANCH  18  19
ATOM     19  C   UNL     1      13.484  20.221   4.773  1.00  0.00     0.000 C 
BRANCH  19  20
ATOM     20  C   UNL     1      12.777  20.104   6.129  1.00  0.00     0.006 C 
BRANCH  20  21
ATOM     21  C   UNL     1      13.678  20.604   7.264  1.00  0.00     0.053 C 
BRANCH  21  22
ATOM     22  C   UNL     1      12.857  21.183   8.374  1.00  0.00     0.041 C 
ATOM     23  O   UNL     1      12.191  22.236   8.183  1.00  0.00    -0.550 OA
ATOM     24  O   UNL     1      12.868  20.590   9.631  1.00  0.00    -0.550 OA
ENDBRANCH  21  22
ENDBRANCH  20  21
ENDBRANCH  19  20
ENDBRANCH  18  19
ENDBRANCH  17  18
ENDBRANCH  16  17
ENDBRANCH  15  16
ENDBRANCH  14  15
ENDBRANCH  13  14
ENDBRANCH   1  13
TORSDOF 20
ENDMDL
MODEL 3
REMARK VINA RESULT:    -6.093      0.810      2.590
REMARK INTER + INTRA:         -15.334
REMARK INTER:                 -13.096
REMARK INTRA:                  -2.238
REMARK UNBOUND:                -2.118
REMARK SMILES CCCCCCCCCCCCCCCCCCCCCC(=O)[O-]
REMARK SMILES IDX 12 1 11 2 10 3 9 4 8 5 7 6 6 7 5 8 4 9 3 10 2 11 1 12 13 13
REMARK SMILES IDX 14 14 15 15 16 16 17 17 18 18 19 19 20 20 21 21 22 22 23 23
REMARK SMILES IDX 24 24
REMARK H PARENT
REMARK Flexibility Score: inf
ROOT
ATOM      1  C   UNL     1       8.829  14.466   2.553  1.00  0.00     0.000 C 
ENDROOT
BRANCH   1   2
ATOM      2  C   UNL     1       7.342  14.604   2.919  1.00  0.00     0.000 C 
BRANCH   2   3
ATOM      3  C   UNL     1       7.045  15.882   3.721  1.00  0.00     0.000 C 
BRANCH   3   4
ATOM      4  C   UNL     1       5.545  16.223   3.766  1.00  0.00    -0.000 C 
BRANCH   4   5
ATOM      5  C   UNL     1       4.767  15.357   4.774  1.00  0.00    -0.000 C 
BRANCH   5   6
ATOM      6  C   UNL     1       3.234  15.459   4.671  1.00  0.00    -0.000 C 
BRANCH   6   7
ATOM      7  C   UNL     1       2.734  15.462   3.216  1.00  0.00    -0.000 C 
BRANCH   7   8
ATOM      8  C   UNL     1       2.690  14.052   2.605  1.00  0.00    -0.000 C 
BRANCH   8   9
ATOM      9  C   UNL     1       2.942  14.051   1.086  1.00  0.00    -0.000 C 
BRANCH   9  10
ATOM     10  C   UNL     1       3.823  15.227   0.625  1.00  0.00    -0.000 C 
BRANCH  10  11
ATOM     11  C   UNL     1       5.225  14.827   0.130  1.00  0.00    -0.003 C 
ATOM     12  C   UNL     1       5.523  13.340   0.315  1.00  0.00     0.004 C 
ENDBRANCH  10  11
ENDBRANCH   9  10
ENDBRANCH   8   9
ENDBRANCH   7   8
ENDBRANCH   6   7
ENDBRANCH   5   6
ENDBRANCH   4   5
ENDBRANCH   3   4
ENDBRANCH   2   3
ENDBRANCH   1   2
BRANCH   1  13
ATOM     13  C   UNL     1       9.047  13.978   1.110  1.00  0.00     0.000 C 
BRANCH  13  14
ATOM     14  C   UNL     1      10.029  14.823   0.274  1.00  0.00     0.000 C 
BRANCH  14  15
ATOM     15  C   UNL     1      11.075  15.613   1.086  1.00  0.00     0.000 C 
BRANCH  15  16
ATOM     16  C   UNL     1      11.224  17.093   0.691  1.00  0.00     0.000 C 
BRANCH  16  17
ATOM     17  C   UNL     1      11.572  18.001   1.883  1.00  0.00     0.000 C 
BRANCH  17  18
ATOM     18  C   UNL     1      10.488  17.959   2.981  1.00  0.00     0.000 C 
BRANCH  18  19
ATOM     19  C   UNL     1      10.903  18.652   4.289  1.00  0.00     0.000 C 
BRANCH  19  20
ATOM     20  C   UNL     1      12.097  19.600   4.111  1.00  0.00     0.006 C 
BRANCH  20  21
ATOM     21  C   UNL     1      12.795  19.864   5.449  1.00  0.00     0.053 C 
BRANCH  21  22
ATOM     22  C   UNL     1      14.209  19.373   5.414  1.00  0.00     0.041 C 
ATOM     23  O   UNL     1      14.930  19.450   6.444  1.00  0.00    -0.550 OA
ATOM     24  O   UNL     1      14.745  18.880   4.230  1.00  0.00    -0.550 OA
ENDBRANCH  21  22
ENDBRANCH  20  21
ENDBRANCH  19  20
ENDBRANCH  18  19
ENDBRANCH  17  18
ENDBRANCH  16  17
ENDBRANCH  15  16
ENDBRANCH  14  15
ENDBRANCH  13  14
ENDBRANCH   1  13
TORSDOF 20
ENDMDL
MODEL 4
REMARK VINA RESULT:    -6.034      1.684      3.583
REMARK INTER + INTRA:         -15.206
REMARK INTER:                 -13.359
REMARK INTRA:                  -1.847
REMARK UNBOUND:                -2.118
REMARK SMILES CCCCCCCCCCCCCCCCCCCCCC(=O)[O-]
REMARK SMILES IDX 12 1 11 2 10 3 9 4 8 5 7 6 6 7 5 8 4 9 3 10 2 11 1 12 13 13
REMARK SMILES IDX 14 14 15 15 16 16 17 17 18 18 19 19 20 20 21 21 22 22 23 23
REMARK SMILES IDX 24 24
REMARK H PARENT
REMARK Flexibility Score: inf
ROOT
ATOM      1  C   UNL     1      10.811  15.589   0.043  1.00  0.00     0.000 C 
ENDROOT
BRANCH   1   2
ATOM      2  C   UNL     1       9.890  14.372   0.231  1.00  0.00     0.000 C 
BRANCH   2   3
ATOM      3  C   UNL     1       9.537  14.118   1.706  1.00  0.00     0.000 C 
BRANCH   3   4
ATOM      4  C   UNL     1       8.053  14.380   2.017  1.00  0.00    -0.000 C 
BRANCH   4   5
ATOM      5  C   UNL     1       7.114  13.895   0.896  1.00  0.00    -0.000 C 
BRANCH   5   6
ATOM      6  C   UNL     1       6.256  14.996   0.246  1.00  0.00    -0.000 C 
BRANCH   6   7
ATOM      7  C   UNL     1       4.764  14.880   0.608  1.00  0.00    -0.000 C 
BRANCH   7   8
ATOM      8  C   UNL     1       4.375  13.460   1.050  1.00  0.00    -0.000 C 
BRANCH   8   9
ATOM      9  C   UNL     1       3.896  13.400   2.512  1.00  0.00    -0.000 C 
BRANCH   9  10
ATOM     10  C   UNL     1       3.473  14.775   3.061  1.00  0.00    -0.000 C 
BRANCH  10  11
ATOM     11  C   UNL     1       4.152  15.179   4.382  1.00  0.00    -0.003 C 
ATOM     12  C   UNL     1       5.520  15.828   4.178  1.00  0.00     0.004 C 
ENDBRANCH  10  11
ENDBRANCH   9  10
ENDBRANCH   8   9
ENDBRANCH   7   8
ENDBRANCH   6   7
ENDBRANCH   5   6
ENDBRANCH   4   5
ENDBRANCH   3   4
ENDBRANCH   2   3
ENDBRANCH   1   2
BRANCH   1  13
ATOM     13  C   UNL     1      11.373  16.124   1.371  1.00  0.00     0.000 C 
BRANCH  13  14
ATOM     14  C   UNL     1      11.358  17.659   1.518  1.00  0.00     0.000 C 
BRANCH  14  15
ATOM     15  C   UNL     1      10.721  18.191   2.817  1.00  0.00     0.000 C 
BRANCH  15  16
ATOM     16  C   UNL     1      11.608  19.147   3.634  1.00  0.00     0.000 C 
BRANCH  16  17
ATOM     17  C   UNL     1      13.082  19.124   3.196  1.00  0.00     0.000 C 
BRANCH  17  18
ATOM     18  C   UNL     1      13.985  19.934   4.150  1.00  0.00     0.000 C 
BRANCH  18  19
ATOM     19  C   UNL     1      14.372  19.175   5.430  1.00  0.00     0.000 C 
BRANCH  19  20
ATOM     20  C   UNL     1      14.320  20.055   6.686  1.00  0.00     0.006 C 
BRANCH  20  21
ATOM     21  C   UNL     1      12.910  20.613   6.909  1.00  0.00     0.053 C 
BRANCH  21  22
ATOM     22  C   UNL     1      12.791  21.218   8.273  1.00  0.00     0.041 C 
ATOM     23  O   UNL     1      13.020  20.519   9.296  1.00  0.00    -0.550 OA
ATOM     24  O   UNL     1      12.378  22.538   8.416  1.00  0.00    -0.550 OA
ENDBRANCH  21  22
ENDBRANCH  20  21
ENDBRANCH  19  20
ENDBRANCH  18  19
ENDBRANCH  17  18
ENDBRANCH  16  17
ENDBRANCH  15  16
ENDBRANCH  14  15
ENDBRANCH  13  14
ENDBRANCH   1  13
TORSDOF 20
ENDMDL
MODEL 5
REMARK VINA RESULT:    -6.011      2.977      8.226
REMARK INTER + INTRA:         -15.157
REMARK INTER:                 -13.760
REMARK INTRA:                  -1.397
REMARK UNBOUND:                -2.118
REMARK SMILES CCCCCCCCCCCCCCCCCCCCCC(=O)[O-]
REMARK SMILES IDX 12 1 11 2 10 3 9 4 8 5 7 6 6 7 5 8 4 9 3 10 2 11 1 12 13 13
REMARK SMILES IDX 14 14 15 15 16 16 17 17 18 18 19 19 20 20 21 21 22 22 23 23
REMARK SMILES IDX 24 24
REMARK H PARENT
REMARK Flexibility Score: inf
ROOT
ATOM      1  C   UNL     1       9.292  14.982   1.756  1.00  0.00     0.000 C 
ENDROOT
BRANCH   1   2
ATOM      2  C   UNL     1      10.582  14.225   1.396  1.00  0.00     0.000 C 
BRANCH   2   3
ATOM      3  C   UNL     1      11.711  15.164   0.939  1.00  0.00     0.000 C 
BRANCH   3   4
ATOM      4  C   UNL     1      11.215  16.588   0.634  1.00  0.00    -0.000 C 
BRANCH   4   5
ATOM      5  C   UNL     1      11.809  17.643   1.587  1.00  0.00    -0.000 C 
BRANCH   5   6
ATOM      6  C   UNL     1      10.842  18.154   2.671  1.00  0.00    -0.000 C 
BRANCH   6   7
ATOM      7  C   UNL     1      11.489  19.194   3.604  1.00  0.00    -0.000 C 
BRANCH   7   8
ATOM      8  C   UNL     1      13.023  19.196   3.508  1.00  0.00    -0.000 C 
BRANCH   8   9
ATOM      9  C   UNL     1      13.705  19.464   4.863  1.00  0.00    -0.000 C 
BRANCH   9  10
ATOM     10  C   UNL     1      12.751  20.081   5.902  1.00  0.00    -0.000 C 
BRANCH  10  11
ATOM     11  C   UNL     1      13.424  20.516   7.216  1.00  0.00    -0.003 C 
ATOM     12  C   UNL     1      12.602  21.540   7.998  1.00  0.00     0.004 C 
ENDBRANCH  10  11
ENDBRANCH   9  10
ENDBRANCH   8   9
ENDBRANCH   7   8
ENDBRANCH   6   7
ENDBRANCH   5   6
ENDBRANCH   4   5
ENDBRANCH   3   4
ENDBRANCH   2   3
ENDBRANCH   1   2
BRANCH   1  13
ATOM     13  C   UNL     1       8.083  14.049   1.938  1.00  0.00     0.000 C 
BRANCH  13  14
ATOM     14  C   UNL     1       7.443  13.543   0.629  1.00  0.00     0.000 C 
BRANCH  14  15
ATOM     15  C   UNL     1       6.002  14.025   0.369  1.00  0.00     0.000 C 
BRANCH  15  16
ATOM     16  C   UNL     1       4.903  13.196   1.056  1.00  0.00     0.000 C 
BRANCH  16  17
ATOM     17  C   UNL     1       3.502  13.814   0.910  1.00  0.00     0.000 C 
BRANCH  17  18
ATOM     18  C   UNL     1       2.653  13.637   2.187  1.00  0.00     0.000 C 
BRANCH  18  19
ATOM     19  C   UNL     1       2.404  14.948   2.952  1.00  0.00     0.000 C 
BRANCH  19  20
ATOM     20  C   UNL     1       3.140  15.006   4.296  1.00  0.00     0.006 C 
BRANCH  20  21
ATOM     21  C   UNL     1       3.908  16.324   4.446  1.00  0.00     0.053 C 
BRANCH  21  22
ATOM     22  C   UNL     1       5.166  16.298   3.634  1.00  0.00     0.041 C 
ATOM     23  O   UNL     1       5.170  16.762   2.463  1.00  0.00    -0.550 OA
ATOM     24  O   UNL     1       6.317  15.714   4.151  1.00  0.00    -0.550 OA
ENDBRANCH  21  22
ENDBRANCH  20  21
ENDBRANCH  19  20
ENDBRANCH  18  19
ENDBRANCH  17  18
ENDBRANCH  16  17
ENDBRANCH  15  16
ENDBRANCH  14  15
ENDBRANCH  13  14
ENDBRANCH   1  13
TORSDOF 20
ENDMDL
MODEL 6
REMARK VINA RESULT:    -5.993      2.278      4.514
REMARK INTER + INTRA:         -15.117
REMARK INTER:                 -13.184
REMARK INTRA:                  -1.934
REMARK UNBOUND:                -2.118
REMARK SMILES CCCCCCCCCCCCCCCCCCCCCC(=O)[O-]
REMARK SMILES IDX 12 1 11 2 10 3 9 4 8 5 7 6 6 7 5 8 4 9 3 10 2 11 1 12 13 13
REMARK SMILES IDX 14 14 15 15 16 16 17 17 18 18 19 19 20 20 21 21 22 22 23 23
REMARK SMILES IDX 24 24
REMARK H PARENT
REMARK Flexibility Score: inf
ROOT
ATOM      1  C   UNL     1       5.834  15.144   3.085  1.00  0.00     0.000 C 
ENDROOT
BRANCH   1   2
ATOM      2  C   UNL     1       5.403  15.738   1.733  1.00  0.00     0.000 C 
BRANCH   2   3
ATOM      3  C   UNL     1       5.626  14.767   0.561  1.00  0.00     0.000 C 
BRANCH   3   4
ATOM      4  C   UNL     1       4.656  13.573   0.584  1.00  0.00    -0.000 C 
BRANCH   4   5
ATOM      5  C   UNL     1       3.180  14.006   0.673  1.00  0.00    -0.000 C 
BRANCH   5   6
ATOM      6  C   UNL     1       2.454  13.573   1.961  1.00  0.00    -0.000 C 
BRANCH   6   7
ATOM      7  C   UNL     1       1.895  14.765   2.759  1.00  0.00    -0.000 C 
BRANCH   7   8
ATOM      8  C   UNL     1       0.370  14.693   2.933  1.00  0.00    -0.000 C 
BRANCH   8   9
ATOM      9  C   UNL     1      -0.309  13.788   1.889  1.00  0.00    -0.000 C 
BRANCH   9  10
ATOM     10  C   UNL     1      -1.839  13.734   2.048  1.00  0.00    -0.000 C 
BRANCH  10  11
ATOM     11  C   UNL     1      -2.358  14.154   3.435  1.00  0.00    -0.003 C 
ATOM     12  C   UNL     1      -3.702  14.879   3.377  1.00  0.00     0.004 C 
ENDBRANCH  10  11
ENDBRANCH   9  10
ENDBRANCH   8   9
ENDBRANCH   7   8
ENDBRANCH   6   7
ENDBRANCH   5   6
ENDBRANCH   4   5
ENDBRANCH   3   4
ENDBRANCH   2   3
ENDBRANCH   1   2
BRANCH   1  13
ATOM     13  C   UNL     1       6.821  16.047   3.846  1.00  0.00     0.000 C 
BRANCH  13  14
ATOM     14  C   UNL     1       8.311  15.719   3.627  1.00  0.00     0.000 C 
BRANCH  14  15
ATOM     15  C   UNL     1       8.592  14.455   2.790  1.00  0.00     0.000 C 
BRANCH  15  16
ATOM     16  C   UNL     1       9.264  14.710   1.428  1.00  0.00     0.000 C 
BRANCH  16  17
ATOM     17  C   UNL     1      10.694  14.150   1.349  1.00  0.00     0.000 C 
BRANCH  17  18
ATOM     18  C   UNL     1      11.711  15.219   0.892  1.00  0.00     0.000 C 
BRANCH  18  19
ATOM     19  C   UNL     1      11.160  16.653   0.927  1.00  0.00     0.000 C 
BRANCH  19  20
ATOM     20  C   UNL     1      11.889  17.551   1.936  1.00  0.00     0.006 C 
BRANCH  20  21
ATOM     21  C   UNL     1      10.904  18.462   2.676  1.00  0.00     0.053 C 
BRANCH  21  22
ATOM     22  C   UNL     1      11.533  19.027   3.911  1.00  0.00     0.041 C 
ATOM     23  O   UNL     1      11.068  18.737   5.046  1.00  0.00    -0.550 OA
ATOM     24  O   UNL     1      12.598  19.914   3.807  1.00  0.00    -0.550 OA
ENDBRANCH  21  22
ENDBRANCH  20  21
ENDBRANCH  19  20
ENDBRANCH  18  19
ENDBRANCH  17  18
ENDBRANCH  16  17
ENDBRANCH  15  16
ENDBRANCH  14  15
ENDBRANCH  13  14
ENDBRANCH   1  13
TORSDOF 20
ENDMDL
MODEL 7
REMARK VINA RESULT:    -5.976      2.058      3.808
REMARK INTER + INTRA:         -15.080
REMARK INTER:                 -13.564
REMARK INTRA:                  -1.516
REMARK UNBOUND:                -2.118
REMARK SMILES CCCCCCCCCCCCCCCCCCCCCC(=O)[O-]
REMARK SMILES IDX 12 1 11 2 10 3 9 4 8 5 7 6 6 7 5 8 4 9 3 10 2 11 1 12 13 13
REMARK SMILES IDX 14 14 15 15 16 16 17 17 18 18 19 19 20 20 21 21 22 22 23 23
REMARK SMILES IDX 24 24
REMARK H PARENT
REMARK Flexibility Score: inf
ROOT
ATOM      1  C   UNL     1       8.132  14.898   2.389  1.00  0.00     0.000 C 
ENDROOT
BRANCH   1   2
ATOM      2  C   UNL     1       6.711  14.836   1.803  1.00  0.00     0.000 C 
BRANCH   2   3
ATOM      3  C   UNL     1       6.504  13.626   0.877  1.00  0.00     0.000 C 
BRANCH   3   4
ATOM      4  C   UNL     1       5.018  13.329   0.608  1.00  0.00    -0.000 C 
BRANCH   4   5
ATOM      5  C   UNL     1       4.162  13.360   1.889  1.00  0.00    -0.000 C 
BRANCH   5   6
ATOM      6  C   UNL     1       2.713  13.840   1.690  1.00  0.00    -0.000 C 
BRANCH   6   7
ATOM      7  C   UNL     1       2.224  14.750   2.831  1.00  0.00    -0.000 C 
BRANCH   7   8
ATOM      8  C   UNL     1       0.702  14.679   3.030  1.00  0.00    -0.000 C 
BRANCH   8   9
ATOM      9  C   UNL     1       0.030  13.628   2.128  1.00  0.00    -0.000 C 
BRANCH   9  10
ATOM     10  C   UNL     1      -1.498  13.800   2.044  1.00  0.00    -0.000 C 
BRANCH  10  11
ATOM     11  C   UNL     1      -2.179  14.161   3.377  1.00  0.00    -0.003 C 
ATOM     12  C   UNL     1      -3.628  14.615   3.204  1.00  0.00     0.004 C 
ENDBRANCH  10  11
ENDBRANCH   9  10
ENDBRANCH   8   9
ENDBRANCH   7   8
ENDBRANCH   6   7
ENDBRANCH   5   6
ENDBRANCH   4   5
ENDBRANCH   3   4
ENDBRANCH   2   3
ENDBRANCH   1   2
BRANCH   1  13
ATOM     13  C   UNL     1       9.038  13.762   1.882  1.00  0.00     0.000 C 
BRANCH  13  14
ATOM     14  C   UNL     1      10.379  14.217   1.272  1.00  0.00     0.000 C 
BRANCH  14  15
ATOM     15  C   UNL     1      10.266  15.099   0.012  1.00  0.00     0.000 C 
BRANCH  15  16
ATOM     16  C   UNL     1      11.243  16.287  -0.043  1.00  0.00     0.000 C 
BRANCH  16  17
ATOM     17  C   UNL     1      11.832  16.645   1.332  1.00  0.00     0.000 C 
BRANCH  17  18
ATOM     18  C   UNL     1      11.360  18.031   1.823  1.00  0.00     0.000 C 
BRANCH  18  19
ATOM     19  C   UNL     1      10.548  17.982   3.127  1.00  0.00     0.000 C 
BRANCH  19  20
ATOM     20  C   UNL     1      11.029  18.999   4.171  1.00  0.00     0.006 C 
BRANCH  20  21
ATOM     21  C   UNL     1      12.484  19.405   3.913  1.00  0.00     0.053 C 
BRANCH  21  22
ATOM     22  C   UNL     1      13.226  19.559   5.204  1.00  0.00     0.041 C 
ATOM     23  O   UNL     1      12.676  20.131   6.184  1.00  0.00    -0.550 OA
ATOM     24  O   UNL     1      14.540  19.119   5.310  1.00  0.00    -0.550 OA
ENDBRANCH  21  22
ENDBRANCH  20  21
ENDBRANCH  19  20
ENDBRANCH  18  19
ENDBRANCH  17  18
ENDBRANCH  16  17
ENDBRANCH  15  16
ENDBRANCH  14  15
ENDBRANCH  13  14
ENDBRANCH   1  13
TORSDOF 20
ENDMDL
MODEL 8
REMARK VINA RESULT:    -5.971      5.783     10.211
REMARK INTER + INTRA:         -15.071
REMARK INTER:                 -13.694
REMARK INTRA:                  -1.377
REMARK UNBOUND:                -2.118
REMARK SMILES CCCCCCCCCCCCCCCCCCCCCC(=O)[O-]
REMARK SMILES IDX 12 1 11 2 10 3 9 4 8 5 7 6 6 7 5 8 4 9 3 10 2 11 1 12 13 13
REMARK SMILES IDX 14 14 15 15 16 16 17 17 18 18 19 19 20 20 21 21 22 22 23 23
REMARK SMILES IDX 24 24
REMARK H PARENT
REMARK Flexibility Score: inf
ROOT
ATOM      1  C   UNL     1       7.742  15.727   3.485  1.00  0.00     0.000 C 
ENDROOT
BRANCH   1   2
ATOM      2  C   UNL     1       8.020  14.338   2.884  1.00  0.00     0.000 C 
BRANCH   2   3
ATOM      3  C   UNL     1       7.809  14.299   1.361  1.00  0.00     0.000 C 
BRANCH   3   4
ATOM      4  C   UNL     1       9.093  13.940   0.591  1.00  0.00    -0.000 C 
BRANCH   4   5
ATOM      5  C   UNL     1      10.357  14.026   1.468  1.00  0.00    -0.000 C 
BRANCH   5   6
ATOM      6  C   UNL     1      11.488  14.897   0.892  1.00  0.00    -0.000 C 
BRANCH   6   7
ATOM      7  C   UNL     1      11.039  16.340   0.599  1.00  0.00    -0.000 C 
BRANCH   7   8
ATOM      8  C   UNL     1      11.765  17.372   1.476  1.00  0.00    -0.000 C 
BRANCH   8   9
ATOM      9  C   UNL     1      10.831  18.053   2.493  1.00  0.00    -0.000 C 
BRANCH   9  10
ATOM     10  C   UNL     1      11.546  19.122   3.340  1.00  0.00    -0.000 C 
BRANCH  10  11
ATOM     11  C   UNL     1      11.404  18.940   4.862  1.00  0.00    -0.003 C 
ATOM     12  C   UNL     1      12.510  19.637   5.653  1.00  0.00     0.004 C 
ENDBRANCH  10  11
ENDBRANCH   9  10
ENDBRANCH   8   9
ENDBRANCH   7   8
ENDBRANCH   6   7
ENDBRANCH   5   6
ENDBRANCH   4   5
ENDBRANCH   3   4
ENDBRANCH   2   3
ENDBRANCH   1   2
BRANCH   1  13
ATOM     13  C   UNL     1       6.297  15.880   3.991  1.00  0.00     0.000 C 
BRANCH  13  14
ATOM     14  C   UNL     1       5.209  15.791   2.903  1.00  0.00     0.000 C 
BRANCH  14  15
ATOM     15  C   UNL     1       4.122  14.724   3.142  1.00  0.00     0.000 C 
BRANCH  15  16
ATOM     16  C   UNL     1       4.049  13.617   2.075  1.00  0.00     0.000 C 
BRANCH  16  17
ATOM     17  C   UNL     1       2.719  13.611   1.304  1.00  0.00     0.000 C 
BRANCH  17  18
ATOM     18  C   UNL     1       1.594  14.329   2.080  1.00  0.00     0.000 C 
BRANCH  18  19
ATOM     19  C   UNL     1       0.260  13.565   2.086  1.00  0.00     0.000 C 
BRANCH  19  20
ATOM     20  C   UNL     1      -0.934  14.448   2.474  1.00  0.00     0.006 C 
BRANCH  20  21
ATOM     21  C   UNL     1      -1.590  13.951   3.766  1.00  0.00     0.053 C 
BRANCH  21  22
ATOM     22  C   UNL     1      -3.035  14.339   3.807  1.00  0.00     0.041 C 
ATOM     23  O   UNL     1      -3.730  14.299   2.756  1.00  0.00    -0.550 OA
ATOM     24  O   UNL     1      -3.602  14.793   4.993  1.00  0.00    -0.550 OA
ENDBRANCH  21  22
ENDBRANCH  20  21
ENDBRANCH  19  20
ENDBRANCH  18  19
ENDBRANCH  17  18
ENDBRANCH  16  17
ENDBRANCH  15  16
ENDBRANCH  14  15
ENDBRANCH  13  14
ENDBRANCH   1  13
TORSDOF 20
ENDMDL
MODEL 9
REMARK VINA RESULT:    -5.938      3.338      8.439
REMARK INTER + INTRA:         -14.999
REMARK INTER:                 -13.628
REMARK INTRA:                  -1.371
REMARK UNBOUND:                -2.118
REMARK SMILES CCCCCCCCCCCCCCCCCCCCCC(=O)[O-]
REMARK SMILES IDX 12 1 11 2 10 3 9 4 8 5 7 6 6 7 5 8 4 9 3 10 2 11 1 12 13 13
REMARK SMILES IDX 14 14 15 15 16 16 17 17 18 18 19 19 20 20 21 21 22 22 23 23
REMARK SMILES IDX 24 24
REMARK H PARENT
REMARK Flexibility Score: inf
ROOT
ATOM      1  C   UNL     1      10.996  14.017   0.725  1.00  0.00     0.000 C 
ENDROOT
BRANCH   1   2
ATOM      2  C   UNL     1      11.842  15.271   1.005  1.00  0.00     0.000 C 
BRANCH   2   3
ATOM      3  C   UNL     1      11.013  16.565   0.968  1.00  0.00     0.000 C 
BRANCH   3   4
ATOM      4  C   UNL     1      11.644  17.701   1.793  1.00  0.00    -0.000 C 
BRANCH   4   5
ATOM      5  C   UNL     1      10.688  18.265   2.860  1.00  0.00    -0.000 C 
BRANCH   5   6
ATOM      6  C   UNL     1      11.369  19.075   3.979  1.00  0.00    -0.000 C 
BRANCH   6   7
ATOM      7  C   UNL     1      12.869  19.302   3.721  1.00  0.00    -0.000 C 
BRANCH   7   8
ATOM      8  C   UNL     1      13.514  20.220   4.772  1.00  0.00    -0.000 C 
BRANCH   8   9
ATOM      9  C   UNL     1      12.740  20.241   6.102  1.00  0.00    -0.000 C 
BRANCH   9  10
ATOM     10  C   UNL     1      13.633  20.585   7.309  1.00  0.00    -0.000 C 
BRANCH  10  11
ATOM     11  C   UNL     1      12.868  20.927   8.600  1.00  0.00    -0.003 C 
ATOM     12  C   UNL     1      12.157  22.278   8.535  1.00  0.00     0.004 C 
ENDBRANCH  10  11
ENDBRANCH   9  10
ENDBRANCH   8   9
ENDBRANCH   7   8
ENDBRANCH   6   7
ENDBRANCH   5   6
ENDBRANCH   4   5
ENDBRANCH   3   4
ENDBRANCH   2   3
ENDBRANCH   1   2
BRANCH   1  13
ATOM     13  C   UNL     1       9.488  14.314   0.665  1.00  0.00     0.000 C 
BRANCH  13  14
ATOM     14  C   UNL     1       8.744  14.203   2.011  1.00  0.00     0.000 C 
BRANCH  14  15
ATOM     15  C   UNL     1       7.206  14.243   1.920  1.00  0.00     0.000 C 
BRANCH  15  16
ATOM     16  C   UNL     1       6.636  14.205   0.491  1.00  0.00     0.000 C 
BRANCH  16  17
ATOM     17  C   UNL     1       5.354  13.362   0.376  1.00  0.00     0.000 C 
BRANCH  17  18
ATOM     18  C   UNL     1       4.548  13.350   1.693  1.00  0.00     0.000 C 
BRANCH  18  19
ATOM     19  C   UNL     1       3.306  14.256   1.667  1.00  0.00     0.000 C 
BRANCH  19  20
ATOM     20  C   UNL     1       2.849  14.684   3.068  1.00  0.00     0.006 C 
BRANCH  20  21
ATOM     21  C   UNL     1       3.999  14.588   4.076  1.00  0.00     0.053 C 
BRANCH  21  22
ATOM     22  C   UNL     1       4.589  15.939   4.335  1.00  0.00     0.041 C 
ATOM     23  O   UNL     1       4.563  16.427   5.496  1.00  0.00    -0.550 OA
ATOM     24  O   UNL     1       5.120  16.680   3.285  1.00  0.00    -0.550 OA
ENDBRANCH  21  22
ENDBRANCH  20  21
ENDBRANCH  19  20
ENDBRANCH  18  19
ENDBRANCH  17  18
ENDBRANCH  16  17
ENDBRANCH  15  16
ENDBRANCH  14  15
ENDBRANCH  13  14
ENDBRANCH   1  13
TORSDOF 20
ENDMDL
