MODEL 1
REMARK VINA RESULT:    -3.928      0.000      0.000
REMARK INTER + INTRA:         -14.838
REMARK INTER:                  -9.898
REMARK INTRA:                  -4.940
REMARK UNBOUND:                -4.940
REMARK SMILES CCCCCCCCCCCCCCCCCCCCCCCCCCCC(=O)[O-]
REMARK SMILES IDX 15 1 16 2 17 3 18 4 19 5 20 6 21 7 22 8 23 9 24 10 25 11
REMARK SMILES IDX 26 12 27 13 28 14 29 15 30 16 14 17 13 18 12 19 11 20 10 21
REMARK SMILES IDX 9 22 8 23 7 24 6 25 5 26 4 27 3 28 2 29 1 30
REMARK H PARENT
REMARK Flexibility Score: inf
ROOT
ATOM      1  C   UNL     1      -1.085  23.062 115.507  1.00  0.00     0.000 C 
ENDROOT
BRANCH   1   2
ATOM      2  C   UNL     1       0.267  22.570 116.054  1.00  0.00     0.000 C 
BRANCH   2   3
ATOM      3  C   UNL     1       0.883  21.449 115.199  1.00  0.00     0.000 C 
BRANCH   3   4
ATOM      4  C   UNL     1       1.606  21.988 113.953  1.00  0.00     0.000 C 
BRANCH   4   5
ATOM      5  C   UNL     1       3.095  21.602 113.923  1.00  0.00     0.000 C 
BRANCH   5   6
ATOM      6  C   UNL     1       4.030  22.826 113.912  1.00  0.00     0.000 C 
BRANCH   6   7
ATOM      7  C   UNL     1       4.417  23.366 115.303  1.00  0.00     0.000 C 
BRANCH   7   8
ATOM      8  C   UNL     1       3.880  24.773 115.634  1.00  0.00     0.000 C 
BRANCH   8   9
ATOM      9  C   UNL     1       4.955  25.868 115.771  1.00  0.00     0.000 C 
BRANCH   9  10
ATOM     10  C   UNL     1       6.291  25.476 115.115  1.00  0.00     0.000 C 
BRANCH  10  11
ATOM     11  C   UNL     1       6.436  26.039 113.692  1.00  0.00     0.000 C 
BRANCH  11  12
ATOM     12  C   UNL     1       7.082  25.035 112.721  1.00  0.00     0.006 C 
BRANCH  12  13
ATOM     13  C   UNL     1       6.791  25.379 111.255  1.00  0.00     0.053 C 
BRANCH  13  14
ATOM     14  C   UNL     1       7.776  26.368 110.709  1.00  0.00     0.041 C 
ATOM     15  O   UNL     1       8.728  25.981 109.979  1.00  0.00    -0.550 OA
ATOM     16  O   UNL     1       7.628  27.721 110.986  1.00  0.00    -0.550 OA
ENDBRANCH  13  14
ENDBRANCH  12  13
ENDBRANCH  11  12
ENDBRANCH  10  11
ENDBRANCH   9  10
ENDBRANCH   8   9
ENDBRANCH   7   8
ENDBRANCH   6   7
ENDBRANCH   5   6
ENDBRANCH   4   5
ENDBRANCH   3   4
ENDBRANCH   2   3
ENDBRANCH   1   2
BRANCH   1  17
ATOM     17  C   UNL     1      -1.107  24.537 115.063  1.00  0.00     0.000 C 
BRANCH  17  18
ATOM     18  C   UNL     1       0.259  25.245 115.199  1.00  0.00     0.000 C 
BRANCH  18  19
ATOM     19  C   UNL     1       0.214  26.693 114.677  1.00  0.00     0.000 C 
BRANCH  19  20
ATOM     20  C   UNL     1       0.900  26.852 113.304  1.00  0.00     0.000 C 
BRANCH  20  21
ATOM     21  C   UNL     1       1.536  25.555 112.765  1.00  0.00     0.000 C 
BRANCH  21  22
ATOM     22  C   UNL     1       2.967  25.705 112.221  1.00  0.00    -0.000 C 
BRANCH  22  23
ATOM     23  C   UNL     1       3.072  25.858 110.690  1.00  0.00    -0.000 C 
BRANCH  23  24
ATOM     24  C   UNL     1       3.465  27.279 110.231  1.00  0.00    -0.000 C 
BRANCH  24  25
ATOM     25  C   UNL     1       2.262  28.235 110.180  1.00  0.00    -0.000 C 
BRANCH  25  26
ATOM     26  C   UNL     1       2.645  29.692 110.493  1.00  0.00    -0.000 C 
BRANCH  26  27
ATOM     27  C   UNL     1       2.048  30.259 111.798  1.00  0.00    -0.000 C 
BRANCH  27  28
ATOM     28  C   UNL     1       3.068  30.901 112.757  1.00  0.00    -0.000 C 
BRANCH  28  29
ATOM     29  C   UNL     1       4.294  30.012 113.007  1.00  0.00    -0.003 C 
ATOM     30  C   UNL     1       3.942  28.825 113.899  1.00  0.00     0.004 C 
ENDBRANCH  28  29
ENDBRANCH  27  28
ENDBRANCH  26  27
ENDBRANCH  25  26
ENDBRANCH  24  25
ENDBRANCH  23  24
ENDBRANCH  22  23
ENDBRANCH  21  22
ENDBRANCH  20  21
ENDBRANCH  19  20
ENDBRANCH  18  19
ENDBRANCH  17  18
ENDBRANCH   1  17
TORSDOF 26
ENDMDL
MODEL 2
REMARK VINA RESULT:    -3.831      1.542      4.685
REMARK INTER + INTRA:         -14.594
REMARK INTER:                  -9.641
REMARK INTRA:                  -4.952
REMARK UNBOUND:                -4.940
REMARK SMILES CCCCCCCCCCCCCCCCCCCCCCCCCCCC(=O)[O-]
REMARK SMILES IDX 15 1 16 2 17 3 18 4 19 5 20 6 21 7 22 8 23 9 24 10 25 11
REMARK SMILES IDX 26 12 27 13 28 14 29 15 30 16 14 17 13 18 12 19 11 20 10 21
REMARK SMILES IDX 9 22 8 23 7 24 6 25 5 26 4 27 3 28 2 29 1 30
REMARK H PARENT
REMARK Flexibility Score: inf
ROOT
ATOM      1  C   UNL     1       0.372  23.698 113.679  1.00  0.00     0.000 C 
ENDROOT
BRANCH   1   2
ATOM      2  C   UNL     1       0.786  25.162 113.443  1.00  0.00     0.000 C 
BRANCH   2   3
ATOM      3  C   UNL     1       0.175  26.126 114.474  1.00  0.00     0.000 C 
BRANCH   3   4
ATOM      4  C   UNL     1       0.355  27.601 114.079  1.00  0.00     0.000 C 
BRANCH   4   5
ATOM      5  C   UNL     1       1.046  27.767 112.715  1.00  0.00     0.000 C 
BRANCH   5   6
ATOM      6  C   UNL     1       1.644  29.171 112.513  1.00  0.00     0.000 C 
BRANCH   6   7
ATOM      7  C   UNL     1       2.488  29.346 111.235  1.00  0.00     0.000 C 
BRANCH   7   8
ATOM      8  C   UNL     1       2.382  28.194 110.215  1.00  0.00     0.000 C 
BRANCH   8   9
ATOM      9  C   UNL     1       3.649  27.330 110.072  1.00  0.00     0.000 C 
BRANCH   9  10
ATOM     10  C   UNL     1       3.467  25.908 110.633  1.00  0.00     0.000 C 
BRANCH  10  11
ATOM     11  C   UNL     1       4.232  25.692 111.948  1.00  0.00     0.000 C 
BRANCH  11  12
ATOM     12  C   UNL     1       5.340  26.737 112.167  1.00  0.00     0.006 C 
BRANCH  12  13
ATOM     13  C   UNL     1       6.513  26.175 112.981  1.00  0.00     0.053 C 
BRANCH  13  14
ATOM     14  C   UNL     1       7.445  25.367 112.131  1.00  0.00     0.041 C 
ATOM     15  O   UNL     1       8.301  25.939 111.404  1.00  0.00    -0.550 OA
ATOM     16  O   UNL     1       7.386  23.979 112.161  1.00  0.00    -0.550 OA
ENDBRANCH  13  14
ENDBRANCH  12  13
ENDBRANCH  11  12
ENDBRANCH  10  11
ENDBRANCH   9  10
ENDBRANCH   8   9
ENDBRANCH   7   8
ENDBRANCH   6   7
ENDBRANCH   5   6
ENDBRANCH   4   5
ENDBRANCH   3   4
ENDBRANCH   2   3
ENDBRANCH   1   2
BRANCH   1  17
ATOM     17  C   UNL     1       1.250  22.930 114.685  1.00  0.00     0.000 C 
BRANCH  17  18
ATOM     18  C   UNL     1       1.868  21.638 114.107  1.00  0.00     0.000 C 
BRANCH  18  19
ATOM     19  C   UNL     1       3.378  21.787 113.844  1.00  0.00     0.000 C 
BRANCH  19  20
ATOM     20  C   UNL     1       3.910  23.187 114.212  1.00  0.00     0.000 C 
BRANCH  20  21
ATOM     21  C   UNL     1       4.901  23.192 115.394  1.00  0.00     0.000 C 
BRANCH  21  22
ATOM     22  C   UNL     1       5.123  24.563 116.055  1.00  0.00    -0.000 C 
BRANCH  22  23
ATOM     23  C   UNL     1       4.078  25.639 115.700  1.00  0.00    -0.000 C 
BRANCH  23  24
ATOM     24  C   UNL     1       4.462  27.060 116.165  1.00  0.00    -0.000 C 
BRANCH  24  25
ATOM     25  C   UNL     1       3.641  28.152 115.461  1.00  0.00    -0.000 C 
BRANCH  25  26
ATOM     26  C   UNL     1       4.518  29.145 114.677  1.00  0.00    -0.000 C 
BRANCH  26  27
ATOM     27  C   UNL     1       4.165  30.633 114.881  1.00  0.00    -0.000 C 
BRANCH  27  28
ATOM     28  C   UNL     1       4.903  31.613 113.951  1.00  0.00    -0.000 C 
BRANCH  28  29
ATOM     29  C   UNL     1       6.372  31.228 113.725  1.00  0.00    -0.003 C 
ATOM     30  C   UNL     1       7.287  31.937 114.719  1.00  0.00     0.004 C 
ENDBRANCH  28  29
ENDBRANCH  27  28
ENDBRANCH  26  27
ENDBRANCH  25  26
ENDBRANCH  24  25
ENDBRANCH  23  24
ENDBRANCH  22  23
ENDBRANCH  21  22
ENDBRANCH  20  21
ENDBRANCH  19  20
ENDBRANCH  18  19
ENDBRANCH  17  18
ENDBRANCH   1  17
TORSDOF 26
ENDMDL
MODEL 3
REMARK VINA RESULT:    -3.788      2.113      6.049
REMARK INTER + INTRA:         -14.486
REMARK INTER:                  -9.124
REMARK INTRA:                  -5.362
REMARK UNBOUND:                -4.940
REMARK SMILES CCCCCCCCCCCCCCCCCCCCCCCCCCCC(=O)[O-]
REMARK SMILES IDX 15 1 16 2 17 3 18 4 19 5 20 6 21 7 22 8 23 9 24 10 25 11
REMARK SMILES IDX 26 12 27 13 28 14 29 15 30 16 14 17 13 18 12 19 11 20 10 21
REMARK SMILES IDX 9 22 8 23 7 24 6 25 5 26 4 27 3 28 2 29 1 30
REMARK H PARENT
REMARK Flexibility Score: inf
ROOT
ATOM      1  C   UNL     1       2.254  25.847 111.927  1.00  0.00     0.000 C 
ENDROOT
BRANCH   1   2
ATOM      2  C   UNL     1       3.255  26.008 110.769  1.00  0.00     0.000 C 
BRANCH   2   3
ATOM      3  C   UNL     1       3.337  27.454 110.250  1.00  0.00     0.000 C 
BRANCH   3   4
ATOM      4  C   UNL     1       3.522  28.476 111.384  1.00  0.00     0.000 C 
BRANCH   4   5
ATOM      5  C   UNL     1       2.696  29.756 111.164  1.00  0.00     0.000 C 
BRANCH   5   6
ATOM      6  C   UNL     1       1.975  30.229 112.439  1.00  0.00     0.000 C 
BRANCH   6   7
ATOM      7  C   UNL     1       1.059  29.179 113.101  1.00  0.00     0.000 C 
BRANCH   7   8
ATOM      8  C   UNL     1       1.517  28.692 114.491  1.00  0.00     0.000 C 
BRANCH   8   9
ATOM      9  C   UNL     1       2.727  29.439 115.080  1.00  0.00     0.000 C 
BRANCH   9  10
ATOM     10  C   UNL     1       4.029  28.623 114.999  1.00  0.00     0.000 C 
BRANCH  10  11
ATOM     11  C   UNL     1       5.284  29.503 115.118  1.00  0.00     0.000 C 
BRANCH  11  12
ATOM     12  C   UNL     1       5.739  30.072 113.762  1.00  0.00     0.006 C 
BRANCH  12  13
ATOM     13  C   UNL     1       6.074  31.567 113.845  1.00  0.00     0.053 C 
BRANCH  13  14
ATOM     14  C   UNL     1       7.330  31.814 114.623  1.00  0.00     0.041 C 
ATOM     15  O   UNL     1       8.453  31.537 114.123  1.00  0.00    -0.550 OA
ATOM     16  O   UNL     1       7.262  32.376 115.892  1.00  0.00    -0.550 OA
ENDBRANCH  13  14
ENDBRANCH  12  13
ENDBRANCH  11  12
ENDBRANCH  10  11
ENDBRANCH   9  10
ENDBRANCH   8   9
ENDBRANCH   7   8
ENDBRANCH   6   7
ENDBRANCH   5   6
ENDBRANCH   4   5
ENDBRANCH   3   4
ENDBRANCH   2   3
ENDBRANCH   1   2
BRANCH   1  17
ATOM     17  C   UNL     1       2.884  25.459 113.279  1.00  0.00     0.000 C 
BRANCH  17  18
ATOM     18  C   UNL     1       1.892  24.787 114.254  1.00  0.00     0.000 C 
BRANCH  18  19
ATOM     19  C   UNL     1       1.154  23.604 113.603  1.00  0.00     0.000 C 
BRANCH  19  20
ATOM     20  C   UNL     1       1.710  22.236 114.052  1.00  0.00     0.000 C 
BRANCH  20  21
ATOM     21  C   UNL     1       3.248  22.138 114.006  1.00  0.00     0.000 C 
BRANCH  21  22
ATOM     22  C   UNL     1       3.921  21.779 115.342  1.00  0.00    -0.000 C 
BRANCH  22  23
ATOM     23  C   UNL     1       5.074  22.710 115.765  1.00  0.00    -0.000 C 
BRANCH  23  24
ATOM     24  C   UNL     1       4.614  23.955 116.553  1.00  0.00    -0.000 C 
BRANCH  24  25
ATOM     25  C   UNL     1       5.304  25.243 116.074  1.00  0.00    -0.000 C 
BRANCH  25  26
ATOM     26  C   UNL     1       6.294  24.996 114.922  1.00  0.00    -0.000 C 
BRANCH  26  27
ATOM     27  C   UNL     1       6.420  26.154 113.909  1.00  0.00    -0.000 C 
BRANCH  27  28
ATOM     28  C   UNL     1       6.535  25.722 112.436  1.00  0.00    -0.000 C 
BRANCH  28  29
ATOM     29  C   UNL     1       6.884  26.886 111.498  1.00  0.00    -0.003 C 
ATOM     30  C   UNL     1       7.208  26.384 110.093  1.00  0.00     0.004 C 
ENDBRANCH  28  29
ENDBRANCH  27  28
ENDBRANCH  26  27
ENDBRANCH  25  26
ENDBRANCH  24  25
ENDBRANCH  23  24
ENDBRANCH  22  23
ENDBRANCH  21  22
ENDBRANCH  20  21
ENDBRANCH  19  20
ENDBRANCH  18  19
ENDBRANCH  17  18
ENDBRANCH   1  17
TORSDOF 26
ENDMDL
MODEL 4
REMARK VINA RESULT:    -3.749      2.302      4.358
REMARK INTER + INTRA:         -14.388
REMARK INTER:                  -8.984
REMARK INTRA:                  -5.403
REMARK UNBOUND:                -4.940
REMARK SMILES CCCCCCCCCCCCCCCCCCCCCCCCCCCC(=O)[O-]
REMARK SMILES IDX 15 1 16 2 17 3 18 4 19 5 20 6 21 7 22 8 23 9 24 10 25 11
REMARK SMILES IDX 26 12 27 13 28 14 29 15 30 16 14 17 13 18 12 19 11 20 10 21
REMARK SMILES IDX 9 22 8 23 7 24 6 25 5 26 4 27 3 28 2 29 1 30
REMARK H PARENT
REMARK Flexibility Score: inf
ROOT
ATOM      1  C   UNL     1       4.235  23.160 114.632  1.00  0.00     0.000 C 
ENDROOT
BRANCH   1   2
ATOM      2  C   UNL     1       3.484  21.827 114.458  1.00  0.00     0.000 C 
BRANCH   2   3
ATOM      3  C   UNL     1       2.158  21.987 113.694  1.00  0.00     0.000 C 
BRANCH   3   4
ATOM      4  C   UNL     1       1.240  23.047 114.323  1.00  0.00     0.000 C 
BRANCH   4   5
ATOM      5  C   UNL     1       0.858  24.160 113.332  1.00  0.00     0.000 C 
BRANCH   5   6
ATOM      6  C   UNL     1       0.767  25.547 113.996  1.00  0.00     0.000 C 
BRANCH   6   7
ATOM      7  C   UNL     1       1.957  25.917 114.903  1.00  0.00     0.000 C 
BRANCH   7   8
ATOM      8  C   UNL     1       2.662  27.244 114.553  1.00  0.00     0.000 C 
BRANCH   8   9
ATOM      9  C   UNL     1       2.583  28.332 115.640  1.00  0.00     0.000 C 
BRANCH   9  10
ATOM     10  C   UNL     1       3.960  28.691 116.224  1.00  0.00     0.000 C 
BRANCH  10  11
ATOM     11  C   UNL     1       5.117  28.287 115.296  1.00  0.00     0.000 C 
BRANCH  11  12
ATOM     12  C   UNL     1       5.592  29.447 114.403  1.00  0.00     0.006 C 
BRANCH  12  13
ATOM     13  C   UNL     1       5.407  30.812 115.079  1.00  0.00     0.053 C 
BRANCH  13  14
ATOM     14  C   UNL     1       6.714  31.517 115.277  1.00  0.00     0.041 C 
ATOM     15  O   UNL     1       6.912  32.211 116.311  1.00  0.00    -0.550 OA
ATOM     16  O   UNL     1       7.723  31.388 114.331  1.00  0.00    -0.550 OA
ENDBRANCH  13  14
ENDBRANCH  12  13
ENDBRANCH  11  12
ENDBRANCH  10  11
ENDBRANCH   9  10
ENDBRANCH   8   9
ENDBRANCH   7   8
ENDBRANCH   6   7
ENDBRANCH   5   6
ENDBRANCH   4   5
ENDBRANCH   3   4
ENDBRANCH   2   3
ENDBRANCH   1   2
BRANCH   1  17
ATOM     17  C   UNL     1       4.698  23.820 113.319  1.00  0.00     0.000 C 
BRANCH  17  18
ATOM     18  C   UNL     1       5.477  25.137 113.530  1.00  0.00     0.000 C 
BRANCH  18  19
ATOM     19  C   UNL     1       6.059  25.680 112.212  1.00  0.00     0.000 C 
BRANCH  19  20
ATOM     20  C   UNL     1       5.205  26.815 111.608  1.00  0.00     0.000 C 
BRANCH  20  21
ATOM     21  C   UNL     1       4.336  26.378 110.412  1.00  0.00     0.000 C 
BRANCH  21  22
ATOM     22  C   UNL     1       2.836  26.223 110.716  1.00  0.00    -0.000 C 
BRANCH  22  23
ATOM     23  C   UNL     1       2.112  27.522 111.124  1.00  0.00    -0.000 C 
BRANCH  23  24
ATOM     24  C   UNL     1       2.058  28.583 110.004  1.00  0.00    -0.000 C 
BRANCH  24  25
ATOM     25  C   UNL     1       2.462  29.982 110.497  1.00  0.00    -0.000 C 
BRANCH  25  26
ATOM     26  C   UNL     1       3.011  29.971 111.935  1.00  0.00    -0.000 C 
BRANCH  26  27
ATOM     27  C   UNL     1       2.245  30.865 112.933  1.00  0.00    -0.000 C 
BRANCH  27  28
ATOM     28  C   UNL     1       0.821  31.258 112.497  1.00  0.00    -0.000 C 
BRANCH  28  29
ATOM     29  C   UNL     1      -0.264  30.693 113.424  1.00  0.00    -0.003 C 
ATOM     30  C   UNL     1      -0.284  29.168 113.385  1.00  0.00     0.004 C 
ENDBRANCH  28  29
ENDBRANCH  27  28
ENDBRANCH  26  27
ENDBRANCH  25  26
ENDBRANCH  24  25
ENDBRANCH  23  24
ENDBRANCH  22  23
ENDBRANCH  21  22
ENDBRANCH  20  21
ENDBRANCH  19  20
ENDBRANCH  18  19
ENDBRANCH  17  18
ENDBRANCH   1  17
TORSDOF 26
ENDMDL
MODEL 5
REMARK VINA RESULT:    -3.739      2.049      5.449
REMARK INTER + INTRA:         -14.362
REMARK INTER:                  -9.156
REMARK INTRA:                  -5.206
REMARK UNBOUND:                -4.940
REMARK SMILES CCCCCCCCCCCCCCCCCCCCCCCCCCCC(=O)[O-]
REMARK SMILES IDX 15 1 16 2 17 3 18 4 19 5 20 6 21 7 22 8 23 9 24 10 25 11
REMARK SMILES IDX 26 12 27 13 28 14 29 15 30 16 14 17 13 18 12 19 11 20 10 21
REMARK SMILES IDX 9 22 8 23 7 24 6 25 5 26 4 27 3 28 2 29 1 30
REMARK H PARENT
REMARK Flexibility Score: inf
ROOT
ATOM      1  C   UNL     1       1.898  28.138 110.532  1.00  0.00     0.000 C 
ENDROOT
BRANCH   1   2
ATOM      2  C   UNL     1       2.970  27.044 110.378  1.00  0.00     0.000 C 
BRANCH   2   3
ATOM      3  C   UNL     1       2.956  26.030 111.534  1.00  0.00     0.000 C 
BRANCH   3   4
ATOM      4  C   UNL     1       2.884  26.709 112.912  1.00  0.00     0.000 C 
BRANCH   4   5
ATOM      5  C   UNL     1       2.167  25.841 113.960  1.00  0.00     0.000 C 
BRANCH   5   6
ATOM      6  C   UNL     1       0.742  25.443 113.534  1.00  0.00     0.000 C 
BRANCH   6   7
ATOM      7  C   UNL     1       0.496  23.926 113.406  1.00  0.00     0.000 C 
BRANCH   7   8
ATOM      8  C   UNL     1       1.239  23.052 114.437  1.00  0.00     0.000 C 
BRANCH   8   9
ATOM      9  C   UNL     1       2.238  22.043 113.839  1.00  0.00     0.000 C 
BRANCH   9  10
ATOM     10  C   UNL     1       3.696  22.354 114.217  1.00  0.00     0.000 C 
BRANCH  10  11
ATOM     11  C   UNL     1       4.442  23.116 113.110  1.00  0.00     0.000 C 
BRANCH  11  12
ATOM     12  C   UNL     1       5.426  24.159 113.669  1.00  0.00     0.006 C 
BRANCH  12  13
ATOM     13  C   UNL     1       6.322  24.754 112.574  1.00  0.00     0.053 C 
BRANCH  13  14
ATOM     14  C   UNL     1       6.699  26.173 112.874  1.00  0.00     0.041 C 
ATOM     15  O   UNL     1       6.704  26.592 114.062  1.00  0.00    -0.550 OA
ATOM     16  O   UNL     1       7.071  27.025 111.842  1.00  0.00    -0.550 OA
ENDBRANCH  13  14
ENDBRANCH  12  13
ENDBRANCH  11  12
ENDBRANCH  10  11
ENDBRANCH   9  10
ENDBRANCH   8   9
ENDBRANCH   7   8
ENDBRANCH   6   7
ENDBRANCH   5   6
ENDBRANCH   4   5
ENDBRANCH   3   4
ENDBRANCH   2   3
ENDBRANCH   1   2
BRANCH   1  17
ATOM     17  C   UNL     1       2.419  29.581 110.387  1.00  0.00     0.000 C 
BRANCH  17  18
ATOM     18  C   UNL     1       2.294  30.417 111.680  1.00  0.00     0.000 C 
BRANCH  18  19
ATOM     19  C   UNL     1       3.582  30.373 112.522  1.00  0.00     0.000 C 
BRANCH  19  20
ATOM     20  C   UNL     1       3.832  31.684 113.296  1.00  0.00     0.000 C 
BRANCH  20  21
ATOM     21  C   UNL     1       5.269  31.832 113.835  1.00  0.00     0.000 C 
BRANCH  21  22
ATOM     22  C   UNL     1       5.389  32.555 115.187  1.00  0.00    -0.000 C 
BRANCH  22  23
ATOM     23  C   UNL     1       5.865  31.674 116.360  1.00  0.00    -0.000 C 
BRANCH  23  24
ATOM     24  C   UNL     1       6.016  30.181 115.998  1.00  0.00    -0.000 C 
BRANCH  24  25
ATOM     25  C   UNL     1       5.015  29.288 116.749  1.00  0.00    -0.000 C 
BRANCH  25  26
ATOM     26  C   UNL     1       4.011  28.596 115.809  1.00  0.00    -0.000 C 
BRANCH  26  27
ATOM     27  C   UNL     1       2.526  28.805 116.173  1.00  0.00    -0.000 C 
BRANCH  27  28
ATOM     28  C   UNL     1       2.035  30.263 116.099  1.00  0.00    -0.000 C 
BRANCH  28  29
ATOM     29  C   UNL     1       0.833  30.442 115.162  1.00  0.00    -0.003 C 
ATOM     30  C   UNL     1       0.396  29.107 114.565  1.00  0.00     0.004 C 
ENDBRANCH  28  29
ENDBRANCH  27  28
ENDBRANCH  26  27
ENDBRANCH  25  26
ENDBRANCH  24  25
ENDBRANCH  23  24
ENDBRANCH  22  23
ENDBRANCH  21  22
ENDBRANCH  20  21
ENDBRANCH  19  20
ENDBRANCH  18  19
ENDBRANCH  17  18
ENDBRANCH   1  17
TORSDOF 26
ENDMDL
MODEL 6
REMARK VINA RESULT:    -3.701      2.262      6.710
REMARK INTER + INTRA:         -14.267
REMARK INTER:                  -8.982
REMARK INTRA:                  -5.285
REMARK UNBOUND:                -4.940
REMARK SMILES CCCCCCCCCCCCCCCCCCCCCCCCCCCC(=O)[O-]
REMARK SMILES IDX 15 1 16 2 17 3 18 4 19 5 20 6 21 7 22 8 23 9 24 10 25 11
REMARK SMILES IDX 26 12 27 13 28 14 29 15 30 16 14 17 13 18 12 19 11 20 10 21
REMARK SMILES IDX 9 22 8 23 7 24 6 25 5 26 4 27 3 28 2 29 1 30
REMARK H PARENT
REMARK Flexibility Score: inf
ROOT
ATOM      1  C   UNL     1       1.960  27.073 111.494  1.00  0.00     0.000 C 
ENDROOT
BRANCH   1   2
ATOM      2  C   UNL     1       2.238  26.511 112.899  1.00  0.00     0.000 C 
BRANCH   2   3
ATOM      3  C   UNL     1       1.759  27.448 114.021  1.00  0.00     0.000 C 
BRANCH   3   4
ATOM      4  C   UNL     1       0.258  27.766 113.922  1.00  0.00     0.000 C 
BRANCH   4   5
ATOM      5  C   UNL     1      -0.031  29.276 113.994  1.00  0.00     0.000 C 
BRANCH   5   6
ATOM      6  C   UNL     1       1.200  30.137 113.656  1.00  0.00     0.000 C 
BRANCH   6   7
ATOM      7  C   UNL     1       1.367  30.483 112.163  1.00  0.00     0.000 C 
BRANCH   7   8
ATOM      8  C   UNL     1       2.819  30.724 111.703  1.00  0.00     0.000 C 
BRANCH   8   9
ATOM      9  C   UNL     1       3.871  30.712 112.827  1.00  0.00     0.000 C 
BRANCH   9  10
ATOM     10  C   UNL     1       4.602  29.364 112.946  1.00  0.00     0.000 C 
BRANCH  10  11
ATOM     11  C   UNL     1       5.193  29.136 114.347  1.00  0.00     0.000 C 
BRANCH  11  12
ATOM     12  C   UNL     1       4.467  29.948 115.435  1.00  0.00     0.006 C 
BRANCH  12  13
ATOM     13  C   UNL     1       5.447  30.661 116.375  1.00  0.00     0.053 C 
BRANCH  13  14
ATOM     14  C   UNL     1       6.177  31.770 115.681  1.00  0.00     0.041 C 
ATOM     15  O   UNL     1       7.428  31.716 115.538  1.00  0.00    -0.550 OA
ATOM     16  O   UNL     1       5.472  32.852 115.169  1.00  0.00    -0.550 OA
ENDBRANCH  13  14
ENDBRANCH  12  13
ENDBRANCH  11  12
ENDBRANCH  10  11
ENDBRANCH   9  10
ENDBRANCH   8   9
ENDBRANCH   7   8
ENDBRANCH   6   7
ENDBRANCH   5   6
ENDBRANCH   4   5
ENDBRANCH   3   4
ENDBRANCH   2   3
ENDBRANCH   1   2
BRANCH   1  17
ATOM     17  C   UNL     1       3.117  26.909 110.489  1.00  0.00     0.000 C 
BRANCH  17  18
ATOM     18  C   UNL     1       4.216  25.933 110.965  1.00  0.00     0.000 C 
BRANCH  18  19
ATOM     19  C   UNL     1       5.629  26.501 110.740  1.00  0.00     0.000 C 
BRANCH  19  20
ATOM     20  C   UNL     1       6.538  26.344 111.977  1.00  0.00     0.000 C 
BRANCH  20  21
ATOM     21  C   UNL     1       6.209  25.114 112.846  1.00  0.00     0.000 C 
BRANCH  21  22
ATOM     22  C   UNL     1       5.649  25.430 114.243  1.00  0.00    -0.000 C 
BRANCH  22  23
ATOM     23  C   UNL     1       4.535  24.483 114.731  1.00  0.00    -0.000 C 
BRANCH  23  24
ATOM     24  C   UNL     1       4.257  23.302 113.776  1.00  0.00    -0.000 C 
BRANCH  24  25
ATOM     25  C   UNL     1       3.753  22.052 114.516  1.00  0.00    -0.000 C 
BRANCH  25  26
ATOM     26  C   UNL     1       2.501  21.438 113.863  1.00  0.00    -0.000 C 
BRANCH  26  27
ATOM     27  C   UNL     1       1.157  21.895 114.469  1.00  0.00    -0.000 C 
BRANCH  27  28
ATOM     28  C   UNL     1       0.621  23.234 113.930  1.00  0.00    -0.000 C 
BRANCH  28  29
ATOM     29  C   UNL     1       0.275  24.231 115.044  1.00  0.00    -0.003 C 
ATOM     30  C   UNL     1      -1.215  24.559 115.049  1.00  0.00     0.004 C 
ENDBRANCH  28  29
ENDBRANCH  27  28
ENDBRANCH  26  27
ENDBRANCH  25  26
ENDBRANCH  24  25
ENDBRANCH  23  24
ENDBRANCH  22  23
ENDBRANCH  21  22
ENDBRANCH  20  21
ENDBRANCH  19  20
ENDBRANCH  18  19
ENDBRANCH  17  18
ENDBRANCH   1  17
TORSDOF 26
ENDMDL
MODEL 7
REMARK VINA RESULT:    -3.697      2.885      5.431
REMARK INTER + INTRA:         -14.257
REMARK INTER:                  -8.867
REMARK INTRA:                  -5.390
REMARK UNBOUND:                -4.940
REMARK SMILES CCCCCCCCCCCCCCCCCCCCCCCCCCCC(=O)[O-]
REMARK SMILES IDX 15 1 16 2 17 3 18 4 19 5 20 6 21 7 22 8 23 9 24 10 25 11
REMARK SMILES IDX 26 12 27 13 28 14 29 15 30 16 14 17 13 18 12 19 11 20 10 21
REMARK SMILES IDX 9 22 8 23 7 24 6 25 5 26 4 27 3 28 2 29 1 30
REMARK H PARENT
REMARK Flexibility Score: inf
ROOT
ATOM      1  C   UNL     1       4.169  25.310 112.011  1.00  0.00     0.000 C 
ENDROOT
BRANCH   1   2
ATOM      2  C   UNL     1       3.299  25.217 113.278  1.00  0.00     0.000 C 
BRANCH   2   3
ATOM      3  C   UNL     1       2.130  24.229 113.126  1.00  0.00     0.000 C 
BRANCH   3   4
ATOM      4  C   UNL     1       0.798  24.811 113.630  1.00  0.00     0.000 C 
BRANCH   4   5
ATOM      5  C   UNL     1       0.807  26.348 113.680  1.00  0.00     0.000 C 
BRANCH   5   6
ATOM      6  C   UNL     1       0.606  26.902 115.103  1.00  0.00     0.000 C 
BRANCH   6   7
ATOM      7  C   UNL     1       1.411  28.175 115.430  1.00  0.00     0.000 C 
BRANCH   7   8
ATOM      8  C   UNL     1       2.800  27.931 116.054  1.00  0.00     0.000 C 
BRANCH   8   9
ATOM      9  C   UNL     1       3.993  28.391 115.196  1.00  0.00     0.000 C 
BRANCH   9  10
ATOM     10  C   UNL     1       3.579  28.802 113.772  1.00  0.00     0.000 C 
BRANCH  10  11
ATOM     11  C   UNL     1       4.347  30.035 113.269  1.00  0.00     0.000 C 
BRANCH  11  12
ATOM     12  C   UNL     1       5.350  30.572 114.306  1.00  0.00     0.006 C 
BRANCH  12  13
ATOM     13  C   UNL     1       6.153  31.765 113.771  1.00  0.00     0.053 C 
BRANCH  13  14
ATOM     14  C   UNL     1       7.506  31.856 114.408  1.00  0.00     0.041 C 
ATOM     15  O   UNL     1       8.538  31.536 113.758  1.00  0.00    -0.550 OA
ATOM     16  O   UNL     1       7.630  32.319 115.712  1.00  0.00    -0.550 OA
ENDBRANCH  13  14
ENDBRANCH  12  13
ENDBRANCH  11  12
ENDBRANCH  10  11
ENDBRANCH   9  10
ENDBRANCH   8   9
ENDBRANCH   7   8
ENDBRANCH   6   7
ENDBRANCH   5   6
ENDBRANCH   4   5
ENDBRANCH   3   4
ENDBRANCH   2   3
ENDBRANCH   1   2
BRANCH   1  17
ATOM     17  C   UNL     1       3.408  25.699 110.729  1.00  0.00     0.000 C 
BRANCH  17  18
ATOM     18  C   UNL     1       3.543  27.192 110.358  1.00  0.00     0.000 C 
BRANCH  18  19
ATOM     19  C   UNL     1       2.206  27.943 110.491  1.00  0.00     0.000 C 
BRANCH  19  20
ATOM     20  C   UNL     1       2.338  29.450 110.187  1.00  0.00     0.000 C 
BRANCH  20  21
ATOM     21  C   UNL     1       1.435  30.348 111.056  1.00  0.00     0.000 C 
BRANCH  21  22
ATOM     22  C   UNL     1       0.216  29.645 111.676  1.00  0.00    -0.000 C 
BRANCH  22  23
ATOM     23  C   UNL     1      -0.181  30.139 113.081  1.00  0.00    -0.000 C 
BRANCH  23  24
ATOM     24  C   UNL     1       0.383  31.532 113.435  1.00  0.00    -0.000 C 
BRANCH  24  25
ATOM     25  C   UNL     1       0.542  31.736 114.950  1.00  0.00    -0.000 C 
BRANCH  25  26
ATOM     26  C   UNL     1       2.015  31.763 115.397  1.00  0.00    -0.000 C 
BRANCH  26  27
ATOM     27  C   UNL     1       2.237  31.689 116.922  1.00  0.00    -0.000 C 
BRANCH  27  28
ATOM     28  C   UNL     1       3.382  32.569 117.458  1.00  0.00    -0.000 C 
BRANCH  28  29
ATOM     29  C   UNL     1       4.106  33.348 116.350  1.00  0.00    -0.003 C 
ATOM     30  C   UNL     1       4.369  34.790 116.772  1.00  0.00     0.004 C 
ENDBRANCH  28  29
ENDBRANCH  27  28
ENDBRANCH  26  27
ENDBRANCH  25  26
ENDBRANCH  24  25
ENDBRANCH  23  24
ENDBRANCH  22  23
ENDBRANCH  21  22
ENDBRANCH  20  21
ENDBRANCH  19  20
ENDBRANCH  18  19
ENDBRANCH  17  18
ENDBRANCH   1  17
TORSDOF 26
ENDMDL
MODEL 8
REMARK VINA RESULT:    -3.696      2.437      6.387
REMARK INTER + INTRA:         -14.255
REMARK INTER:                  -8.975
REMARK INTRA:                  -5.280
REMARK UNBOUND:                -4.940
REMARK SMILES CCCCCCCCCCCCCCCCCCCCCCCCCCCC(=O)[O-]
REMARK SMILES IDX 15 1 16 2 17 3 18 4 19 5 20 6 21 7 22 8 23 9 24 10 25 11
REMARK SMILES IDX 26 12 27 13 28 14 29 15 30 16 14 17 13 18 12 19 11 20 10 21
REMARK SMILES IDX 9 22 8 23 7 24 6 25 5 26 4 27 3 28 2 29 1 30
REMARK H PARENT
REMARK Flexibility Score: inf
ROOT
ATOM      1  C   UNL     1       1.841  28.065 115.718  1.00  0.00     0.000 C 
ENDROOT
BRANCH   1   2
ATOM      2  C   UNL     1       0.747  29.002 115.178  1.00  0.00     0.000 C 
BRANCH   2   3
ATOM      3  C   UNL     1       1.143  30.486 115.254  1.00  0.00     0.000 C 
BRANCH   3   4
ATOM      4  C   UNL     1       0.625  31.297 114.055  1.00  0.00     0.000 C 
BRANCH   4   5
ATOM      5  C   UNL     1      -0.253  30.457 113.110  1.00  0.00     0.000 C 
BRANCH   5   6
ATOM      6  C   UNL     1       0.178  30.570 111.636  1.00  0.00     0.000 C 
BRANCH   6   7
ATOM      7  C   UNL     1       1.158  29.481 111.156  1.00  0.00     0.000 C 
BRANCH   7   8
ATOM      8  C   UNL     1       2.547  29.992 110.722  1.00  0.00     0.000 C 
BRANCH   8   9
ATOM      9  C   UNL     1       3.442  30.504 111.867  1.00  0.00     0.000 C 
BRANCH   9  10
ATOM     10  C   UNL     1       4.007  29.367 112.735  1.00  0.00     0.000 C 
BRANCH  10  11
ATOM     11  C   UNL     1       4.888  29.885 113.884  1.00  0.00     0.000 C 
BRANCH  11  12
ATOM     12  C   UNL     1       4.467  31.284 114.367  1.00  0.00     0.006 C 
BRANCH  12  13
ATOM     13  C   UNL     1       5.668  32.224 114.537  1.00  0.00     0.053 C 
BRANCH  13  14
ATOM     14  C   UNL     1       6.631  31.716 115.567  1.00  0.00     0.041 C 
ATOM     15  O   UNL     1       6.321  31.729 116.788  1.00  0.00    -0.550 OA
ATOM     16  O   UNL     1       7.861  31.203 115.174  1.00  0.00    -0.550 OA
ENDBRANCH  13  14
ENDBRANCH  12  13
ENDBRANCH  11  12
ENDBRANCH  10  11
ENDBRANCH   9  10
ENDBRANCH   8   9
ENDBRANCH   7   8
ENDBRANCH   6   7
ENDBRANCH   5   6
ENDBRANCH   4   5
ENDBRANCH   3   4
ENDBRANCH   2   3
ENDBRANCH   1   2
BRANCH   1  17
ATOM     17  C   UNL     1       2.248  26.925 114.765  1.00  0.00     0.000 C 
BRANCH  17  18
ATOM     18  C   UNL     1       1.073  26.360 113.938  1.00  0.00     0.000 C 
BRANCH  18  19
ATOM     19  C   UNL     1       1.552  25.681 112.642  1.00  0.00     0.000 C 
BRANCH  19  20
ATOM     20  C   UNL     1       2.809  26.351 112.049  1.00  0.00     0.000 C 
BRANCH  20  21
ATOM     21  C   UNL     1       3.257  25.761 110.697  1.00  0.00     0.000 C 
BRANCH  21  22
ATOM     22  C   UNL     1       4.349  26.559 109.965  1.00  0.00    -0.000 C 
BRANCH  22  23
ATOM     23  C   UNL     1       5.696  26.659 110.708  1.00  0.00    -0.000 C 
BRANCH  23  24
ATOM     24  C   UNL     1       6.372  25.294 110.961  1.00  0.00    -0.000 C 
BRANCH  24  25
ATOM     25  C   UNL     1       7.565  25.396 111.925  1.00  0.00    -0.000 C 
BRANCH  25  26
ATOM     26  C   UNL     1       7.230  24.898 113.343  1.00  0.00    -0.000 C 
BRANCH  26  27
ATOM     27  C   UNL     1       6.039  25.608 114.020  1.00  0.00    -0.000 C 
BRANCH  27  28
ATOM     28  C   UNL     1       4.952  24.670 114.577  1.00  0.00    -0.000 C 
BRANCH  28  29
ATOM     29  C   UNL     1       4.490  23.620 113.556  1.00  0.00    -0.003 C 
ATOM     30  C   UNL     1       4.072  22.326 114.248  1.00  0.00     0.004 C 
ENDBRANCH  28  29
ENDBRANCH  27  28
ENDBRANCH  26  27
ENDBRANCH  25  26
ENDBRANCH  24  25
ENDBRANCH  23  24
ENDBRANCH  22  23
ENDBRANCH  21  22
ENDBRANCH  20  21
ENDBRANCH  19  20
ENDBRANCH  18  19
ENDBRANCH  17  18
ENDBRANCH   1  17
TORSDOF 26
ENDMDL
MODEL 9
REMARK VINA RESULT:    -3.696      2.793      6.261
REMARK INTER + INTRA:         -14.254
REMARK INTER:                  -9.023
REMARK INTRA:                  -5.231
REMARK UNBOUND:                -4.940
REMARK SMILES CCCCCCCCCCCCCCCCCCCCCCCCCCCC(=O)[O-]
REMARK SMILES IDX 15 1 16 2 17 3 18 4 19 5 20 6 21 7 22 8 23 9 24 10 25 11
REMARK SMILES IDX 26 12 27 13 28 14 29 15 30 16 14 17 13 18 12 19 11 20 10 21
REMARK SMILES IDX 9 22 8 23 7 24 6 25 5 26 4 27 3 28 2 29 1 30
REMARK H PARENT
REMARK Flexibility Score: inf
ROOT
ATOM      1  C   UNL     1       0.181  27.486 114.290  1.00  0.00     0.000 C 
ENDROOT
BRANCH   1   2
ATOM      2  C   UNL     1       1.065  27.852 113.084  1.00  0.00     0.000 C 
BRANCH   2   3
ATOM      3  C   UNL     1       0.570  29.106 112.343  1.00  0.00     0.000 C 
BRANCH   3   4
ATOM      4  C   UNL     1       1.485  29.498 111.171  1.00  0.00     0.000 C 
BRANCH   4   5
ATOM      5  C   UNL     1       2.975  29.479 111.555  1.00  0.00     0.000 C 
BRANCH   5   6
ATOM      6  C   UNL     1       3.361  30.624 112.510  1.00  0.00     0.000 C 
BRANCH   6   7
ATOM      7  C   UNL     1       4.125  30.189 113.777  1.00  0.00     0.000 C 
BRANCH   7   8
ATOM      8  C   UNL     1       3.262  30.038 115.045  1.00  0.00     0.000 C 
BRANCH   8   9
ATOM      9  C   UNL     1       2.086  31.026 115.158  1.00  0.00     0.000 C 
BRANCH   9  10
ATOM     10  C   UNL     1       2.543  32.467 115.440  1.00  0.00     0.000 C 
BRANCH  10  11
ATOM     11  C   UNL     1       2.722  32.745 116.942  1.00  0.00     0.000 C 
BRANCH  11  12
ATOM     12  C   UNL     1       4.188  33.020 117.322  1.00  0.00     0.006 C 
BRANCH  12  13
ATOM     13  C   UNL     1       5.093  33.141 116.089  1.00  0.00     0.053 C 
BRANCH  13  14
ATOM     14  C   UNL     1       6.316  32.284 116.210  1.00  0.00     0.041 C 
ATOM     15  O   UNL     1       6.215  31.076 116.555  1.00  0.00    -0.550 OA
ATOM     16  O   UNL     1       7.566  32.813 115.915  1.00  0.00    -0.550 OA
ENDBRANCH  13  14
ENDBRANCH  12  13
ENDBRANCH  11  12
ENDBRANCH  10  11
ENDBRANCH   9  10
ENDBRANCH   8   9
ENDBRANCH   7   8
ENDBRANCH   6   7
ENDBRANCH   5   6
ENDBRANCH   4   5
ENDBRANCH   3   4
ENDBRANCH   2   3
ENDBRANCH   1   2
BRANCH   1  17
ATOM     17  C   UNL     1       0.526  26.142 114.962  1.00  0.00     0.000 C 
BRANCH  17  18
ATOM     18  C   UNL     1      -0.604  25.094 114.866  1.00  0.00     0.000 C 
BRANCH  18  19
ATOM     19  C   UNL     1      -0.112  23.767 114.260  1.00  0.00     0.000 C 
BRANCH  19  20
ATOM     20  C   UNL     1       1.211  23.924 113.481  1.00  0.00     0.000 C 
BRANCH  20  21
ATOM     21  C   UNL     1       2.373  23.080 114.041  1.00  0.00     0.000 C 
BRANCH  21  22
ATOM     22  C   UNL     1       3.756  23.397 113.448  1.00  0.00    -0.000 C 
BRANCH  22  23
ATOM     23  C   UNL     1       4.775  23.987 114.443  1.00  0.00    -0.000 C 
BRANCH  23  24
ATOM     24  C   UNL     1       4.319  25.313 115.090  1.00  0.00    -0.000 C 
BRANCH  24  25
ATOM     25  C   UNL     1       4.311  26.483 114.093  1.00  0.00    -0.000 C 
BRANCH  25  26
ATOM     26  C   UNL     1       5.727  26.938 113.696  1.00  0.00    -0.000 C 
BRANCH  26  27
ATOM     27  C   UNL     1       5.947  27.143 112.183  1.00  0.00    -0.000 C 
BRANCH  27  28
ATOM     28  C   UNL     1       5.485  25.974 111.292  1.00  0.00    -0.000 C 
BRANCH  28  29
ATOM     29  C   UNL     1       4.389  26.380 110.297  1.00  0.00    -0.003 C 
ATOM     30  C   UNL     1       3.030  25.827 110.718  1.00  0.00     0.004 C 
ENDBRANCH  28  29
ENDBRANCH  27  28
ENDBRANCH  26  27
ENDBRANCH  25  26
ENDBRANCH  24  25
ENDBRANCH  23  24
ENDBRANCH  22  23
ENDBRANCH  21  22
ENDBRANCH  20  21
ENDBRANCH  19  20
ENDBRANCH  18  19
ENDBRANCH  17  18
ENDBRANCH   1  17
TORSDOF 26
ENDMDL
