MODEL 1
REMARK VINA RESULT:     0.242      0.000      0.000
REMARK INTER + INTRA:          -0.598
REMARK INTER:                   0.441
REMARK INTRA:                  -1.038
REMARK UNBOUND:                -1.038
REMARK SMILES CCCCCCCCCCCCCCCC(=O)[O-]
REMARK SMILES IDX 9 1 10 2 11 3 12 4 13 5 14 6 15 7 16 8 17 9 18 10 8 11 7 12
REMARK SMILES IDX 6 13 5 14 4 15 3 16 2 17 1 18
REMARK H PARENT
REMARK Flexibility Score: inf
ROOT
ATOM      1  C   UNL     1      -4.453  35.084  21.675  1.00  0.00     0.000 C 
ENDROOT
BRANCH   1   2
ATOM      2  C   UNL     1      -4.839  34.223  22.891  1.00  0.00     0.000 C 
BRANCH   2   3
ATOM      3  C   UNL     1      -6.090  34.749  23.614  1.00  0.00     0.000 C 
BRANCH   3   4
ATOM      4  C   UNL     1      -5.793  35.198  25.055  1.00  0.00     0.000 C 
BRANCH   4   5
ATOM      5  C   UNL     1      -5.477  36.700  25.161  1.00  0.00     0.000 C 
BRANCH   5   6
ATOM      6  C   UNL     1      -5.886  37.550  23.942  1.00  0.00     0.006 C 
BRANCH   6   7
ATOM      7  C   UNL     1      -5.019  38.806  23.732  1.00  0.00     0.053 C 
BRANCH   7   8
ATOM      8  C   UNL     1      -4.958  39.232  22.295  1.00  0.00     0.041 C 
ATOM      9  O   UNL     1      -4.225  38.612  21.480  1.00  0.00    -0.550 OA
ATOM     10  O   UNL     1      -5.678  40.339  21.867  1.00  0.00    -0.550 OA
ENDBRANCH   7   8
ENDBRANCH   6   7
ENDBRANCH   5   6
ENDBRANCH   4   5
ENDBRANCH   3   4
ENDBRANCH   2   3
ENDBRANCH   1   2
BRANCH   1  11
ATOM     11  C   UNL     1      -5.671  35.491  20.831  1.00  0.00     0.000 C 
BRANCH  11  12
ATOM     12  C   UNL     1      -5.637  34.900  19.413  1.00  0.00    -0.000 C 
BRANCH  12  13
ATOM     13  C   UNL     1      -4.906  35.843  18.445  1.00  0.00    -0.000 C 
BRANCH  13  14
ATOM     14  C   UNL     1      -4.322  35.108  17.228  1.00  0.00    -0.000 C 
BRANCH  14  15
ATOM     15  C   UNL     1      -4.536  35.874  15.913  1.00  0.00    -0.000 C 
BRANCH  15  16
ATOM     16  C   UNL     1      -3.365  35.642  14.948  1.00  0.00    -0.000 C 
BRANCH  16  17
ATOM     17  C   UNL     1      -3.120  36.840  14.017  1.00  0.00    -0.003 C 
ATOM     18  C   UNL     1      -4.140  37.961  14.216  1.00  0.00     0.004 C 
ENDBRANCH  16  17
ENDBRANCH  15  16
ENDBRANCH  14  15
ENDBRANCH  13  14
ENDBRANCH  12  13
ENDBRANCH  11  12
ENDBRANCH   1  11
TORSDOF 14
ENDMDL
MODEL 2
REMARK VINA RESULT:     0.591      2.990      6.199
REMARK INTER + INTRA:           0.037
REMARK INTER:                   1.244
REMARK INTRA:                  -1.207
REMARK UNBOUND:                -1.038
REMARK SMILES CCCCCCCCCCCCCCCC(=O)[O-]
REMARK SMILES IDX 9 1 10 2 11 3 12 4 13 5 14 6 15 7 16 8 17 9 18 10 8 11 7 12
REMARK SMILES IDX 6 13 5 14 4 15 3 16 2 17 1 18
REMARK H PARENT
REMARK Flexibility Score: inf
ROOT
ATOM      1  C   UNL     1      -6.122  33.934  24.791  1.00  0.00     0.000 C 
ENDROOT
BRANCH   1   2
ATOM      2  C   UNL     1      -6.109  34.569  23.390  1.00  0.00     0.000 C 
BRANCH   2   3
ATOM      3  C   UNL     1      -4.714  34.548  22.745  1.00  0.00     0.000 C 
BRANCH   3   4
ATOM      4  C   UNL     1      -4.371  35.870  22.036  1.00  0.00     0.000 C 
BRANCH   4   5
ATOM      5  C   UNL     1      -4.620  35.817  20.519  1.00  0.00     0.000 C 
BRANCH   5   6
ATOM      6  C   UNL     1      -6.050  35.429  20.096  1.00  0.00     0.006 C 
BRANCH   6   7
ATOM      7  C   UNL     1      -6.122  34.185  19.190  1.00  0.00     0.053 C 
BRANCH   7   8
ATOM      8  C   UNL     1      -5.228  34.292  17.990  1.00  0.00     0.041 C 
ATOM      9  O   UNL     1      -4.518  33.313  17.637  1.00  0.00    -0.550 OA
ATOM     10  O   UNL     1      -5.147  35.487  17.288  1.00  0.00    -0.550 OA
ENDBRANCH   7   8
ENDBRANCH   6   7
ENDBRANCH   5   6
ENDBRANCH   4   5
ENDBRANCH   3   4
ENDBRANCH   2   3
ENDBRANCH   1   2
BRANCH   1  11
ATOM     11  C   UNL     1      -6.024  34.979  25.914  1.00  0.00     0.000 C 
BRANCH  11  12
ATOM     12  C   UNL     1      -6.125  36.422  25.394  1.00  0.00    -0.000 C 
BRANCH  12  13
ATOM     13  C   UNL     1      -4.906  37.247  25.832  1.00  0.00    -0.000 C 
BRANCH  13  14
ATOM     14  C   UNL     1      -4.585  38.393  24.859  1.00  0.00    -0.000 C 
BRANCH  14  15
ATOM     15  C   UNL     1      -5.628  38.531  23.740  1.00  0.00    -0.000 C 
BRANCH  15  16
ATOM     16  C   UNL     1      -5.196  39.591  22.716  1.00  0.00    -0.000 C 
BRANCH  16  17
ATOM     17  C   UNL     1      -5.136  39.039  21.283  1.00  0.00    -0.003 C 
ATOM     18  C   UNL     1      -6.124  39.730  20.342  1.00  0.00     0.004 C 
ENDBRANCH  16  17
ENDBRANCH  15  16
ENDBRANCH  14  15
ENDBRANCH  13  14
ENDBRANCH  12  13
ENDBRANCH  11  12
ENDBRANCH   1  11
TORSDOF 14
ENDMDL
MODEL 3
REMARK VINA RESULT:     0.682      2.720      7.021
REMARK INTER + INTRA:           0.201
REMARK INTER:                   1.402
REMARK INTRA:                  -1.201
REMARK UNBOUND:                -1.038
REMARK SMILES CCCCCCCCCCCCCCCC(=O)[O-]
REMARK SMILES IDX 9 1 10 2 11 3 12 4 13 5 14 6 15 7 16 8 17 9 18 10 8 11 7 12
REMARK SMILES IDX 6 13 5 14 4 15 3 16 2 17 1 18
REMARK H PARENT
REMARK Flexibility Score: inf
ROOT
ATOM      1  C   UNL     1      -4.063  34.784  21.446  1.00  0.00     0.000 C 
ENDROOT
BRANCH   1   2
ATOM      2  C   UNL     1      -4.624  36.138  20.978  1.00  0.00     0.000 C 
BRANCH   2   3
ATOM      3  C   UNL     1      -5.292  36.054  19.595  1.00  0.00     0.000 C 
BRANCH   3   4
ATOM      4  C   UNL     1      -5.493  34.603  19.125  1.00  0.00     0.000 C 
BRANCH   4   5
ATOM      5  C   UNL     1      -5.058  34.382  17.666  1.00  0.00     0.000 C 
BRANCH   5   6
ATOM      6  C   UNL     1      -4.254  35.534  17.033  1.00  0.00     0.006 C 
BRANCH   6   7
ATOM      7  C   UNL     1      -3.494  35.141  15.751  1.00  0.00     0.053 C 
BRANCH   7   8
ATOM      8  C   UNL     1      -3.532  36.216  14.705  1.00  0.00     0.041 C 
ATOM      9  O   UNL     1      -4.606  36.824  14.458  1.00  0.00    -0.550 OA
ATOM     10  O   UNL     1      -2.390  36.515  13.974  1.00  0.00    -0.550 OA
ENDBRANCH   7   8
ENDBRANCH   6   7
ENDBRANCH   5   6
ENDBRANCH   4   5
ENDBRANCH   3   4
ENDBRANCH   2   3
ENDBRANCH   1   2
BRANCH   1  11
ATOM     11  C   UNL     1      -4.764  34.259  22.709  1.00  0.00     0.000 C 
BRANCH  11  12
ATOM     12  C   UNL     1      -6.053  35.029  23.038  1.00  0.00    -0.000 C 
BRANCH  12  13
ATOM     13  C   UNL     1      -6.116  35.377  24.532  1.00  0.00    -0.000 C 
BRANCH  13  14
ATOM     14  C   UNL     1      -5.675  36.821  24.824  1.00  0.00    -0.000 C 
BRANCH  14  15
ATOM     15  C   UNL     1      -5.711  37.716  23.576  1.00  0.00    -0.000 C 
BRANCH  15  16
ATOM     16  C   UNL     1      -4.997  39.050  23.838  1.00  0.00    -0.000 C 
BRANCH  16  17
ATOM     17  C   UNL     1      -4.763  39.858  22.552  1.00  0.00    -0.003 C 
ATOM     18  C   UNL     1      -5.862  39.643  21.511  1.00  0.00     0.004 C 
ENDBRANCH  16  17
ENDBRANCH  15  16
ENDBRANCH  14  15
ENDBRANCH  13  14
ENDBRANCH  12  13
ENDBRANCH  11  12
ENDBRANCH   1  11
TORSDOF 14
ENDMDL
MODEL 4
REMARK VINA RESULT:     0.835      2.007      3.016
REMARK INTER + INTRA:           0.481
REMARK INTER:                   1.155
REMARK INTRA:                  -0.674
REMARK UNBOUND:                -1.038
REMARK SMILES CCCCCCCCCCCCCCCC(=O)[O-]
REMARK SMILES IDX 9 1 10 2 11 3 12 4 13 5 14 6 15 7 16 8 17 9 18 10 8 11 7 12
REMARK SMILES IDX 6 13 5 14 4 15 3 16 2 17 1 18
REMARK H PARENT
REMARK Flexibility Score: inf
ROOT
ATOM      1  C   UNL     1      -4.323  35.813  20.658  1.00  0.00     0.000 C 
ENDROOT
BRANCH   1   2
ATOM      2  C   UNL     1      -4.226  37.319  20.959  1.00  0.00     0.000 C 
BRANCH   2   3
ATOM      3  C   UNL     1      -5.459  38.098  20.473  1.00  0.00     0.000 C 
BRANCH   3   4
ATOM      4  C   UNL     1      -5.730  39.357  21.315  1.00  0.00     0.000 C 
BRANCH   4   5
ATOM      5  C   UNL     1      -4.757  39.507  22.497  1.00  0.00     0.000 C 
BRANCH   5   6
ATOM      6  C   UNL     1      -5.267  38.967  23.848  1.00  0.00     0.006 C 
BRANCH   6   7
ATOM      7  C   UNL     1      -5.666  37.479  23.820  1.00  0.00     0.053 C 
BRANCH   7   8
ATOM      8  C   UNL     1      -5.437  36.796  25.136  1.00  0.00     0.041 C 
ATOM      9  O   UNL     1      -4.690  37.322  26.003  1.00  0.00    -0.550 OA
ATOM     10  O   UNL     1      -6.014  35.559  25.388  1.00  0.00    -0.550 OA
ENDBRANCH   7   8
ENDBRANCH   6   7
ENDBRANCH   5   6
ENDBRANCH   4   5
ENDBRANCH   3   4
ENDBRANCH   2   3
ENDBRANCH   1   2
BRANCH   1  11
ATOM     11  C   UNL     1      -5.764  35.359  20.378  1.00  0.00     0.000 C 
BRANCH  11  12
ATOM     12  C   UNL     1      -5.890  34.541  19.083  1.00  0.00    -0.000 C 
BRANCH  12  13
ATOM     13  C   UNL     1      -4.612  34.654  18.238  1.00  0.00    -0.000 C 
BRANCH  13  14
ATOM     14  C   UNL     1      -4.903  34.959  16.760  1.00  0.00    -0.000 C 
BRANCH  14  15
ATOM     15  C   UNL     1      -4.005  36.071  16.196  1.00  0.00    -0.000 C 
BRANCH  15  16
ATOM     16  C   UNL     1      -3.764  35.870  14.693  1.00  0.00    -0.000 C 
BRANCH  16  17
ATOM     17  C   UNL     1      -3.357  37.170  13.980  1.00  0.00    -0.003 C 
ATOM     18  C   UNL     1      -4.387  38.286  14.154  1.00  0.00     0.004 C 
ENDBRANCH  16  17
ENDBRANCH  15  16
ENDBRANCH  14  15
ENDBRANCH  13  14
ENDBRANCH  12  13
ENDBRANCH  11  12
ENDBRANCH   1  11
TORSDOF 14
ENDMDL
MODEL 5
REMARK VINA RESULT:     0.858      2.864      7.625
REMARK INTER + INTRA:           0.522
REMARK INTER:                   1.269
REMARK INTRA:                  -0.746
REMARK UNBOUND:                -1.038
REMARK SMILES CCCCCCCCCCCCCCCC(=O)[O-]
REMARK SMILES IDX 9 1 10 2 11 3 12 4 13 5 14 6 15 7 16 8 17 9 18 10 8 11 7 12
REMARK SMILES IDX 6 13 5 14 4 15 3 16 2 17 1 18
REMARK H PARENT
REMARK Flexibility Score: inf
ROOT
ATOM      1  C   UNL     1      -4.667  37.808  21.122  1.00  0.00     0.000 C 
ENDROOT
BRANCH   1   2
ATOM      2  C   UNL     1      -4.974  37.239  19.725  1.00  0.00     0.000 C 
BRANCH   2   3
ATOM      3  C   UNL     1      -5.547  35.813  19.782  1.00  0.00     0.000 C 
BRANCH   3   4
ATOM      4  C   UNL     1      -4.606  34.775  19.145  1.00  0.00     0.000 C 
BRANCH   4   5
ATOM      5  C   UNL     1      -4.891  34.548  17.650  1.00  0.00     0.000 C 
BRANCH   5   6
ATOM      6  C   UNL     1      -4.520  35.720  16.720  1.00  0.00     0.006 C 
BRANCH   6   7
ATOM      7  C   UNL     1      -3.602  35.325  15.547  1.00  0.00     0.053 C 
BRANCH   7   8
ATOM      8  C   UNL     1      -3.499  36.402  14.507  1.00  0.00     0.041 C 
ATOM      9  O   UNL     1      -2.378  36.715  14.026  1.00  0.00    -0.550 OA
ATOM     10  O   UNL     1      -4.636  37.088  14.102  1.00  0.00    -0.550 OA
ENDBRANCH   7   8
ENDBRANCH   6   7
ENDBRANCH   5   6
ENDBRANCH   4   5
ENDBRANCH   3   4
ENDBRANCH   2   3
ENDBRANCH   1   2
BRANCH   1  11
ATOM     11  C   UNL     1      -5.692  38.862  21.567  1.00  0.00     0.000 C 
BRANCH  11  12
ATOM     12  C   UNL     1      -5.117  39.859  22.586  1.00  0.00    -0.000 C 
BRANCH  12  13
ATOM     13  C   UNL     1      -4.766  39.153  23.904  1.00  0.00    -0.000 C 
BRANCH  13  14
ATOM     14  C   UNL     1      -5.785  38.067  24.285  1.00  0.00    -0.000 C 
BRANCH  14  15
ATOM     15  C   UNL     1      -5.169  36.952  25.143  1.00  0.00    -0.000 C 
BRANCH  15  16
ATOM     16  C   UNL     1      -6.026  35.679  25.082  1.00  0.00    -0.000 C 
BRANCH  16  17
ATOM     17  C   UNL     1      -6.125  35.100  23.661  1.00  0.00    -0.003 C 
ATOM     18  C   UNL     1      -6.073  33.572  23.641  1.00  0.00     0.004 C 
ENDBRANCH  16  17
ENDBRANCH  15  16
ENDBRANCH  14  15
ENDBRANCH  13  14
ENDBRANCH  12  13
ENDBRANCH  11  12
ENDBRANCH   1  11
TORSDOF 14
ENDMDL
MODEL 6
REMARK VINA RESULT:     0.932      2.079      3.234
REMARK INTER + INTRA:           0.657
REMARK INTER:                   1.628
REMARK INTRA:                  -0.971
REMARK UNBOUND:                -1.038
REMARK SMILES CCCCCCCCCCCCCCCC(=O)[O-]
REMARK SMILES IDX 9 1 10 2 11 3 12 4 13 5 14 6 15 7 16 8 17 9 18 10 8 11 7 12
REMARK SMILES IDX 6 13 5 14 4 15 3 16 2 17 1 18
REMARK H PARENT
REMARK Flexibility Score: inf
ROOT
ATOM      1  C   UNL     1      -5.305  37.448  20.301  1.00  0.00     0.000 C 
ENDROOT
BRANCH   1   2
ATOM      2  C   UNL     1      -4.444  38.451  21.088  1.00  0.00     0.000 C 
BRANCH   2   3
ATOM      3  C   UNL     1      -5.168  39.006  22.326  1.00  0.00     0.000 C 
BRANCH   3   4
ATOM      4  C   UNL     1      -4.573  38.477  23.643  1.00  0.00     0.000 C 
BRANCH   4   5
ATOM      5  C   UNL     1      -5.650  38.058  24.659  1.00  0.00     0.000 C 
BRANCH   5   6
ATOM      6  C   UNL     1      -5.882  36.540  24.790  1.00  0.00     0.006 C 
BRANCH   6   7
ATOM      7  C   UNL     1      -6.120  35.822  23.447  1.00  0.00     0.053 C 
BRANCH   7   8
ATOM      8  C   UNL     1      -5.552  34.434  23.426  1.00  0.00     0.041 C 
ATOM      9  O   UNL     1      -6.033  33.540  24.171  1.00  0.00    -0.550 OA
ATOM     10  O   UNL     1      -4.464  34.140  22.616  1.00  0.00    -0.550 OA
ENDBRANCH   7   8
ENDBRANCH   6   7
ENDBRANCH   5   6
ENDBRANCH   4   5
ENDBRANCH   3   4
ENDBRANCH   2   3
ENDBRANCH   1   2
BRANCH   1  11
ATOM     11  C   UNL     1      -4.471  36.319  19.675  1.00  0.00     0.000 C 
BRANCH  11  12
ATOM     12  C   UNL     1      -5.321  35.103  19.274  1.00  0.00    -0.000 C 
BRANCH  12  13
ATOM     13  C   UNL     1      -4.816  34.494  17.957  1.00  0.00    -0.000 C 
BRANCH  13  14
ATOM     14  C   UNL     1      -4.710  35.530  16.826  1.00  0.00    -0.000 C 
BRANCH  14  15
ATOM     15  C   UNL     1      -3.463  35.329  15.952  1.00  0.00    -0.000 C 
BRANCH  15  16
ATOM     16  C   UNL     1      -3.721  35.803  14.514  1.00  0.00    -0.000 C 
BRANCH  16  17
ATOM     17  C   UNL     1      -3.316  37.269  14.293  1.00  0.00    -0.003 C 
ATOM     18  C   UNL     1      -4.508  38.168  13.968  1.00  0.00     0.004 C 
ENDBRANCH  16  17
ENDBRANCH  15  16
ENDBRANCH  14  15
ENDBRANCH  13  14
ENDBRANCH  12  13
ENDBRANCH  11  12
ENDBRANCH   1  11
TORSDOF 14
ENDMDL
MODEL 7
REMARK VINA RESULT:     1.157      1.967      3.902
REMARK INTER + INTRA:           1.066
REMARK INTER:                   2.244
REMARK INTRA:                  -1.178
REMARK UNBOUND:                -1.038
REMARK SMILES CCCCCCCCCCCCCCCC(=O)[O-]
REMARK SMILES IDX 9 1 10 2 11 3 12 4 13 5 14 6 15 7 16 8 17 9 18 10 8 11 7 12
REMARK SMILES IDX 6 13 5 14 4 15 3 16 2 17 1 18
REMARK H PARENT
REMARK Flexibility Score: inf
ROOT
ATOM      1  C   UNL     1      -5.137  35.801  25.050  1.00  0.00     0.000 C 
ENDROOT
BRANCH   1   2
ATOM      2  C   UNL     1      -5.809  36.956  25.812  1.00  0.00     0.000 C 
BRANCH   2   3
ATOM      3  C   UNL     1      -4.818  38.069  26.191  1.00  0.00     0.000 C 
BRANCH   3   4
ATOM      4  C   UNL     1      -4.953  39.310  25.292  1.00  0.00     0.000 C 
BRANCH   4   5
ATOM      5  C   UNL     1      -4.571  39.032  23.828  1.00  0.00     0.000 C 
BRANCH   5   6
ATOM      6  C   UNL     1      -5.709  39.208  22.802  1.00  0.00     0.006 C 
BRANCH   6   7
ATOM      7  C   UNL     1      -5.816  38.061  21.779  1.00  0.00     0.053 C 
BRANCH   7   8
ATOM      8  C   UNL     1      -5.584  38.521  20.370  1.00  0.00     0.041 C 
ATOM      9  O   UNL     1      -6.091  39.600  19.963  1.00  0.00    -0.550 OA
ATOM     10  O   UNL     1      -4.845  37.737  19.495  1.00  0.00    -0.550 OA
ENDBRANCH   7   8
ENDBRANCH   6   7
ENDBRANCH   5   6
ENDBRANCH   4   5
ENDBRANCH   3   4
ENDBRANCH   2   3
ENDBRANCH   1   2
BRANCH   1  11
ATOM     11  C   UNL     1      -6.125  34.682  24.684  1.00  0.00     0.000 C 
BRANCH  11  12
ATOM     12  C   UNL     1      -5.833  34.053  23.312  1.00  0.00    -0.000 C 
BRANCH  12  13
ATOM     13  C   UNL     1      -4.609  34.712  22.659  1.00  0.00    -0.000 C 
BRANCH  13  14
ATOM     14  C   UNL     1      -4.685  34.715  21.123  1.00  0.00    -0.000 C 
BRANCH  14  15
ATOM     15  C   UNL     1      -6.073  34.317  20.598  1.00  0.00    -0.000 C 
BRANCH  15  16
ATOM     16  C   UNL     1      -6.123  34.401  19.065  1.00  0.00    -0.000 C 
BRANCH  16  17
ATOM     17  C   UNL     1      -4.842  35.001  18.464  1.00  0.00    -0.003 C 
ATOM     18  C   UNL     1      -4.500  34.412  17.095  1.00  0.00     0.004 C 
ENDBRANCH  16  17
ENDBRANCH  15  16
ENDBRANCH  14  15
ENDBRANCH  13  14
ENDBRANCH  12  13
ENDBRANCH  11  12
ENDBRANCH   1  11
TORSDOF 14
ENDMDL
MODEL 8
REMARK VINA RESULT:     1.601      2.402      6.787
REMARK INTER + INTRA:           1.873
REMARK INTER:                   2.428
REMARK INTRA:                  -0.555
REMARK UNBOUND:                -1.038
REMARK SMILES CCCCCCCCCCCCCCCC(=O)[O-]
REMARK SMILES IDX 9 1 10 2 11 3 12 4 13 5 14 6 15 7 16 8 17 9 18 10 8 11 7 12
REMARK SMILES IDX 6 13 5 14 4 15 3 16 2 17 1 18
REMARK H PARENT
REMARK Flexibility Score: inf
ROOT
ATOM      1  C   UNL     1      -4.244  34.923  21.646  1.00  0.00     0.000 C 
ENDROOT
BRANCH   1   2
ATOM      2  C   UNL     1      -5.263  35.125  20.510  1.00  0.00     0.000 C 
BRANCH   2   3
ATOM      3  C   UNL     1      -4.624  35.719  19.244  1.00  0.00     0.000 C 
BRANCH   3   4
ATOM      4  C   UNL     1      -4.927  37.219  19.079  1.00  0.00     0.000 C 
BRANCH   4   5
ATOM      5  C   UNL     1      -5.721  37.802  20.260  1.00  0.00     0.000 C 
BRANCH   5   6
ATOM      6  C   UNL     1      -5.669  39.336  20.400  1.00  0.00     0.006 C 
BRANCH   6   7
ATOM      7  C   UNL     1      -6.013  39.852  21.810  1.00  0.00     0.053 C 
BRANCH   7   8
ATOM      8  C   UNL     1      -4.980  39.474  22.830  1.00  0.00     0.041 C 
ATOM      9  O   UNL     1      -4.035  38.701  22.521  1.00  0.00    -0.550 OA
ATOM     10  O   UNL     1      -5.086  39.941  24.134  1.00  0.00    -0.550 OA
ENDBRANCH   7   8
ENDBRANCH   6   7
ENDBRANCH   5   6
ENDBRANCH   4   5
ENDBRANCH   3   4
ENDBRANCH   2   3
ENDBRANCH   1   2
BRANCH   1  11
ATOM     11  C   UNL     1      -4.759  33.971  22.737  1.00  0.00     0.000 C 
BRANCH  11  12
ATOM     12  C   UNL     1      -6.124  34.396  23.302  1.00  0.00    -0.000 C 
BRANCH  12  13
ATOM     13  C   UNL     1      -5.974  34.976  24.716  1.00  0.00    -0.000 C 
BRANCH  13  14
ATOM     14  C   UNL     1      -5.270  36.343  24.725  1.00  0.00    -0.000 C 
BRANCH  14  15
ATOM     15  C   UNL     1      -5.117  36.922  26.140  1.00  0.00    -0.000 C 
BRANCH  15  16
ATOM     16  C   UNL     1      -3.872  37.816  26.234  1.00  0.00    -0.000 C 
BRANCH  16  17
ATOM     17  C   UNL     1      -2.694  37.119  26.934  1.00  0.00    -0.003 C 
ATOM     18  C   UNL     1      -1.569  38.086  27.301  1.00  0.00     0.004 C 
ENDBRANCH  16  17
ENDBRANCH  15  16
ENDBRANCH  14  15
ENDBRANCH  13  14
ENDBRANCH  12  13
ENDBRANCH  11  12
ENDBRANCH   1  11
TORSDOF 14
ENDMDL
