MODEL 1
REMARK VINA RESULT:    -3.773      0.000      0.000
REMARK INTER + INTRA:          -6.797
REMARK INTER:                  -5.979
REMARK INTRA:                  -0.818
REMARK UNBOUND:                -0.818
REMARK SMILES CCCCCCCCCCCC(=O)[O-]
REMARK SMILES IDX 7 1 8 2 9 3 10 4 11 5 12 6 13 7 14 8 6 9 5 10 4 11 3 12 2 13
REMARK SMILES IDX 1 14
REMARK H PARENT
REMARK Flexibility Score: inf
ROOT
ATOM      1  C   UNL     1      39.026  24.514 223.155  1.00  0.00     0.000 C 
ENDROOT
BRANCH   1   2
ATOM      2  C   UNL     1      39.645  24.122 221.796  1.00  0.00     0.000 C 
BRANCH   2   3
ATOM      3  C   UNL     1      39.941  22.616 221.701  1.00  0.00     0.000 C 
BRANCH   3   4
ATOM      4  C   UNL     1      41.290  22.231 222.335  1.00  0.00     0.006 C 
BRANCH   4   5
ATOM      5  C   UNL     1      42.028  21.093 221.613  1.00  0.00     0.053 C 
BRANCH   5   6
ATOM      6  C   UNL     1      41.859  19.782 222.318  1.00  0.00     0.041 C 
ATOM      7  O   UNL     1      40.725  19.238 222.382  1.00  0.00    -0.550 OA
ATOM      8  O   UNL     1      42.948  19.177 222.930  1.00  0.00    -0.550 OA
ENDBRANCH   5   6
ENDBRANCH   4   5
ENDBRANCH   3   4
ENDBRANCH   2   3
ENDBRANCH   1   2
BRANCH   1   9
ATOM      9  C   UNL     1      37.518  24.825 223.083  1.00  0.00     0.000 C 
BRANCH   9  10
ATOM     10  C   UNL     1      36.599  23.589 223.089  1.00  0.00    -0.000 C 
BRANCH  10  11
ATOM     11  C   UNL     1      35.823  23.350 221.781  1.00  0.00    -0.000 C 
BRANCH  11  12
ATOM     12  C   UNL     1      36.026  24.471 220.751  1.00  0.00    -0.000 C 
BRANCH  12  13
ATOM     13  C   UNL     1      35.589  24.017 219.353  1.00  0.00    -0.003 C 
ATOM     14  C   UNL     1      36.786  23.564 218.521  1.00  0.00     0.004 C 
ENDBRANCH  12  13
ENDBRANCH  11  12
ENDBRANCH  10  11
ENDBRANCH   9  10
ENDBRANCH   1   9
TORSDOF 10
ENDMDL
MODEL 2
REMARK VINA RESULT:    -3.759      1.378      2.103
REMARK INTER + INTRA:          -6.775
REMARK INTER:                  -5.584
REMARK INTRA:                  -1.191
REMARK UNBOUND:                -0.818
REMARK SMILES CCCCCCCCCCCC(=O)[O-]
REMARK SMILES IDX 7 1 8 2 9 3 10 4 11 5 12 6 13 7 14 8 6 9 5 10 4 11 3 12 2 13
REMARK SMILES IDX 1 14
REMARK H PARENT
REMARK Flexibility Score: inf
ROOT
ATOM      1  C   UNL     1      37.870  24.258 224.808  1.00  0.00     0.000 C 
ENDROOT
BRANCH   1   2
ATOM      2  C   UNL     1      39.276  23.789 224.374  1.00  0.00     0.000 C 
BRANCH   2   3
ATOM      3  C   UNL     1      39.877  24.682 223.275  1.00  0.00     0.000 C 
BRANCH   3   4
ATOM      4  C   UNL     1      40.047  23.944 221.934  1.00  0.00     0.006 C 
BRANCH   4   5
ATOM      5  C   UNL     1      39.872  22.420 222.023  1.00  0.00     0.053 C 
BRANCH   5   6
ATOM      6  C   UNL     1      41.185  21.702 221.957  1.00  0.00     0.041 C 
ATOM      7  O   UNL     1      42.216  22.218 222.466  1.00  0.00    -0.550 OA
ATOM      8  O   UNL     1      41.277  20.479 221.307  1.00  0.00    -0.550 OA
ENDBRANCH   5   6
ENDBRANCH   4   5
ENDBRANCH   3   4
ENDBRANCH   2   3
ENDBRANCH   1   2
BRANCH   1   9
ATOM      9  C   UNL     1      36.732  23.695 223.936  1.00  0.00     0.000 C 
BRANCH   9  10
ATOM     10  C   UNL     1      35.863  24.758 223.236  1.00  0.00    -0.000 C 
BRANCH  10  11
ATOM     11  C   UNL     1      36.262  25.066 221.781  1.00  0.00    -0.000 C 
BRANCH  11  12
ATOM     12  C   UNL     1      35.748  24.017 220.784  1.00  0.00    -0.000 C 
BRANCH  12  13
ATOM     13  C   UNL     1      36.899  23.446 219.946  1.00  0.00    -0.003 C 
ATOM     14  C   UNL     1      36.664  23.678 218.456  1.00  0.00     0.004 C 
ENDBRANCH  12  13
ENDBRANCH  11  12
ENDBRANCH  10  11
ENDBRANCH   9  10
ENDBRANCH   1   9
TORSDOF 10
ENDMDL
MODEL 3
REMARK VINA RESULT:    -3.696      2.803      5.657
REMARK INTER + INTRA:          -6.674
REMARK INTER:                  -5.664
REMARK INTRA:                  -1.010
REMARK UNBOUND:                -0.818
REMARK SMILES CCCCCCCCCCCC(=O)[O-]
REMARK SMILES IDX 7 1 8 2 9 3 10 4 11 5 12 6 13 7 14 8 6 9 5 10 4 11 3 12 2 13
REMARK SMILES IDX 1 14
REMARK H PARENT
REMARK Flexibility Score: inf
ROOT
ATOM      1  C   UNL     1      39.000  25.528 223.971  1.00  0.00     0.000 C 
ENDROOT
BRANCH   1   2
ATOM      2  C   UNL     1      37.711  25.522 223.121  1.00  0.00     0.000 C 
BRANCH   2   3
ATOM      3  C   UNL     1      36.810  24.315 223.434  1.00  0.00     0.000 C 
BRANCH   3   4
ATOM      4  C   UNL     1      36.422  23.519 222.175  1.00  0.00     0.006 C 
BRANCH   4   5
ATOM      5  C   UNL     1      35.741  24.357 221.080  1.00  0.00     0.053 C 
BRANCH   5   6
ATOM      6  C   UNL     1      36.099  23.879 219.707  1.00  0.00     0.041 C 
ATOM      7  O   UNL     1      35.285  24.017 218.755  1.00  0.00    -0.550 OA
ATOM      8  O   UNL     1      37.318  23.254 219.484  1.00  0.00    -0.550 OA
ENDBRANCH   5   6
ENDBRANCH   4   5
ENDBRANCH   3   4
ENDBRANCH   2   3
ENDBRANCH   1   2
BRANCH   1   9
ATOM      9  C   UNL     1      40.006  24.428 223.579  1.00  0.00     0.000 C 
BRANCH   9  10
ATOM     10  C   UNL     1      40.126  24.168 222.066  1.00  0.00    -0.000 C 
BRANCH  10  11
ATOM     11  C   UNL     1      40.081  22.683 221.657  1.00  0.00    -0.000 C 
BRANCH  11  12
ATOM     12  C   UNL     1      40.344  21.730 222.833  1.00  0.00    -0.000 C 
BRANCH  12  13
ATOM     13  C   UNL     1      41.015  20.438 222.352  1.00  0.00    -0.003 C 
ATOM     14  C   UNL     1      42.100  20.731 221.320  1.00  0.00     0.004 C 
ENDBRANCH  12  13
ENDBRANCH  11  12
ENDBRANCH  10  11
ENDBRANCH   9  10
ENDBRANCH   1   9
TORSDOF 10
ENDMDL
MODEL 4
REMARK VINA RESULT:    -3.633      3.455      5.894
REMARK INTER + INTRA:          -6.574
REMARK INTER:                  -5.299
REMARK INTRA:                  -1.275
REMARK UNBOUND:                -0.818
REMARK SMILES CCCCCCCCCCCC(=O)[O-]
REMARK SMILES IDX 7 1 8 2 9 3 10 4 11 5 12 6 13 7 14 8 6 9 5 10 4 11 3 12 2 13
REMARK SMILES IDX 1 14
REMARK H PARENT
REMARK Flexibility Score: inf
ROOT
ATOM      1  C   UNL     1      37.687  25.162 224.848  1.00  0.00     0.000 C 
ENDROOT
BRANCH   1   2
ATOM      2  C   UNL     1      36.653  24.357 224.032  1.00  0.00     0.000 C 
BRANCH   2   3
ATOM      3  C   UNL     1      36.129  25.139 222.816  1.00  0.00     0.000 C 
BRANCH   3   4
ATOM      4  C   UNL     1      36.518  24.489 221.476  1.00  0.00     0.006 C 
BRANCH   4   5
ATOM      5  C   UNL     1      35.367  23.751 220.772  1.00  0.00     0.053 C 
BRANCH   5   6
ATOM      6  C   UNL     1      35.370  23.992 219.295  1.00  0.00     0.041 C 
ATOM      7  O   UNL     1      34.304  24.307 218.702  1.00  0.00    -0.550 OA
ATOM      8  O   UNL     1      36.542  23.839 218.567  1.00  0.00    -0.550 OA
ENDBRANCH   5   6
ENDBRANCH   4   5
ENDBRANCH   3   4
ENDBRANCH   2   3
ENDBRANCH   1   2
BRANCH   1   9
ATOM      9  C   UNL     1      38.835  25.739 223.997  1.00  0.00     0.000 C 
BRANCH   9  10
ATOM     10  C   UNL     1      39.988  24.757 223.711  1.00  0.00    -0.000 C 
BRANCH  10  11
ATOM     11  C   UNL     1      40.012  24.182 222.283  1.00  0.00    -0.000 C 
BRANCH  11  12
ATOM     12  C   UNL     1      39.738  22.671 222.241  1.00  0.00    -0.000 C 
BRANCH  12  13
ATOM     13  C   UNL     1      39.844  22.055 223.641  1.00  0.00    -0.003 C 
ATOM     14  C   UNL     1      38.568  21.303 224.010  1.00  0.00     0.004 C 
ENDBRANCH  12  13
ENDBRANCH  11  12
ENDBRANCH  10  11
ENDBRANCH   9  10
ENDBRANCH   1   9
TORSDOF 10
ENDMDL
MODEL 5
REMARK VINA RESULT:    -3.565      3.226      5.611
REMARK INTER + INTRA:          -6.466
REMARK INTER:                  -4.852
REMARK INTRA:                  -1.614
REMARK UNBOUND:                -0.818
REMARK SMILES CCCCCCCCCCCC(=O)[O-]
REMARK SMILES IDX 7 1 8 2 9 3 10 4 11 5 12 6 13 7 14 8 6 9 5 10 4 11 3 12 2 13
REMARK SMILES IDX 1 14
REMARK H PARENT
REMARK Flexibility Score: inf
ROOT
ATOM      1  C   UNL     1      41.490  23.302 224.176  1.00  0.00     0.000 C 
ENDROOT
BRANCH   1   2
ATOM      2  C   UNL     1      40.222  23.931 223.560  1.00  0.00     0.000 C 
BRANCH   2   3
ATOM      3  C   UNL     1      40.285  23.993 222.025  1.00  0.00     0.000 C 
BRANCH   3   4
ATOM      4  C   UNL     1      39.113  23.259 221.349  1.00  0.00     0.006 C 
BRANCH   4   5
ATOM      5  C   UNL     1      37.808  23.265 222.162  1.00  0.00     0.053 C 
BRANCH   5   6
ATOM      6  C   UNL     1      36.720  24.021 221.466  1.00  0.00     0.041 C 
ATOM      7  O   UNL     1      36.279  23.620 220.356  1.00  0.00    -0.550 OA
ATOM      8  O   UNL     1      36.213  25.186 222.027  1.00  0.00    -0.550 OA
ENDBRANCH   5   6
ENDBRANCH   4   5
ENDBRANCH   3   4
ENDBRANCH   2   3
ENDBRANCH   1   2
BRANCH   1   9
ATOM      9  C   UNL     1      41.213  22.033 225.005  1.00  0.00     0.000 C 
BRANCH   9  10
ATOM     10  C   UNL     1      39.812  21.423 224.810  1.00  0.00    -0.000 C 
BRANCH  10  11
ATOM     11  C   UNL     1      39.776  20.139 223.960  1.00  0.00    -0.000 C 
BRANCH  11  12
ATOM     12  C   UNL     1      41.129  19.812 223.311  1.00  0.00    -0.000 C 
BRANCH  12  13
ATOM     13  C   UNL     1      41.109  20.129 221.811  1.00  0.00    -0.003 C 
ATOM     14  C   UNL     1      42.381  20.859 221.386  1.00  0.00     0.004 C 
ENDBRANCH  12  13
ENDBRANCH  11  12
ENDBRANCH  10  11
ENDBRANCH   9  10
ENDBRANCH   1   9
TORSDOF 10
ENDMDL
MODEL 6
REMARK VINA RESULT:    -3.533      1.268      1.993
REMARK INTER + INTRA:          -6.416
REMARK INTER:                  -5.242
REMARK INTRA:                  -1.175
REMARK UNBOUND:                -0.818
REMARK SMILES CCCCCCCCCCCC(=O)[O-]
REMARK SMILES IDX 7 1 8 2 9 3 10 4 11 5 12 6 13 7 14 8 6 9 5 10 4 11 3 12 2 13
REMARK SMILES IDX 1 14
REMARK H PARENT
REMARK Flexibility Score: inf
ROOT
ATOM      1  C   UNL     1      39.768  24.315 222.110  1.00  0.00     0.000 C 
ENDROOT
BRANCH   1   2
ATOM      2  C   UNL     1      39.586  22.803 221.854  1.00  0.00     0.000 C 
BRANCH   2   3
ATOM      3  C   UNL     1      39.198  22.036 223.129  1.00  0.00     0.000 C 
BRANCH   3   4
ATOM      4  C   UNL     1      40.319  21.109 223.632  1.00  0.00     0.006 C 
BRANCH   4   5
ATOM      5  C   UNL     1      40.781  20.060 222.608  1.00  0.00     0.053 C 
BRANCH   5   6
ATOM      6  C   UNL     1      42.221  20.237 222.239  1.00  0.00     0.041 C 
ATOM      7  O   UNL     1      42.534  20.758 221.135  1.00  0.00    -0.550 OA
ATOM      8  O   UNL     1      43.219  19.799 223.099  1.00  0.00    -0.550 OA
ENDBRANCH   5   6
ENDBRANCH   4   5
ENDBRANCH   3   4
ENDBRANCH   2   3
ENDBRANCH   1   2
BRANCH   1   9
ATOM      9  C   UNL     1      39.331  24.762 223.519  1.00  0.00     0.000 C 
BRANCH   9  10
ATOM     10  C   UNL     1      38.173  25.778 223.547  1.00  0.00    -0.000 C 
BRANCH  10  11
ATOM     11  C   UNL     1      37.039  25.496 222.544  1.00  0.00    -0.000 C 
BRANCH  11  12
ATOM     12  C   UNL     1      36.072  24.403 223.024  1.00  0.00    -0.000 C 
BRANCH  12  13
ATOM     13  C   UNL     1      35.332  23.767 221.841  1.00  0.00    -0.003 C 
ATOM     14  C   UNL     1      36.188  23.794 220.578  1.00  0.00     0.004 C 
ENDBRANCH  12  13
ENDBRANCH  11  12
ENDBRANCH  10  11
ENDBRANCH   9  10
ENDBRANCH   1   9
TORSDOF 10
ENDMDL
MODEL 7
REMARK VINA RESULT:    -3.473      3.359      5.873
REMARK INTER + INTRA:          -6.321
REMARK INTER:                  -4.853
REMARK INTRA:                  -1.468
REMARK UNBOUND:                -0.818
REMARK SMILES CCCCCCCCCCCC(=O)[O-]
REMARK SMILES IDX 7 1 8 2 9 3 10 4 11 5 12 6 13 7 14 8 6 9 5 10 4 11 3 12 2 13
REMARK SMILES IDX 1 14
REMARK H PARENT
REMARK Flexibility Score: inf
ROOT
ATOM      1  C   UNL     1      41.799  22.674 223.223  1.00  0.00     0.000 C 
ENDROOT
BRANCH   1   2
ATOM      2  C   UNL     1      40.935  23.953 223.249  1.00  0.00     0.000 C 
BRANCH   2   3
ATOM      3  C   UNL     1      40.017  24.064 222.019  1.00  0.00     0.000 C 
BRANCH   3   4
ATOM      4  C   UNL     1      38.534  24.231 222.395  1.00  0.00     0.006 C 
BRANCH   4   5
ATOM      5  C   UNL     1      37.570  23.351 221.582  1.00  0.00     0.053 C 
BRANCH   5   6
ATOM      6  C   UNL     1      36.228  23.995 221.419  1.00  0.00     0.041 C 
ATOM      7  O   UNL     1      35.459  24.116 222.409  1.00  0.00    -0.550 OA
ATOM      8  O   UNL     1      35.814  24.433 220.168  1.00  0.00    -0.550 OA
ENDBRANCH   5   6
ENDBRANCH   4   5
ENDBRANCH   3   4
ENDBRANCH   2   3
ENDBRANCH   1   2
BRANCH   1   9
ATOM      9  C   UNL     1      41.539  21.774 221.999  1.00  0.00     0.000 C 
BRANCH   9  10
ATOM     10  C   UNL     1      40.937  20.394 222.325  1.00  0.00    -0.000 C 
BRANCH  10  11
ATOM     11  C   UNL     1      40.908  20.036 223.823  1.00  0.00    -0.000 C 
BRANCH  11  12
ATOM     12  C   UNL     1      39.494  19.731 224.339  1.00  0.00    -0.000 C 
BRANCH  12  13
ATOM     13  C   UNL     1      38.589  20.964 224.221  1.00  0.00    -0.003 C 
ATOM     14  C   UNL     1      38.723  21.865 225.446  1.00  0.00     0.004 C 
ENDBRANCH  12  13
ENDBRANCH  11  12
ENDBRANCH  10  11
ENDBRANCH   9  10
ENDBRANCH   1   9
TORSDOF 10
ENDMDL
MODEL 8
REMARK VINA RESULT:    -3.418      3.175      5.636
REMARK INTER + INTRA:          -6.234
REMARK INTER:                  -4.810
REMARK INTRA:                  -1.424
REMARK UNBOUND:                -0.818
REMARK SMILES CCCCCCCCCCCC(=O)[O-]
REMARK SMILES IDX 7 1 8 2 9 3 10 4 11 5 12 6 13 7 14 8 6 9 5 10 4 11 3 12 2 13
REMARK SMILES IDX 1 14
REMARK H PARENT
REMARK Flexibility Score: inf
ROOT
ATOM      1  C   UNL     1      40.964  24.948 224.425  1.00  0.00     0.000 C 
ENDROOT
BRANCH   1   2
ATOM      2  C   UNL     1      39.446  25.016 224.701  1.00  0.00     0.000 C 
BRANCH   2   3
ATOM      3  C   UNL     1      38.785  26.236 224.038  1.00  0.00     0.000 C 
BRANCH   3   4
ATOM      4  C   UNL     1      37.740  25.845 222.977  1.00  0.00     0.006 C 
BRANCH   4   5
ATOM      5  C   UNL     1      36.962  24.559 223.298  1.00  0.00     0.053 C 
BRANCH   5   6
ATOM      6  C   UNL     1      36.278  24.003 222.088  1.00  0.00     0.041 C 
ATOM      7  O   UNL     1      35.945  24.765 221.141  1.00  0.00    -0.550 OA
ATOM      8  O   UNL     1      35.981  22.648 222.017  1.00  0.00    -0.550 OA
ENDBRANCH   5   6
ENDBRANCH   4   5
ENDBRANCH   3   4
ENDBRANCH   2   3
ENDBRANCH   1   2
BRANCH   1   9
ATOM      9  C   UNL     1      41.377  23.772 223.519  1.00  0.00     0.000 C 
BRANCH   9  10
ATOM     10  C   UNL     1      40.567  23.641 222.215  1.00  0.00    -0.000 C 
BRANCH  10  11
ATOM     11  C   UNL     1      39.861  22.286 222.023  1.00  0.00    -0.000 C 
BRANCH  11  12
ATOM     12  C   UNL     1      39.925  21.395 223.274  1.00  0.00    -0.000 C 
BRANCH  12  13
ATOM     13  C   UNL     1      38.593  21.421 224.034  1.00  0.00    -0.003 C 
ATOM     14  C   UNL     1      38.768  20.929 225.468  1.00  0.00     0.004 C 
ENDBRANCH  12  13
ENDBRANCH  11  12
ENDBRANCH  10  11
ENDBRANCH   9  10
ENDBRANCH   1   9
TORSDOF 10
ENDMDL
MODEL 9
REMARK VINA RESULT:    -3.411      3.822      5.838
REMARK INTER + INTRA:          -6.222
REMARK INTER:                  -4.834
REMARK INTRA:                  -1.388
REMARK UNBOUND:                -0.818
REMARK SMILES CCCCCCCCCCCC(=O)[O-]
REMARK SMILES IDX 7 1 8 2 9 3 10 4 11 5 12 6 13 7 14 8 6 9 5 10 4 11 3 12 2 13
REMARK SMILES IDX 1 14
REMARK H PARENT
REMARK Flexibility Score: inf
ROOT
ATOM      1  C   UNL     1      40.097  22.643 223.924  1.00  0.00     0.000 C 
ENDROOT
BRANCH   1   2
ATOM      2  C   UNL     1      39.529  22.294 222.532  1.00  0.00     0.000 C 
BRANCH   2   3
ATOM      3  C   UNL     1      39.129  23.546 221.733  1.00  0.00     0.000 C 
BRANCH   3   4
ATOM      4  C   UNL     1      37.679  23.487 221.217  1.00  0.00     0.006 C 
BRANCH   4   5
ATOM      5  C   UNL     1      36.643  23.090 222.282  1.00  0.00     0.053 C 
BRANCH   5   6
ATOM      6  C   UNL     1      35.391  23.903 222.172  1.00  0.00     0.041 C 
ATOM      7  O   UNL     1      35.031  24.645 223.124  1.00  0.00    -0.550 OA
ATOM      8  O   UNL     1      34.605  23.818 221.030  1.00  0.00    -0.550 OA
ENDBRANCH   5   6
ENDBRANCH   4   5
ENDBRANCH   3   4
ENDBRANCH   2   3
ENDBRANCH   1   2
BRANCH   1   9
ATOM      9  C   UNL     1      41.513  23.248 223.883  1.00  0.00     0.000 C 
BRANCH   9  10
ATOM     10  C   UNL     1      41.586  24.752 224.206  1.00  0.00    -0.000 C 
BRANCH  10  11
ATOM     11  C   UNL     1      40.538  25.250 225.219  1.00  0.00    -0.000 C 
BRANCH  11  12
ATOM     12  C   UNL     1      39.699  26.421 224.685  1.00  0.00    -0.000 C 
BRANCH  12  13
ATOM     13  C   UNL     1      38.307  25.946 224.252  1.00  0.00    -0.003 C 
ATOM     14  C   UNL     1      37.671  25.058 225.318  1.00  0.00     0.004 C 
ENDBRANCH  12  13
ENDBRANCH  11  12
ENDBRANCH  10  11
ENDBRANCH   9  10
ENDBRANCH   1   9
TORSDOF 10
ENDMDL
