MODEL 1
REMARK VINA RESULT:    -6.905      0.000      0.000
REMARK INTER + INTRA:          -8.406
REMARK INTER:                  -8.116
REMARK INTRA:                  -0.291
REMARK UNBOUND:                -0.291
REMARK SMILES O=c1c(O)c(-c2ccc(O)cc2)oc2cc(O)cc(O)c12
REMARK SMILES IDX 5 1 3 2 2 3 1 4 21 5 19 6 18 7 16 8 15 9 14 10 13 11 6 12
REMARK SMILES IDX 7 13 8 14 9 15 12 16 11 17 10 18 4 20 20 22 17 24
REMARK H PARENT 10 19 4 21 20 23 17 25
REMARK Flexibility Score: inf
ROOT
ATOM      1  C   UNL     1      18.506  24.390  41.862  1.00  0.00     0.180 A 
ATOM      2  C   UNL     1      17.284  24.053  42.476  1.00  0.00     0.208 A 
ATOM      3  C   UNL     1      16.845  24.810  43.574  1.00  0.00     0.238 A 
ATOM      4  O   UNL     1      15.747  24.523  44.124  1.00  0.00    -0.285 OA
ATOM      5  C   UNL     1      17.639  25.872  44.050  1.00  0.00     0.111 A 
ATOM      6  C   UNL     1      17.270  26.680  45.153  1.00  0.00     0.134 A 
ATOM      7  C   UNL     1      18.121  27.714  45.572  1.00  0.00     0.093 A 
ATOM      8  C   UNL     1      19.330  27.955  44.911  1.00  0.00     0.123 A 
ATOM      9  C   UNL     1      19.698  27.160  43.824  1.00  0.00     0.094 A 
ATOM     10  C   UNL     1      18.864  26.126  43.389  1.00  0.00     0.146 A 
ATOM     11  O   UNL     1      19.236  25.390  42.349  1.00  0.00    -0.452 OA
ENDROOT
BRANCH   1  12
ATOM     12  C   UNL     1      19.027  23.653  40.689  1.00  0.00     0.021 A 
ATOM     13  C   UNL     1      18.600  23.955  39.383  1.00  0.00     0.016 A 
ATOM     14  C   UNL     1      19.125  23.261  38.288  1.00  0.00     0.047 A 
ATOM     15  C   UNL     1      20.091  22.266  38.484  1.00  0.00     0.115 A 
ATOM     16  C   UNL     1      20.011  22.668  40.873  1.00  0.00     0.016 A 
ATOM     17  C   UNL     1      20.534  21.975  39.776  1.00  0.00     0.047 A 
BRANCH  15  18
ATOM     18  O   UNL     1      20.620  21.567  37.401  1.00  0.00    -0.508 OA
ATOM     19  H   UNL     1      20.087  21.426  36.551  1.00  0.00     0.293 HD
ENDBRANCH  15  18
ENDBRANCH   1  12
BRANCH   2  20
ATOM     20  O   UNL     1      16.540  22.964  42.016  1.00  0.00    -0.502 OA
ATOM     21  H   UNL     1      15.820  23.058  41.308  1.00  0.00     0.293 HD
ENDBRANCH   2  20
BRANCH   6  22
ATOM     22  O   UNL     1      16.071  26.466  45.832  1.00  0.00    -0.507 OA
ATOM     23  H   UNL     1      15.179  26.744  45.442  1.00  0.00     0.293 HD
ENDBRANCH   6  22
BRANCH   8  24
ATOM     24  O   UNL     1      20.176  28.981  45.328  1.00  0.00    -0.508 OA
ATOM     25  H   UNL     1      21.040  28.788  45.820  1.00  0.00     0.293 HD
ENDBRANCH   8  24
TORSDOF 5
ENDMDL
MODEL 2
REMARK VINA RESULT:    -6.870      1.236      2.919
REMARK INTER + INTRA:          -8.365
REMARK INTER:                  -8.106
REMARK INTRA:                  -0.259
REMARK UNBOUND:                -0.291
REMARK SMILES O=c1c(O)c(-c2ccc(O)cc2)oc2cc(O)cc(O)c12
REMARK SMILES IDX 5 1 3 2 2 3 1 4 21 5 19 6 18 7 16 8 15 9 14 10 13 11 6 12
REMARK SMILES IDX 7 13 8 14 9 15 12 16 11 17 10 18 4 20 20 22 17 24
REMARK H PARENT 10 19 4 21 20 23 17 25
REMARK Flexibility Score: inf
ROOT
ATOM      1  C   UNL     1      19.299  24.725  41.475  1.00  0.00     0.180 A 
ATOM      2  C   UNL     1      20.066  25.889  41.675  1.00  0.00     0.208 A 
ATOM      3  C   UNL     1      19.754  26.729  42.756  1.00  0.00     0.238 A 
ATOM      4  O   UNL     1      20.442  27.768  42.951  1.00  0.00    -0.285 OA
ATOM      5  C   UNL     1      18.675  26.405  43.602  1.00  0.00     0.111 A 
ATOM      6  C   UNL     1      18.293  27.200  44.709  1.00  0.00     0.134 A 
ATOM      7  C   UNL     1      17.200  26.814  45.499  1.00  0.00     0.093 A 
ATOM      8  C   UNL     1      16.482  25.649  45.203  1.00  0.00     0.123 A 
ATOM      9  C   UNL     1      16.855  24.863  44.111  1.00  0.00     0.094 A 
ATOM     10  C   UNL     1      17.943  25.230  43.313  1.00  0.00     0.146 A 
ATOM     11  O   UNL     1      18.278  24.459  42.285  1.00  0.00    -0.452 OA
ENDROOT
BRANCH   1  12
ATOM     12  C   UNL     1      19.577  23.779  40.370  1.00  0.00     0.021 A 
ATOM     13  C   UNL     1      19.162  24.047  39.053  1.00  0.00     0.016 A 
ATOM     14  C   UNL     1      19.458  23.150  38.022  1.00  0.00     0.047 A 
ATOM     15  C   UNL     1      20.182  21.982  38.291  1.00  0.00     0.115 A 
ATOM     16  C   UNL     1      20.321  22.616  40.627  1.00  0.00     0.016 A 
ATOM     17  C   UNL     1      20.614  21.720  39.594  1.00  0.00     0.047 A 
BRANCH  15  18
ATOM     18  O   UNL     1      20.480  21.081  37.272  1.00  0.00    -0.508 OA
ATOM     19  H   UNL     1      21.213  21.268  36.598  1.00  0.00     0.293 HD
ENDBRANCH  15  18
ENDBRANCH   1  12
BRANCH   2  20
ATOM     20  O   UNL     1      21.100  26.214  40.793  1.00  0.00    -0.502 OA
ATOM     21  H   UNL     1      21.884  25.595  40.625  1.00  0.00     0.293 HD
ENDBRANCH   2  20
BRANCH   6  22
ATOM     22  O   UNL     1      18.989  28.365  45.031  1.00  0.00    -0.507 OA
ATOM     23  H   UNL     1      19.096  29.124  44.368  1.00  0.00     0.293 HD
ENDBRANCH   6  22
BRANCH   8  24
ATOM     24  O   UNL     1      15.396  25.266  45.986  1.00  0.00    -0.508 OA
ATOM     25  H   UNL     1      14.592  24.799  45.585  1.00  0.00     0.293 HD
ENDBRANCH   8  24
TORSDOF 5
ENDMDL
MODEL 3
REMARK VINA RESULT:    -6.731      1.214      3.101
REMARK INTER + INTRA:          -8.203
REMARK INTER:                  -7.912
REMARK INTRA:                  -0.291
REMARK UNBOUND:                -0.291
REMARK SMILES O=c1c(O)c(-c2ccc(O)cc2)oc2cc(O)cc(O)c12
REMARK SMILES IDX 5 1 3 2 2 3 1 4 21 5 19 6 18 7 16 8 15 9 14 10 13 11 6 12
REMARK SMILES IDX 7 13 8 14 9 15 12 16 11 17 10 18 4 20 20 22 17 24
REMARK H PARENT 10 19 4 21 20 23 17 25
REMARK Flexibility Score: inf
ROOT
ATOM      1  C   UNL     1      19.262  24.802  41.479  1.00  0.00     0.180 A 
ATOM      2  C   UNL     1      20.042  25.956  41.689  1.00  0.00     0.208 A 
ATOM      3  C   UNL     1      19.760  26.773  42.795  1.00  0.00     0.238 A 
ATOM      4  O   UNL     1      20.460  27.803  42.999  1.00  0.00    -0.285 OA
ATOM      5  C   UNL     1      18.696  26.437  43.656  1.00  0.00     0.111 A 
ATOM      6  C   UNL     1      18.344  27.210  44.789  1.00  0.00     0.134 A 
ATOM      7  C   UNL     1      17.265  26.814  45.593  1.00  0.00     0.093 A 
ATOM      8  C   UNL     1      16.532  25.662  45.286  1.00  0.00     0.123 A 
ATOM      9  C   UNL     1      16.876  24.898  44.169  1.00  0.00     0.094 A 
ATOM     10  C   UNL     1      17.949  25.275  43.357  1.00  0.00     0.146 A 
ATOM     11  O   UNL     1      18.257  24.525  42.304  1.00  0.00    -0.452 OA
ENDROOT
BRANCH   1  12
ATOM     12  C   UNL     1      19.510  23.880  40.348  1.00  0.00     0.021 A 
ATOM     13  C   UNL     1      20.321  22.739  40.494  1.00  0.00     0.016 A 
ATOM     14  C   UNL     1      20.520  21.870  39.417  1.00  0.00     0.047 A 
ATOM     15  C   UNL     1      19.903  22.123  38.186  1.00  0.00     0.115 A 
ATOM     16  C   UNL     1      18.878  24.113  39.115  1.00  0.00     0.016 A 
ATOM     17  C   UNL     1      19.081  23.243  38.040  1.00  0.00     0.047 A 
BRANCH  15  18
ATOM     18  O   UNL     1      20.096  21.264  37.106  1.00  0.00    -0.508 OA
ATOM     19  H   UNL     1      19.807  20.294  37.143  1.00  0.00     0.293 HD
ENDBRANCH  15  18
ENDBRANCH   1  12
BRANCH   2  20
ATOM     20  O   UNL     1      21.060  26.293  40.793  1.00  0.00    -0.502 OA
ATOM     21  H   UNL     1      21.014  26.061  39.808  1.00  0.00     0.293 HD
ENDBRANCH   2  20
BRANCH   6  22
ATOM     22  O   UNL     1      19.055  28.363  45.123  1.00  0.00    -0.507 OA
ATOM     23  H   UNL     1      19.123  28.691  46.079  1.00  0.00     0.293 HD
ENDBRANCH   6  22
BRANCH   8  24
ATOM     24  O   UNL     1      15.459  25.268  46.083  1.00  0.00    -0.508 OA
ATOM     25  H   UNL     1      14.562  25.025  45.682  1.00  0.00     0.293 HD
ENDBRANCH   8  24
TORSDOF 5
ENDMDL
MODEL 4
REMARK VINA RESULT:    -6.525      1.463      3.209
REMARK INTER + INTRA:          -7.960
REMARK INTER:                  -7.831
REMARK INTRA:                  -0.129
REMARK UNBOUND:                -0.291
REMARK SMILES O=c1c(O)c(-c2ccc(O)cc2)oc2cc(O)cc(O)c12
REMARK SMILES IDX 5 1 3 2 2 3 1 4 21 5 19 6 18 7 16 8 15 9 14 10 13 11 6 12
REMARK SMILES IDX 7 13 8 14 9 15 12 16 11 17 10 18 4 20 20 22 17 24
REMARK H PARENT 10 19 4 21 20 23 17 25
REMARK Flexibility Score: inf
ROOT
ATOM      1  C   UNL     1      18.809  25.077  41.097  1.00  0.00     0.180 A 
ATOM      2  C   UNL     1      19.862  25.999  41.261  1.00  0.00     0.208 A 
ATOM      3  C   UNL     1      19.927  26.750  42.445  1.00  0.00     0.238 A 
ATOM      4  O   UNL     1      20.872  27.571  42.606  1.00  0.00    -0.285 OA
ATOM      5  C   UNL     1      18.935  26.585  43.431  1.00  0.00     0.111 A 
ATOM      6  C   UNL     1      18.927  27.306  44.649  1.00  0.00     0.134 A 
ATOM      7  C   UNL     1      17.897  27.090  45.579  1.00  0.00     0.093 A 
ATOM      8  C   UNL     1      16.878  26.169  45.312  1.00  0.00     0.123 A 
ATOM      9  C   UNL     1      16.883  25.456  44.112  1.00  0.00     0.094 A 
ATOM     10  C   UNL     1      17.900  25.655  43.174  1.00  0.00     0.146 A 
ATOM     11  O   UNL     1      17.882  24.959  42.044  1.00  0.00    -0.452 OA
ENDROOT
BRANCH   1  12
ATOM     12  C   UNL     1      18.682  24.235  39.887  1.00  0.00     0.021 A 
ATOM     13  C   UNL     1      19.678  23.307  39.530  1.00  0.00     0.016 A 
ATOM     14  C   UNL     1      19.524  22.505  38.395  1.00  0.00     0.047 A 
ATOM     15  C   UNL     1      18.369  22.611  37.610  1.00  0.00     0.115 A 
ATOM     16  C   UNL     1      17.518  24.318  39.106  1.00  0.00     0.016 A 
ATOM     17  C   UNL     1      17.367  23.516  37.971  1.00  0.00     0.047 A 
BRANCH  15  18
ATOM     18  O   UNL     1      18.205  21.817  36.477  1.00  0.00    -0.508 OA
ATOM     19  H   UNL     1      17.286  21.601  36.110  1.00  0.00     0.293 HD
ENDBRANCH  15  18
ENDBRANCH   1  12
BRANCH   2  20
ATOM     20  O   UNL     1      20.805  26.180  40.246  1.00  0.00    -0.502 OA
ATOM     21  H   UNL     1      21.016  27.092  39.857  1.00  0.00     0.293 HD
ENDBRANCH   2  20
BRANCH   6  22
ATOM     22  O   UNL     1      19.928  28.231  44.944  1.00  0.00    -0.507 OA
ATOM     23  H   UNL     1      20.277  28.359  45.887  1.00  0.00     0.293 HD
ENDBRANCH   6  22
BRANCH   8  24
ATOM     24  O   UNL     1      15.855  25.955  46.234  1.00  0.00    -0.508 OA
ATOM     25  H   UNL     1      16.053  25.719  47.199  1.00  0.00     0.293 HD
ENDBRANCH   8  24
TORSDOF 5
ENDMDL
MODEL 5
REMARK VINA RESULT:    -6.120      1.861      6.717
REMARK INTER + INTRA:          -7.484
REMARK INTER:                  -7.192
REMARK INTRA:                  -0.293
REMARK UNBOUND:                -0.291
REMARK SMILES O=c1c(O)c(-c2ccc(O)cc2)oc2cc(O)cc(O)c12
REMARK SMILES IDX 5 1 3 2 2 3 1 4 21 5 19 6 18 7 16 8 15 9 14 10 13 11 6 12
REMARK SMILES IDX 7 13 8 14 9 15 12 16 11 17 10 18 4 20 20 22 17 24
REMARK H PARENT 10 19 4 21 20 23 17 25
REMARK Flexibility Score: inf
ROOT
ATOM      1  C   UNL     1      17.284  25.118  42.373  1.00  0.00     0.180 A 
ATOM      2  C   UNL     1      16.524  25.480  41.244  1.00  0.00     0.208 A 
ATOM      3  C   UNL     1      16.876  24.952  39.992  1.00  0.00     0.238 A 
ATOM      4  O   UNL     1      16.195  25.261  38.976  1.00  0.00    -0.285 OA
ATOM      5  C   UNL     1      17.987  24.091  39.886  1.00  0.00     0.111 A 
ATOM      6  C   UNL     1      18.409  23.520  38.661  1.00  0.00     0.134 A 
ATOM      7  C   UNL     1      19.532  22.679  38.636  1.00  0.00     0.093 A 
ATOM      8  C   UNL     1      20.239  22.400  39.811  1.00  0.00     0.123 A 
ATOM      9  C   UNL     1      19.826  22.961  41.021  1.00  0.00     0.094 A 
ATOM     10  C   UNL     1      18.709  23.800  41.067  1.00  0.00     0.146 A 
ATOM     11  O   UNL     1      18.335  24.315  42.232  1.00  0.00    -0.452 OA
ENDROOT
BRANCH   1  12
ATOM     12  C   UNL     1      16.965  25.617  43.730  1.00  0.00     0.021 A 
ATOM     13  C   UNL     1      15.996  24.989  44.534  1.00  0.00     0.016 A 
ATOM     14  C   UNL     1      15.730  25.465  45.822  1.00  0.00     0.047 A 
ATOM     15  C   UNL     1      16.435  26.565  46.326  1.00  0.00     0.115 A 
ATOM     16  C   UNL     1      17.682  26.706  44.252  1.00  0.00     0.016 A 
ATOM     17  C   UNL     1      17.413  27.180  45.540  1.00  0.00     0.047 A 
BRANCH  15  18
ATOM     18  O   UNL     1      16.177  27.048  47.607  1.00  0.00    -0.508 OA
ATOM     19  H   UNL     1      15.765  26.459  48.321  1.00  0.00     0.293 HD
ENDBRANCH  15  18
ENDBRANCH   1  12
BRANCH   2  20
ATOM     20  O   UNL     1      15.457  26.374  41.368  1.00  0.00    -0.502 OA
ATOM     21  H   UNL     1      14.502  26.064  41.504  1.00  0.00     0.293 HD
ENDBRANCH   2  20
BRANCH   6  22
ATOM     22  O   UNL     1      17.725  23.779  37.473  1.00  0.00    -0.507 OA
ATOM     23  H   UNL     1      16.747  24.042  37.466  1.00  0.00     0.293 HD
ENDBRANCH   6  22
BRANCH   8  24
ATOM     24  O   UNL     1      21.355  21.566  39.787  1.00  0.00    -0.508 OA
ATOM     25  H   UNL     1      21.326  20.654  39.345  1.00  0.00     0.293 HD
ENDBRANCH   8  24
TORSDOF 5
ENDMDL
MODEL 6
REMARK VINA RESULT:    -5.917      3.248      6.024
REMARK INTER + INTRA:          -7.245
REMARK INTER:                  -6.954
REMARK INTRA:                  -0.291
REMARK UNBOUND:                -0.291
REMARK SMILES O=c1c(O)c(-c2ccc(O)cc2)oc2cc(O)cc(O)c12
REMARK SMILES IDX 5 1 3 2 2 3 1 4 21 5 19 6 18 7 16 8 15 9 14 10 13 11 6 12
REMARK SMILES IDX 7 13 8 14 9 15 12 16 11 17 10 18 4 20 20 22 17 24
REMARK H PARENT 10 19 4 21 20 23 17 25
REMARK Flexibility Score: inf
ROOT
ATOM      1  C   UNL     1      16.931  23.703  43.134  1.00  0.00     0.180 A 
ATOM      2  C   UNL     1      15.580  23.833  42.755  1.00  0.00     0.208 A 
ATOM      3  C   UNL     1      14.715  22.744  42.945  1.00  0.00     0.238 A 
ATOM      4  O   UNL     1      13.501  22.854  42.620  1.00  0.00    -0.285 OA
ATOM      5  C   UNL     1      15.214  21.543  43.487  1.00  0.00     0.111 A 
ATOM      6  C   UNL     1      14.409  20.399  43.706  1.00  0.00     0.134 A 
ATOM      7  C   UNL     1      14.983  19.237  44.242  1.00  0.00     0.093 A 
ATOM      8  C   UNL     1      16.345  19.197  44.563  1.00  0.00     0.123 A 
ATOM      9  C   UNL     1      17.142  20.323  44.348  1.00  0.00     0.094 A 
ATOM     10  C   UNL     1      16.588  21.491  43.817  1.00  0.00     0.146 A 
ATOM     11  O   UNL     1      17.369  22.549  43.628  1.00  0.00    -0.452 OA
ENDROOT
BRANCH   1  12
ATOM     12  C   UNL     1      17.901  24.811  42.984  1.00  0.00     0.021 A 
ATOM     13  C   UNL     1      18.173  25.696  44.043  1.00  0.00     0.016 A 
ATOM     14  C   UNL     1      19.112  26.720  43.885  1.00  0.00     0.047 A 
ATOM     15  C   UNL     1      19.798  26.865  42.672  1.00  0.00     0.115 A 
ATOM     16  C   UNL     1      18.609  24.951  41.779  1.00  0.00     0.016 A 
ATOM     17  C   UNL     1      19.546  25.977  41.624  1.00  0.00     0.047 A 
BRANCH  15  18
ATOM     18  O   UNL     1      20.734  27.883  42.504  1.00  0.00    -0.508 OA
ATOM     19  H   UNL     1      20.836  28.627  43.184  1.00  0.00     0.293 HD
ENDBRANCH  15  18
ENDBRANCH   1  12
BRANCH   2  20
ATOM     20  O   UNL     1      15.122  25.018  42.174  1.00  0.00    -0.502 OA
ATOM     21  H   UNL     1      15.220  25.919  42.627  1.00  0.00     0.293 HD
ENDBRANCH   2  20
BRANCH   6  22
ATOM     22  O   UNL     1      13.048  20.408  43.397  1.00  0.00    -0.507 OA
ATOM     23  H   UNL     1      12.340  20.228  44.099  1.00  0.00     0.293 HD
ENDBRANCH   6  22
BRANCH   8  24
ATOM     24  O   UNL     1      16.915  18.043  45.095  1.00  0.00    -0.508 OA
ATOM     25  H   UNL     1      16.358  17.352  45.583  1.00  0.00     0.293 HD
ENDBRANCH   8  24
TORSDOF 5
ENDMDL
MODEL 7
REMARK VINA RESULT:    -5.899      1.799      3.648
REMARK INTER + INTRA:          -7.224
REMARK INTER:                  -6.995
REMARK INTRA:                  -0.229
REMARK UNBOUND:                -0.291
REMARK SMILES O=c1c(O)c(-c2ccc(O)cc2)oc2cc(O)cc(O)c12
REMARK SMILES IDX 5 1 3 2 2 3 1 4 21 5 19 6 18 7 16 8 15 9 14 10 13 11 6 12
REMARK SMILES IDX 7 13 8 14 9 15 12 16 11 17 10 18 4 20 20 22 17 24
REMARK H PARENT 10 19 4 21 20 23 17 25
REMARK Flexibility Score: inf
ROOT
ATOM      1  C   UNL     1      18.110  25.682  42.701  1.00  0.00     0.180 A 
ATOM      2  C   UNL     1      18.758  26.716  43.405  1.00  0.00     0.208 A 
ATOM      3  C   UNL     1      18.251  27.106  44.655  1.00  0.00     0.238 A 
ATOM      4  O   UNL     1      18.830  28.024  45.298  1.00  0.00    -0.285 OA
ATOM      5  C   UNL     1      17.100  26.476  45.168  1.00  0.00     0.111 A 
ATOM      6  C   UNL     1      16.525  26.814  46.417  1.00  0.00     0.134 A 
ATOM      7  C   UNL     1      15.372  26.145  46.855  1.00  0.00     0.093 A 
ATOM      8  C   UNL     1      14.785  25.147  46.069  1.00  0.00     0.123 A 
ATOM      9  C   UNL     1      15.349  24.811  44.838  1.00  0.00     0.094 A 
ATOM     10  C   UNL     1      16.498  25.465  44.384  1.00  0.00     0.146 A 
ATOM     11  O   UNL     1      17.017  25.120  43.210  1.00  0.00    -0.452 OA
ENDROOT
BRANCH   1  12
ATOM     12  C   UNL     1      18.593  25.200  41.388  1.00  0.00     0.021 A 
ATOM     13  C   UNL     1      19.244  23.959  41.255  1.00  0.00     0.016 A 
ATOM     14  C   UNL     1      19.671  23.515  40.000  1.00  0.00     0.047 A 
ATOM     15  C   UNL     1      19.442  24.298  38.861  1.00  0.00     0.115 A 
ATOM     16  C   UNL     1      18.350  25.968  40.238  1.00  0.00     0.016 A 
ATOM     17  C   UNL     1      18.779  25.522  38.984  1.00  0.00     0.047 A 
BRANCH  15  18
ATOM     18  O   UNL     1      19.864  23.865  37.606  1.00  0.00    -0.508 OA
ATOM     19  H   UNL     1      19.836  24.476  36.798  1.00  0.00     0.293 HD
ENDBRANCH  15  18
ENDBRANCH   1  12
BRANCH   2  20
ATOM     20  O   UNL     1      19.868  27.359  42.851  1.00  0.00    -0.502 OA
ATOM     21  H   UNL     1      20.454  27.988  43.387  1.00  0.00     0.293 HD
ENDBRANCH   2  20
BRANCH   6  22
ATOM     22  O   UNL     1      17.086  27.804  47.223  1.00  0.00    -0.507 OA
ATOM     23  H   UNL     1      18.010  27.704  47.628  1.00  0.00     0.293 HD
ENDBRANCH   6  22
BRANCH   8  24
ATOM     24  O   UNL     1      13.639  24.483  46.504  1.00  0.00    -0.508 OA
ATOM     25  H   UNL     1      12.980  24.081  45.849  1.00  0.00     0.293 HD
ENDBRANCH   8  24
TORSDOF 5
ENDMDL
MODEL 8
REMARK VINA RESULT:    -5.879      1.508      2.016
REMARK INTER + INTRA:          -7.200
REMARK INTER:                  -6.979
REMARK INTRA:                  -0.221
REMARK UNBOUND:                -0.291
REMARK SMILES O=c1c(O)c(-c2ccc(O)cc2)oc2cc(O)cc(O)c12
REMARK SMILES IDX 5 1 3 2 2 3 1 4 21 5 19 6 18 7 16 8 15 9 14 10 13 11 6 12
REMARK SMILES IDX 7 13 8 14 9 15 12 16 11 17 10 18 4 20 20 22 17 24
REMARK H PARENT 10 19 4 21 20 23 17 25
REMARK Flexibility Score: inf
ROOT
ATOM      1  C   UNL     1      18.350  25.198  40.570  1.00  0.00     0.180 A 
ATOM      2  C   UNL     1      17.148  24.665  41.075  1.00  0.00     0.208 A 
ATOM      3  C   UNL     1      16.749  25.008  42.377  1.00  0.00     0.238 A 
ATOM      4  O   UNL     1      15.668  24.545  42.834  1.00  0.00    -0.285 OA
ATOM      5  C   UNL     1      17.563  25.855  43.155  1.00  0.00     0.111 A 
ATOM      6  C   UNL     1      17.234  26.244  44.476  1.00  0.00     0.134 A 
ATOM      7  C   UNL     1      18.102  27.084  45.190  1.00  0.00     0.093 A 
ATOM      8  C   UNL     1      19.290  27.540  44.609  1.00  0.00     0.123 A 
ATOM      9  C   UNL     1      19.618  27.158  43.307  1.00  0.00     0.094 A 
ATOM     10  C   UNL     1      18.766  26.324  42.579  1.00  0.00     0.146 A 
ATOM     11  O   UNL     1      19.100  25.982  41.340  1.00  0.00    -0.452 OA
ENDROOT
BRANCH   1  12
ATOM     12  C   UNL     1      18.830  24.900  39.201  1.00  0.00     0.021 A 
ATOM     13  C   UNL     1      19.372  23.644  38.871  1.00  0.00     0.016 A 
ATOM     14  C   UNL     1      19.795  23.378  37.565  1.00  0.00     0.047 A 
ATOM     15  C   UNL     1      19.672  24.358  36.572  1.00  0.00     0.115 A 
ATOM     16  C   UNL     1      18.690  25.868  38.194  1.00  0.00     0.016 A 
ATOM     17  C   UNL     1      19.116  25.600  36.890  1.00  0.00     0.047 A 
BRANCH  15  18
ATOM     18  O   UNL     1      20.092  24.104  35.268  1.00  0.00    -0.508 OA
ATOM     19  H   UNL     1      20.910  23.539  35.076  1.00  0.00     0.293 HD
ENDBRANCH  15  18
ENDBRANCH   1  12
BRANCH   2  20
ATOM     20  O   UNL     1      16.384  23.788  40.301  1.00  0.00    -0.502 OA
ATOM     21  H   UNL     1      16.336  23.857  39.291  1.00  0.00     0.293 HD
ENDBRANCH   2  20
BRANCH   6  22
ATOM     22  O   UNL     1      16.057  25.806  45.083  1.00  0.00    -0.507 OA
ATOM     23  H   UNL     1      15.146  26.131  44.780  1.00  0.00     0.293 HD
ENDBRANCH   6  22
BRANCH   8  24
ATOM     24  O   UNL     1      20.153  28.374  45.318  1.00  0.00    -0.508 OA
ATOM     25  H   UNL     1      19.803  29.113  45.916  1.00  0.00     0.293 HD
ENDBRANCH   8  24
TORSDOF 5
ENDMDL
MODEL 9
REMARK VINA RESULT:    -5.878      2.249      7.094
REMARK INTER + INTRA:          -7.200
REMARK INTER:                  -7.144
REMARK INTRA:                  -0.055
REMARK UNBOUND:                -0.291
REMARK SMILES O=c1c(O)c(-c2ccc(O)cc2)oc2cc(O)cc(O)c12
REMARK SMILES IDX 5 1 3 2 2 3 1 4 21 5 19 6 18 7 16 8 15 9 14 10 13 11 6 12
REMARK SMILES IDX 7 13 8 14 9 15 12 16 11 17 10 18 4 20 20 22 17 24
REMARK H PARENT 10 19 4 21 20 23 17 25
REMARK Flexibility Score: inf
ROOT
ATOM      1  C   UNL     1      17.658  25.998  44.472  1.00  0.00     0.180 A 
ATOM      2  C   UNL     1      18.875  26.668  44.241  1.00  0.00     0.208 A 
ATOM      3  C   UNL     1      19.442  26.621  42.957  1.00  0.00     0.238 A 
ATOM      4  O   UNL     1      20.526  27.227  42.737  1.00  0.00    -0.285 OA
ATOM      5  C   UNL     1      18.799  25.891  41.938  1.00  0.00     0.111 A 
ATOM      6  C   UNL     1      19.307  25.791  40.620  1.00  0.00     0.134 A 
ATOM      7  C   UNL     1      18.611  25.037  39.662  1.00  0.00     0.093 A 
ATOM      8  C   UNL     1      17.420  24.384  39.998  1.00  0.00     0.123 A 
ATOM      9  C   UNL     1      16.916  24.480  41.296  1.00  0.00     0.094 A 
ATOM     10  C   UNL     1      17.593  25.228  42.264  1.00  0.00     0.146 A 
ATOM     11  O   UNL     1      17.088  25.307  43.490  1.00  0.00    -0.452 OA
ENDROOT
BRANCH   1  12
ATOM     12  C   UNL     1      16.988  26.017  45.792  1.00  0.00     0.021 A 
ATOM     13  C   UNL     1      16.665  27.227  46.434  1.00  0.00     0.016 A 
ATOM     14  C   UNL     1      16.010  27.220  47.669  1.00  0.00     0.047 A 
ATOM     15  C   UNL     1      15.658  26.005  48.272  1.00  0.00     0.115 A 
ATOM     16  C   UNL     1      16.613  24.805  46.394  1.00  0.00     0.016 A 
ATOM     17  C   UNL     1      15.959  24.801  47.630  1.00  0.00     0.047 A 
BRANCH  15  18
ATOM     18  O   UNL     1      15.007  25.986  49.503  1.00  0.00    -0.508 OA
ATOM     19  H   UNL     1      14.466  25.184  49.803  1.00  0.00     0.293 HD
ENDBRANCH  15  18
ENDBRANCH   1  12
BRANCH   2  20
ATOM     20  O   UNL     1      19.518  27.343  45.281  1.00  0.00    -0.502 OA
ATOM     21  H   UNL     1      19.232  27.248  46.249  1.00  0.00     0.293 HD
ENDBRANCH   2  20
BRANCH   6  22
ATOM     22  O   UNL     1      20.491  26.431  40.255  1.00  0.00    -0.507 OA
ATOM     23  H   UNL     1      21.298  25.914  39.926  1.00  0.00     0.293 HD
ENDBRANCH   6  22
BRANCH   8  24
ATOM     24  O   UNL     1      16.729  23.634  39.047  1.00  0.00    -0.508 OA
ATOM     25  H   UNL     1      16.770  23.862  38.061  1.00  0.00     0.293 HD
ENDBRANCH   8  24
TORSDOF 5
ENDMDL
