MODEL 1
REMARK VINA RESULT:    -3.787      0.000      0.000
REMARK INTER + INTRA:          -4.008
REMARK INTER:                  -4.008
REMARK INTRA:                   0.000
REMARK UNBOUND:                 0.000
REMARK SMILES O=c1ccc2cc(O)c(O)cc2o1
REMARK SMILES IDX 4 1 3 2 2 3 1 4 13 5 12 6 11 7 9 8 7 9 6 10 5 11 8 12 10 14
REMARK H PARENT 8 13 10 15
REMARK Flexibility Score: inf
ROOT
ATOM      1  C   UNL     1      -2.298   3.007  -1.458  1.00  0.00     0.019 A 
ATOM      2  C   UNL     1      -0.911   2.883  -1.392  1.00  0.00     0.094 A 
ATOM      3  C   UNL     1      -0.253   2.113  -2.358  1.00  0.00     0.336 A 
ATOM      4  O   UNL     1       0.999   1.987  -2.316  1.00  0.00    -0.246 OA
ATOM      5  O   UNL     1      -0.943   1.509  -3.322  1.00  0.00    -0.423 OA
ATOM      6  C   UNL     1      -2.267   1.602  -3.421  1.00  0.00     0.142 A 
ATOM      7  C   UNL     1      -2.939   0.946  -4.458  1.00  0.00     0.098 A 
ATOM      8  C   UNL     1      -4.335   1.041  -4.566  1.00  0.00     0.161 A 
ATOM      9  C   UNL     1      -5.060   1.796  -3.633  1.00  0.00     0.158 A 
ATOM     10  C   UNL     1      -4.392   2.457  -2.592  1.00  0.00     0.062 A 
ATOM     11  C   UNL     1      -2.998   2.363  -2.483  1.00  0.00     0.022 A 
ENDROOT
BRANCH   9  12
ATOM     12  O   UNL     1      -6.447   1.885  -3.749  1.00  0.00    -0.504 OA
ATOM     13  H   UNL     1      -7.022   2.220  -2.986  1.00  0.00     0.293 HD
ENDBRANCH   9  12
BRANCH   8  14
ATOM     14  O   UNL     1      -5.006   0.388  -5.597  1.00  0.00    -0.504 OA
ATOM     15  H   UNL     1      -5.692   0.867  -6.171  1.00  0.00     0.293 HD
ENDBRANCH   8  14
TORSDOF 2
ENDMDL
MODEL 2
REMARK VINA RESULT:    -3.771      1.758      2.695
REMARK INTER + INTRA:          -3.992
REMARK INTER:                  -3.992
REMARK INTRA:                   0.000
REMARK UNBOUND:                 0.000
REMARK SMILES O=c1ccc2cc(O)c(O)cc2o1
REMARK SMILES IDX 4 1 3 2 2 3 1 4 13 5 12 6 11 7 9 8 7 9 6 10 5 11 8 12 10 14
REMARK H PARENT 8 13 10 15
REMARK Flexibility Score: inf
ROOT
ATOM      1  C   UNL     1      -1.327   1.532  -2.141  1.00  0.00     0.019 A 
ATOM      2  C   UNL     1      -0.232   2.180  -1.570  1.00  0.00     0.094 A 
ATOM      3  C   UNL     1      -0.393   3.482  -1.084  1.00  0.00     0.336 A 
ATOM      4  O   UNL     1       0.583   4.085  -0.565  1.00  0.00    -0.246 OA
ATOM      5  O   UNL     1      -1.574   4.091  -1.167  1.00  0.00    -0.423 OA
ATOM      6  C   UNL     1      -2.643   3.508  -1.703  1.00  0.00     0.142 A 
ATOM      7  C   UNL     1      -3.859   4.198  -1.763  1.00  0.00     0.098 A 
ATOM      8  C   UNL     1      -4.990   3.588  -2.328  1.00  0.00     0.161 A 
ATOM      9  C   UNL     1      -4.902   2.284  -2.836  1.00  0.00     0.158 A 
ATOM     10  C   UNL     1      -3.686   1.588  -2.779  1.00  0.00     0.062 A 
ATOM     11  C   UNL     1      -2.557   2.195  -2.214  1.00  0.00     0.022 A 
ENDROOT
BRANCH   9  12
ATOM     12  O   UNL     1      -6.031   1.686  -3.396  1.00  0.00    -0.504 OA
ATOM     13  H   UNL     1      -6.853   1.482  -2.841  1.00  0.00     0.293 HD
ENDBRANCH   9  12
BRANCH   8  14
ATOM     14  O   UNL     1      -6.202   4.272  -2.388  1.00  0.00    -0.504 OA
ATOM     15  H   UNL     1      -6.239   5.273  -2.549  1.00  0.00     0.293 HD
ENDBRANCH   8  14
TORSDOF 2
ENDMDL
MODEL 3
REMARK VINA RESULT:    -3.769      1.410      1.925
REMARK INTER + INTRA:          -3.989
REMARK INTER:                  -3.989
REMARK INTRA:                   0.000
REMARK UNBOUND:                 0.000
REMARK SMILES O=c1ccc2cc(O)c(O)cc2o1
REMARK SMILES IDX 4 1 3 2 2 3 1 4 13 5 12 6 11 7 9 8 7 9 6 10 5 11 8 12 10 14
REMARK H PARENT 8 13 10 15
REMARK Flexibility Score: inf
ROOT
ATOM      1  C   UNL     1      -1.227   4.362  -1.519  1.00  0.00     0.019 A 
ATOM      2  C   UNL     1      -0.009   3.697  -1.656  1.00  0.00     0.094 A 
ATOM      3  C   UNL     1      -0.004   2.386  -2.145  1.00  0.00     0.336 A 
ATOM      4  O   UNL     1       1.085   1.767  -2.275  1.00  0.00    -0.246 OA
ATOM      5  O   UNL     1      -1.146   1.786  -2.474  1.00  0.00    -0.423 OA
ATOM      6  C   UNL     1      -2.328   2.385  -2.360  1.00  0.00     0.142 A 
ATOM      7  C   UNL     1      -3.495   1.704  -2.722  1.00  0.00     0.098 A 
ATOM      8  C   UNL     1      -4.745   2.331  -2.603  1.00  0.00     0.161 A 
ATOM      9  C   UNL     1      -4.826   3.645  -2.119  1.00  0.00     0.158 A 
ATOM     10  C   UNL     1      -3.659   4.333  -1.755  1.00  0.00     0.062 A 
ATOM     11  C   UNL     1      -2.411   3.708  -1.874  1.00  0.00     0.022 A 
ENDROOT
BRANCH   9  12
ATOM     12  O   UNL     1      -6.072   4.261  -2.004  1.00  0.00    -0.504 OA
ATOM     13  H   UNL     1      -6.594   4.557  -2.820  1.00  0.00     0.293 HD
ENDBRANCH   9  12
BRANCH   8  14
ATOM     14  O   UNL     1      -5.908   1.655  -2.963  1.00  0.00    -0.504 OA
ATOM     15  H   UNL     1      -6.827   2.035  -2.762  1.00  0.00     0.293 HD
ENDBRANCH   8  14
TORSDOF 2
ENDMDL
MODEL 4
REMARK VINA RESULT:    -3.742      1.396      2.093
REMARK INTER + INTRA:          -3.961
REMARK INTER:                  -3.961
REMARK INTRA:                   0.000
REMARK UNBOUND:                 0.000
REMARK SMILES O=c1ccc2cc(O)c(O)cc2o1
REMARK SMILES IDX 4 1 3 2 2 3 1 4 13 5 12 6 11 7 9 8 7 9 6 10 5 11 8 12 10 14
REMARK H PARENT 8 13 10 15
REMARK Flexibility Score: inf
ROOT
ATOM      1  C   UNL     1      -1.722   2.874  -4.853  1.00  0.00     0.019 A 
ATOM      2  C   UNL     1      -0.448   2.659  -4.330  1.00  0.00     0.094 A 
ATOM      3  C   UNL     1      -0.322   2.017  -3.093  1.00  0.00     0.336 A 
ATOM      4  O   UNL     1       0.819   1.814  -2.603  1.00  0.00    -0.246 OA
ATOM      5  O   UNL     1      -1.405   1.619  -2.428  1.00  0.00    -0.423 OA
ATOM      6  C   UNL     1      -2.638   1.804  -2.892  1.00  0.00     0.142 A 
ATOM      7  C   UNL     1      -3.738   1.364  -2.149  1.00  0.00     0.098 A 
ATOM      8  C   UNL     1      -5.041   1.558  -2.633  1.00  0.00     0.161 A 
ATOM      9  C   UNL     1      -5.243   2.194  -3.867  1.00  0.00     0.158 A 
ATOM     10  C   UNL     1      -4.143   2.637  -4.616  1.00  0.00     0.062 A 
ATOM     11  C   UNL     1      -2.842   2.444  -4.133  1.00  0.00     0.022 A 
ENDROOT
BRANCH   9  12
ATOM     12  O   UNL     1      -6.540   2.382  -4.340  1.00  0.00    -0.504 OA
ATOM     13  H   UNL     1      -7.283   2.709  -3.735  1.00  0.00     0.293 HD
ENDBRANCH   9  12
BRANCH   8  14
ATOM     14  O   UNL     1      -6.138   1.120  -1.895  1.00  0.00    -0.504 OA
ATOM     15  H   UNL     1      -6.339   1.491  -0.973  1.00  0.00     0.293 HD
ENDBRANCH   8  14
TORSDOF 2
ENDMDL
MODEL 5
REMARK VINA RESULT:    -3.702      2.241      4.530
REMARK INTER + INTRA:          -3.918
REMARK INTER:                  -3.918
REMARK INTRA:                   0.000
REMARK UNBOUND:                 0.000
REMARK SMILES O=c1ccc2cc(O)c(O)cc2o1
REMARK SMILES IDX 4 1 3 2 2 3 1 4 13 5 12 6 11 7 9 8 7 9 6 10 5 11 8 12 10 14
REMARK H PARENT 8 13 10 15
REMARK Flexibility Score: inf
ROOT
ATOM      1  C   UNL     1      -4.606   0.811  -5.002  1.00  0.00     0.019 A 
ATOM      2  C   UNL     1      -4.811   1.716  -6.042  1.00  0.00     0.094 A 
ATOM      3  C   UNL     1      -4.212   2.978  -5.970  1.00  0.00     0.336 A 
ATOM      4  O   UNL     1      -4.385   3.811  -6.898  1.00  0.00    -0.246 OA
ATOM      5  O   UNL     1      -3.459   3.307  -4.922  1.00  0.00    -0.423 OA
ATOM      6  C   UNL     1      -3.238   2.473  -3.910  1.00  0.00     0.142 A 
ATOM      7  C   UNL     1      -2.436   2.874  -2.836  1.00  0.00     0.098 A 
ATOM      8  C   UNL     1      -2.201   1.999  -1.765  1.00  0.00     0.161 A 
ATOM      9  C   UNL     1      -2.769   0.716  -1.769  1.00  0.00     0.158 A 
ATOM     10  C   UNL     1      -3.573   0.309  -2.844  1.00  0.00     0.062 A 
ATOM     11  C   UNL     1      -3.809   1.182  -3.914  1.00  0.00     0.022 A 
ENDROOT
BRANCH   9  12
ATOM     12  O   UNL     1      -2.530  -0.147  -0.701  1.00  0.00    -0.504 OA
ATOM     13  H   UNL     1      -1.589  -0.361  -0.394  1.00  0.00     0.293 HD
ENDBRANCH   9  12
BRANCH   8  14
ATOM     14  O   UNL     1      -1.403   2.395  -0.694  1.00  0.00    -0.504 OA
ATOM     15  H   UNL     1      -1.720   2.308   0.265  1.00  0.00     0.293 HD
ENDBRANCH   8  14
TORSDOF 2
ENDMDL
MODEL 6
REMARK VINA RESULT:    -3.688      1.933      4.498
REMARK INTER + INTRA:          -3.904
REMARK INTER:                  -3.904
REMARK INTRA:                   0.000
REMARK UNBOUND:                 0.000
REMARK SMILES O=c1ccc2cc(O)c(O)cc2o1
REMARK SMILES IDX 4 1 3 2 2 3 1 4 13 5 12 6 11 7 9 8 7 9 6 10 5 11 8 12 10 14
REMARK H PARENT 8 13 10 15
REMARK Flexibility Score: inf
ROOT
ATOM      1  C   UNL     1      -3.529   3.271  -5.126  1.00  0.00     0.019 A 
ATOM      2  C   UNL     1      -4.301   2.813  -6.192  1.00  0.00     0.094 A 
ATOM      3  C   UNL     1      -4.823   1.516  -6.143  1.00  0.00     0.336 A 
ATOM      4  O   UNL     1      -5.523   1.083  -7.096  1.00  0.00    -0.246 OA
ATOM      5  O   UNL     1      -4.584   0.733  -5.093  1.00  0.00    -0.423 OA
ATOM      6  C   UNL     1      -3.853   1.131  -4.055  1.00  0.00     0.142 A 
ATOM      7  C   UNL     1      -3.636   0.265  -2.979  1.00  0.00     0.098 A 
ATOM      8  C   UNL     1      -2.865   0.680  -1.882  1.00  0.00     0.161 A 
ATOM      9  C   UNL     1      -2.310   1.968  -1.863  1.00  0.00     0.158 A 
ATOM     10  C   UNL     1      -2.525   2.841  -2.939  1.00  0.00     0.062 A 
ATOM     11  C   UNL     1      -3.294   2.428  -4.035  1.00  0.00     0.022 A 
ENDROOT
BRANCH   9  12
ATOM     12  O   UNL     1      -1.546   2.372  -0.769  1.00  0.00    -0.504 OA
ATOM     13  H   UNL     1      -0.960   1.720  -0.262  1.00  0.00     0.293 HD
ENDBRANCH   9  12
BRANCH   8  14
ATOM     14  O   UNL     1      -2.648  -0.182  -0.809  1.00  0.00    -0.504 OA
ATOM     15  H   UNL     1      -2.258  -1.108  -0.943  1.00  0.00     0.293 HD
ENDBRANCH   8  14
TORSDOF 2
ENDMDL
MODEL 7
REMARK VINA RESULT:    -3.616      2.448      4.031
REMARK INTER + INTRA:          -3.827
REMARK INTER:                  -3.827
REMARK INTRA:                   0.000
REMARK UNBOUND:                 0.000
REMARK SMILES O=c1ccc2cc(O)c(O)cc2o1
REMARK SMILES IDX 4 1 3 2 2 3 1 4 13 5 12 6 11 7 9 8 7 9 6 10 5 11 8 12 10 14
REMARK H PARENT 8 13 10 15
REMARK Flexibility Score: inf
ROOT
ATOM      1  C   UNL     1       0.335   3.574  -0.722  1.00  0.00     0.019 A 
ATOM      2  C   UNL     1      -0.526   4.203   0.177  1.00  0.00     0.094 A 
ATOM      3  C   UNL     1      -1.898   4.216  -0.096  1.00  0.00     0.336 A 
ATOM      4  O   UNL     1      -2.692   4.779   0.702  1.00  0.00    -0.246 OA
ATOM      5  O   UNL     1      -2.371   3.637  -1.197  1.00  0.00    -0.423 OA
ATOM      6  C   UNL     1      -1.585   3.026  -2.079  1.00  0.00     0.142 A 
ATOM      7  C   UNL     1      -2.140   2.434  -3.218  1.00  0.00     0.098 A 
ATOM      8  C   UNL     1      -1.314   1.789  -4.152  1.00  0.00     0.161 A 
ATOM      9  C   UNL     1       0.072   1.736  -3.944  1.00  0.00     0.158 A 
ATOM     10  C   UNL     1       0.634   2.328  -2.803  1.00  0.00     0.062 A 
ATOM     11  C   UNL     1      -0.190   2.972  -1.870  1.00  0.00     0.022 A 
ENDROOT
BRANCH   9  12
ATOM     12  O   UNL     1       0.885   1.093  -4.877  1.00  0.00    -0.504 OA
ATOM     13  H   UNL     1       1.382   0.241  -4.648  1.00  0.00     0.293 HD
ENDBRANCH   9  12
BRANCH   8  14
ATOM     14  O   UNL     1      -1.864   1.198  -5.288  1.00  0.00    -0.504 OA
ATOM     15  H   UNL     1      -2.123   0.218  -5.303  1.00  0.00     0.293 HD
ENDBRANCH   8  14
TORSDOF 2
ENDMDL
MODEL 8
REMARK VINA RESULT:    -3.594      2.290      3.221
REMARK INTER + INTRA:          -3.804
REMARK INTER:                  -3.804
REMARK INTRA:                   0.000
REMARK UNBOUND:                 0.000
REMARK SMILES O=c1ccc2cc(O)c(O)cc2o1
REMARK SMILES IDX 4 1 3 2 2 3 1 4 13 5 12 6 11 7 9 8 7 9 6 10 5 11 8 12 10 14
REMARK H PARENT 8 13 10 15
REMARK Flexibility Score: inf
ROOT
ATOM      1  C   UNL     1       0.917   2.899  -2.146  1.00  0.00     0.019 A 
ATOM      2  C   UNL     1       1.356   3.924  -2.984  1.00  0.00     0.094 A 
ATOM      3  C   UNL     1       0.473   4.446  -3.935  1.00  0.00     0.336 A 
ATOM      4  O   UNL     1       0.850   5.371  -4.701  1.00  0.00    -0.246 OA
ATOM      5  O   UNL     1      -0.766   3.969  -4.038  1.00  0.00    -0.423 OA
ATOM      6  C   UNL     1      -1.224   2.993  -3.258  1.00  0.00     0.142 A 
ATOM      7  C   UNL     1      -2.536   2.533  -3.411  1.00  0.00     0.098 A 
ATOM      8  C   UNL     1      -3.023   1.503  -2.592  1.00  0.00     0.161 A 
ATOM      9  C   UNL     1      -2.194   0.932  -1.616  1.00  0.00     0.158 A 
ATOM     10  C   UNL     1      -0.877   1.389  -1.458  1.00  0.00     0.062 A 
ATOM     11  C   UNL     1      -0.390   2.418  -2.275  1.00  0.00     0.022 A 
ENDROOT
BRANCH   9  12
ATOM     12  O   UNL     1      -2.687  -0.091  -0.806  1.00  0.00    -0.504 OA
ATOM     13  H   UNL     1      -3.245  -0.845  -1.186  1.00  0.00     0.293 HD
ENDBRANCH   9  12
BRANCH   8  14
ATOM     14  O   UNL     1      -4.329   1.043  -2.743  1.00  0.00    -0.504 OA
ATOM     15  H   UNL     1      -5.083   1.383  -2.156  1.00  0.00     0.293 HD
ENDBRANCH   8  14
TORSDOF 2
ENDMDL
MODEL 9
REMARK VINA RESULT:    -3.572      1.988      2.418
REMARK INTER + INTRA:          -3.781
REMARK INTER:                  -3.781
REMARK INTRA:                   0.000
REMARK UNBOUND:                 0.000
REMARK SMILES O=c1ccc2cc(O)c(O)cc2o1
REMARK SMILES IDX 4 1 3 2 2 3 1 4 13 5 12 6 11 7 9 8 7 9 6 10 5 11 8 12 10 14
REMARK H PARENT 8 13 10 15
REMARK Flexibility Score: inf
ROOT
ATOM      1  C   UNL     1      -2.764   5.147  -1.399  1.00  0.00     0.019 A 
ATOM      2  C   UNL     1      -1.510   5.516  -0.912  1.00  0.00     0.094 A 
ATOM      3  C   UNL     1      -0.521   4.536  -0.778  1.00  0.00     0.336 A 
ATOM      4  O   UNL     1       0.618   4.848  -0.339  1.00  0.00    -0.246 OA
ATOM      5  O   UNL     1      -0.775   3.272  -1.109  1.00  0.00    -0.423 OA
ATOM      6  C   UNL     1      -1.957   2.879  -1.578  1.00  0.00     0.142 A 
ATOM      7  C   UNL     1      -2.165   1.536  -1.910  1.00  0.00     0.098 A 
ATOM      8  C   UNL     1      -3.410   1.117  -2.404  1.00  0.00     0.161 A 
ATOM      9  C   UNL     1      -4.450   2.044  -2.565  1.00  0.00     0.158 A 
ATOM     10  C   UNL     1      -4.246   3.392  -2.234  1.00  0.00     0.062 A 
ATOM     11  C   UNL     1      -3.003   3.812  -1.741  1.00  0.00     0.022 A 
ENDROOT
BRANCH   9  12
ATOM     12  O   UNL     1      -5.683   1.619  -3.057  1.00  0.00    -0.504 OA
ATOM     13  H   UNL     1      -5.754   0.859  -3.723  1.00  0.00     0.293 HD
ENDBRANCH   9  12
BRANCH   8  14
ATOM     14  O   UNL     1      -3.621  -0.220  -2.736  1.00  0.00    -0.504 OA
ATOM     15  H   UNL     1      -2.940  -0.748  -3.271  1.00  0.00     0.293 HD
ENDBRANCH   8  14
TORSDOF 2
ENDMDL
