MODEL 1
REMARK VINA RESULT:    -6.320      0.000      0.000
REMARK INTER + INTRA:          -7.806
REMARK INTER:                  -7.614
REMARK INTRA:                  -0.193
REMARK UNBOUND:                -0.193
REMARK SMILES O=c1c(O)c(-c2ccc(O)c(O)c2)oc2cc(O)cc(O)c12
REMARK SMILES IDX 5 1 3 2 2 3 1 4 22 5 20 6 19 7 17 8 16 9 15 10 14 11 6 12
REMARK SMILES IDX 7 13 8 14 9 15 13 16 11 17 10 18 12 20 4 22 21 24 18 26
REMARK H PARENT 10 19 12 21 4 23 21 25 18 27
REMARK Flexibility Score: inf
ROOT
ATOM      1  C   UNL     1      14.816  18.092  14.129  1.00  0.00     0.180 A 
ATOM      2  C   UNL     1      14.993  16.870  13.457  1.00  0.00     0.208 A 
ATOM      3  C   UNL     1      14.237  15.757  13.857  1.00  0.00     0.238 A 
ATOM      4  O   UNL     1      14.439  14.653  13.288  1.00  0.00    -0.285 OA
ATOM      5  C   UNL     1      13.302  15.883  14.913  1.00  0.00     0.111 A 
ATOM      6  C   UNL     1      12.455  14.832  15.375  1.00  0.00     0.134 A 
ATOM      7  C   UNL     1      11.661  15.033  16.512  1.00  0.00     0.093 A 
ATOM      8  C   UNL     1      11.637  16.265  17.164  1.00  0.00     0.123 A 
ATOM      9  C   UNL     1      12.417  17.319  16.685  1.00  0.00     0.094 A 
ATOM     10  C   UNL     1      13.246  17.138  15.575  1.00  0.00     0.146 A 
ATOM     11  O   UNL     1      13.979  18.162  15.158  1.00  0.00    -0.452 OA
ENDROOT
BRANCH   1  12
ATOM     12  C   UNL     1      15.558  19.316  13.748  1.00  0.00     0.025 A 
ATOM     13  C   UNL     1      16.549  19.861  14.584  1.00  0.00     0.016 A 
ATOM     14  C   UNL     1      17.253  21.002  14.193  1.00  0.00     0.051 A 
ATOM     15  C   UNL     1      16.990  21.606  12.957  1.00  0.00     0.157 A 
ATOM     16  C   UNL     1      15.313  19.914  12.501  1.00  0.00     0.062 A 
ATOM     17  C   UNL     1      16.020  21.060  12.108  1.00  0.00     0.158 A 
BRANCH  15  18
ATOM     18  O   UNL     1      17.690  22.745  12.565  1.00  0.00    -0.504 OA
ATOM     19  H   UNL     1      18.238  23.285  13.224  1.00  0.00     0.293 HD
ENDBRANCH  15  18
BRANCH  17  20
ATOM     20  O   UNL     1      15.764  21.658  10.875  1.00  0.00    -0.504 OA
ATOM     21  H   UNL     1      15.660  21.108  10.031  1.00  0.00     0.293 HD
ENDBRANCH  17  20
ENDBRANCH   1  12
BRANCH   2  22
ATOM     22  O   UNL     1      15.937  16.762  12.432  1.00  0.00    -0.502 OA
ATOM     23  H   UNL     1      15.675  16.628  11.462  1.00  0.00     0.293 HD
ENDBRANCH   2  22
BRANCH   6  24
ATOM     24  O   UNL     1      12.334  13.591  14.741  1.00  0.00    -0.507 OA
ATOM     25  H   UNL     1      12.580  12.707  15.159  1.00  0.00     0.293 HD
ENDBRANCH   6  24
BRANCH   8  26
ATOM     26  O   UNL     1      10.824  16.434  18.282  1.00  0.00    -0.508 OA
ATOM     27  H   UNL     1      11.217  16.572  19.207  1.00  0.00     0.293 HD
ENDBRANCH   8  26
TORSDOF 6
ENDMDL
MODEL 2
REMARK VINA RESULT:    -6.095      3.744      5.745
REMARK INTER + INTRA:          -7.535
REMARK INTER:                  -7.365
REMARK INTRA:                  -0.169
REMARK UNBOUND:                -0.193
REMARK SMILES O=c1c(O)c(-c2ccc(O)c(O)c2)oc2cc(O)cc(O)c12
REMARK SMILES IDX 5 1 3 2 2 3 1 4 22 5 20 6 19 7 17 8 16 9 15 10 14 11 6 12
REMARK SMILES IDX 7 13 8 14 9 15 13 16 11 17 10 18 12 20 4 22 21 24 18 26
REMARK H PARENT 10 19 12 21 4 23 21 25 18 27
REMARK Flexibility Score: inf
ROOT
ATOM      1  C   UNL     1      16.739  14.974  13.094  1.00  0.00     0.180 A 
ATOM      2  C   UNL     1      16.377  16.210  12.531  1.00  0.00     0.208 A 
ATOM      3  C   UNL     1      15.165  16.804  12.917  1.00  0.00     0.238 A 
ATOM      4  O   UNL     1      14.820  17.884  12.370  1.00  0.00    -0.285 OA
ATOM      5  C   UNL     1      14.338  16.163  13.872  1.00  0.00     0.111 A 
ATOM      6  C   UNL     1      13.109  16.694  14.365  1.00  0.00     0.134 A 
ATOM      7  C   UNL     1      12.310  15.913  15.210  1.00  0.00     0.093 A 
ATOM      8  C   UNL     1      12.725  14.650  15.631  1.00  0.00     0.123 A 
ATOM      9  C   UNL     1      13.954  14.146  15.201  1.00  0.00     0.094 A 
ATOM     10  C   UNL     1      14.756  14.886  14.329  1.00  0.00     0.146 A 
ATOM     11  O   UNL     1      15.913  14.366  13.937  1.00  0.00    -0.452 OA
ENDROOT
BRANCH   1  12
ATOM     12  C   UNL     1      18.013  14.297  12.755  1.00  0.00     0.025 A 
ATOM     13  C   UNL     1      19.256  14.890  13.042  1.00  0.00     0.016 A 
ATOM     14  C   UNL     1      20.444  14.223  12.735  1.00  0.00     0.051 A 
ATOM     15  C   UNL     1      20.409  12.950  12.152  1.00  0.00     0.157 A 
ATOM     16  C   UNL     1      17.984  13.012  12.189  1.00  0.00     0.062 A 
ATOM     17  C   UNL     1      19.177  12.342  11.880  1.00  0.00     0.158 A 
BRANCH  15  18
ATOM     18  O   UNL     1      21.593  12.282  11.844  1.00  0.00    -0.504 OA
ATOM     19  H   UNL     1      22.259  12.024  12.561  1.00  0.00     0.293 HD
ENDBRANCH  15  18
BRANCH  17  20
ATOM     20  O   UNL     1      19.145  11.072  11.307  1.00  0.00    -0.504 OA
ATOM     21  H   UNL     1      19.728  10.320  11.652  1.00  0.00     0.293 HD
ENDBRANCH  17  20
ENDBRANCH   1  12
BRANCH   2  22
ATOM     22  O   UNL     1      17.197  16.814  11.574  1.00  0.00    -0.502 OA
ATOM     23  H   UNL     1      17.776  17.618  11.783  1.00  0.00     0.293 HD
ENDBRANCH   2  22
BRANCH   6  24
ATOM     24  O   UNL     1      12.645  17.982  14.081  1.00  0.00    -0.507 OA
ATOM     25  H   UNL     1      11.685  18.214  13.877  1.00  0.00     0.293 HD
ENDBRANCH   6  24
BRANCH   8  26
ATOM     26  O   UNL     1      11.912  13.908  16.483  1.00  0.00    -0.508 OA
ATOM     27  H   UNL     1      11.681  12.941  16.287  1.00  0.00     0.293 HD
ENDBRANCH   8  26
TORSDOF 6
ENDMDL
MODEL 3
REMARK VINA RESULT:    -5.831      4.107      6.258
REMARK INTER + INTRA:          -7.217
REMARK INTER:                  -7.075
REMARK INTRA:                  -0.142
REMARK UNBOUND:                -0.193
REMARK SMILES O=c1c(O)c(-c2ccc(O)c(O)c2)oc2cc(O)cc(O)c12
REMARK SMILES IDX 5 1 3 2 2 3 1 4 22 5 20 6 19 7 17 8 16 9 15 10 14 11 6 12
REMARK SMILES IDX 7 13 8 14 9 15 13 16 11 17 10 18 12 20 4 22 21 24 18 26
REMARK H PARENT 10 19 12 21 4 23 21 25 18 27
REMARK Flexibility Score: inf
ROOT
ATOM      1  C   UNL     1      17.033  14.639  13.326  1.00  0.00     0.180 A 
ATOM      2  C   UNL     1      16.409  14.104  14.466  1.00  0.00     0.208 A 
ATOM      3  C   UNL     1      15.245  14.719  14.956  1.00  0.00     0.238 A 
ATOM      4  O   UNL     1      14.720  14.269  16.008  1.00  0.00    -0.285 OA
ATOM      5  C   UNL     1      14.712  15.849  14.290  1.00  0.00     0.111 A 
ATOM      6  C   UNL     1      13.516  16.526  14.675  1.00  0.00     0.134 A 
ATOM      7  C   UNL     1      13.153  17.712  14.022  1.00  0.00     0.093 A 
ATOM      8  C   UNL     1      13.906  18.208  12.959  1.00  0.00     0.123 A 
ATOM      9  C   UNL     1      15.045  17.521  12.536  1.00  0.00     0.094 A 
ATOM     10  C   UNL     1      15.452  16.356  13.190  1.00  0.00     0.146 A 
ATOM     11  O   UNL     1      16.547  15.738  12.763  1.00  0.00    -0.452 OA
ENDROOT
BRANCH   1  12
ATOM     12  C   UNL     1      18.249  14.032  12.736  1.00  0.00     0.025 A 
ATOM     13  C   UNL     1      19.477  14.718  12.723  1.00  0.00     0.016 A 
ATOM     14  C   UNL     1      20.616  14.116  12.183  1.00  0.00     0.051 A 
ATOM     15  C   UNL     1      20.550  12.817  11.663  1.00  0.00     0.157 A 
ATOM     16  C   UNL     1      18.194  12.722  12.233  1.00  0.00     0.062 A 
ATOM     17  C   UNL     1      19.337  12.117  11.690  1.00  0.00     0.158 A 
BRANCH  15  18
ATOM     18  O   UNL     1      21.684  12.214  11.123  1.00  0.00    -0.504 OA
ATOM     19  H   UNL     1      22.442  11.886  11.711  1.00  0.00     0.293 HD
ENDBRANCH  15  18
BRANCH  17  20
ATOM     20  O   UNL     1      19.275  10.822  11.180  1.00  0.00    -0.504 OA
ATOM     21  H   UNL     1      19.149  10.019  11.785  1.00  0.00     0.293 HD
ENDBRANCH  17  20
ENDBRANCH   1  12
BRANCH   2  22
ATOM     22  O   UNL     1      16.965  13.002  15.121  1.00  0.00    -0.502 OA
ATOM     23  H   UNL     1      16.859  12.850  16.117  1.00  0.00     0.293 HD
ENDBRANCH   2  22
BRANCH   6  24
ATOM     24  O   UNL     1      12.642  16.066  15.664  1.00  0.00    -0.507 OA
ATOM     25  H   UNL     1      12.032  15.268  15.566  1.00  0.00     0.293 HD
ENDBRANCH   6  24
BRANCH   8  26
ATOM     26  O   UNL     1      13.507  19.381  12.324  1.00  0.00    -0.508 OA
ATOM     27  H   UNL     1      12.629  19.835  12.553  1.00  0.00     0.293 HD
ENDBRANCH   8  26
TORSDOF 6
ENDMDL
MODEL 4
REMARK VINA RESULT:    -5.815      1.758      1.869
REMARK INTER + INTRA:          -7.197
REMARK INTER:                  -6.994
REMARK INTRA:                  -0.203
REMARK UNBOUND:                -0.193
REMARK SMILES O=c1c(O)c(-c2ccc(O)c(O)c2)oc2cc(O)cc(O)c12
REMARK SMILES IDX 5 1 3 2 2 3 1 4 22 5 20 6 19 7 17 8 16 9 15 10 14 11 6 12
REMARK SMILES IDX 7 13 8 14 9 15 13 16 11 17 10 18 12 20 4 22 21 24 18 26
REMARK H PARENT 10 19 12 21 4 23 21 25 18 27
REMARK Flexibility Score: inf
ROOT
ATOM      1  C   UNL     1      15.965  17.756  14.454  1.00  0.00     0.180 A 
ATOM      2  C   UNL     1      16.937  16.742  14.522  1.00  0.00     0.208 A 
ATOM      3  C   UNL     1      16.559  15.465  14.967  1.00  0.00     0.238 A 
ATOM      4  O   UNL     1      17.443  14.576  15.077  1.00  0.00    -0.285 OA
ATOM      5  C   UNL     1      15.211  15.213  15.322  1.00  0.00     0.111 A 
ATOM      6  C   UNL     1      14.709  13.947  15.747  1.00  0.00     0.134 A 
ATOM      7  C   UNL     1      13.386  13.845  16.199  1.00  0.00     0.093 A 
ATOM      8  C   UNL     1      12.532  14.947  16.179  1.00  0.00     0.123 A 
ATOM      9  C   UNL     1      12.996  16.176  15.710  1.00  0.00     0.094 A 
ATOM     10  C   UNL     1      14.320  16.318  15.287  1.00  0.00     0.146 A 
ATOM     11  O   UNL     1      14.725  17.506  14.857  1.00  0.00    -0.452 OA
ENDROOT
BRANCH   1  12
ATOM     12  C   UNL     1      16.283  19.120  13.972  1.00  0.00     0.025 A 
ATOM     13  C   UNL     1      17.099  19.989  14.719  1.00  0.00     0.016 A 
ATOM     14  C   UNL     1      17.404  21.262  14.233  1.00  0.00     0.051 A 
ATOM     15  C   UNL     1      16.912  21.681  12.990  1.00  0.00     0.157 A 
ATOM     16  C   UNL     1      15.810  19.537  12.718  1.00  0.00     0.062 A 
ATOM     17  C   UNL     1      16.116  20.816  12.230  1.00  0.00     0.158 A 
BRANCH  15  18
ATOM     18  O   UNL     1      17.214  22.951  12.504  1.00  0.00    -0.504 OA
ATOM     19  H   UNL     1      16.854  23.279  11.616  1.00  0.00     0.293 HD
ENDBRANCH  15  18
BRANCH  17  20
ATOM     20  O   UNL     1      15.634  21.232  10.990  1.00  0.00    -0.504 OA
ATOM     21  H   UNL     1      16.161  21.080  10.138  1.00  0.00     0.293 HD
ENDBRANCH  17  20
ENDBRANCH   1  12
BRANCH   2  22
ATOM     22  O   UNL     1      18.266  17.018  14.188  1.00  0.00    -0.502 OA
ATOM     23  H   UNL     1      18.518  17.629  13.420  1.00  0.00     0.293 HD
ENDBRANCH   2  22
BRANCH   6  24
ATOM     24  O   UNL     1      15.452  12.763  15.720  1.00  0.00    -0.507 OA
ATOM     25  H   UNL     1      16.256  12.603  15.132  1.00  0.00     0.293 HD
ENDBRANCH   6  24
BRANCH   8  26
ATOM     26  O   UNL     1      11.219  14.805  16.622  1.00  0.00    -0.508 OA
ATOM     27  H   UNL     1      10.563  15.577  16.590  1.00  0.00     0.293 HD
ENDBRANCH   8  26
TORSDOF 6
ENDMDL
MODEL 5
REMARK VINA RESULT:    -5.652      2.204      6.495
REMARK INTER + INTRA:          -7.001
REMARK INTER:                  -7.323
REMARK INTRA:                   0.322
REMARK UNBOUND:                -0.193
REMARK SMILES O=c1c(O)c(-c2ccc(O)c(O)c2)oc2cc(O)cc(O)c12
REMARK SMILES IDX 5 1 3 2 2 3 1 4 22 5 20 6 19 7 17 8 16 9 15 10 14 11 6 12
REMARK SMILES IDX 7 13 8 14 9 15 13 16 11 17 10 18 12 20 4 22 21 24 18 26
REMARK H PARENT 10 19 12 21 4 23 21 25 18 27
REMARK Flexibility Score: inf
ROOT
ATOM      1  C   UNL     1      12.235  17.088  16.497  1.00  0.00     0.180 A 
ATOM      2  C   UNL     1      12.293  15.728  16.147  1.00  0.00     0.208 A 
ATOM      3  C   UNL     1      13.184  15.322  15.140  1.00  0.00     0.238 A 
ATOM      4  O   UNL     1      13.193  14.112  14.794  1.00  0.00    -0.285 OA
ATOM      5  C   UNL     1      14.016  16.278  14.509  1.00  0.00     0.111 A 
ATOM      6  C   UNL     1      14.983  15.971  13.506  1.00  0.00     0.134 A 
ATOM      7  C   UNL     1      15.659  17.013  12.857  1.00  0.00     0.093 A 
ATOM      8  C   UNL     1      15.451  18.343  13.221  1.00  0.00     0.123 A 
ATOM      9  C   UNL     1      14.550  18.649  14.242  1.00  0.00     0.094 A 
ATOM     10  C   UNL     1      13.834  17.635  14.882  1.00  0.00     0.146 A 
ATOM     11  O   UNL     1      12.980  17.970  15.841  1.00  0.00    -0.452 OA
ENDROOT
BRANCH   1  12
ATOM     12  C   UNL     1      11.338  17.589  17.565  1.00  0.00     0.025 A 
ATOM     13  C   UNL     1      10.870  16.741  18.585  1.00  0.00     0.016 A 
ATOM     14  C   UNL     1      10.045  17.242  19.595  1.00  0.00     0.051 A 
ATOM     15  C   UNL     1       9.688  18.596  19.610  1.00  0.00     0.157 A 
ATOM     16  C   UNL     1      10.994  18.950  17.597  1.00  0.00     0.062 A 
ATOM     17  C   UNL     1      10.166  19.453  18.611  1.00  0.00     0.158 A 
BRANCH  15  18
ATOM     18  O   UNL     1       8.864  19.097  20.616  1.00  0.00    -0.504 OA
ATOM     19  H   UNL     1       8.128  19.763  20.416  1.00  0.00     0.293 HD
ENDBRANCH  15  18
BRANCH  17  20
ATOM     20  O   UNL     1       9.816  20.802  18.633  1.00  0.00    -0.504 OA
ATOM     21  H   UNL     1       8.924  21.123  18.275  1.00  0.00     0.293 HD
ENDBRANCH  17  20
ENDBRANCH   1  12
BRANCH   2  22
ATOM     22  O   UNL     1      11.446  14.806  16.768  1.00  0.00    -0.502 OA
ATOM     23  H   UNL     1      11.540  13.805  16.635  1.00  0.00     0.293 HD
ENDBRANCH   2  22
BRANCH   6  24
ATOM     24  O   UNL     1      15.336  14.671  13.131  1.00  0.00    -0.507 OA
ATOM     25  H   UNL     1      16.103  14.148  13.524  1.00  0.00     0.293 HD
ENDBRANCH   6  24
BRANCH   8  26
ATOM     26  O   UNL     1      16.152  19.352  12.564  1.00  0.00    -0.508 OA
ATOM     27  H   UNL     1      15.782  20.293  12.492  1.00  0.00     0.293 HD
ENDBRANCH   8  26
TORSDOF 6
ENDMDL
MODEL 6
REMARK VINA RESULT:    -5.553      5.665      8.603
REMARK INTER + INTRA:          -6.882
REMARK INTER:                  -6.605
REMARK INTRA:                  -0.277
REMARK UNBOUND:                -0.193
REMARK SMILES O=c1c(O)c(-c2ccc(O)c(O)c2)oc2cc(O)cc(O)c12
REMARK SMILES IDX 5 1 3 2 2 3 1 4 22 5 20 6 19 7 17 8 16 9 15 10 14 11 6 12
REMARK SMILES IDX 7 13 8 14 9 15 13 16 11 17 10 18 12 20 4 22 21 24 18 26
REMARK H PARENT 10 19 12 21 4 23 21 25 18 27
REMARK Flexibility Score: inf
ROOT
ATOM      1  C   UNL     1      16.490  11.829  16.420  1.00  0.00     0.180 A 
ATOM      2  C   UNL     1      17.116  12.636  15.454  1.00  0.00     0.208 A 
ATOM      3  C   UNL     1      16.435  13.762  14.964  1.00  0.00     0.238 A 
ATOM      4  O   UNL     1      16.978  14.450  14.060  1.00  0.00    -0.285 OA
ATOM      5  C   UNL     1      15.146  14.076  15.457  1.00  0.00     0.111 A 
ATOM      6  C   UNL     1      14.382  15.214  15.061  1.00  0.00     0.134 A 
ATOM      7  C   UNL     1      13.065  15.355  15.516  1.00  0.00     0.093 A 
ATOM      8  C   UNL     1      12.508  14.435  16.403  1.00  0.00     0.123 A 
ATOM      9  C   UNL     1      13.266  13.349  16.843  1.00  0.00     0.094 A 
ATOM     10  C   UNL     1      14.570  13.163  16.378  1.00  0.00     0.146 A 
ATOM     11  O   UNL     1      15.255  12.112  16.814  1.00  0.00    -0.452 OA
ENDROOT
BRANCH   1  12
ATOM     12  C   UNL     1      17.154  10.639  17.002  1.00  0.00     0.025 A 
ATOM     13  C   UNL     1      17.250   9.432  16.288  1.00  0.00     0.016 A 
ATOM     14  C   UNL     1      17.902   8.330  16.848  1.00  0.00     0.051 A 
ATOM     15  C   UNL     1      18.479   8.423  18.121  1.00  0.00     0.157 A 
ATOM     16  C   UNL     1      17.753  10.732  18.269  1.00  0.00     0.062 A 
ATOM     17  C   UNL     1      18.407   9.626  18.832  1.00  0.00     0.158 A 
BRANCH  15  18
ATOM     18  O   UNL     1      19.129   7.325  18.682  1.00  0.00    -0.504 OA
ATOM     19  H   UNL     1      19.660   7.405  19.541  1.00  0.00     0.293 HD
ENDBRANCH  15  18
BRANCH  17  20
ATOM     20  O   UNL     1      18.989   9.718  20.095  1.00  0.00    -0.504 OA
ATOM     21  H   UNL     1      18.594   9.240  20.896  1.00  0.00     0.293 HD
ENDBRANCH  17  20
ENDBRANCH   1  12
BRANCH   2  22
ATOM     22  O   UNL     1      18.380  12.295  14.965  1.00  0.00    -0.502 OA
ATOM     23  H   UNL     1      18.508  11.692  14.160  1.00  0.00     0.293 HD
ENDBRANCH   2  22
BRANCH   6  24
ATOM     24  O   UNL     1      14.875  16.242  14.251  1.00  0.00    -0.507 OA
ATOM     25  H   UNL     1      15.854  16.446  14.114  1.00  0.00     0.293 HD
ENDBRANCH   6  24
BRANCH   8  26
ATOM     26  O   UNL     1      11.200  14.614  16.847  1.00  0.00    -0.508 OA
ATOM     27  H   UNL     1      10.506  13.880  16.763  1.00  0.00     0.293 HD
ENDBRANCH   8  26
TORSDOF 6
ENDMDL
MODEL 7
REMARK VINA RESULT:    -5.546      3.562      5.341
REMARK INTER + INTRA:          -6.874
REMARK INTER:                  -6.555
REMARK INTRA:                  -0.319
REMARK UNBOUND:                -0.193
REMARK SMILES O=c1c(O)c(-c2ccc(O)c(O)c2)oc2cc(O)cc(O)c12
REMARK SMILES IDX 5 1 3 2 2 3 1 4 22 5 20 6 19 7 17 8 16 9 15 10 14 11 6 12
REMARK SMILES IDX 7 13 8 14 9 15 13 16 11 17 10 18 12 20 4 22 21 24 18 26
REMARK H PARENT 10 19 12 21 4 23 21 25 18 27
REMARK Flexibility Score: inf
ROOT
ATOM      1  C   UNL     1      16.147  15.772  13.993  1.00  0.00     0.180 A 
ATOM      2  C   UNL     1      15.766  15.104  15.170  1.00  0.00     0.208 A 
ATOM      3  C   UNL     1      16.188  13.780  15.368  1.00  0.00     0.238 A 
ATOM      4  O   UNL     1      15.799  13.169  16.397  1.00  0.00    -0.285 OA
ATOM      5  C   UNL     1      17.000  13.146  14.396  1.00  0.00     0.111 A 
ATOM      6  C   UNL     1      17.518  11.822  14.512  1.00  0.00     0.134 A 
ATOM      7  C   UNL     1      18.202  11.250  13.431  1.00  0.00     0.093 A 
ATOM      8  C   UNL     1      18.441  11.977  12.265  1.00  0.00     0.123 A 
ATOM      9  C   UNL     1      17.989  13.293  12.164  1.00  0.00     0.094 A 
ATOM     10  C   UNL     1      17.274  13.878  13.211  1.00  0.00     0.146 A 
ATOM     11  O   UNL     1      16.854  15.130  13.071  1.00  0.00    -0.452 OA
ENDROOT
BRANCH   1  12
ATOM     12  C   UNL     1      15.761  17.177  13.725  1.00  0.00     0.025 A 
ATOM     13  C   UNL     1      16.623  18.245  14.034  1.00  0.00     0.016 A 
ATOM     14  C   UNL     1      16.247  19.560  13.749  1.00  0.00     0.051 A 
ATOM     15  C   UNL     1      15.015  19.827  13.140  1.00  0.00     0.157 A 
ATOM     16  C   UNL     1      14.536  17.449  13.096  1.00  0.00     0.062 A 
ATOM     17  C   UNL     1      14.158  18.770  12.810  1.00  0.00     0.158 A 
BRANCH  15  18
ATOM     18  O   UNL     1      14.637  21.138  12.857  1.00  0.00    -0.504 OA
ATOM     19  H   UNL     1      13.695  21.468  13.029  1.00  0.00     0.293 HD
ENDBRANCH  15  18
BRANCH  17  20
ATOM     20  O   UNL     1      12.935  19.037  12.198  1.00  0.00    -0.504 OA
ATOM     21  H   UNL     1      12.308  18.291  11.919  1.00  0.00     0.293 HD
ENDBRANCH  17  20
ENDBRANCH   1  12
BRANCH   2  22
ATOM     22  O   UNL     1      14.946  15.741  16.106  1.00  0.00    -0.502 OA
ATOM     23  H   UNL     1      14.098  15.317  16.464  1.00  0.00     0.293 HD
ENDBRANCH   2  22
BRANCH   6  24
ATOM     24  O   UNL     1      17.415  11.042  15.668  1.00  0.00    -0.507 OA
ATOM     25  H   UNL     1      17.053  10.101  15.695  1.00  0.00     0.293 HD
ENDBRANCH   6  24
BRANCH   8  26
ATOM     26  O   UNL     1      19.137  11.381  11.216  1.00  0.00    -0.508 OA
ATOM     27  H   UNL     1      19.590  10.480  11.324  1.00  0.00     0.293 HD
ENDBRANCH   8  26
TORSDOF 6
ENDMDL
MODEL 8
REMARK VINA RESULT:    -5.491      2.875      6.854
REMARK INTER + INTRA:          -6.807
REMARK INTER:                  -6.998
REMARK INTRA:                   0.191
REMARK UNBOUND:                -0.193
REMARK SMILES O=c1c(O)c(-c2ccc(O)c(O)c2)oc2cc(O)cc(O)c12
REMARK SMILES IDX 5 1 3 2 2 3 1 4 22 5 20 6 19 7 17 8 16 9 15 10 14 11 6 12
REMARK SMILES IDX 7 13 8 14 9 15 13 16 11 17 10 18 12 20 4 22 21 24 18 26
REMARK H PARENT 10 19 12 21 4 23 21 25 18 27
REMARK Flexibility Score: inf
ROOT
ATOM      1  C   UNL     1      11.744  17.336  17.623  1.00  0.00     0.180 A 
ATOM      2  C   UNL     1      11.746  15.941  17.794  1.00  0.00     0.208 A 
ATOM      3  C   UNL     1      12.394  15.139  16.841  1.00  0.00     0.238 A 
ATOM      4  O   UNL     1      12.346  13.888  16.970  1.00  0.00    -0.285 OA
ATOM      5  C   UNL     1      13.045  15.743  15.738  1.00  0.00     0.111 A 
ATOM      6  C   UNL     1      13.766  15.030  14.734  1.00  0.00     0.134 A 
ATOM      7  C   UNL     1      14.260  15.718  13.618  1.00  0.00     0.093 A 
ATOM      8  C   UNL     1      14.115  17.100  13.503  1.00  0.00     0.123 A 
ATOM      9  C   UNL     1      13.463  17.815  14.508  1.00  0.00     0.094 A 
ATOM     10  C   UNL     1      12.928  17.152  15.615  1.00  0.00     0.146 A 
ATOM     11  O   UNL     1      12.307  17.868  16.544  1.00  0.00    -0.452 OA
ENDROOT
BRANCH   1  12
ATOM     12  C   UNL     1      11.104  18.249  18.598  1.00  0.00     0.025 A 
ATOM     13  C   UNL     1      11.682  19.486  18.932  1.00  0.00     0.016 A 
ATOM     14  C   UNL     1      11.048  20.341  19.837  1.00  0.00     0.051 A 
ATOM     15  C   UNL     1       9.821  19.980  20.408  1.00  0.00     0.157 A 
ATOM     16  C   UNL     1       9.864  17.901  19.159  1.00  0.00     0.062 A 
ATOM     17  C   UNL     1       9.227  18.759  20.067  1.00  0.00     0.158 A 
BRANCH  15  18
ATOM     18  O   UNL     1       9.186  20.830  21.312  1.00  0.00    -0.504 OA
ATOM     19  H   UNL     1       8.670  21.645  21.002  1.00  0.00     0.293 HD
ENDBRANCH  15  18
BRANCH  17  20
ATOM     20  O   UNL     1       8.002  18.406  20.632  1.00  0.00    -0.504 OA
ATOM     21  H   UNL     1       7.124  18.654  20.191  1.00  0.00     0.293 HD
ENDBRANCH  17  20
ENDBRANCH   1  12
BRANCH   2  22
ATOM     22  O   UNL     1      11.078  15.365  18.878  1.00  0.00    -0.502 OA
ATOM     23  H   UNL     1      11.293  15.603  19.839  1.00  0.00     0.293 HD
ENDBRANCH   2  22
BRANCH   6  24
ATOM     24  O   UNL     1      14.048  13.661  14.798  1.00  0.00    -0.507 OA
ATOM     25  H   UNL     1      14.967  13.270  14.933  1.00  0.00     0.293 HD
ENDBRANCH   6  24
BRANCH   8  26
ATOM     26  O   UNL     1      14.632  17.754  12.387  1.00  0.00    -0.508 OA
ATOM     27  H   UNL     1      14.082  17.879  11.544  1.00  0.00     0.293 HD
ENDBRANCH   8  26
TORSDOF 6
ENDMDL
MODEL 9
REMARK VINA RESULT:    -5.442      3.598      4.709
REMARK INTER + INTRA:          -6.748
REMARK INTER:                  -6.430
REMARK INTRA:                  -0.318
REMARK UNBOUND:                -0.193
REMARK SMILES O=c1c(O)c(-c2ccc(O)c(O)c2)oc2cc(O)cc(O)c12
REMARK SMILES IDX 5 1 3 2 2 3 1 4 22 5 20 6 19 7 17 8 16 9 15 10 14 11 6 12
REMARK SMILES IDX 7 13 8 14 9 15 13 16 11 17 10 18 12 20 4 22 21 24 18 26
REMARK H PARENT 10 19 12 21 4 23 21 25 18 27
REMARK Flexibility Score: inf
ROOT
ATOM      1  C   UNL     1      16.922  15.960  13.488  1.00  0.00     0.180 A 
ATOM      2  C   UNL     1      17.782  15.497  12.477  1.00  0.00     0.208 A 
ATOM      3  C   UNL     1      18.198  14.156  12.498  1.00  0.00     0.238 A 
ATOM      4  O   UNL     1      19.010  13.762  11.621  1.00  0.00    -0.285 OA
ATOM      5  C   UNL     1      17.737  13.292  13.520  1.00  0.00     0.111 A 
ATOM      6  C   UNL     1      18.063  11.906  13.616  1.00  0.00     0.134 A 
ATOM      7  C   UNL     1      17.657  11.177  14.742  1.00  0.00     0.093 A 
ATOM      8  C   UNL     1      16.883  11.767  15.740  1.00  0.00     0.123 A 
ATOM      9  C   UNL     1      16.509  13.107  15.627  1.00  0.00     0.094 A 
ATOM     10  C   UNL     1      16.929  13.869  14.535  1.00  0.00     0.146 A 
ATOM     11  O   UNL     1      16.560  15.142  14.470  1.00  0.00    -0.452 OA
ENDROOT
BRANCH   1  12
ATOM     12  C   UNL     1      16.421  17.353  13.520  1.00  0.00     0.025 A 
ATOM     13  C   UNL     1      17.166  18.387  14.115  1.00  0.00     0.016 A 
ATOM     14  C   UNL     1      16.684  19.697  14.111  1.00  0.00     0.051 A 
ATOM     15  C   UNL     1      15.460  19.998  13.501  1.00  0.00     0.157 A 
ATOM     16  C   UNL     1      15.204  17.665  12.892  1.00  0.00     0.062 A 
ATOM     17  C   UNL     1      14.719  18.981  12.888  1.00  0.00     0.158 A 
BRANCH  15  18
ATOM     18  O   UNL     1      14.976  21.305  13.497  1.00  0.00    -0.504 OA
ATOM     19  H   UNL     1      14.996  21.876  12.661  1.00  0.00     0.293 HD
ENDBRANCH  15  18
BRANCH  17  20
ATOM     20  O   UNL     1      13.504  19.284  12.275  1.00  0.00    -0.504 OA
ATOM     21  H   UNL     1      13.296  20.219  11.946  1.00  0.00     0.293 HD
ENDBRANCH  17  20
ENDBRANCH   1  12
BRANCH   2  22
ATOM     22  O   UNL     1      18.242  16.374  11.491  1.00  0.00    -0.502 OA
ATOM     23  H   UNL     1      18.192  16.155  10.502  1.00  0.00     0.293 HD
ENDBRANCH   2  22
BRANCH   6  24
ATOM     24  O   UNL     1      18.754  11.196  12.629  1.00  0.00    -0.507 OA
ATOM     25  H   UNL     1      19.296  11.618  11.891  1.00  0.00     0.293 HD
ENDBRANCH   6  24
BRANCH   8  26
ATOM     26  O   UNL     1      16.484  11.008  16.838  1.00  0.00    -0.508 OA
ATOM     27  H   UNL     1      17.018  11.001  17.700  1.00  0.00     0.293 HD
ENDBRANCH   8  26
TORSDOF 6
ENDMDL
