MODEL 1
REMARK VINA RESULT:    -4.308      0.000      0.000
REMARK INTER + INTRA:         -15.041
REMARK INTER:                 -10.856
REMARK INTRA:                  -4.185
REMARK UNBOUND:                -4.185
REMARK SMILES CCCCCCCCCCCCCCCCCCCCCCCCCCCC(=O)[O-]
REMARK SMILES IDX 15 1 16 2 17 3 18 4 19 5 20 6 21 7 22 8 23 9 24 10 25 11
REMARK SMILES IDX 26 12 27 13 28 14 29 15 30 16 14 17 13 18 12 19 11 20 10 21
REMARK SMILES IDX 9 22 8 23 7 24 6 25 5 26 4 27 3 28 2 29 1 30
REMARK H PARENT
REMARK Flexibility Score: inf
ROOT
ATOM      1  C   UNL     1      -7.462 -34.497 -10.107  1.00  0.00     0.000 C 
ENDROOT
BRANCH   1   2
ATOM      2  C   UNL     1      -8.649 -35.262  -9.497  1.00  0.00     0.000 C 
BRANCH   2   3
ATOM      3  C   UNL     1      -9.194 -36.313 -10.477  1.00  0.00     0.000 C 
BRANCH   3   4
ATOM      4  C   UNL     1      -9.778 -37.541  -9.759  1.00  0.00     0.000 C 
BRANCH   4   5
ATOM      5  C   UNL     1      -9.769 -38.800 -10.642  1.00  0.00     0.000 C 
BRANCH   5   6
ATOM      6  C   UNL     1      -8.830 -38.673 -11.855  1.00  0.00     0.000 C 
BRANCH   6   7
ATOM      7  C   UNL     1      -8.554 -39.987 -12.606  1.00  0.00     0.000 C 
BRANCH   7   8
ATOM      8  C   UNL     1      -7.361 -39.888 -13.569  1.00  0.00     0.000 C 
BRANCH   8   9
ATOM      9  C   UNL     1      -6.329 -40.986 -13.284  1.00  0.00     0.000 C 
BRANCH   9  10
ATOM     10  C   UNL     1      -6.444 -42.124 -14.308  1.00  0.00     0.000 C 
BRANCH  10  11
ATOM     11  C   UNL     1      -5.203 -42.227 -15.212  1.00  0.00     0.000 C 
BRANCH  11  12
ATOM     12  C   UNL     1      -5.473 -41.706 -16.635  1.00  0.00     0.006 C 
BRANCH  12  13
ATOM     13  C   UNL     1      -6.956 -41.376 -16.862  1.00  0.00     0.053 C 
BRANCH  13  14
ATOM     14  C   UNL     1      -7.148 -40.394 -17.977  1.00  0.00     0.041 C 
ATOM     15  O   UNL     1      -6.150 -39.907 -18.572  1.00  0.00    -0.550 OA
ATOM     16  O   UNL     1      -8.428 -40.007 -18.352  1.00  0.00    -0.550 OA
ENDBRANCH  13  14
ENDBRANCH  12  13
ENDBRANCH  11  12
ENDBRANCH  10  11
ENDBRANCH   9  10
ENDBRANCH   8   9
ENDBRANCH   7   8
ENDBRANCH   6   7
ENDBRANCH   5   6
ENDBRANCH   4   5
ENDBRANCH   3   4
ENDBRANCH   2   3
ENDBRANCH   1   2
BRANCH   1  17
ATOM     17  C   UNL     1      -6.490 -34.000  -9.024  1.00  0.00     0.000 C 
BRANCH  17  18
ATOM     18  C   UNL     1      -5.772 -35.159  -8.297  1.00  0.00     0.000 C 
BRANCH  18  19
ATOM     19  C   UNL     1      -4.432 -35.524  -8.953  1.00  0.00     0.000 C 
BRANCH  19  20
ATOM     20  C   UNL     1      -4.352 -37.024  -9.286  1.00  0.00     0.000 C 
BRANCH  20  21
ATOM     21  C   UNL     1      -5.697 -37.602  -9.753  1.00  0.00     0.000 C 
BRANCH  21  22
ATOM     22  C   UNL     1      -5.626 -39.109 -10.039  1.00  0.00    -0.000 C 
BRANCH  22  23
ATOM     23  C   UNL     1      -6.662 -39.876  -9.208  1.00  0.00    -0.000 C 
BRANCH  23  24
ATOM     24  C   UNL     1      -6.674 -41.366  -9.586  1.00  0.00    -0.000 C 
BRANCH  24  25
ATOM     25  C   UNL     1      -8.045 -42.024  -9.359  1.00  0.00    -0.000 C 
BRANCH  25  26
ATOM     26  C   UNL     1      -8.343 -43.126 -10.391  1.00  0.00    -0.000 C 
BRANCH  26  27
ATOM     27  C   UNL     1      -7.070 -43.726 -11.009  1.00  0.00    -0.000 C 
BRANCH  27  28
ATOM     28  C   UNL     1      -6.600 -45.001 -10.285  1.00  0.00    -0.000 C 
BRANCH  28  29
ATOM     29  C   UNL     1      -5.477 -45.725 -11.042  1.00  0.00    -0.003 C 
ATOM     30  C   UNL     1      -5.210 -45.124 -12.423  1.00  0.00     0.004 C 
ENDBRANCH  28  29
ENDBRANCH  27  28
ENDBRANCH  26  27
ENDBRANCH  25  26
ENDBRANCH  24  25
ENDBRANCH  23  24
ENDBRANCH  22  23
ENDBRANCH  21  22
ENDBRANCH  20  21
ENDBRANCH  19  20
ENDBRANCH  18  19
ENDBRANCH  17  18
ENDBRANCH   1  17
TORSDOF 26
ENDMDL
MODEL 2
REMARK VINA RESULT:    -4.295      1.476      4.708
REMARK INTER + INTRA:         -15.007
REMARK INTER:                  -9.738
REMARK INTRA:                  -5.269
REMARK UNBOUND:                -4.185
REMARK SMILES CCCCCCCCCCCCCCCCCCCCCCCCCCCC(=O)[O-]
REMARK SMILES IDX 15 1 16 2 17 3 18 4 19 5 20 6 21 7 22 8 23 9 24 10 25 11
REMARK SMILES IDX 26 12 27 13 28 14 29 15 30 16 14 17 13 18 12 19 11 20 10 21
REMARK SMILES IDX 9 22 8 23 7 24 6 25 5 26 4 27 3 28 2 29 1 30
REMARK H PARENT
REMARK Flexibility Score: inf
ROOT
ATOM      1  C   UNL     1      -9.120 -37.585  -8.431  1.00  0.00     0.000 C 
ENDROOT
BRANCH   1   2
ATOM      2  C   UNL     1      -9.165 -36.342  -9.337  1.00  0.00     0.000 C 
BRANCH   2   3
ATOM      3  C   UNL     1      -8.301 -35.206  -8.765  1.00  0.00     0.000 C 
BRANCH   3   4
ATOM      4  C   UNL     1      -7.515 -34.459  -9.855  1.00  0.00     0.000 C 
BRANCH   4   5
ATOM      5  C   UNL     1      -6.374 -35.306 -10.445  1.00  0.00     0.000 C 
BRANCH   5   6
ATOM      6  C   UNL     1      -5.219 -35.528  -9.452  1.00  0.00     0.000 C 
BRANCH   6   7
ATOM      7  C   UNL     1      -4.735 -36.983  -9.330  1.00  0.00     0.000 C 
BRANCH   7   8
ATOM      8  C   UNL     1      -5.816 -38.007  -9.708  1.00  0.00     0.000 C 
BRANCH   8   9
ATOM      9  C   UNL     1      -5.220 -39.166 -10.516  1.00  0.00     0.000 C 
BRANCH   9  10
ATOM     10  C   UNL     1      -6.263 -39.758 -11.475  1.00  0.00     0.000 C 
BRANCH  10  11
ATOM     11  C   UNL     1      -7.538 -38.901 -11.556  1.00  0.00     0.000 C 
BRANCH  11  12
ATOM     12  C   UNL     1      -8.411 -39.266 -12.770  1.00  0.00     0.006 C 
BRANCH  12  13
ATOM     13  C   UNL     1      -7.594 -39.358 -14.067  1.00  0.00     0.053 C 
BRANCH  13  14
ATOM     14  C   UNL     1      -8.404 -38.974 -15.267  1.00  0.00     0.041 C 
ATOM     15  O   UNL     1      -9.659 -38.896 -15.188  1.00  0.00    -0.550 OA
ATOM     16  O   UNL     1      -7.775 -38.715 -16.479  1.00  0.00    -0.550 OA
ENDBRANCH  13  14
ENDBRANCH  12  13
ENDBRANCH  11  12
ENDBRANCH  10  11
ENDBRANCH   9  10
ENDBRANCH   8   9
ENDBRANCH   7   8
ENDBRANCH   6   7
ENDBRANCH   5   6
ENDBRANCH   4   5
ENDBRANCH   3   4
ENDBRANCH   2   3
ENDBRANCH   1   2
BRANCH   1  17
ATOM     17  C   UNL     1     -10.001 -38.719  -8.978  1.00  0.00     0.000 C 
BRANCH  17  18
ATOM     18  C   UNL     1      -9.506 -40.116  -8.540  1.00  0.00     0.000 C 
BRANCH  18  19
ATOM     19  C   UNL     1      -8.069 -40.086  -7.997  1.00  0.00     0.000 C 
BRANCH  19  20
ATOM     20  C   UNL     1      -7.306 -41.379  -8.338  1.00  0.00     0.000 C 
BRANCH  20  21
ATOM     21  C   UNL     1      -8.208 -42.456  -8.959  1.00  0.00     0.000 C 
BRANCH  21  22
ATOM     22  C   UNL     1      -7.646 -43.009 -10.278  1.00  0.00    -0.000 C 
BRANCH  22  23
ATOM     23  C   UNL     1      -8.574 -42.678 -11.453  1.00  0.00    -0.000 C 
BRANCH  23  24
ATOM     24  C   UNL     1      -7.868 -42.926 -12.795  1.00  0.00    -0.000 C 
BRANCH  24  25
ATOM     25  C   UNL     1      -6.856 -44.081 -12.729  1.00  0.00    -0.000 C 
BRANCH  25  26
ATOM     26  C   UNL     1      -5.594 -43.804 -13.564  1.00  0.00    -0.000 C 
BRANCH  26  27
ATOM     27  C   UNL     1      -5.592 -42.401 -14.194  1.00  0.00    -0.000 C 
BRANCH  27  28
ATOM     28  C   UNL     1      -4.792 -42.341 -15.508  1.00  0.00    -0.000 C 
BRANCH  28  29
ATOM     29  C   UNL     1      -5.585 -41.686 -16.649  1.00  0.00    -0.003 C 
ATOM     30  C   UNL     1      -7.035 -42.171 -16.715  1.00  0.00     0.004 C 
ENDBRANCH  28  29
ENDBRANCH  27  28
ENDBRANCH  26  27
ENDBRANCH  25  26
ENDBRANCH  24  25
ENDBRANCH  23  24
ENDBRANCH  22  23
ENDBRANCH  21  22
ENDBRANCH  20  21
ENDBRANCH  19  20
ENDBRANCH  18  19
ENDBRANCH  17  18
ENDBRANCH   1  17
TORSDOF 26
ENDMDL
MODEL 3
REMARK VINA RESULT:    -4.222      1.637      5.300
REMARK INTER + INTRA:         -14.824
REMARK INTER:                 -10.864
REMARK INTRA:                  -3.961
REMARK UNBOUND:                -4.185
REMARK SMILES CCCCCCCCCCCCCCCCCCCCCCCCCCCC(=O)[O-]
REMARK SMILES IDX 15 1 16 2 17 3 18 4 19 5 20 6 21 7 22 8 23 9 24 10 25 11
REMARK SMILES IDX 26 12 27 13 28 14 29 15 30 16 14 17 13 18 12 19 11 20 10 21
REMARK SMILES IDX 9 22 8 23 7 24 6 25 5 26 4 27 3 28 2 29 1 30
REMARK H PARENT
REMARK Flexibility Score: inf
ROOT
ATOM      1  C   UNL     1      -7.516 -39.467 -12.896  1.00  0.00     0.000 C 
ENDROOT
BRANCH   1   2
ATOM      2  C   UNL     1      -7.013 -40.916 -13.014  1.00  0.00     0.000 C 
BRANCH   2   3
ATOM      3  C   UNL     1      -8.185 -41.911 -13.030  1.00  0.00     0.000 C 
BRANCH   3   4
ATOM      4  C   UNL     1      -7.715 -43.374 -13.089  1.00  0.00     0.000 C 
BRANCH   4   5
ATOM      5  C   UNL     1      -6.184 -43.505 -13.014  1.00  0.00     0.000 C 
BRANCH   5   6
ATOM      6  C   UNL     1      -5.646 -44.694 -13.830  1.00  0.00     0.000 C 
BRANCH   6   7
ATOM      7  C   UNL     1      -4.884 -44.314 -15.111  1.00  0.00     0.000 C 
BRANCH   7   8
ATOM      8  C   UNL     1      -4.670 -42.799 -15.254  1.00  0.00     0.000 C 
BRANCH   8   9
ATOM      9  C   UNL     1      -4.522 -42.399 -16.727  1.00  0.00     0.000 C 
BRANCH   9  10
ATOM     10  C   UNL     1      -5.811 -41.747 -17.248  1.00  0.00     0.000 C 
BRANCH  10  11
ATOM     11  C   UNL     1      -6.375 -40.700 -16.272  1.00  0.00     0.000 C 
BRANCH  11  12
ATOM     12  C   UNL     1      -7.743 -40.159 -16.723  1.00  0.00     0.006 C 
BRANCH  12  13
ATOM     13  C   UNL     1      -7.880 -38.648 -16.484  1.00  0.00     0.053 C 
BRANCH  13  14
ATOM     14  C   UNL     1      -7.794 -37.868 -17.760  1.00  0.00     0.041 C 
ATOM     15  O   UNL     1      -6.959 -38.191 -18.646  1.00  0.00    -0.550 OA
ATOM     16  O   UNL     1      -8.627 -36.776 -17.966  1.00  0.00    -0.550 OA
ENDBRANCH  13  14
ENDBRANCH  12  13
ENDBRANCH  11  12
ENDBRANCH  10  11
ENDBRANCH   9  10
ENDBRANCH   8   9
ENDBRANCH   7   8
ENDBRANCH   6   7
ENDBRANCH   5   6
ENDBRANCH   4   5
ENDBRANCH   3   4
ENDBRANCH   2   3
ENDBRANCH   1   2
BRANCH   1  17
ATOM     17  C   UNL     1      -7.224 -38.876 -11.507  1.00  0.00     0.000 C 
BRANCH  17  18
ATOM     18  C   UNL     1      -6.094 -39.629 -10.769  1.00  0.00     0.000 C 
BRANCH  18  19
ATOM     19  C   UNL     1      -5.039 -38.677 -10.185  1.00  0.00     0.000 C 
BRANCH  19  20
ATOM     20  C   UNL     1      -5.686 -37.547  -9.364  1.00  0.00     0.000 C 
BRANCH  20  21
ATOM     21  C   UNL     1      -4.720 -36.386  -9.085  1.00  0.00     0.000 C 
BRANCH  21  22
ATOM     22  C   UNL     1      -5.387 -35.011  -9.240  1.00  0.00    -0.000 C 
BRANCH  22  23
ATOM     23  C   UNL     1      -6.256 -34.960 -10.501  1.00  0.00    -0.000 C 
BRANCH  23  24
ATOM     24  C   UNL     1      -7.697 -34.548 -10.158  1.00  0.00    -0.000 C 
BRANCH  24  25
ATOM     25  C   UNL     1      -8.690 -35.717 -10.267  1.00  0.00    -0.000 C 
BRANCH  25  26
ATOM     26  C   UNL     1      -9.157 -36.219  -8.890  1.00  0.00    -0.000 C 
BRANCH  26  27
ATOM     27  C   UNL     1      -9.646 -37.677  -8.921  1.00  0.00    -0.000 C 
BRANCH  27  28
ATOM     28  C   UNL     1      -8.761 -38.619  -8.083  1.00  0.00    -0.000 C 
BRANCH  28  29
ATOM     29  C   UNL     1      -9.285 -40.063  -8.075  1.00  0.00    -0.003 C 
ATOM     30  C   UNL     1      -9.654 -40.566  -9.471  1.00  0.00     0.004 C 
ENDBRANCH  28  29
ENDBRANCH  27  28
ENDBRANCH  26  27
ENDBRANCH  25  26
ENDBRANCH  24  25
ENDBRANCH  23  24
ENDBRANCH  22  23
ENDBRANCH  21  22
ENDBRANCH  20  21
ENDBRANCH  19  20
ENDBRANCH  18  19
ENDBRANCH  17  18
ENDBRANCH   1  17
TORSDOF 26
ENDMDL
MODEL 4
REMARK VINA RESULT:    -4.181      2.940      7.125
REMARK INTER + INTRA:         -14.720
REMARK INTER:                 -10.661
REMARK INTRA:                  -4.060
REMARK UNBOUND:                -4.185
REMARK SMILES CCCCCCCCCCCCCCCCCCCCCCCCCCCC(=O)[O-]
REMARK SMILES IDX 15 1 16 2 17 3 18 4 19 5 20 6 21 7 22 8 23 9 24 10 25 11
REMARK SMILES IDX 26 12 27 13 28 14 29 15 30 16 14 17 13 18 12 19 11 20 10 21
REMARK SMILES IDX 9 22 8 23 7 24 6 25 5 26 4 27 3 28 2 29 1 30
REMARK H PARENT
REMARK Flexibility Score: inf
ROOT
ATOM      1  C   UNL     1      -7.556 -41.423 -16.730  1.00  0.00     0.000 C 
ENDROOT
BRANCH   1   2
ATOM      2  C   UNL     1      -8.506 -40.655 -15.794  1.00  0.00     0.000 C 
BRANCH   2   3
ATOM      3  C   UNL     1      -8.023 -39.212 -15.575  1.00  0.00     0.000 C 
BRANCH   3   4
ATOM      4  C   UNL     1      -9.071 -38.170 -15.999  1.00  0.00     0.000 C 
BRANCH   4   5
ATOM      5  C   UNL     1      -8.717 -37.483 -17.329  1.00  0.00     0.000 C 
BRANCH   5   6
ATOM      6  C   UNL     1      -9.209 -38.269 -18.557  1.00  0.00     0.000 C 
BRANCH   6   7
ATOM      7  C   UNL     1      -8.112 -39.019 -19.334  1.00  0.00     0.000 C 
BRANCH   7   8
ATOM      8  C   UNL     1      -6.704 -38.471 -19.060  1.00  0.00     0.000 C 
BRANCH   8   9
ATOM      9  C   UNL     1      -5.630 -39.375 -19.678  1.00  0.00     0.000 C 
BRANCH   9  10
ATOM     10  C   UNL     1      -6.147 -40.038 -20.963  1.00  0.00     0.000 C 
BRANCH  10  11
ATOM     11  C   UNL     1      -5.343 -41.295 -21.339  1.00  0.00     0.000 C 
BRANCH  11  12
ATOM     12  C   UNL     1      -3.848 -41.152 -21.003  1.00  0.00     0.006 C 
BRANCH  12  13
ATOM     13  C   UNL     1      -3.279 -42.412 -20.332  1.00  0.00     0.053 C 
BRANCH  13  14
ATOM     14  C   UNL     1      -2.950 -43.478 -21.331  1.00  0.00     0.041 C 
ATOM     15  O   UNL     1      -3.189 -44.687 -21.071  1.00  0.00    -0.550 OA
ATOM     16  O   UNL     1      -2.365 -43.139 -22.545  1.00  0.00    -0.550 OA
ENDBRANCH  13  14
ENDBRANCH  12  13
ENDBRANCH  11  12
ENDBRANCH  10  11
ENDBRANCH   9  10
ENDBRANCH   8   9
ENDBRANCH   7   8
ENDBRANCH   6   7
ENDBRANCH   5   6
ENDBRANCH   4   5
ENDBRANCH   3   4
ENDBRANCH   2   3
ENDBRANCH   1   2
BRANCH   1  17
ATOM     17  C   UNL     1      -6.087 -41.048 -16.480  1.00  0.00     0.000 C 
BRANCH  17  18
ATOM     18  C   UNL     1      -5.103 -42.066 -17.100  1.00  0.00     0.000 C 
BRANCH  18  19
ATOM     19  C   UNL     1      -4.320 -42.849 -16.035  1.00  0.00     0.000 C 
BRANCH  19  20
ATOM     20  C   UNL     1      -5.064 -42.877 -14.688  1.00  0.00     0.000 C 
BRANCH  20  21
ATOM     21  C   UNL     1      -6.059 -44.043 -14.583  1.00  0.00     0.000 C 
BRANCH  21  22
ATOM     22  C   UNL     1      -7.156 -43.792 -13.537  1.00  0.00    -0.000 C 
BRANCH  22  23
ATOM     23  C   UNL     1      -6.644 -42.889 -12.409  1.00  0.00    -0.000 C 
BRANCH  23  24
ATOM     24  C   UNL     1      -7.502 -41.619 -12.291  1.00  0.00    -0.000 C 
BRANCH  24  25
ATOM     25  C   UNL     1      -6.682 -40.331 -12.471  1.00  0.00    -0.000 C 
BRANCH  25  26
ATOM     26  C   UNL     1      -7.243 -39.159 -11.646  1.00  0.00    -0.000 C 
BRANCH  26  27
ATOM     27  C   UNL     1      -6.800 -39.200 -10.174  1.00  0.00    -0.000 C 
BRANCH  27  28
ATOM     28  C   UNL     1      -5.487 -38.435  -9.926  1.00  0.00    -0.000 C 
BRANCH  28  29
ATOM     29  C   UNL     1      -5.710 -37.115  -9.173  1.00  0.00    -0.003 C 
ATOM     30  C   UNL     1      -5.808 -35.909 -10.108  1.00  0.00     0.004 C 
ENDBRANCH  28  29
ENDBRANCH  27  28
ENDBRANCH  26  27
ENDBRANCH  25  26
ENDBRANCH  24  25
ENDBRANCH  23  24
ENDBRANCH  22  23
ENDBRANCH  21  22
ENDBRANCH  20  21
ENDBRANCH  19  20
ENDBRANCH  18  19
ENDBRANCH  17  18
ENDBRANCH   1  17
TORSDOF 26
ENDMDL
MODEL 5
REMARK VINA RESULT:    -4.129      3.176      8.014
REMARK INTER + INTRA:         -14.589
REMARK INTER:                 -10.137
REMARK INTRA:                  -4.452
REMARK UNBOUND:                -4.185
REMARK SMILES CCCCCCCCCCCCCCCCCCCCCCCCCCCC(=O)[O-]
REMARK SMILES IDX 15 1 16 2 17 3 18 4 19 5 20 6 21 7 22 8 23 9 24 10 25 11
REMARK SMILES IDX 26 12 27 13 28 14 29 15 30 16 14 17 13 18 12 19 11 20 10 21
REMARK SMILES IDX 9 22 8 23 7 24 6 25 5 26 4 27 3 28 2 29 1 30
REMARK H PARENT
REMARK Flexibility Score: inf
ROOT
ATOM      1  C   UNL     1      -5.297 -41.978 -14.934  1.00  0.00     0.000 C 
ENDROOT
BRANCH   1   2
ATOM      2  C   UNL     1      -4.211 -42.907 -15.503  1.00  0.00     0.000 C 
BRANCH   2   3
ATOM      3  C   UNL     1      -4.717 -43.655 -16.747  1.00  0.00     0.000 C 
BRANCH   3   4
ATOM      4  C   UNL     1      -4.557 -45.179 -16.624  1.00  0.00     0.000 C 
BRANCH   4   5
ATOM      5  C   UNL     1      -3.316 -45.578 -15.805  1.00  0.00     0.000 C 
BRANCH   5   6
ATOM      6  C   UNL     1      -3.639 -46.573 -14.677  1.00  0.00     0.000 C 
BRANCH   6   7
ATOM      7  C   UNL     1      -4.735 -46.116 -13.698  1.00  0.00     0.000 C 
BRANCH   7   8
ATOM      8  C   UNL     1      -5.851 -47.157 -13.520  1.00  0.00     0.000 C 
BRANCH   8   9
ATOM      9  C   UNL     1      -7.235 -46.512 -13.667  1.00  0.00     0.000 C 
BRANCH   9  10
ATOM     10  C   UNL     1      -7.112 -44.997 -13.884  1.00  0.00     0.000 C 
BRANCH  10  11
ATOM     11  C   UNL     1      -8.359 -44.233 -13.406  1.00  0.00     0.000 C 
BRANCH  11  12
ATOM     12  C   UNL     1      -8.501 -44.250 -11.874  1.00  0.00     0.006 C 
BRANCH  12  13
ATOM     13  C   UNL     1      -7.433 -43.390 -11.181  1.00  0.00     0.053 C 
BRANCH  13  14
ATOM     14  C   UNL     1      -6.643 -44.176 -10.180  1.00  0.00     0.041 C 
ATOM     15  O   UNL     1      -6.331 -45.373 -10.417  1.00  0.00    -0.550 OA
ATOM     16  O   UNL     1      -6.261 -43.591  -8.979  1.00  0.00    -0.550 OA
ENDBRANCH  13  14
ENDBRANCH  12  13
ENDBRANCH  11  12
ENDBRANCH  10  11
ENDBRANCH   9  10
ENDBRANCH   8   9
ENDBRANCH   7   8
ENDBRANCH   6   7
ENDBRANCH   5   6
ENDBRANCH   4   5
ENDBRANCH   3   4
ENDBRANCH   2   3
ENDBRANCH   1   2
BRANCH   1  17
ATOM     17  C   UNL     1      -6.503 -41.866 -15.879  1.00  0.00     0.000 C 
BRANCH  17  18
ATOM     18  C   UNL     1      -6.771 -40.412 -16.327  1.00  0.00     0.000 C 
BRANCH  18  19
ATOM     19  C   UNL     1      -7.574 -39.616 -15.286  1.00  0.00     0.000 C 
BRANCH  19  20
ATOM     20  C   UNL     1      -8.607 -40.501 -14.567  1.00  0.00     0.000 C 
BRANCH  20  21
ATOM     21  C   UNL     1      -8.583 -40.322 -13.041  1.00  0.00     0.000 C 
BRANCH  21  22
ATOM     22  C   UNL     1      -7.442 -39.408 -12.570  1.00  0.00    -0.000 C 
BRANCH  22  23
ATOM     23  C   UNL     1      -6.325 -40.221 -11.906  1.00  0.00    -0.000 C 
BRANCH  23  24
ATOM     24  C   UNL     1      -5.969 -39.641 -10.528  1.00  0.00    -0.000 C 
BRANCH  24  25
ATOM     25  C   UNL     1      -7.212 -39.288  -9.695  1.00  0.00    -0.000 C 
BRANCH  25  26
ATOM     26  C   UNL     1      -6.956 -38.121  -8.726  1.00  0.00    -0.000 C 
BRANCH  26  27
ATOM     27  C   UNL     1      -7.413 -36.765  -9.291  1.00  0.00    -0.000 C 
BRANCH  27  28
ATOM     28  C   UNL     1      -6.299 -36.038 -10.066  1.00  0.00    -0.000 C 
BRANCH  28  29
ATOM     29  C   UNL     1      -4.917 -36.232  -9.427  1.00  0.00    -0.003 C 
ATOM     30  C   UNL     1      -4.643 -35.239  -8.296  1.00  0.00     0.004 C 
ENDBRANCH  28  29
ENDBRANCH  27  28
ENDBRANCH  26  27
ENDBRANCH  25  26
ENDBRANCH  24  25
ENDBRANCH  23  24
ENDBRANCH  22  23
ENDBRANCH  21  22
ENDBRANCH  20  21
ENDBRANCH  19  20
ENDBRANCH  18  19
ENDBRANCH  17  18
ENDBRANCH   1  17
TORSDOF 26
ENDMDL
MODEL 6
REMARK VINA RESULT:    -4.126      2.488      7.151
REMARK INTER + INTRA:         -14.582
REMARK INTER:                 -11.153
REMARK INTRA:                  -3.429
REMARK UNBOUND:                -4.185
REMARK SMILES CCCCCCCCCCCCCCCCCCCCCCCCCCCC(=O)[O-]
REMARK SMILES IDX 15 1 16 2 17 3 18 4 19 5 20 6 21 7 22 8 23 9 24 10 25 11
REMARK SMILES IDX 26 12 27 13 28 14 29 15 30 16 14 17 13 18 12 19 11 20 10 21
REMARK SMILES IDX 9 22 8 23 7 24 6 25 5 26 4 27 3 28 2 29 1 30
REMARK H PARENT
REMARK Flexibility Score: inf
ROOT
ATOM      1  C   UNL     1      -4.920 -42.073 -16.876  1.00  0.00     0.000 C 
ENDROOT
BRANCH   1   2
ATOM      2  C   UNL     1      -6.358 -42.567 -17.104  1.00  0.00     0.000 C 
BRANCH   2   3
ATOM      3  C   UNL     1      -7.383 -41.487 -16.723  1.00  0.00     0.000 C 
BRANCH   3   4
ATOM      4  C   UNL     1      -6.740 -40.293 -15.998  1.00  0.00     0.000 C 
BRANCH   4   5
ATOM      5  C   UNL     1      -7.779 -39.379 -15.328  1.00  0.00     0.000 C 
BRANCH   5   6
ATOM      6  C   UNL     1      -8.936 -38.999 -16.269  1.00  0.00     0.000 C 
BRANCH   6   7
ATOM      7  C   UNL     1      -9.084 -37.493 -16.545  1.00  0.00     0.000 C 
BRANCH   7   8
ATOM      8  C   UNL     1      -9.050 -37.152 -18.042  1.00  0.00     0.000 C 
BRANCH   8   9
ATOM      9  C   UNL     1      -8.658 -38.376 -18.878  1.00  0.00     0.000 C 
BRANCH   9  10
ATOM     10  C   UNL     1      -7.140 -38.420 -19.105  1.00  0.00     0.000 C 
BRANCH  10  11
ATOM     11  C   UNL     1      -6.695 -39.695 -19.843  1.00  0.00     0.000 C 
BRANCH  11  12
ATOM     12  C   UNL     1      -5.178 -39.717 -20.104  1.00  0.00     0.006 C 
BRANCH  12  13
ATOM     13  C   UNL     1      -4.660 -41.132 -20.403  1.00  0.00     0.053 C 
BRANCH  13  14
ATOM     14  C   UNL     1      -3.991 -41.212 -21.741  1.00  0.00     0.041 C 
ATOM     15  O   UNL     1      -4.101 -40.265 -22.564  1.00  0.00    -0.550 OA
ATOM     16  O   UNL     1      -3.257 -42.340 -22.087  1.00  0.00    -0.550 OA
ENDBRANCH  13  14
ENDBRANCH  12  13
ENDBRANCH  11  12
ENDBRANCH  10  11
ENDBRANCH   9  10
ENDBRANCH   8   9
ENDBRANCH   7   8
ENDBRANCH   6   7
ENDBRANCH   5   6
ENDBRANCH   4   5
ENDBRANCH   3   4
ENDBRANCH   2   3
ENDBRANCH   1   2
BRANCH   1  17
ATOM     17  C   UNL     1      -4.193 -42.910 -15.811  1.00  0.00     0.000 C 
BRANCH  17  18
ATOM     18  C   UNL     1      -5.156 -43.818 -15.014  1.00  0.00     0.000 C 
BRANCH  18  19
ATOM     19  C   UNL     1      -5.600 -43.182 -13.688  1.00  0.00     0.000 C 
BRANCH  19  20
ATOM     20  C   UNL     1      -7.054 -43.550 -13.342  1.00  0.00     0.000 C 
BRANCH  20  21
ATOM     21  C   UNL     1      -7.928 -42.318 -13.061  1.00  0.00     0.000 C 
BRANCH  21  22
ATOM     22  C   UNL     1      -7.276 -41.344 -12.068  1.00  0.00    -0.000 C 
BRANCH  22  23
ATOM     23  C   UNL     1      -7.132 -41.985 -10.683  1.00  0.00    -0.000 C 
BRANCH  23  24
ATOM     24  C   UNL     1      -6.825 -40.922  -9.616  1.00  0.00    -0.000 C 
BRANCH  24  25
ATOM     25  C   UNL     1      -5.969 -39.766 -10.160  1.00  0.00    -0.000 C 
BRANCH  25  26
ATOM     26  C   UNL     1      -6.260 -38.435  -9.446  1.00  0.00    -0.000 C 
BRANCH  26  27
ATOM     27  C   UNL     1      -5.167 -37.379  -9.683  1.00  0.00    -0.000 C 
BRANCH  27  28
ATOM     28  C   UNL     1      -5.663 -35.943  -9.434  1.00  0.00    -0.000 C 
BRANCH  28  29
ATOM     29  C   UNL     1      -4.623 -35.082  -8.703  1.00  0.00    -0.003 C 
ATOM     30  C   UNL     1      -3.351 -35.857  -8.354  1.00  0.00     0.004 C 
ENDBRANCH  28  29
ENDBRANCH  27  28
ENDBRANCH  26  27
ENDBRANCH  25  26
ENDBRANCH  24  25
ENDBRANCH  23  24
ENDBRANCH  22  23
ENDBRANCH  21  22
ENDBRANCH  20  21
ENDBRANCH  19  20
ENDBRANCH  18  19
ENDBRANCH  17  18
ENDBRANCH   1  17
TORSDOF 26
ENDMDL
MODEL 7
REMARK VINA RESULT:    -4.088      1.194      6.034
REMARK INTER + INTRA:         -14.486
REMARK INTER:                  -9.942
REMARK INTRA:                  -4.545
REMARK UNBOUND:                -4.185
REMARK SMILES CCCCCCCCCCCCCCCCCCCCCCCCCCCC(=O)[O-]
REMARK SMILES IDX 15 1 16 2 17 3 18 4 19 5 20 6 21 7 22 8 23 9 24 10 25 11
REMARK SMILES IDX 26 12 27 13 28 14 29 15 30 16 14 17 13 18 12 19 11 20 10 21
REMARK SMILES IDX 9 22 8 23 7 24 6 25 5 26 4 27 3 28 2 29 1 30
REMARK H PARENT
REMARK Flexibility Score: inf
ROOT
ATOM      1  C   UNL     1      -6.861 -40.806 -12.908  1.00  0.00     0.000 C 
ENDROOT
BRANCH   1   2
ATOM      2  C   UNL     1      -7.912 -41.920 -12.768  1.00  0.00     0.000 C 
BRANCH   2   3
ATOM      3  C   UNL     1      -7.806 -42.615 -11.401  1.00  0.00     0.000 C 
BRANCH   3   4
ATOM      4  C   UNL     1      -8.519 -43.977 -11.376  1.00  0.00     0.000 C 
BRANCH   4   5
ATOM      5  C   UNL     1      -7.708 -45.055 -10.637  1.00  0.00     0.000 C 
BRANCH   5   6
ATOM      6  C   UNL     1      -6.203 -44.736 -10.581  1.00  0.00     0.000 C 
BRANCH   6   7
ATOM      7  C   UNL     1      -5.290 -45.788 -11.233  1.00  0.00     0.000 C 
BRANCH   7   8
ATOM      8  C   UNL     1      -5.419 -45.827 -12.764  1.00  0.00     0.000 C 
BRANCH   8   9
ATOM      9  C   UNL     1      -5.302 -44.421 -13.363  1.00  0.00     0.000 C 
BRANCH   9  10
ATOM     10  C   UNL     1      -4.885 -44.488 -14.840  1.00  0.00     0.000 C 
BRANCH  10  11
ATOM     11  C   UNL     1      -4.753 -43.094 -15.476  1.00  0.00     0.000 C 
BRANCH  11  12
ATOM     12  C   UNL     1      -6.098 -42.566 -16.007  1.00  0.00     0.006 C 
BRANCH  12  13
ATOM     13  C   UNL     1      -5.996 -41.120 -16.516  1.00  0.00     0.053 C 
BRANCH  13  14
ATOM     14  C   UNL     1      -7.344 -40.510 -16.746  1.00  0.00     0.041 C 
ATOM     15  O   UNL     1      -8.386 -41.208 -16.625  1.00  0.00    -0.550 OA
ATOM     16  O   UNL     1      -7.452 -39.173 -17.108  1.00  0.00    -0.550 OA
ENDBRANCH  13  14
ENDBRANCH  12  13
ENDBRANCH  11  12
ENDBRANCH  10  11
ENDBRANCH   9  10
ENDBRANCH   8   9
ENDBRANCH   7   8
ENDBRANCH   6   7
ENDBRANCH   5   6
ENDBRANCH   4   5
ENDBRANCH   3   4
ENDBRANCH   2   3
ENDBRANCH   1   2
BRANCH   1  17
ATOM     17  C   UNL     1      -7.508 -39.453 -13.246  1.00  0.00     0.000 C 
BRANCH  17  18
ATOM     18  C   UNL     1      -9.027 -39.571 -13.501  1.00  0.00     0.000 C 
BRANCH  18  19
ATOM     19  C   UNL     1      -9.849 -38.657 -12.579  1.00  0.00     0.000 C 
BRANCH  19  20
ATOM     20  C   UNL     1      -8.961 -37.955 -11.537  1.00  0.00     0.000 C 
BRANCH  20  21
ATOM     21  C   UNL     1      -9.733 -37.558 -10.269  1.00  0.00     0.000 C 
BRANCH  21  22
ATOM     22  C   UNL     1      -9.429 -38.480  -9.079  1.00  0.00    -0.000 C 
BRANCH  22  23
ATOM     23  C   UNL     1      -8.416 -39.563  -9.466  1.00  0.00    -0.000 C 
BRANCH  23  24
ATOM     24  C   UNL     1      -7.052 -39.298  -8.810  1.00  0.00    -0.000 C 
BRANCH  24  25
ATOM     25  C   UNL     1      -5.911 -39.190  -9.836  1.00  0.00    -0.000 C 
BRANCH  25  26
ATOM     26  C   UNL     1      -5.172 -37.844  -9.751  1.00  0.00    -0.000 C 
BRANCH  26  27
ATOM     27  C   UNL     1      -6.096 -36.680  -9.352  1.00  0.00    -0.000 C 
BRANCH  27  28
ATOM     28  C   UNL     1      -5.333 -35.358  -9.150  1.00  0.00    -0.000 C 
BRANCH  28  29
ATOM     29  C   UNL     1      -6.167 -34.132  -9.552  1.00  0.00    -0.003 C 
ATOM     30  C   UNL     1      -7.498 -34.510 -10.203  1.00  0.00     0.004 C 
ENDBRANCH  28  29
ENDBRANCH  27  28
ENDBRANCH  26  27
ENDBRANCH  25  26
ENDBRANCH  24  25
ENDBRANCH  23  24
ENDBRANCH  22  23
ENDBRANCH  21  22
ENDBRANCH  20  21
ENDBRANCH  19  20
ENDBRANCH  18  19
ENDBRANCH  17  18
ENDBRANCH   1  17
TORSDOF 26
ENDMDL
MODEL 8
REMARK VINA RESULT:    -4.065      3.250      7.296
REMARK INTER + INTRA:         -14.428
REMARK INTER:                  -9.575
REMARK INTRA:                  -4.852
REMARK UNBOUND:                -4.185
REMARK SMILES CCCCCCCCCCCCCCCCCCCCCCCCCCCC(=O)[O-]
REMARK SMILES IDX 15 1 16 2 17 3 18 4 19 5 20 6 21 7 22 8 23 9 24 10 25 11
REMARK SMILES IDX 26 12 27 13 28 14 29 15 30 16 14 17 13 18 12 19 11 20 10 21
REMARK SMILES IDX 9 22 8 23 7 24 6 25 5 26 4 27 3 28 2 29 1 30
REMARK H PARENT
REMARK Flexibility Score: inf
ROOT
ATOM      1  C   UNL     1      -5.618 -41.611 -15.006  1.00  0.00     0.000 C 
ENDROOT
BRANCH   1   2
ATOM      2  C   UNL     1      -6.059 -41.349 -16.456  1.00  0.00     0.000 C 
BRANCH   2   3
ATOM      3  C   UNL     1      -7.375 -40.558 -16.502  1.00  0.00     0.000 C 
BRANCH   3   4
ATOM      4  C   UNL     1      -7.435 -39.452 -15.436  1.00  0.00     0.000 C 
BRANCH   4   5
ATOM      5  C   UNL     1      -8.825 -39.331 -14.788  1.00  0.00     0.000 C 
BRANCH   5   6
ATOM      6  C   UNL     1      -8.772 -39.358 -13.250  1.00  0.00     0.000 C 
BRANCH   6   7
ATOM      7  C   UNL     1      -8.876 -40.758 -12.620  1.00  0.00     0.000 C 
BRANCH   7   8
ATOM      8  C   UNL     1      -7.635 -41.139 -11.800  1.00  0.00     0.000 C 
BRANCH   8   9
ATOM      9  C   UNL     1      -6.612 -39.996 -11.783  1.00  0.00     0.000 C 
BRANCH   9  10
ATOM     10  C   UNL     1      -5.902 -39.918 -10.424  1.00  0.00     0.000 C 
BRANCH  10  11
ATOM     11  C   UNL     1      -5.257 -38.543 -10.177  1.00  0.00     0.000 C 
BRANCH  11  12
ATOM     12  C   UNL     1      -6.224 -37.559  -9.496  1.00  0.00     0.006 C 
BRANCH  12  13
ATOM     13  C   UNL     1      -5.528 -36.257  -9.073  1.00  0.00     0.053 C 
BRANCH  13  14
ATOM     14  C   UNL     1      -6.210 -35.048  -9.637  1.00  0.00     0.041 C 
ATOM     15  O   UNL     1      -5.783 -33.895  -9.366  1.00  0.00    -0.550 OA
ATOM     16  O   UNL     1      -7.326 -35.195 -10.452  1.00  0.00    -0.550 OA
ENDBRANCH  13  14
ENDBRANCH  12  13
ENDBRANCH  11  12
ENDBRANCH  10  11
ENDBRANCH   9  10
ENDBRANCH   8   9
ENDBRANCH   7   8
ENDBRANCH   6   7
ENDBRANCH   5   6
ENDBRANCH   4   5
ENDBRANCH   3   4
ENDBRANCH   2   3
ENDBRANCH   1   2
BRANCH   1  17
ATOM     17  C   UNL     1      -6.094 -42.983 -14.505  1.00  0.00     0.000 C 
BRANCH  17  18
ATOM     18  C   UNL     1      -6.102 -44.051 -15.623  1.00  0.00     0.000 C 
BRANCH  18  19
ATOM     19  C   UNL     1      -7.407 -44.861 -15.652  1.00  0.00     0.000 C 
BRANCH  19  20
ATOM     20  C   UNL     1      -8.212 -44.689 -14.351  1.00  0.00     0.000 C 
BRANCH  20  21
ATOM     21  C   UNL     1      -8.775 -46.016 -13.820  1.00  0.00     0.000 C 
BRANCH  21  22
ATOM     22  C   UNL     1      -9.338 -45.892 -12.396  1.00  0.00    -0.000 C 
BRANCH  22  23
ATOM     23  C   UNL     1      -8.935 -44.557 -11.759  1.00  0.00    -0.000 C 
BRANCH  23  24
ATOM     24  C   UNL     1      -7.928 -44.775 -10.619  1.00  0.00    -0.000 C 
BRANCH  24  25
ATOM     25  C   UNL     1      -6.479 -44.488 -11.044  1.00  0.00    -0.000 C 
BRANCH  25  26
ATOM     26  C   UNL     1      -5.641 -45.772 -11.176  1.00  0.00    -0.000 C 
BRANCH  26  27
ATOM     27  C   UNL     1      -5.000 -45.926 -12.565  1.00  0.00    -0.000 C 
BRANCH  27  28
ATOM     28  C   UNL     1      -5.342 -47.271 -13.232  1.00  0.00    -0.000 C 
BRANCH  28  29
ATOM     29  C   UNL     1      -4.767 -47.385 -14.652  1.00  0.00    -0.003 C 
ATOM     30  C   UNL     1      -3.484 -46.575 -14.837  1.00  0.00     0.004 C 
ENDBRANCH  28  29
ENDBRANCH  27  28
ENDBRANCH  26  27
ENDBRANCH  25  26
ENDBRANCH  24  25
ENDBRANCH  23  24
ENDBRANCH  22  23
ENDBRANCH  21  22
ENDBRANCH  20  21
ENDBRANCH  19  20
ENDBRANCH  18  19
ENDBRANCH  17  18
ENDBRANCH   1  17
TORSDOF 26
ENDMDL
MODEL 9
REMARK VINA RESULT:    -4.034      1.701      3.384
REMARK INTER + INTRA:         -14.351
REMARK INTER:                 -10.449
REMARK INTRA:                  -3.901
REMARK UNBOUND:                -4.185
REMARK SMILES CCCCCCCCCCCCCCCCCCCCCCCCCCCC(=O)[O-]
REMARK SMILES IDX 15 1 16 2 17 3 18 4 19 5 20 6 21 7 22 8 23 9 24 10 25 11
REMARK SMILES IDX 26 12 27 13 28 14 29 15 30 16 14 17 13 18 12 19 11 20 10 21
REMARK SMILES IDX 9 22 8 23 7 24 6 25 5 26 4 27 3 28 2 29 1 30
REMARK H PARENT
REMARK Flexibility Score: inf
ROOT
ATOM      1  C   UNL     1      -7.808 -35.045 -10.491  1.00  0.00     0.000 C 
ENDROOT
BRANCH   1   2
ATOM      2  C   UNL     1      -7.388 -34.429  -9.145  1.00  0.00     0.000 C 
BRANCH   2   3
ATOM      3  C   UNL     1      -6.031 -34.981  -8.682  1.00  0.00     0.000 C 
BRANCH   3   4
ATOM      4  C   UNL     1      -5.288 -35.733  -9.800  1.00  0.00     0.000 C 
BRANCH   4   5
ATOM      5  C   UNL     1      -4.846 -37.142  -9.370  1.00  0.00     0.000 C 
BRANCH   5   6
ATOM      6  C   UNL     1      -5.963 -38.190  -9.519  1.00  0.00     0.000 C 
BRANCH   6   7
ATOM      7  C   UNL     1      -5.653 -39.339 -10.493  1.00  0.00     0.000 C 
BRANCH   7   8
ATOM      8  C   UNL     1      -6.714 -39.494 -11.594  1.00  0.00     0.000 C 
BRANCH   8   9
ATOM      9  C   UNL     1      -6.424 -40.718 -12.471  1.00  0.00     0.000 C 
BRANCH   9  10
ATOM     10  C   UNL     1      -7.377 -40.766 -13.675  1.00  0.00     0.000 C 
BRANCH  10  11
ATOM     11  C   UNL     1      -7.577 -39.384 -14.320  1.00  0.00     0.000 C 
BRANCH  11  12
ATOM     12  C   UNL     1      -8.252 -39.477 -15.700  1.00  0.00     0.006 C 
BRANCH  12  13
ATOM     13  C   UNL     1      -9.161 -38.272 -15.986  1.00  0.00     0.053 C 
BRANCH  13  14
ATOM     14  C   UNL     1      -8.667 -37.459 -17.143  1.00  0.00     0.041 C 
ATOM     15  O   UNL     1      -7.637 -37.816 -17.776  1.00  0.00    -0.550 OA
ATOM     16  O   UNL     1      -9.336 -36.300 -17.517  1.00  0.00    -0.550 OA
ENDBRANCH  13  14
ENDBRANCH  12  13
ENDBRANCH  11  12
ENDBRANCH  10  11
ENDBRANCH   9  10
ENDBRANCH   8   9
ENDBRANCH   7   8
ENDBRANCH   6   7
ENDBRANCH   5   6
ENDBRANCH   4   5
ENDBRANCH   3   4
ENDBRANCH   2   3
ENDBRANCH   1   2
BRANCH   1  17
ATOM     17  C   UNL     1      -9.236 -35.613 -10.435  1.00  0.00     0.000 C 
BRANCH  17  18
ATOM     18  C   UNL     1      -9.265 -37.099 -10.013  1.00  0.00     0.000 C 
BRANCH  18  19
ATOM     19  C   UNL     1      -9.481 -37.275  -8.502  1.00  0.00     0.000 C 
BRANCH  19  20
ATOM     20  C   UNL     1      -9.962 -38.696  -8.159  1.00  0.00     0.000 C 
BRANCH  20  21
ATOM     21  C   UNL     1      -9.425 -39.757  -9.132  1.00  0.00     0.000 C 
BRANCH  21  22
ATOM     22  C   UNL     1      -8.518 -40.787  -8.443  1.00  0.00    -0.000 C 
BRANCH  22  23
ATOM     23  C   UNL     1      -8.163 -41.933  -9.397  1.00  0.00    -0.000 C 
BRANCH  23  24
ATOM     24  C   UNL     1      -6.839 -42.597  -8.987  1.00  0.00    -0.000 C 
BRANCH  24  25
ATOM     25  C   UNL     1      -6.495 -43.819  -9.855  1.00  0.00    -0.000 C 
BRANCH  25  26
ATOM     26  C   UNL     1      -7.740 -44.447 -10.503  1.00  0.00    -0.000 C 
BRANCH  26  27
ATOM     27  C   UNL     1      -7.526 -44.808 -11.982  1.00  0.00    -0.000 C 
BRANCH  27  28
ATOM     28  C   UNL     1      -6.096 -44.508 -12.467  1.00  0.00    -0.000 C 
BRANCH  28  29
ATOM     29  C   UNL     1      -5.337 -45.779 -12.878  1.00  0.00    -0.003 C 
ATOM     30  C   UNL     1      -6.265 -46.886 -13.381  1.00  0.00     0.004 C 
ENDBRANCH  28  29
ENDBRANCH  27  28
ENDBRANCH  26  27
ENDBRANCH  25  26
ENDBRANCH  24  25
ENDBRANCH  23  24
ENDBRANCH  22  23
ENDBRANCH  21  22
ENDBRANCH  20  21
ENDBRANCH  19  20
ENDBRANCH  18  19
ENDBRANCH  17  18
ENDBRANCH   1  17
TORSDOF 26
ENDMDL
