MODEL 1
REMARK VINA RESULT:    -7.707      0.000      0.000
REMARK INTER + INTRA:          -8.086
REMARK INTER:                  -8.382
REMARK INTRA:                   0.296
REMARK UNBOUND:                 0.296
REMARK SMILES CC1(C)CC[C@]2(C(=O)[O-])CC[C@@]3(C)C(=CC[C@H]4[C@]5(C)CC[C@@H](O)C(C)(C)[C@H]5CC[C@@]43C)[C@H]2C1
REMARK SMILES IDX 6 1 5 2 10 3 32 4 4 5 11 6 14 7 33 8 2 9 12 10 15 11 1 12
REMARK SMILES IDX 3 13 13 14 30 15 16 16 17 17 29 18 31 19 18 20 28 21 27 22
REMARK SMILES IDX 20 23 19 24 24 25 21 26 22 27 25 28 26 29 7 30 8 31 9 32
REMARK SMILES IDX 23 33
REMARK H PARENT 23 34
REMARK Flexibility Score: inf
ROOT
ATOM      1  C   UNL     1     -13.859  18.186 -25.466  1.00  0.00     0.017 C 
ATOM      2  C   UNL     1     -14.884  17.249 -26.169  1.00  0.00     0.014 C 
ATOM      3  C   UNL     1     -13.609  19.435 -26.386  1.00  0.00     0.014 C 
ATOM      4  C   UNL     1     -12.524  17.398 -25.242  1.00  0.00     0.028 C 
ATOM      5  C   UNL     1     -15.122  15.944 -25.391  1.00  0.00     0.007 C 
ATOM      6  C   UNL     1     -12.126  19.838 -26.573  1.00  0.00     0.013 C 
ATOM      7  C   UNL     1     -11.446  18.319 -24.650  1.00  0.00    -0.064 C 
ATOM      8  C   UNL     1     -12.746  16.057 -24.488  1.00  0.00     0.015 C 
ATOM      9  C   UNL     1     -13.820  15.145 -25.145  1.00  0.00    -0.035 C 
ATOM     10  C   UNL     1     -11.241  19.695 -25.288  1.00  0.00    -0.006 C 
ATOM     11  C   UNL     1     -10.574  17.901 -23.690  1.00  0.00    -0.027 C 
ATOM     12  C   UNL     1     -13.295  14.534 -26.467  1.00  0.00     0.011 C 
ATOM     13  C   UNL     1     -14.127  13.980 -24.180  1.00  0.00     0.011 C 
ATOM     14  C   UNL     1     -11.758  20.763 -24.257  1.00  0.00     0.017 C 
ATOM     15  C   UNL     1      -9.671  19.834 -25.609  1.00  0.00    -0.020 C 
ATOM     16  C   UNL     1      -9.303  18.642 -23.310  1.00  0.00     0.032 C 
ATOM     17  C   UNL     1      -8.920  19.856 -24.220  1.00  0.00     0.006 C 
ATOM     18  C   UNL     1      -9.355  21.144 -26.397  1.00  0.00     0.008 C 
ATOM     19  C   UNL     1      -9.186  18.626 -26.487  1.00  0.00     0.012 C 
ATOM     20  C   UNL     1      -7.377  20.222 -24.252  1.00  0.00    -0.025 C 
ATOM     21  C   UNL     1      -7.859  21.506 -26.449  1.00  0.00     0.005 C 
ATOM     22  C   UNL     1      -7.244  21.590 -25.027  1.00  0.00     0.003 C 
ATOM     23  C   UNL     1      -6.901  20.457 -22.782  1.00  0.00     0.010 C 
ATOM     24  C   UNL     1      -6.525  19.068 -24.879  1.00  0.00     0.012 C 
ATOM     25  C   UNL     1      -5.832  22.300 -24.937  1.00  0.00    -0.006 C 
ATOM     26  C   UNL     1      -5.507  21.096 -22.673  1.00  0.00     0.033 C 
ATOM     27  C   UNL     1      -5.424  22.428 -23.434  1.00  0.00     0.120 C 
ATOM     28  C   UNL     1      -4.729  21.572 -25.749  1.00  0.00     0.014 C 
ATOM     29  C   UNL     1      -5.939  23.746 -25.505  1.00  0.00     0.014 C 
ENDROOT
BRANCH   1  30
ATOM     30  C   UNL     1     -14.477  18.667 -24.152  1.00  0.00     0.048 C 
ATOM     31  O   UNL     1     -14.381  17.995 -23.090  1.00  0.00    -0.550 OA
ATOM     32  O   UNL     1     -15.123  19.899 -24.104  1.00  0.00    -0.550 OA
ENDBRANCH   1  30
BRANCH  27  33
ATOM     33  O   UNL     1      -4.121  22.947 -23.324  1.00  0.00    -0.393 OA
ATOM     34  H   UNL     1      -4.207  23.896 -23.044  1.00  0.00     0.210 HD
ENDBRANCH  27  33
TORSDOF 2
ENDMDL
MODEL 2
REMARK VINA RESULT:    -7.654      4.190      9.994
REMARK INTER + INTRA:          -8.029
REMARK INTER:                  -8.287
REMARK INTRA:                   0.258
REMARK UNBOUND:                 0.296
REMARK SMILES CC1(C)CC[C@]2(C(=O)[O-])CC[C@@]3(C)C(=CC[C@H]4[C@]5(C)CC[C@@H](O)C(C)(C)[C@H]5CC[C@@]43C)[C@H]2C1
REMARK SMILES IDX 6 1 5 2 10 3 32 4 4 5 11 6 14 7 33 8 2 9 12 10 15 11 1 12
REMARK SMILES IDX 3 13 13 14 30 15 16 16 17 17 29 18 31 19 18 20 28 21 27 22
REMARK SMILES IDX 20 23 19 24 24 25 21 26 22 27 25 28 26 29 7 30 8 31 9 32
REMARK SMILES IDX 23 33
REMARK H PARENT 23 34
REMARK Flexibility Score: inf
ROOT
ATOM      1  C   UNL     1     -12.133  15.970 -23.180  1.00  0.00     0.017 C 
ATOM      2  C   UNL     1     -11.424  17.293 -22.765  1.00  0.00     0.014 C 
ATOM      3  C   UNL     1     -11.195  14.764 -22.817  1.00  0.00     0.014 C 
ATOM      4  C   UNL     1     -12.403  16.005 -24.723  1.00  0.00     0.028 C 
ATOM      5  C   UNL     1     -12.222  18.544 -23.170  1.00  0.00     0.007 C 
ATOM      6  C   UNL     1     -11.034  13.689 -23.920  1.00  0.00     0.013 C 
ATOM      7  C   UNL     1     -13.003  14.672 -25.197  1.00  0.00    -0.064 C 
ATOM      8  C   UNL     1     -13.178  17.279 -25.160  1.00  0.00     0.015 C 
ATOM      9  C   UNL     1     -12.515  18.603 -24.689  1.00  0.00    -0.035 C 
ATOM     10  C   UNL     1     -12.342  13.375 -24.723  1.00  0.00    -0.006 C 
ATOM     11  C   UNL     1     -13.991  14.605 -26.131  1.00  0.00    -0.027 C 
ATOM     12  C   UNL     1     -11.218  18.888 -25.484  1.00  0.00     0.011 C 
ATOM     13  C   UNL     1     -13.495  19.765 -24.960  1.00  0.00     0.011 C 
ATOM     14  C   UNL     1     -13.340  12.689 -23.720  1.00  0.00     0.017 C 
ATOM     15  C   UNL     1     -12.056  12.489 -26.035  1.00  0.00    -0.020 C 
ATOM     16  C   UNL     1     -14.386  13.336 -26.868  1.00  0.00     0.032 C 
ATOM     17  C   UNL     1     -13.461  12.095 -26.637  1.00  0.00     0.006 C 
ATOM     18  C   UNL     1     -11.250  11.195 -25.695  1.00  0.00     0.008 C 
ATOM     19  C   UNL     1     -11.214  13.311 -27.074  1.00  0.00     0.012 C 
ATOM     20  C   UNL     1     -13.458  11.022 -27.806  1.00  0.00    -0.025 C 
ATOM     21  C   UNL     1     -11.226  10.149 -26.825  1.00  0.00     0.005 C 
ATOM     22  C   UNL     1     -12.661   9.768 -27.278  1.00  0.00     0.003 C 
ATOM     23  C   UNL     1     -14.934  10.576 -28.062  1.00  0.00     0.010 C 
ATOM     24  C   UNL     1     -12.874  11.617 -29.130  1.00  0.00     0.012 C 
ATOM     25  C   UNL     1     -12.770   8.458 -28.160  1.00  0.00    -0.006 C 
ATOM     26  C   UNL     1     -15.064   9.337 -28.963  1.00  0.00     0.033 C 
ATOM     27  C   UNL     1     -14.279   8.139 -28.409  1.00  0.00     0.120 C 
ATOM     28  C   UNL     1     -11.997   8.560 -29.503  1.00  0.00     0.014 C 
ATOM     29  C   UNL     1     -12.171   7.252 -27.379  1.00  0.00     0.014 C 
ENDROOT
BRANCH   1  30
ATOM     30  C   UNL     1     -13.423  15.845 -22.367  1.00  0.00     0.048 C 
ATOM     31  O   UNL     1     -14.534  16.220 -22.827  1.00  0.00    -0.550 OA
ATOM     32  O   UNL     1     -13.387  15.260 -21.105  1.00  0.00    -0.550 OA
ENDBRANCH   1  30
BRANCH  27  33
ATOM     33  O   UNL     1     -14.409   7.049 -29.290  1.00  0.00    -0.393 OA
ATOM     34  H   UNL     1     -14.993   6.381 -28.843  1.00  0.00     0.210 HD
ENDBRANCH  27  33
TORSDOF 2
ENDMDL
MODEL 3
REMARK VINA RESULT:    -7.454      5.380      9.378
REMARK INTER + INTRA:          -7.811
REMARK INTER:                  -8.096
REMARK INTRA:                   0.285
REMARK UNBOUND:                 0.296
REMARK SMILES CC1(C)CC[C@]2(C(=O)[O-])CC[C@@]3(C)C(=CC[C@H]4[C@]5(C)CC[C@@H](O)C(C)(C)[C@H]5CC[C@@]43C)[C@H]2C1
REMARK SMILES IDX 6 1 5 2 10 3 32 4 4 5 11 6 14 7 33 8 2 9 12 10 15 11 1 12
REMARK SMILES IDX 3 13 13 14 30 15 16 16 17 17 29 18 31 19 18 20 28 21 27 22
REMARK SMILES IDX 20 23 19 24 24 25 21 26 22 27 25 28 26 29 7 30 8 31 9 32
REMARK SMILES IDX 23 33
REMARK H PARENT 23 34
REMARK Flexibility Score: inf
ROOT
ATOM      1  C   UNL     1     -12.896  15.856 -22.934  1.00  0.00     0.017 C 
ATOM      2  C   UNL     1     -12.968  17.397 -23.140  1.00  0.00     0.014 C 
ATOM      3  C   UNL     1     -11.915  15.555 -21.744  1.00  0.00     0.014 C 
ATOM      4  C   UNL     1     -12.370  15.193 -24.252  1.00  0.00     0.028 C 
ATOM      5  C   UNL     1     -13.830  17.791 -24.352  1.00  0.00     0.007 C 
ATOM      6  C   UNL     1     -10.888  14.425 -21.996  1.00  0.00     0.013 C 
ATOM      7  C   UNL     1     -12.178  13.681 -24.058  1.00  0.00    -0.064 C 
ATOM      8  C   UNL     1     -13.206  15.606 -25.497  1.00  0.00     0.015 C 
ATOM      9  C   UNL     1     -13.343  17.144 -25.671  1.00  0.00    -0.035 C 
ATOM     10  C   UNL     1     -11.445  13.202 -22.803  1.00  0.00    -0.006 C 
ATOM     11  C   UNL     1     -12.495  12.773 -25.023  1.00  0.00    -0.027 C 
ATOM     12  C   UNL     1     -12.003  17.773 -26.125  1.00  0.00     0.011 C 
ATOM     13  C   UNL     1     -14.387  17.420 -26.774  1.00  0.00     0.011 C 
ATOM     14  C   UNL     1     -12.512  12.498 -21.886  1.00  0.00     0.017 C 
ATOM     15  C   UNL     1     -10.277  12.209 -23.291  1.00  0.00    -0.020 C 
ATOM     16  C   UNL     1     -12.030  11.327 -25.020  1.00  0.00     0.032 C 
ATOM     17  C   UNL     1     -10.984  10.946 -23.920  1.00  0.00     0.006 C 
ATOM     18  C   UNL     1      -9.363  11.764 -22.106  1.00  0.00     0.008 C 
ATOM     19  C   UNL     1      -9.364  12.923 -24.350  1.00  0.00     0.012 C 
ATOM     20  C   UNL     1     -10.053   9.709 -24.266  1.00  0.00    -0.025 C 
ATOM     21  C   UNL     1      -8.442  10.573 -22.431  1.00  0.00     0.005 C 
ATOM     22  C   UNL     1      -9.250   9.356 -22.955  1.00  0.00     0.003 C 
ATOM     23  C   UNL     1     -10.968   8.490 -24.609  1.00  0.00     0.010 C 
ATOM     24  C   UNL     1      -9.132  10.010 -25.496  1.00  0.00     0.012 C 
ATOM     25  C   UNL     1      -8.470   7.978 -22.972  1.00  0.00    -0.006 C 
ATOM     26  C   UNL     1     -10.219   7.150 -24.685  1.00  0.00     0.033 C 
ATOM     27  C   UNL     1      -9.459   6.842 -23.386  1.00  0.00     0.120 C 
ATOM     28  C   UNL     1      -7.225   7.993 -23.899  1.00  0.00     0.014 C 
ATOM     29  C   UNL     1      -7.967   7.645 -21.537  1.00  0.00     0.014 C 
ENDROOT
BRANCH   1  30
ATOM     30  C   UNL     1     -14.291  15.360 -22.551  1.00  0.00     0.048 C 
ATOM     31  O   UNL     1     -14.749  15.505 -21.385  1.00  0.00    -0.550 OA
ATOM     32  O   UNL     1     -15.102  14.773 -23.517  1.00  0.00    -0.550 OA
ENDBRANCH   1  30
BRANCH  27  33
ATOM     33  O   UNL     1      -8.770   5.623 -23.528  1.00  0.00    -0.393 OA
ATOM     34  H   UNL     1      -7.836   5.779 -23.227  1.00  0.00     0.210 HD
ENDBRANCH  27  33
TORSDOF 2
ENDMDL
MODEL 4
REMARK VINA RESULT:    -7.259     14.710     18.090
REMARK INTER + INTRA:          -7.599
REMARK INTER:                  -7.870
REMARK INTRA:                   0.271
REMARK UNBOUND:                 0.296
REMARK SMILES CC1(C)CC[C@]2(C(=O)[O-])CC[C@@]3(C)C(=CC[C@H]4[C@]5(C)CC[C@@H](O)C(C)(C)[C@H]5CC[C@@]43C)[C@H]2C1
REMARK SMILES IDX 6 1 5 2 10 3 32 4 4 5 11 6 14 7 33 8 2 9 12 10 15 11 1 12
REMARK SMILES IDX 3 13 13 14 30 15 16 16 17 17 29 18 31 19 18 20 28 21 27 22
REMARK SMILES IDX 20 23 19 24 24 25 21 26 22 27 25 28 26 29 7 30 8 31 9 32
REMARK SMILES IDX 23 33
REMARK H PARENT 23 34
REMARK Flexibility Score: inf
ROOT
ATOM      1  C   UNL     1      -7.464   9.692 -38.450  1.00  0.00     0.017 C 
ATOM      2  C   UNL     1      -6.062  10.249 -38.833  1.00  0.00     0.014 C 
ATOM      3  C   UNL     1      -8.108  10.648 -37.382  1.00  0.00     0.014 C 
ATOM      4  C   UNL     1      -7.292   8.252 -37.858  1.00  0.00     0.028 C 
ATOM      5  C   UNL     1      -5.305   9.327 -39.804  1.00  0.00     0.007 C 
ATOM      6  C   UNL     1      -8.755   9.945 -36.164  1.00  0.00     0.013 C 
ATOM      7  C   UNL     1      -8.640   7.705 -37.363  1.00  0.00    -0.064 C 
ATOM      8  C   UNL     1      -6.497   7.312 -38.808  1.00  0.00     0.015 C 
ATOM      9  C   UNL     1      -5.125   7.892 -39.252  1.00  0.00    -0.035 C 
ATOM     10  C   UNL     1      -9.515   8.617 -36.500  1.00  0.00    -0.006 C 
ATOM     11  C   UNL     1      -9.010   6.406 -37.534  1.00  0.00    -0.027 C 
ATOM     12  C   UNL     1      -4.112   7.879 -38.082  1.00  0.00     0.011 C 
ATOM     13  C   UNL     1      -4.557   6.997 -40.374  1.00  0.00     0.011 C 
ATOM     14  C   UNL     1     -10.765   9.014 -37.370  1.00  0.00     0.017 C 
ATOM     15  C   UNL     1      -9.903   7.783 -35.181  1.00  0.00    -0.020 C 
ATOM     16  C   UNL     1     -10.157   5.740 -36.794  1.00  0.00     0.032 C 
ATOM     17  C   UNL     1     -10.814   6.582 -35.649  1.00  0.00     0.006 C 
ATOM     18  C   UNL     1     -10.681   8.660 -34.150  1.00  0.00     0.008 C 
ATOM     19  C   UNL     1      -8.606   7.256 -34.470  1.00  0.00     0.012 C 
ATOM     20  C   UNL     1     -11.523   5.740 -34.508  1.00  0.00    -0.025 C 
ATOM     21  C   UNL     1     -11.365   7.858 -33.026  1.00  0.00     0.005 C 
ATOM     22  C   UNL     1     -12.306   6.766 -33.599  1.00  0.00     0.003 C 
ATOM     23  C   UNL     1     -12.575   4.798 -35.178  1.00  0.00     0.010 C 
ATOM     24  C   UNL     1     -10.496   4.866 -33.714  1.00  0.00     0.012 C 
ATOM     25  C   UNL     1     -13.324   6.134 -32.564  1.00  0.00    -0.006 C 
ATOM     26  C   UNL     1     -13.539   4.132 -34.183  1.00  0.00     0.033 C 
ATOM     27  C   UNL     1     -14.284   5.165 -33.325  1.00  0.00     0.120 C 
ATOM     28  C   UNL     1     -12.624   5.407 -31.384  1.00  0.00     0.014 C 
ATOM     29  C   UNL     1     -14.206   7.260 -31.948  1.00  0.00     0.014 C 
ENDROOT
BRANCH   1  30
ATOM     30  C   UNL     1      -8.341   9.703 -39.703  1.00  0.00     0.048 C 
ATOM     31  O   UNL     1      -8.741   8.636 -40.241  1.00  0.00    -0.550 OA
ATOM     32  O   UNL     1      -8.751  10.917 -40.246  1.00  0.00    -0.550 OA
ENDBRANCH   1  30
BRANCH  27  33
ATOM     33  O   UNL     1     -15.124   4.496 -32.415  1.00  0.00    -0.393 OA
ATOM     34  H   UNL     1     -15.907   5.086 -32.253  1.00  0.00     0.210 HD
ENDBRANCH  27  33
TORSDOF 2
ENDMDL
MODEL 5
REMARK VINA RESULT:    -7.228      6.006     10.107
REMARK INTER + INTRA:          -7.565
REMARK INTER:                  -7.819
REMARK INTRA:                   0.254
REMARK UNBOUND:                 0.296
REMARK SMILES CC1(C)CC[C@]2(C(=O)[O-])CC[C@@]3(C)C(=CC[C@H]4[C@]5(C)CC[C@@H](O)C(C)(C)[C@H]5CC[C@@]43C)[C@H]2C1
REMARK SMILES IDX 6 1 5 2 10 3 32 4 4 5 11 6 14 7 33 8 2 9 12 10 15 11 1 12
REMARK SMILES IDX 3 13 13 14 30 15 16 16 17 17 29 18 31 19 18 20 28 21 27 22
REMARK SMILES IDX 20 23 19 24 24 25 21 26 22 27 25 28 26 29 7 30 8 31 9 32
REMARK SMILES IDX 23 33
REMARK H PARENT 23 34
REMARK Flexibility Score: inf
ROOT
ATOM      1  C   UNL     1     -12.686   8.645 -29.667  1.00  0.00     0.017 C 
ATOM      2  C   UNL     1     -12.148   8.121 -31.031  1.00  0.00     0.014 C 
ATOM      3  C   UNL     1     -13.664   9.843 -29.942  1.00  0.00     0.014 C 
ATOM      4  C   UNL     1     -11.475   9.120 -28.795  1.00  0.00     0.028 C 
ATOM      5  C   UNL     1     -11.101   7.006 -30.864  1.00  0.00     0.007 C 
ATOM      6  C   UNL     1     -13.460  11.089 -29.045  1.00  0.00     0.013 C 
ATOM      7  C   UNL     1     -11.967   9.748 -27.482  1.00  0.00    -0.064 C 
ATOM      8  C   UNL     1     -10.387   8.020 -28.643  1.00  0.00     0.015 C 
ATOM      9  C   UNL     1      -9.894   7.441 -29.998  1.00  0.00    -0.035 C 
ATOM     10  C   UNL     1     -13.104  10.771 -27.553  1.00  0.00    -0.006 C 
ATOM     11  C   UNL     1     -11.336   9.546 -26.292  1.00  0.00    -0.027 C 
ATOM     12  C   UNL     1      -9.020   8.469 -30.757  1.00  0.00     0.011 C 
ATOM     13  C   UNL     1      -9.019   6.202 -29.711  1.00  0.00     0.011 C 
ATOM     14  C   UNL     1     -14.373  10.095 -26.916  1.00  0.00     0.017 C 
ATOM     15  C   UNL     1     -12.612  12.075 -26.750  1.00  0.00    -0.020 C 
ATOM     16  C   UNL     1     -11.571  10.385 -25.048  1.00  0.00     0.032 C 
ATOM     17  C   UNL     1     -12.468  11.653 -25.236  1.00  0.00     0.006 C 
ATOM     18  C   UNL     1     -13.634  13.249 -26.873  1.00  0.00     0.008 C 
ATOM     19  C   UNL     1     -11.240  12.580 -27.322  1.00  0.00     0.012 C 
ATOM     20  C   UNL     1     -12.220  12.822 -24.193  1.00  0.00    -0.025 C 
ATOM     21  C   UNL     1     -13.398  14.400 -25.876  1.00  0.00     0.005 C 
ATOM     22  C   UNL     1     -13.366  13.885 -24.412  1.00  0.00     0.003 C 
ATOM     23  C   UNL     1     -12.384  12.235 -22.754  1.00  0.00     0.010 C 
ATOM     24  C   UNL     1     -10.782  13.422 -24.333  1.00  0.00     0.012 C 
ATOM     25  C   UNL     1     -13.495  15.001 -23.296  1.00  0.00    -0.006 C 
ATOM     26  C   UNL     1     -12.457  13.302 -21.649  1.00  0.00     0.033 C 
ATOM     27  C   UNL     1     -13.588  14.310 -21.898  1.00  0.00     0.120 C 
ATOM     28  C   UNL     1     -12.338  16.034 -23.328  1.00  0.00     0.014 C 
ATOM     29  C   UNL     1     -14.820  15.793 -23.503  1.00  0.00     0.014 C 
ENDROOT
BRANCH   1  30
ATOM     30  C   UNL     1     -13.475   7.517 -29.000  1.00  0.00     0.048 C 
ATOM     31  O   UNL     1     -13.026   6.896 -28.000  1.00  0.00    -0.550 OA
ATOM     32  O   UNL     1     -14.743   7.191 -29.473  1.00  0.00    -0.550 OA
ENDBRANCH   1  30
BRANCH  27  33
ATOM     33  O   UNL     1     -13.584  15.277 -20.875  1.00  0.00    -0.393 OA
ATOM     34  H   UNL     1     -13.710  16.162 -21.309  1.00  0.00     0.210 HD
ENDBRANCH  27  33
TORSDOF 2
ENDMDL
MODEL 6
REMARK VINA RESULT:    -7.226     16.375     18.561
REMARK INTER + INTRA:          -7.563
REMARK INTER:                  -7.812
REMARK INTRA:                   0.248
REMARK UNBOUND:                 0.296
REMARK SMILES CC1(C)CC[C@]2(C(=O)[O-])CC[C@@]3(C)C(=CC[C@H]4[C@]5(C)CC[C@@H](O)C(C)(C)[C@H]5CC[C@@]43C)[C@H]2C1
REMARK SMILES IDX 6 1 5 2 10 3 32 4 4 5 11 6 14 7 33 8 2 9 12 10 15 11 1 12
REMARK SMILES IDX 3 13 13 14 30 15 16 16 17 17 29 18 31 19 18 20 28 21 27 22
REMARK SMILES IDX 20 23 19 24 24 25 21 26 22 27 25 28 26 29 7 30 8 31 9 32
REMARK SMILES IDX 23 33
REMARK H PARENT 23 34
REMARK Flexibility Score: inf
ROOT
ATOM      1  C   UNL     1      -8.547   9.079 -37.471  1.00  0.00     0.017 C 
ATOM      2  C   UNL     1      -9.636  10.117 -37.071  1.00  0.00     0.014 C 
ATOM      3  C   UNL     1      -8.363   8.065 -36.285  1.00  0.00     0.014 C 
ATOM      4  C   UNL     1      -7.205   9.836 -37.753  1.00  0.00     0.028 C 
ATOM      5  C   UNL     1      -9.820  11.217 -38.131  1.00  0.00     0.007 C 
ATOM      6  C   UNL     1      -6.898   7.752 -35.897  1.00  0.00     0.013 C 
ATOM      7  C   UNL     1      -6.073   8.839 -38.043  1.00  0.00    -0.064 C 
ATOM      8  C   UNL     1      -7.376  10.976 -38.795  1.00  0.00     0.015 C 
ATOM      9  C   UNL     1      -8.509  11.979 -38.440  1.00  0.00    -0.035 C 
ATOM     10  C   UNL     1      -5.909   7.639 -37.107  1.00  0.00    -0.006 C 
ATOM     11  C   UNL     1      -5.128   9.063 -38.999  1.00  0.00    -0.027 C 
ATOM     12  C   UNL     1      -8.103  12.875 -37.244  1.00  0.00     0.011 C 
ATOM     13  C   UNL     1      -8.745  12.900 -39.656  1.00  0.00     0.011 C 
ATOM     14  C   UNL     1      -6.328   6.360 -37.920  1.00  0.00     0.017 C 
ATOM     15  C   UNL     1      -4.370   7.615 -36.641  1.00  0.00    -0.020 C 
ATOM     16  C   UNL     1      -3.823   8.293 -39.106  1.00  0.00     0.032 C 
ATOM     17  C   UNL     1      -3.506   7.315 -37.927  1.00  0.00     0.006 C 
ATOM     18  C   UNL     1      -4.109   6.514 -35.564  1.00  0.00     0.008 C 
ATOM     19  C   UNL     1      -3.972   8.996 -36.010  1.00  0.00     0.012 C 
ATOM     20  C   UNL     1      -1.968   7.007 -37.693  1.00  0.00    -0.025 C 
ATOM     21  C   UNL     1      -2.620   6.213 -35.315  1.00  0.00     0.005 C 
ATOM     22  C   UNL     1      -1.888   5.841 -36.632  1.00  0.00     0.003 C 
ATOM     23  C   UNL     1      -1.368   6.473 -39.034  1.00  0.00     0.010 C 
ATOM     24  C   UNL     1      -1.182   8.291 -37.265  1.00  0.00     0.012 C 
ATOM     25  C   UNL     1      -0.466   5.167 -36.453  1.00  0.00    -0.006 C 
ATOM     26  C   UNL     1       0.036   5.863 -38.891  1.00  0.00     0.033 C 
ATOM     27  C   UNL     1       0.067   4.730 -37.855  1.00  0.00     0.120 C 
ATOM     28  C   UNL     1       0.558   6.083 -35.732  1.00  0.00     0.014 C 
ATOM     29  C   UNL     1      -0.607   3.875 -35.595  1.00  0.00     0.014 C 
ENDROOT
BRANCH   1  30
ATOM     30  C   UNL     1      -9.048   8.309 -38.694  1.00  0.00     0.048 C 
ATOM     31  O   UNL     1      -8.610   8.548 -39.852  1.00  0.00    -0.550 OA
ATOM     32  O   UNL     1      -9.977   7.286 -38.531  1.00  0.00    -0.550 OA
ENDBRANCH   1  30
BRANCH  27  33
ATOM     33  O   UNL     1       1.380   4.235 -37.745  1.00  0.00    -0.393 OA
ATOM     34  H   UNL     1       1.828   4.401 -38.617  1.00  0.00     0.210 HD
ENDBRANCH  27  33
TORSDOF 2
ENDMDL
MODEL 7
REMARK VINA RESULT:    -7.063      4.895      8.734
REMARK INTER + INTRA:          -7.386
REMARK INTER:                  -7.647
REMARK INTRA:                   0.260
REMARK UNBOUND:                 0.296
REMARK SMILES CC1(C)CC[C@]2(C(=O)[O-])CC[C@@]3(C)C(=CC[C@H]4[C@]5(C)CC[C@@H](O)C(C)(C)[C@H]5CC[C@@]43C)[C@H]2C1
REMARK SMILES IDX 6 1 5 2 10 3 32 4 4 5 11 6 14 7 33 8 2 9 12 10 15 11 1 12
REMARK SMILES IDX 3 13 13 14 30 15 16 16 17 17 29 18 31 19 18 20 28 21 27 22
REMARK SMILES IDX 20 23 19 24 24 25 21 26 22 27 25 28 26 29 7 30 8 31 9 32
REMARK SMILES IDX 23 33
REMARK H PARENT 23 34
REMARK Flexibility Score: inf
ROOT
ATOM      1  C   UNL     1     -11.386   9.380 -27.657  1.00  0.00     0.017 C 
ATOM      2  C   UNL     1     -10.510   8.104 -27.826  1.00  0.00     0.014 C 
ATOM      3  C   UNL     1     -10.643  10.590 -28.328  1.00  0.00     0.014 C 
ATOM      4  C   UNL     1     -11.597   9.650 -26.129  1.00  0.00     0.028 C 
ATOM      5  C   UNL     1     -11.108   6.878 -27.113  1.00  0.00     0.007 C 
ATOM      6  C   UNL     1     -10.600  11.892 -27.492  1.00  0.00     0.013 C 
ATOM      7  C   UNL     1     -12.364  10.963 -25.912  1.00  0.00    -0.064 C 
ATOM      8  C   UNL     1     -12.167   8.412 -25.381  1.00  0.00     0.015 C 
ATOM      9  C   UNL     1     -11.337   7.116 -25.601  1.00  0.00    -0.035 C 
ATOM     10  C   UNL     1     -11.912  12.200 -26.692  1.00  0.00    -0.006 C 
ATOM     11  C   UNL     1     -13.320  11.103 -24.952  1.00  0.00    -0.027 C 
ATOM     12  C   UNL     1      -9.986   7.187 -24.848  1.00  0.00     0.011 C 
ATOM     13  C   UNL     1     -12.132   5.924 -25.027  1.00  0.00     0.011 C 
ATOM     14  C   UNL     1     -13.030  12.511 -27.753  1.00  0.00     0.017 C 
ATOM     15  C   UNL     1     -11.711  13.383 -25.620  1.00  0.00    -0.020 C 
ATOM     16  C   UNL     1     -13.866  12.439 -24.479  1.00  0.00     0.032 C 
ATOM     17  C   UNL     1     -13.137  13.710 -25.027  1.00  0.00     0.006 C 
ATOM     18  C   UNL     1     -11.110  14.665 -26.279  1.00  0.00     0.008 C 
ATOM     19  C   UNL     1     -10.725  12.927 -24.486  1.00  0.00     0.012 C 
ATOM     20  C   UNL     1     -13.247  15.004 -24.116  1.00  0.00    -0.025 C 
ATOM     21  C   UNL     1     -11.197  15.927 -25.401  1.00  0.00     0.005 C 
ATOM     22  C   UNL     1     -12.655  16.206 -24.950  1.00  0.00     0.003 C 
ATOM     23  C   UNL     1     -14.762  15.297 -23.867  1.00  0.00     0.010 C 
ATOM     24  C   UNL     1     -12.540  14.798 -22.736  1.00  0.00     0.012 C 
ATOM     25  C   UNL     1     -12.920  17.651 -24.361  1.00  0.00    -0.006 C 
ATOM     26  C   UNL     1     -15.037  16.675 -23.245  1.00  0.00     0.033 C 
ATOM     27  C   UNL     1     -14.450  17.815 -24.090  1.00  0.00     0.120 C 
ATOM     28  C   UNL     1     -12.096  17.950 -23.080  1.00  0.00     0.014 C 
ATOM     29  C   UNL     1     -12.526  18.725 -25.418  1.00  0.00     0.014 C 
ENDROOT
BRANCH   1  30
ATOM     30  C   UNL     1     -12.707   9.152 -28.394  1.00  0.00     0.048 C 
ATOM     31  O   UNL     1     -13.796   9.012 -27.774  1.00  0.00    -0.550 OA
ATOM     32  O   UNL     1     -12.727   9.144 -29.785  1.00  0.00    -0.550 OA
ENDBRANCH   1  30
BRANCH  27  33
ATOM     33  O   UNL     1     -14.705  19.045 -23.455  1.00  0.00    -0.393 OA
ATOM     34  H   UNL     1     -14.372  19.760 -24.060  1.00  0.00     0.210 HD
ENDBRANCH  27  33
TORSDOF 2
ENDMDL
MODEL 8
REMARK VINA RESULT:    -7.023      4.387      9.555
REMARK INTER + INTRA:          -7.342
REMARK INTER:                  -7.650
REMARK INTRA:                   0.307
REMARK UNBOUND:                 0.296
REMARK SMILES CC1(C)CC[C@]2(C(=O)[O-])CC[C@@]3(C)C(=CC[C@H]4[C@]5(C)CC[C@@H](O)C(C)(C)[C@H]5CC[C@@]43C)[C@H]2C1
REMARK SMILES IDX 6 1 5 2 10 3 32 4 4 5 11 6 14 7 33 8 2 9 12 10 15 11 1 12
REMARK SMILES IDX 3 13 13 14 30 15 16 16 17 17 29 18 31 19 18 20 28 21 27 22
REMARK SMILES IDX 20 23 19 24 24 25 21 26 22 27 25 28 26 29 7 30 8 31 9 32
REMARK SMILES IDX 23 33
REMARK H PARENT 23 34
REMARK Flexibility Score: inf
ROOT
ATOM      1  C   UNL     1     -13.700  16.518 -24.442  1.00  0.00     0.017 C 
ATOM      2  C   UNL     1     -13.832  17.574 -23.305  1.00  0.00     0.014 C 
ATOM      3  C   UNL     1     -14.802  15.418 -24.235  1.00  0.00     0.014 C 
ATOM      4  C   UNL     1     -12.272  15.878 -24.374  1.00  0.00     0.028 C 
ATOM      5  C   UNL     1     -12.730  18.645 -23.363  1.00  0.00     0.007 C 
ATOM      6  C   UNL     1     -14.316  13.954 -24.372  1.00  0.00     0.013 C 
ATOM      7  C   UNL     1     -12.134  14.751 -25.409  1.00  0.00    -0.064 C 
ATOM      8  C   UNL     1     -11.142  16.946 -24.394  1.00  0.00     0.015 C 
ATOM      9  C   UNL     1     -11.305  18.044 -23.307  1.00  0.00    -0.035 C 
ATOM     10  C   UNL     1     -13.260  13.718 -25.505  1.00  0.00    -0.006 C 
ATOM     11  C   UNL     1     -10.994  14.552 -26.126  1.00  0.00    -0.027 C 
ATOM     12  C   UNL     1     -11.006  17.479 -21.897  1.00  0.00     0.011 C 
ATOM     13  C   UNL     1     -10.282  19.166 -23.588  1.00  0.00     0.011 C 
ATOM     14  C   UNL     1     -13.995  13.964 -26.873  1.00  0.00     0.017 C 
ATOM     15  C   UNL     1     -12.573  12.267 -25.409  1.00  0.00    -0.020 C 
ATOM     16  C   UNL     1     -10.685  13.284 -26.904  1.00  0.00     0.032 C 
ATOM     17  C   UNL     1     -11.681  12.095 -26.700  1.00  0.00     0.006 C 
ATOM     18  C   UNL     1     -13.639  11.126 -25.352  1.00  0.00     0.008 C 
ATOM     19  C   UNL     1     -11.700  12.163 -24.108  1.00  0.00     0.012 C 
ATOM     20  C   UNL     1     -11.080  10.651 -26.961  1.00  0.00    -0.025 C 
ATOM     21  C   UNL     1     -13.068   9.715 -25.590  1.00  0.00     0.005 C 
ATOM     22  C   UNL     1     -12.288   9.636 -26.929  1.00  0.00     0.003 C 
ATOM     23  C   UNL     1     -10.476  10.627 -28.403  1.00  0.00     0.010 C 
ATOM     24  C   UNL     1      -9.951  10.304 -25.935  1.00  0.00     0.012 C 
ATOM     25  C   UNL     1     -11.976   8.174 -27.449  1.00  0.00    -0.006 C 
ATOM     26  C   UNL     1     -10.115   9.220 -28.905  1.00  0.00     0.033 C 
ATOM     27  C   UNL     1     -11.320   8.268 -28.864  1.00  0.00     0.120 C 
ATOM     28  C   UNL     1     -11.082   7.358 -26.477  1.00  0.00     0.014 C 
ATOM     29  C   UNL     1     -13.308   7.384 -27.616  1.00  0.00     0.014 C 
ENDROOT
BRANCH   1  30
ATOM     30  C   UNL     1     -13.958  17.219 -25.777  1.00  0.00     0.048 C 
ATOM     31  O   UNL     1     -15.122  17.342 -26.246  1.00  0.00    -0.550 OA
ATOM     32  O   UNL     1     -12.895  17.780 -26.477  1.00  0.00    -0.550 OA
ENDBRANCH   1  30
BRANCH  27  33
ATOM     33  O   UNL     1     -10.920   6.992 -29.303  1.00  0.00    -0.393 OA
ATOM     34  H   UNL     1     -10.124   6.736 -28.768  1.00  0.00     0.210 HD
ENDBRANCH  27  33
TORSDOF 2
ENDMDL
MODEL 9
REMARK VINA RESULT:    -6.968     13.161     16.847
REMARK INTER + INTRA:          -7.283
REMARK INTER:                  -7.578
REMARK INTRA:                   0.294
REMARK UNBOUND:                 0.296
REMARK SMILES CC1(C)CC[C@]2(C(=O)[O-])CC[C@@]3(C)C(=CC[C@H]4[C@]5(C)CC[C@@H](O)C(C)(C)[C@H]5CC[C@@]43C)[C@H]2C1
REMARK SMILES IDX 6 1 5 2 10 3 32 4 4 5 11 6 14 7 33 8 2 9 12 10 15 11 1 12
REMARK SMILES IDX 3 13 13 14 30 15 16 16 17 17 29 18 31 19 18 20 28 21 27 22
REMARK SMILES IDX 20 23 19 24 24 25 21 26 22 27 25 28 26 29 7 30 8 31 9 32
REMARK SMILES IDX 23 33
REMARK H PARENT 23 34
REMARK Flexibility Score: inf
ROOT
ATOM      1  C   UNL     1       1.106  16.127 -38.842  1.00  0.00     0.017 C 
ATOM      2  C   UNL     1       2.345  16.867 -39.428  1.00  0.00     0.014 C 
ATOM      3  C   UNL     1      -0.050  16.167 -39.906  1.00  0.00     0.014 C 
ATOM      4  C   UNL     1       0.660  16.851 -37.527  1.00  0.00     0.028 C 
ATOM      5  C   UNL     1       3.502  16.970 -38.420  1.00  0.00     0.007 C 
ATOM      6  C   UNL     1      -1.446  16.551 -39.358  1.00  0.00     0.013 C 
ATOM      7  C   UNL     1      -0.627  16.221 -36.972  1.00  0.00    -0.064 C 
ATOM      8  C   UNL     1       1.825  16.998 -36.507  1.00  0.00     0.015 C 
ATOM      9  C   UNL     1       3.092  17.672 -37.104  1.00  0.00    -0.035 C 
ATOM     10  C   UNL     1      -1.780  15.962 -37.945  1.00  0.00    -0.006 C 
ATOM     11  C   UNL     1      -0.833  16.030 -35.640  1.00  0.00    -0.027 C 
ATOM     12  C   UNL     1       2.857  19.184 -37.342  1.00  0.00     0.011 C 
ATOM     13  C   UNL     1       4.245  17.532 -36.086  1.00  0.00     0.011 C 
ATOM     14  C   UNL     1      -1.897  14.403 -38.116  1.00  0.00     0.017 C 
ATOM     15  C   UNL     1      -3.095  16.627 -37.301  1.00  0.00    -0.020 C 
ATOM     16  C   UNL     1      -2.186  15.727 -35.020  1.00  0.00     0.032 C 
ATOM     17  C   UNL     1      -3.417  15.822 -35.982  1.00  0.00     0.006 C 
ATOM     18  C   UNL     1      -4.316  16.554 -38.272  1.00  0.00     0.008 C 
ATOM     19  C   UNL     1      -2.837  18.143 -36.980  1.00  0.00     0.012 C 
ATOM     20  C   UNL     1      -4.806  16.131 -35.281  1.00  0.00    -0.025 C 
ATOM     21  C   UNL     1      -5.671  16.865 -37.609  1.00  0.00     0.005 C 
ATOM     22  C   UNL     1      -5.925  15.954 -36.379  1.00  0.00     0.003 C 
ATOM     23  C   UNL     1      -5.046  15.052 -34.177  1.00  0.00     0.010 C 
ATOM     24  C   UNL     1      -4.810  17.546 -34.613  1.00  0.00     0.012 C 
ATOM     25  C   UNL     1      -7.416  15.930 -35.848  1.00  0.00    -0.006 C 
ATOM     26  C   UNL     1      -6.474  15.048 -33.608  1.00  0.00     0.033 C 
ATOM     27  C   UNL     1      -7.531  14.866 -34.709  1.00  0.00     0.120 C 
ATOM     28  C   UNL     1      -7.915  17.317 -35.362  1.00  0.00     0.014 C 
ATOM     29  C   UNL     1      -8.370  15.477 -36.992  1.00  0.00     0.014 C 
ENDROOT
BRANCH   1  30
ATOM     30  C   UNL     1       1.493  14.667 -38.599  1.00  0.00     0.048 C 
ATOM     31  O   UNL     1       1.481  13.815 -39.528  1.00  0.00    -0.550 OA
ATOM     32  O   UNL     1       1.916  14.268 -37.335  1.00  0.00    -0.550 OA
ENDBRANCH   1  30
BRANCH  27  33
ATOM     33  O   UNL     1      -8.814  14.904 -34.133  1.00  0.00    -0.393 OA
ATOM     34  H   UNL     1      -9.293  15.676 -34.536  1.00  0.00     0.210 HD
ENDBRANCH  27  33
TORSDOF 2
ENDMDL
