MODEL 1
REMARK VINA RESULT:    -3.789      0.000      0.000
REMARK INTER + INTRA:         -14.264
REMARK INTER:                  -9.549
REMARK INTRA:                  -4.715
REMARK UNBOUND:                -4.715
REMARK SMILES CCCCCCCCCCCCCCCCCCCCCCCCCCCC(=O)[O-]
REMARK SMILES IDX 15 1 16 2 17 3 18 4 19 5 20 6 21 7 22 8 23 9 24 10 25 11
REMARK SMILES IDX 26 12 27 13 28 14 29 15 30 16 14 17 13 18 12 19 11 20 10 21
REMARK SMILES IDX 9 22 8 23 7 24 6 25 5 26 4 27 3 28 2 29 1 30
REMARK H PARENT
REMARK Flexibility Score: inf
ROOT
ATOM      1  C   UNL     1      11.994 -25.657 -27.743  1.00  0.00     0.000 C 
ENDROOT
BRANCH   1   2
ATOM      2  C   UNL     1      13.242 -25.570 -26.842  1.00  0.00     0.000 C 
BRANCH   2   3
ATOM      3  C   UNL     1      13.807 -26.945 -26.423  1.00  0.00     0.000 C 
BRANCH   3   4
ATOM      4  C   UNL     1      13.113 -28.114 -27.144  1.00  0.00     0.000 C 
BRANCH   4   5
ATOM      5  C   UNL     1      12.368 -29.044 -26.171  1.00  0.00     0.000 C 
BRANCH   5   6
ATOM      6  C   UNL     1      11.360 -29.959 -26.888  1.00  0.00     0.000 C 
BRANCH   6   7
ATOM      7  C   UNL     1      10.897 -29.386 -28.238  1.00  0.00     0.000 C 
BRANCH   7   8
ATOM      8  C   UNL     1       9.372 -29.187 -28.299  1.00  0.00     0.000 C 
BRANCH   8   9
ATOM      9  C   UNL     1       8.913 -28.496 -29.593  1.00  0.00     0.000 C 
BRANCH   9  10
ATOM     10  C   UNL     1       9.643 -27.165 -29.844  1.00  0.00     0.000 C 
BRANCH  10  11
ATOM     11  C   UNL     1      10.641 -27.240 -31.014  1.00  0.00     0.000 C 
BRANCH  11  12
ATOM     12  C   UNL     1      11.040 -25.881 -31.627  1.00  0.00     0.006 C 
BRANCH  12  13
ATOM     13  C   UNL     1      10.332 -24.666 -31.007  1.00  0.00     0.053 C 
BRANCH  13  14
ATOM     14  C   UNL     1      11.166 -23.425 -31.097  1.00  0.00     0.041 C 
ATOM     15  O   UNL     1      10.657 -22.299 -30.848  1.00  0.00    -0.550 OA
ATOM     16  O   UNL     1      12.515 -23.515 -31.414  1.00  0.00    -0.550 OA
ENDBRANCH  13  14
ENDBRANCH  12  13
ENDBRANCH  11  12
ENDBRANCH  10  11
ENDBRANCH   9  10
ENDBRANCH   8   9
ENDBRANCH   7   8
ENDBRANCH   6   7
ENDBRANCH   5   6
ENDBRANCH   4   5
ENDBRANCH   3   4
ENDBRANCH   2   3
ENDBRANCH   1   2
BRANCH   1  17
ATOM     17  C   UNL     1      10.692 -25.143 -27.101  1.00  0.00     0.000 C 
BRANCH  17  18
ATOM     18  C   UNL     1       9.900 -26.190 -26.289  1.00  0.00     0.000 C 
BRANCH  18  19
ATOM     19  C   UNL     1       9.787 -25.896 -24.781  1.00  0.00     0.000 C 
BRANCH  19  20
ATOM     20  C   UNL     1      10.841 -26.644 -23.946  1.00  0.00     0.000 C 
BRANCH  20  21
ATOM     21  C   UNL     1      11.953 -25.717 -23.428  1.00  0.00     0.000 C 
BRANCH  21  22
ATOM     22  C   UNL     1      11.597 -24.228 -23.584  1.00  0.00    -0.000 C 
BRANCH  22  23
ATOM     23  C   UNL     1      11.233 -23.556 -22.249  1.00  0.00    -0.000 C 
BRANCH  23  24
ATOM     24  C   UNL     1       9.731 -23.288 -22.044  1.00  0.00    -0.000 C 
BRANCH  24  25
ATOM     25  C   UNL     1       9.138 -24.073 -20.860  1.00  0.00    -0.000 C 
BRANCH  25  26
ATOM     26  C   UNL     1      10.147 -25.049 -20.235  1.00  0.00    -0.000 C 
BRANCH  26  27
ATOM     27  C   UNL     1       9.757 -26.521 -20.452  1.00  0.00    -0.000 C 
BRANCH  27  28
ATOM     28  C   UNL     1       9.629 -27.306 -19.134  1.00  0.00    -0.000 C 
BRANCH  28  29
ATOM     29  C   UNL     1       8.881 -26.565 -18.011  1.00  0.00    -0.003 C 
ATOM     30  C   UNL     1       7.381 -26.439 -18.272  1.00  0.00     0.004 C 
ENDBRANCH  28  29
ENDBRANCH  27  28
ENDBRANCH  26  27
ENDBRANCH  25  26
ENDBRANCH  24  25
ENDBRANCH  23  24
ENDBRANCH  22  23
ENDBRANCH  21  22
ENDBRANCH  20  21
ENDBRANCH  19  20
ENDBRANCH  18  19
ENDBRANCH  17  18
ENDBRANCH   1  17
TORSDOF 26
ENDMDL
MODEL 2
REMARK VINA RESULT:    -3.776     10.569     13.993
REMARK INTER + INTRA:         -14.230
REMARK INTER:                  -9.242
REMARK INTRA:                  -4.988
REMARK UNBOUND:                -4.715
REMARK SMILES CCCCCCCCCCCCCCCCCCCCCCCCCCCC(=O)[O-]
REMARK SMILES IDX 15 1 16 2 17 3 18 4 19 5 20 6 21 7 22 8 23 9 24 10 25 11
REMARK SMILES IDX 26 12 27 13 28 14 29 15 30 16 14 17 13 18 12 19 11 20 10 21
REMARK SMILES IDX 9 22 8 23 7 24 6 25 5 26 4 27 3 28 2 29 1 30
REMARK H PARENT
REMARK Flexibility Score: inf
ROOT
ATOM      1  C   UNL     1      20.267 -20.834 -24.485  1.00  0.00     0.000 C 
ENDROOT
BRANCH   1   2
ATOM      2  C   UNL     1      20.272 -19.459 -25.183  1.00  0.00     0.000 C 
BRANCH   2   3
ATOM      3  C   UNL     1      21.646 -19.058 -25.761  1.00  0.00     0.000 C 
BRANCH   3   4
ATOM      4  C   UNL     1      21.570 -18.660 -27.246  1.00  0.00     0.000 C 
BRANCH   4   5
ATOM      5  C   UNL     1      20.550 -17.536 -27.501  1.00  0.00     0.000 C 
BRANCH   5   6
ATOM      6  C   UNL     1      21.075 -16.479 -28.487  1.00  0.00     0.000 C 
BRANCH   6   7
ATOM      7  C   UNL     1      22.286 -16.972 -29.296  1.00  0.00     0.000 C 
BRANCH   7   8
ATOM      8  C   UNL     1      23.496 -16.029 -29.175  1.00  0.00     0.000 C 
BRANCH   8   9
ATOM      9  C   UNL     1      24.680 -16.673 -28.434  1.00  0.00     0.000 C 
BRANCH   9  10
ATOM     10  C   UNL     1      25.048 -15.925 -27.142  1.00  0.00     0.000 C 
BRANCH  10  11
ATOM     11  C   UNL     1      23.914 -15.931 -26.101  1.00  0.00     0.000 C 
BRANCH  11  12
ATOM     12  C   UNL     1      23.130 -14.609 -25.972  1.00  0.00     0.006 C 
BRANCH  12  13
ATOM     13  C   UNL     1      21.812 -14.718 -25.189  1.00  0.00     0.053 C 
BRANCH  13  14
ATOM     14  C   UNL     1      20.734 -13.864 -25.784  1.00  0.00     0.041 C 
ATOM     15  O   UNL     1      21.033 -12.902 -26.541  1.00  0.00    -0.550 OA
ATOM     16  O   UNL     1      19.399 -14.157 -25.536  1.00  0.00    -0.550 OA
ENDBRANCH  13  14
ENDBRANCH  12  13
ENDBRANCH  11  12
ENDBRANCH  10  11
ENDBRANCH   9  10
ENDBRANCH   8   9
ENDBRANCH   7   8
ENDBRANCH   6   7
ENDBRANCH   5   6
ENDBRANCH   4   5
ENDBRANCH   3   4
ENDBRANCH   2   3
ENDBRANCH   1   2
BRANCH   1  17
ATOM     17  C   UNL     1      21.421 -21.771 -24.886  1.00  0.00     0.000 C 
BRANCH  17  18
ATOM     18  C   UNL     1      21.088 -22.786 -26.001  1.00  0.00     0.000 C 
BRANCH  18  19
ATOM     19  C   UNL     1      21.598 -22.405 -27.403  1.00  0.00     0.000 C 
BRANCH  19  20
ATOM     20  C   UNL     1      20.498 -22.467 -28.477  1.00  0.00     0.000 C 
BRANCH  20  21
ATOM     21  C   UNL     1      19.512 -21.290 -28.382  1.00  0.00     0.000 C 
BRANCH  21  22
ATOM     22  C   UNL     1      18.048 -21.757 -28.281  1.00  0.00    -0.000 C 
BRANCH  22  23
ATOM     23  C   UNL     1      17.507 -21.719 -26.841  1.00  0.00    -0.000 C 
BRANCH  23  24
ATOM     24  C   UNL     1      17.511 -23.074 -26.109  1.00  0.00    -0.000 C 
BRANCH  24  25
ATOM     25  C   UNL     1      17.206 -24.259 -27.042  1.00  0.00    -0.000 C 
BRANCH  25  26
ATOM     26  C   UNL     1      18.373 -25.255 -27.132  1.00  0.00    -0.000 C 
BRANCH  26  27
ATOM     27  C   UNL     1      18.263 -26.185 -28.353  1.00  0.00    -0.000 C 
BRANCH  27  28
ATOM     28  C   UNL     1      19.228 -25.798 -29.488  1.00  0.00    -0.000 C 
BRANCH  28  29
ATOM     29  C   UNL     1      20.548 -26.591 -29.512  1.00  0.00    -0.003 C 
ATOM     30  C   UNL     1      21.647 -25.949 -28.666  1.00  0.00     0.004 C 
ENDBRANCH  28  29
ENDBRANCH  27  28
ENDBRANCH  26  27
ENDBRANCH  25  26
ENDBRANCH  24  25
ENDBRANCH  23  24
ENDBRANCH  22  23
ENDBRANCH  21  22
ENDBRANCH  20  21
ENDBRANCH  19  20
ENDBRANCH  18  19
ENDBRANCH  17  18
ENDBRANCH   1  17
TORSDOF 26
ENDMDL
MODEL 3
REMARK VINA RESULT:    -3.759      3.763      7.898
REMARK INTER + INTRA:         -14.188
REMARK INTER:                  -9.777
REMARK INTRA:                  -4.410
REMARK UNBOUND:                -4.715
REMARK SMILES CCCCCCCCCCCCCCCCCCCCCCCCCCCC(=O)[O-]
REMARK SMILES IDX 15 1 16 2 17 3 18 4 19 5 20 6 21 7 22 8 23 9 24 10 25 11
REMARK SMILES IDX 26 12 27 13 28 14 29 15 30 16 14 17 13 18 12 19 11 20 10 21
REMARK SMILES IDX 9 22 8 23 7 24 6 25 5 26 4 27 3 28 2 29 1 30
REMARK H PARENT
REMARK Flexibility Score: inf
ROOT
ATOM      1  C   UNL     1       8.954 -26.472 -27.035  1.00  0.00     0.000 C 
ENDROOT
BRANCH   1   2
ATOM      2  C   UNL     1       9.522 -26.392 -25.604  1.00  0.00     0.000 C 
BRANCH   2   3
ATOM      3  C   UNL     1      10.379 -25.136 -25.341  1.00  0.00     0.000 C 
BRANCH   3   4
ATOM      4  C   UNL     1      11.586 -25.422 -24.431  1.00  0.00     0.000 C 
BRANCH   4   5
ATOM      5  C   UNL     1      11.578 -26.858 -23.879  1.00  0.00     0.000 C 
BRANCH   5   6
ATOM      6  C   UNL     1      12.996 -27.396 -23.620  1.00  0.00     0.000 C 
BRANCH   6   7
ATOM      7  C   UNL     1      14.092 -26.461 -24.158  1.00  0.00     0.000 C 
BRANCH   7   8
ATOM      8  C   UNL     1      15.154 -27.214 -24.978  1.00  0.00     0.000 C 
BRANCH   8   9
ATOM      9  C   UNL     1      15.526 -26.486 -26.281  1.00  0.00     0.000 C 
BRANCH   9  10
ATOM     10  C   UNL     1      16.441 -27.326 -27.188  1.00  0.00     0.000 C 
BRANCH  10  11
ATOM     11  C   UNL     1      17.769 -26.620 -27.519  1.00  0.00     0.000 C 
BRANCH  11  12
ATOM     12  C   UNL     1      19.035 -27.484 -27.342  1.00  0.00     0.006 C 
BRANCH  12  13
ATOM     13  C   UNL     1      20.352 -26.691 -27.309  1.00  0.00     0.053 C 
BRANCH  13  14
ATOM     14  C   UNL     1      20.679 -26.091 -28.642  1.00  0.00     0.041 C 
ATOM     15  O   UNL     1      21.191 -24.942 -28.712  1.00  0.00    -0.550 OA
ATOM     16  O   UNL     1      20.458 -26.818 -29.805  1.00  0.00    -0.550 OA
ENDBRANCH  13  14
ENDBRANCH  12  13
ENDBRANCH  11  12
ENDBRANCH  10  11
ENDBRANCH   9  10
ENDBRANCH   8   9
ENDBRANCH   7   8
ENDBRANCH   6   7
ENDBRANCH   5   6
ENDBRANCH   4   5
ENDBRANCH   3   4
ENDBRANCH   2   3
ENDBRANCH   1   2
BRANCH   1  17
ATOM     17  C   UNL     1       8.381 -27.846 -27.431  1.00  0.00     0.000 C 
BRANCH  17  18
ATOM     18  C   UNL     1       8.179 -28.064 -28.946  1.00  0.00     0.000 C 
BRANCH  18  19
ATOM     19  C   UNL     1       8.725 -29.397 -29.491  1.00  0.00     0.000 C 
BRANCH  19  20
ATOM     20  C   UNL     1       9.070 -30.401 -28.377  1.00  0.00     0.000 C 
BRANCH  20  21
ATOM     21  C   UNL     1      10.580 -30.673 -28.272  1.00  0.00     0.000 C 
BRANCH  21  22
ATOM     22  C   UNL     1      11.074 -30.696 -26.815  1.00  0.00    -0.000 C 
BRANCH  22  23
ATOM     23  C   UNL     1      11.680 -29.354 -26.367  1.00  0.00    -0.000 C 
BRANCH  23  24
ATOM     24  C   UNL     1      12.631 -28.698 -27.385  1.00  0.00    -0.000 C 
BRANCH  24  25
ATOM     25  C   UNL     1      11.939 -27.629 -28.249  1.00  0.00    -0.000 C 
BRANCH  25  26
ATOM     26  C   UNL     1      12.510 -26.221 -28.015  1.00  0.00    -0.000 C 
BRANCH  26  27
ATOM     27  C   UNL     1      11.680 -25.125 -28.705  1.00  0.00    -0.000 C 
BRANCH  27  28
ATOM     28  C   UNL     1      11.208 -25.530 -30.113  1.00  0.00    -0.000 C 
BRANCH  28  29
ATOM     29  C   UNL     1       9.808 -25.016 -30.497  1.00  0.00    -0.003 C 
ATOM     30  C   UNL     1       9.670 -24.710 -31.988  1.00  0.00     0.004 C 
ENDBRANCH  28  29
ENDBRANCH  27  28
ENDBRANCH  26  27
ENDBRANCH  25  26
ENDBRANCH  24  25
ENDBRANCH  23  24
ENDBRANCH  22  23
ENDBRANCH  21  22
ENDBRANCH  20  21
ENDBRANCH  19  20
ENDBRANCH  18  19
ENDBRANCH  17  18
ENDBRANCH   1  17
TORSDOF 26
ENDMDL
MODEL 4
REMARK VINA RESULT:    -3.752      4.042      8.112
REMARK INTER + INTRA:         -14.171
REMARK INTER:                  -9.862
REMARK INTRA:                  -4.308
REMARK UNBOUND:                -4.715
REMARK SMILES CCCCCCCCCCCCCCCCCCCCCCCCCCCC(=O)[O-]
REMARK SMILES IDX 15 1 16 2 17 3 18 4 19 5 20 6 21 7 22 8 23 9 24 10 25 11
REMARK SMILES IDX 26 12 27 13 28 14 29 15 30 16 14 17 13 18 12 19 11 20 10 21
REMARK SMILES IDX 9 22 8 23 7 24 6 25 5 26 4 27 3 28 2 29 1 30
REMARK H PARENT
REMARK Flexibility Score: inf
ROOT
ATOM      1  C   UNL     1      12.848 -28.078 -27.621  1.00  0.00     0.000 C 
ENDROOT
BRANCH   1   2
ATOM      2  C   UNL     1      11.748 -28.846 -26.863  1.00  0.00     0.000 C 
BRANCH   2   3
ATOM      3  C   UNL     1      12.257 -29.590 -25.610  1.00  0.00     0.000 C 
BRANCH   3   4
ATOM      4  C   UNL     1      11.838 -28.899 -24.300  1.00  0.00     0.000 C 
BRANCH   4   5
ATOM      5  C   UNL     1      13.032 -28.266 -23.564  1.00  0.00     0.000 C 
BRANCH   5   6
ATOM      6  C   UNL     1      14.357 -28.456 -24.322  1.00  0.00     0.000 C 
BRANCH   6   7
ATOM      7  C   UNL     1      15.073 -27.126 -24.607  1.00  0.00     0.000 C 
BRANCH   7   8
ATOM      8  C   UNL     1      16.385 -27.321 -25.387  1.00  0.00     0.000 C 
BRANCH   8   9
ATOM      9  C   UNL     1      16.268 -26.905 -26.863  1.00  0.00     0.000 C 
BRANCH   9  10
ATOM     10  C   UNL     1      17.595 -27.049 -27.627  1.00  0.00     0.000 C 
BRANCH  10  11
ATOM     11  C   UNL     1      18.617 -25.955 -27.265  1.00  0.00     0.000 C 
BRANCH  11  12
ATOM     12  C   UNL     1      19.085 -25.075 -28.442  1.00  0.00     0.006 C 
BRANCH  12  13
ATOM     13  C   UNL     1      20.571 -24.686 -28.401  1.00  0.00     0.053 C 
BRANCH  13  14
ATOM     14  C   UNL     1      20.777 -23.320 -27.822  1.00  0.00     0.041 C 
ATOM     15  O   UNL     1      21.102 -23.188 -26.611  1.00  0.00    -0.550 OA
ATOM     16  O   UNL     1      20.653 -22.196 -28.628  1.00  0.00    -0.550 OA
ENDBRANCH  13  14
ENDBRANCH  12  13
ENDBRANCH  11  12
ENDBRANCH  10  11
ENDBRANCH   9  10
ENDBRANCH   8   9
ENDBRANCH   7   8
ENDBRANCH   6   7
ENDBRANCH   5   6
ENDBRANCH   4   5
ENDBRANCH   3   4
ENDBRANCH   2   3
ENDBRANCH   1   2
BRANCH   1  17
ATOM     17  C   UNL     1      12.681 -26.547 -27.635  1.00  0.00     0.000 C 
BRANCH  17  18
ATOM     18  C   UNL     1      12.027 -25.944 -26.373  1.00  0.00     0.000 C 
BRANCH  18  19
ATOM     19  C   UNL     1      10.583 -25.443 -26.563  1.00  0.00     0.000 C 
BRANCH  19  20
ATOM     20  C   UNL     1       9.568 -26.199 -25.687  1.00  0.00     0.000 C 
BRANCH  20  21
ATOM     21  C   UNL     1       8.512 -26.947 -26.518  1.00  0.00     0.000 C 
BRANCH  21  22
ATOM     22  C   UNL     1       8.741 -26.798 -28.032  1.00  0.00    -0.000 C 
BRANCH  22  23
ATOM     23  C   UNL     1       8.432 -28.087 -28.814  1.00  0.00    -0.000 C 
BRANCH  23  24
ATOM     24  C   UNL     1       9.378 -28.373 -29.995  1.00  0.00    -0.000 C 
BRANCH  24  25
ATOM     25  C   UNL     1      10.494 -27.323 -30.137  1.00  0.00    -0.000 C 
BRANCH  25  26
ATOM     26  C   UNL     1      10.803 -26.984 -31.603  1.00  0.00    -0.000 C 
BRANCH  26  27
ATOM     27  C   UNL     1      10.743 -25.472 -31.885  1.00  0.00    -0.000 C 
BRANCH  27  28
ATOM     28  C   UNL     1      10.324 -24.651 -30.652  1.00  0.00    -0.000 C 
BRANCH  28  29
ATOM     29  C   UNL     1      11.398 -23.681 -30.127  1.00  0.00    -0.003 C 
ATOM     30  C   UNL     1      12.445 -23.319 -31.180  1.00  0.00     0.004 C 
ENDBRANCH  28  29
ENDBRANCH  27  28
ENDBRANCH  26  27
ENDBRANCH  25  26
ENDBRANCH  24  25
ENDBRANCH  23  24
ENDBRANCH  22  23
ENDBRANCH  21  22
ENDBRANCH  20  21
ENDBRANCH  19  20
ENDBRANCH  18  19
ENDBRANCH  17  18
ENDBRANCH   1  17
TORSDOF 26
ENDMDL
MODEL 5
REMARK VINA RESULT:    -3.724      4.007      8.625
REMARK INTER + INTRA:         -14.101
REMARK INTER:                 -10.799
REMARK INTRA:                  -3.301
REMARK UNBOUND:                -4.715
REMARK SMILES CCCCCCCCCCCCCCCCCCCCCCCCCCCC(=O)[O-]
REMARK SMILES IDX 15 1 16 2 17 3 18 4 19 5 20 6 21 7 22 8 23 9 24 10 25 11
REMARK SMILES IDX 26 12 27 13 28 14 29 15 30 16 14 17 13 18 12 19 11 20 10 21
REMARK SMILES IDX 9 22 8 23 7 24 6 25 5 26 4 27 3 28 2 29 1 30
REMARK H PARENT
REMARK Flexibility Score: inf
ROOT
ATOM      1  C   UNL     1      11.379 -25.103 -25.722  1.00  0.00     0.000 C 
ENDROOT
BRANCH   1   2
ATOM      2  C   UNL     1      12.551 -26.090 -25.545  1.00  0.00     0.000 C 
BRANCH   2   3
ATOM      3  C   UNL     1      13.426 -26.252 -26.806  1.00  0.00     0.000 C 
BRANCH   3   4
ATOM      4  C   UNL     1      13.756 -27.724 -27.112  1.00  0.00     0.000 C 
BRANCH   4   5
ATOM      5  C   UNL     1      15.234 -28.061 -26.849  1.00  0.00     0.000 C 
BRANCH   5   6
ATOM      6  C   UNL     1      16.129 -26.809 -26.839  1.00  0.00     0.000 C 
BRANCH   6   7
ATOM      7  C   UNL     1      17.391 -26.976 -27.700  1.00  0.00     0.000 C 
BRANCH   7   8
ATOM      8  C   UNL     1      18.652 -27.219 -26.852  1.00  0.00     0.000 C 
BRANCH   8   9
ATOM      9  C   UNL     1      19.948 -27.144 -27.677  1.00  0.00     0.000 C 
BRANCH   9  10
ATOM     10  C   UNL     1      19.902 -26.047 -28.754  1.00  0.00     0.000 C 
BRANCH  10  11
ATOM     11  C   UNL     1      20.851 -24.872 -28.455  1.00  0.00     0.000 C 
BRANCH  11  12
ATOM     12  C   UNL     1      20.652 -24.199 -27.081  1.00  0.00     0.006 C 
BRANCH  12  13
ATOM     13  C   UNL     1      19.475 -23.212 -27.015  1.00  0.00     0.053 C 
BRANCH  13  14
ATOM     14  C   UNL     1      19.315 -22.445 -28.291  1.00  0.00     0.041 C 
ATOM     15  O   UNL     1      18.245 -22.528 -28.951  1.00  0.00    -0.550 OA
ATOM     16  O   UNL     1      20.330 -21.604 -28.730  1.00  0.00    -0.550 OA
ENDBRANCH  13  14
ENDBRANCH  12  13
ENDBRANCH  11  12
ENDBRANCH  10  11
ENDBRANCH   9  10
ENDBRANCH   8   9
ENDBRANCH   7   8
ENDBRANCH   6   7
ENDBRANCH   5   6
ENDBRANCH   4   5
ENDBRANCH   3   4
ENDBRANCH   2   3
ENDBRANCH   1   2
BRANCH   1  17
ATOM     17  C   UNL     1      10.330 -25.522 -26.769  1.00  0.00     0.000 C 
BRANCH  17  18
ATOM     18  C   UNL     1       9.702 -26.915 -26.552  1.00  0.00     0.000 C 
BRANCH  18  19
ATOM     19  C   UNL     1       8.425 -27.188 -27.368  1.00  0.00     0.000 C 
BRANCH  19  20
ATOM     20  C   UNL     1       8.712 -27.878 -28.714  1.00  0.00     0.000 C 
BRANCH  20  21
ATOM     21  C   UNL     1      10.134 -28.460 -28.789  1.00  0.00     0.000 C 
BRANCH  21  22
ATOM     22  C   UNL     1      11.088 -27.576 -29.611  1.00  0.00    -0.000 C 
BRANCH  22  23
ATOM     23  C   UNL     1      10.615 -27.375 -31.062  1.00  0.00    -0.000 C 
BRANCH  23  24
ATOM     24  C   UNL     1      10.592 -25.912 -31.542  1.00  0.00    -0.000 C 
BRANCH  24  25
ATOM     25  C   UNL     1       9.759 -24.995 -30.627  1.00  0.00    -0.000 C 
BRANCH  25  26
ATOM     26  C   UNL     1      10.514 -23.718 -30.227  1.00  0.00    -0.000 C 
BRANCH  26  27
ATOM     27  C   UNL     1      11.989 -23.988 -29.880  1.00  0.00    -0.000 C 
BRANCH  27  28
ATOM     28  C   UNL     1      12.962 -23.103 -30.680  1.00  0.00    -0.000 C 
BRANCH  28  29
ATOM     29  C   UNL     1      12.361 -22.461 -31.943  1.00  0.00    -0.003 C 
ATOM     30  C   UNL     1      12.662 -23.249 -33.217  1.00  0.00     0.004 C 
ENDBRANCH  28  29
ENDBRANCH  27  28
ENDBRANCH  26  27
ENDBRANCH  25  26
ENDBRANCH  24  25
ENDBRANCH  23  24
ENDBRANCH  22  23
ENDBRANCH  21  22
ENDBRANCH  20  21
ENDBRANCH  19  20
ENDBRANCH  18  19
ENDBRANCH  17  18
ENDBRANCH   1  17
TORSDOF 26
ENDMDL
MODEL 6
REMARK VINA RESULT:    -3.715      1.955      4.665
REMARK INTER + INTRA:         -14.077
REMARK INTER:                  -9.101
REMARK INTRA:                  -4.976
REMARK UNBOUND:                -4.715
REMARK SMILES CCCCCCCCCCCCCCCCCCCCCCCCCCCC(=O)[O-]
REMARK SMILES IDX 15 1 16 2 17 3 18 4 19 5 20 6 21 7 22 8 23 9 24 10 25 11
REMARK SMILES IDX 26 12 27 13 28 14 29 15 30 16 14 17 13 18 12 19 11 20 10 21
REMARK SMILES IDX 9 22 8 23 7 24 6 25 5 26 4 27 3 28 2 29 1 30
REMARK H PARENT
REMARK Flexibility Score: inf
ROOT
ATOM      1  C   UNL     1       8.280 -27.308 -28.389  1.00  0.00     0.000 C 
ENDROOT
BRANCH   1   2
ATOM      2  C   UNL     1       8.360 -27.257 -26.850  1.00  0.00     0.000 C 
BRANCH   2   3
ATOM      3  C   UNL     1       9.682 -26.668 -26.313  1.00  0.00     0.000 C 
BRANCH   3   4
ATOM      4  C   UNL     1      10.142 -25.429 -27.102  1.00  0.00     0.000 C 
BRANCH   4   5
ATOM      5  C   UNL     1      11.571 -25.580 -27.651  1.00  0.00     0.000 C 
BRANCH   5   6
ATOM      6  C   UNL     1      11.684 -25.143 -29.122  1.00  0.00     0.000 C 
BRANCH   6   7
ATOM      7  C   UNL     1      10.462 -24.341 -29.598  1.00  0.00     0.000 C 
BRANCH   7   8
ATOM      8  C   UNL     1       9.722 -25.032 -30.756  1.00  0.00     0.000 C 
BRANCH   8   9
ATOM      9  C   UNL     1      10.611 -25.233 -31.995  1.00  0.00     0.000 C 
BRANCH   9  10
ATOM     10  C   UNL     1      10.106 -24.452 -33.220  1.00  0.00     0.000 C 
BRANCH  10  11
ATOM     11  C   UNL     1      10.966 -23.215 -33.539  1.00  0.00     0.000 C 
BRANCH  11  12
ATOM     12  C   UNL     1      12.428 -23.287 -33.052  1.00  0.00     0.006 C 
BRANCH  12  13
ATOM     13  C   UNL     1      12.729 -22.449 -31.799  1.00  0.00     0.053 C 
BRANCH  13  14
ATOM     14  C   UNL     1      12.036 -21.122 -31.832  1.00  0.00     0.041 C 
ATOM     15  O   UNL     1      12.419 -20.226 -32.631  1.00  0.00    -0.550 OA
ATOM     16  O   UNL     1      10.939 -20.889 -31.011  1.00  0.00    -0.550 OA
ENDBRANCH  13  14
ENDBRANCH  12  13
ENDBRANCH  11  12
ENDBRANCH  10  11
ENDBRANCH   9  10
ENDBRANCH   8   9
ENDBRANCH   7   8
ENDBRANCH   6   7
ENDBRANCH   5   6
ENDBRANCH   4   5
ENDBRANCH   3   4
ENDBRANCH   2   3
ENDBRANCH   1   2
BRANCH   1  17
ATOM     17  C   UNL     1       8.810 -28.607 -29.025  1.00  0.00     0.000 C 
BRANCH  17  18
ATOM     18  C   UNL     1      10.217 -28.507 -29.651  1.00  0.00     0.000 C 
BRANCH  18  19
ATOM     19  C   UNL     1      11.380 -28.856 -28.704  1.00  0.00     0.000 C 
BRANCH  19  20
ATOM     20  C   UNL     1      11.039 -30.005 -27.738  1.00  0.00     0.000 C 
BRANCH  20  21
ATOM     21  C   UNL     1      11.590 -29.770 -26.322  1.00  0.00     0.000 C 
BRANCH  21  22
ATOM     22  C   UNL     1      12.830 -28.858 -26.317  1.00  0.00    -0.000 C 
BRANCH  22  23
ATOM     23  C   UNL     1      12.986 -28.068 -25.006  1.00  0.00    -0.000 C 
BRANCH  23  24
ATOM     24  C   UNL     1      11.751 -28.083 -24.086  1.00  0.00    -0.000 C 
BRANCH  24  25
ATOM     25  C   UNL     1      11.915 -27.181 -22.849  1.00  0.00    -0.000 C 
BRANCH  25  26
ATOM     26  C   UNL     1      10.586 -26.936 -22.118  1.00  0.00    -0.000 C 
BRANCH  26  27
ATOM     27  C   UNL     1      10.219 -25.443 -22.045  1.00  0.00    -0.000 C 
BRANCH  27  28
ATOM     28  C   UNL     1       9.801 -24.864 -23.409  1.00  0.00    -0.000 C 
BRANCH  28  29
ATOM     29  C   UNL     1      10.574 -23.604 -23.839  1.00  0.00    -0.003 C 
ATOM     30  C   UNL     1      12.001 -23.904 -24.297  1.00  0.00     0.004 C 
ENDBRANCH  28  29
ENDBRANCH  27  28
ENDBRANCH  26  27
ENDBRANCH  25  26
ENDBRANCH  24  25
ENDBRANCH  23  24
ENDBRANCH  22  23
ENDBRANCH  21  22
ENDBRANCH  20  21
ENDBRANCH  19  20
ENDBRANCH  18  19
ENDBRANCH  17  18
ENDBRANCH   1  17
TORSDOF 26
ENDMDL
MODEL 7
REMARK VINA RESULT:    -3.681      1.129      2.510
REMARK INTER + INTRA:         -13.992
REMARK INTER:                  -9.393
REMARK INTRA:                  -4.599
REMARK UNBOUND:                -4.715
REMARK SMILES CCCCCCCCCCCCCCCCCCCCCCCCCCCC(=O)[O-]
REMARK SMILES IDX 15 1 16 2 17 3 18 4 19 5 20 6 21 7 22 8 23 9 24 10 25 11
REMARK SMILES IDX 26 12 27 13 28 14 29 15 30 16 14 17 13 18 12 19 11 20 10 21
REMARK SMILES IDX 9 22 8 23 7 24 6 25 5 26 4 27 3 28 2 29 1 30
REMARK H PARENT
REMARK Flexibility Score: inf
ROOT
ATOM      1  C   UNL     1      13.537 -26.835 -26.975  1.00  0.00     0.000 C 
ENDROOT
BRANCH   1   2
ATOM      2  C   UNL     1      12.797 -25.515 -27.267  1.00  0.00     0.000 C 
BRANCH   2   3
ATOM      3  C   UNL     1      11.561 -25.281 -26.373  1.00  0.00     0.000 C 
BRANCH   3   4
ATOM      4  C   UNL     1      10.239 -25.582 -27.100  1.00  0.00     0.000 C 
BRANCH   4   5
ATOM      5  C   UNL     1       9.357 -26.577 -26.326  1.00  0.00     0.000 C 
BRANCH   5   6
ATOM      6  C   UNL     1       8.360 -27.312 -27.240  1.00  0.00     0.000 C 
BRANCH   6   7
ATOM      7  C   UNL     1       9.043 -28.343 -28.153  1.00  0.00     0.000 C 
BRANCH   7   8
ATOM      8  C   UNL     1       9.054 -27.905 -29.628  1.00  0.00     0.000 C 
BRANCH   8   9
ATOM      9  C   UNL     1      10.472 -27.850 -30.222  1.00  0.00     0.000 C 
BRANCH   9  10
ATOM     10  C   UNL     1      10.914 -26.418 -30.568  1.00  0.00     0.000 C 
BRANCH  10  11
ATOM     11  C   UNL     1       9.731 -25.441 -30.706  1.00  0.00     0.000 C 
BRANCH  11  12
ATOM     12  C   UNL     1      10.088 -23.949 -30.550  1.00  0.00     0.006 C 
BRANCH  12  13
ATOM     13  C   UNL     1      11.564 -23.674 -30.223  1.00  0.00     0.053 C 
BRANCH  13  14
ATOM     14  C   UNL     1      12.094 -22.491 -30.974  1.00  0.00     0.041 C 
ATOM     15  O   UNL     1      13.191 -22.570 -31.590  1.00  0.00    -0.550 OA
ATOM     16  O   UNL     1      11.356 -21.315 -31.030  1.00  0.00    -0.550 OA
ENDBRANCH  13  14
ENDBRANCH  12  13
ENDBRANCH  11  12
ENDBRANCH  10  11
ENDBRANCH   9  10
ENDBRANCH   8   9
ENDBRANCH   7   8
ENDBRANCH   6   7
ENDBRANCH   5   6
ENDBRANCH   4   5
ENDBRANCH   3   4
ENDBRANCH   2   3
ENDBRANCH   1   2
BRANCH   1  17
ATOM     17  C   UNL     1      12.830 -28.104 -27.488  1.00  0.00     0.000 C 
BRANCH  17  18
ATOM     18  C   UNL     1      12.195 -28.991 -26.396  1.00  0.00     0.000 C 
BRANCH  18  19
ATOM     19  C   UNL     1      12.783 -28.809 -24.985  1.00  0.00     0.000 C 
BRANCH  19  20
ATOM     20  C   UNL     1      11.703 -28.757 -23.889  1.00  0.00     0.000 C 
BRANCH  20  21
ATOM     21  C   UNL     1      11.955 -27.642 -22.861  1.00  0.00     0.000 C 
BRANCH  21  22
ATOM     22  C   UNL     1      11.091 -26.395 -23.122  1.00  0.00    -0.000 C 
BRANCH  22  23
ATOM     23  C   UNL     1      11.804 -25.084 -22.747  1.00  0.00    -0.000 C 
BRANCH  23  24
ATOM     24  C   UNL     1      10.870 -23.884 -22.502  1.00  0.00    -0.000 C 
BRANCH  24  25
ATOM     25  C   UNL     1       9.495 -24.298 -21.947  1.00  0.00    -0.000 C 
BRANCH  25  26
ATOM     26  C   UNL     1       9.316 -23.915 -20.469  1.00  0.00    -0.000 C 
BRANCH  26  27
ATOM     27  C   UNL     1       8.845 -25.099 -19.606  1.00  0.00    -0.000 C 
BRANCH  27  28
ATOM     28  C   UNL     1       9.363 -26.455 -20.118  1.00  0.00    -0.000 C 
BRANCH  28  29
ATOM     29  C   UNL     1       8.845 -27.679 -19.340  1.00  0.00    -0.003 C 
ATOM     30  C   UNL     1       9.542 -28.979 -19.737  1.00  0.00     0.004 C 
ENDBRANCH  28  29
ENDBRANCH  27  28
ENDBRANCH  26  27
ENDBRANCH  25  26
ENDBRANCH  24  25
ENDBRANCH  23  24
ENDBRANCH  22  23
ENDBRANCH  21  22
ENDBRANCH  20  21
ENDBRANCH  19  20
ENDBRANCH  18  19
ENDBRANCH  17  18
ENDBRANCH   1  17
TORSDOF 26
ENDMDL
MODEL 8
REMARK VINA RESULT:    -3.655      4.029      7.649
REMARK INTER + INTRA:         -13.925
REMARK INTER:                 -10.729
REMARK INTRA:                  -3.196
REMARK UNBOUND:                -4.715
REMARK SMILES CCCCCCCCCCCCCCCCCCCCCCCCCCCC(=O)[O-]
REMARK SMILES IDX 15 1 16 2 17 3 18 4 19 5 20 6 21 7 22 8 23 9 24 10 25 11
REMARK SMILES IDX 26 12 27 13 28 14 29 15 30 16 14 17 13 18 12 19 11 20 10 21
REMARK SMILES IDX 9 22 8 23 7 24 6 25 5 26 4 27 3 28 2 29 1 30
REMARK H PARENT
REMARK Flexibility Score: inf
ROOT
ATOM      1  C   UNL     1      12.283 -27.210 -25.416  1.00  0.00     0.000 C 
ENDROOT
BRANCH   1   2
ATOM      2  C   UNL     1      12.023 -25.728 -25.750  1.00  0.00     0.000 C 
BRANCH   2   3
ATOM      3  C   UNL     1      10.594 -25.443 -26.260  1.00  0.00     0.000 C 
BRANCH   3   4
ATOM      4  C   UNL     1       9.560 -26.442 -25.711  1.00  0.00     0.000 C 
BRANCH   4   5
ATOM      5  C   UNL     1       8.647 -27.008 -26.812  1.00  0.00     0.000 C 
BRANCH   5   6
ATOM      6  C   UNL     1       9.378 -28.013 -27.721  1.00  0.00     0.000 C 
BRANCH   6   7
ATOM      7  C   UNL     1       8.718 -28.150 -29.103  1.00  0.00     0.000 C 
BRANCH   7   8
ATOM      8  C   UNL     1       9.638 -27.675 -30.241  1.00  0.00     0.000 C 
BRANCH   8   9
ATOM      9  C   UNL     1      10.986 -27.138 -29.733  1.00  0.00     0.000 C 
BRANCH   9  10
ATOM     10  C   UNL     1      11.030 -25.602 -29.678  1.00  0.00     0.000 C 
BRANCH  10  11
ATOM     11  C   UNL     1       9.876 -24.941 -30.455  1.00  0.00     0.000 C 
BRANCH  11  12
ATOM     12  C   UNL     1      10.184 -24.601 -31.928  1.00  0.00     0.006 C 
BRANCH  12  13
ATOM     13  C   UNL     1      11.606 -24.075 -32.180  1.00  0.00     0.053 C 
BRANCH  13  14
ATOM     14  C   UNL     1      11.705 -22.597 -31.955  1.00  0.00     0.041 C 
ATOM     15  O   UNL     1      12.569 -21.918 -32.574  1.00  0.00    -0.550 OA
ATOM     16  O   UNL     1      10.817 -21.963 -31.097  1.00  0.00    -0.550 OA
ENDBRANCH  13  14
ENDBRANCH  12  13
ENDBRANCH  11  12
ENDBRANCH  10  11
ENDBRANCH   9  10
ENDBRANCH   8   9
ENDBRANCH   7   8
ENDBRANCH   6   7
ENDBRANCH   5   6
ENDBRANCH   4   5
ENDBRANCH   3   4
ENDBRANCH   2   3
ENDBRANCH   1   2
BRANCH   1  17
ATOM     17  C   UNL     1      12.890 -28.038 -26.564  1.00  0.00     0.000 C 
BRANCH  17  18
ATOM     18  C   UNL     1      14.171 -27.450 -27.195  1.00  0.00     0.000 C 
BRANCH  18  19
ATOM     19  C   UNL     1      15.467 -28.218 -26.875  1.00  0.00     0.000 C 
BRANCH  19  20
ATOM     20  C   UNL     1      16.736 -27.411 -27.205  1.00  0.00     0.000 C 
BRANCH  20  21
ATOM     21  C   UNL     1      18.021 -28.116 -26.741  1.00  0.00     0.000 C 
BRANCH  21  22
ATOM     22  C   UNL     1      19.293 -27.392 -27.218  1.00  0.00    -0.000 C 
BRANCH  22  23
ATOM     23  C   UNL     1      19.089 -26.632 -28.541  1.00  0.00    -0.000 C 
BRANCH  23  24
ATOM     24  C   UNL     1      20.379 -26.336 -29.327  1.00  0.00    -0.000 C 
BRANCH  24  25
ATOM     25  C   UNL     1      21.435 -25.594 -28.487  1.00  0.00    -0.000 C 
BRANCH  25  26
ATOM     26  C   UNL     1      21.140 -24.090 -28.365  1.00  0.00    -0.000 C 
BRANCH  26  27
ATOM     27  C   UNL     1      20.801 -23.671 -26.924  1.00  0.00    -0.000 C 
BRANCH  27  28
ATOM     28  C   UNL     1      19.287 -23.669 -26.643  1.00  0.00    -0.000 C 
BRANCH  28  29
ATOM     29  C   UNL     1      18.890 -24.179 -25.245  1.00  0.00    -0.003 C 
ATOM     30  C   UNL     1      19.998 -24.981 -24.563  1.00  0.00     0.004 C 
ENDBRANCH  28  29
ENDBRANCH  27  28
ENDBRANCH  26  27
ENDBRANCH  25  26
ENDBRANCH  24  25
ENDBRANCH  23  24
ENDBRANCH  22  23
ENDBRANCH  21  22
ENDBRANCH  20  21
ENDBRANCH  19  20
ENDBRANCH  18  19
ENDBRANCH  17  18
ENDBRANCH   1  17
TORSDOF 26
ENDMDL
MODEL 9
REMARK VINA RESULT:    -3.650      4.267      9.902
REMARK INTER + INTRA:         -13.914
REMARK INTER:                  -9.928
REMARK INTRA:                  -3.987
REMARK UNBOUND:                -4.715
REMARK SMILES CCCCCCCCCCCCCCCCCCCCCCCCCCCC(=O)[O-]
REMARK SMILES IDX 15 1 16 2 17 3 18 4 19 5 20 6 21 7 22 8 23 9 24 10 25 11
REMARK SMILES IDX 26 12 27 13 28 14 29 15 30 16 14 17 13 18 12 19 11 20 10 21
REMARK SMILES IDX 9 22 8 23 7 24 6 25 5 26 4 27 3 28 2 29 1 30
REMARK H PARENT
REMARK Flexibility Score: inf
ROOT
ATOM      1  C   UNL     1       9.224 -25.523 -24.999  1.00  0.00     0.000 C 
ENDROOT
BRANCH   1   2
ATOM      2  C   UNL     1      10.472 -24.774 -24.491  1.00  0.00     0.000 C 
BRANCH   2   3
ATOM      3  C   UNL     1      10.814 -25.061 -23.013  1.00  0.00     0.000 C 
BRANCH   3   4
ATOM      4  C   UNL     1       9.668 -24.685 -22.057  1.00  0.00     0.000 C 
BRANCH   4   5
ATOM      5  C   UNL     1       9.657 -23.185 -21.716  1.00  0.00     0.000 C 
BRANCH   5   6
ATOM      6  C   UNL     1       9.738 -22.927 -20.201  1.00  0.00     0.000 C 
BRANCH   6   7
ATOM      7  C   UNL     1      11.046 -23.446 -19.581  1.00  0.00     0.000 C 
BRANCH   7   8
ATOM      8  C   UNL     1      10.924 -23.680 -18.065  1.00  0.00     0.000 C 
BRANCH   8   9
ATOM      9  C   UNL     1      10.962 -25.170 -17.688  1.00  0.00     0.000 C 
BRANCH   9  10
ATOM     10  C   UNL     1      10.791 -26.094 -18.906  1.00  0.00     0.000 C 
BRANCH  10  11
ATOM     11  C   UNL     1       9.441 -26.833 -18.913  1.00  0.00     0.000 C 
BRANCH  11  12
ATOM     12  C   UNL     1       8.194 -25.927 -18.835  1.00  0.00     0.006 C 
BRANCH  12  13
ATOM     13  C   UNL     1       6.967 -26.581 -18.180  1.00  0.00     0.053 C 
BRANCH  13  14
ATOM     14  C   UNL     1       7.347 -27.460 -17.028  1.00  0.00     0.041 C 
ATOM     15  O   UNL     1       7.849 -26.958 -15.987  1.00  0.00    -0.550 OA
ATOM     16  O   UNL     1       7.108 -28.826 -17.087  1.00  0.00    -0.550 OA
ENDBRANCH  13  14
ENDBRANCH  12  13
ENDBRANCH  11  12
ENDBRANCH  10  11
ENDBRANCH   9  10
ENDBRANCH   8   9
ENDBRANCH   7   8
ENDBRANCH   6   7
ENDBRANCH   5   6
ENDBRANCH   4   5
ENDBRANCH   3   4
ENDBRANCH   2   3
ENDBRANCH   1   2
BRANCH   1  17
ATOM     17  C   UNL     1       9.503 -26.617 -26.046  1.00  0.00     0.000 C 
BRANCH  17  18
ATOM     18  C   UNL     1       8.269 -27.102 -26.837  1.00  0.00     0.000 C 
BRANCH  18  19
ATOM     19  C   UNL     1       8.527 -27.407 -28.325  1.00  0.00     0.000 C 
BRANCH  19  20
ATOM     20  C   UNL     1       8.986 -28.856 -28.567  1.00  0.00     0.000 C 
BRANCH  20  21
ATOM     21  C   UNL     1      10.515 -28.983 -28.674  1.00  0.00     0.000 C 
BRANCH  21  22
ATOM     22  C   UNL     1      11.133 -29.691 -27.455  1.00  0.00    -0.000 C 
BRANCH  22  23
ATOM     23  C   UNL     1      12.210 -28.845 -26.754  1.00  0.00    -0.000 C 
BRANCH  23  24
ATOM     24  C   UNL     1      12.845 -27.747 -27.627  1.00  0.00    -0.000 C 
BRANCH  24  25
ATOM     25  C   UNL     1      12.983 -26.401 -26.892  1.00  0.00    -0.000 C 
BRANCH  25  26
ATOM     26  C   UNL     1      12.395 -25.229 -27.692  1.00  0.00    -0.000 C 
BRANCH  26  27
ATOM     27  C   UNL     1      11.758 -25.680 -29.019  1.00  0.00    -0.000 C 
BRANCH  27  28
ATOM     28  C   UNL     1      10.644 -24.731 -29.499  1.00  0.00    -0.000 C 
BRANCH  28  29
ATOM     29  C   UNL     1       9.936 -25.172 -30.794  1.00  0.00    -0.003 C 
ATOM     30  C   UNL     1      10.652 -26.317 -31.508  1.00  0.00     0.004 C 
ENDBRANCH  28  29
ENDBRANCH  27  28
ENDBRANCH  26  27
ENDBRANCH  25  26
ENDBRANCH  24  25
ENDBRANCH  23  24
ENDBRANCH  22  23
ENDBRANCH  21  22
ENDBRANCH  20  21
ENDBRANCH  19  20
ENDBRANCH  18  19
ENDBRANCH  17  18
ENDBRANCH   1  17
TORSDOF 26
ENDMDL
