MODEL 1
REMARK VINA RESULT:    -3.971      0.000      0.000
REMARK INTER + INTRA:         -12.583
REMARK INTER:                  -8.613
REMARK INTRA:                  -3.970
REMARK UNBOUND:                -3.970
REMARK SMILES CCCCCCCCCCCCCCCCCCCCCC(=O)[O-]
REMARK SMILES IDX 12 1 11 2 10 3 9 4 8 5 7 6 6 7 5 8 4 9 3 10 2 11 1 12 13 13
REMARK SMILES IDX 14 14 15 15 16 16 17 17 18 18 19 19 20 20 21 21 22 22 23 23
REMARK SMILES IDX 24 24
REMARK H PARENT
REMARK Flexibility Score: inf
ROOT
ATOM      1  C   UNL     1     103.438  95.941  98.400  1.00  0.00     0.000 C 
ENDROOT
BRANCH   1   2
ATOM      2  C   UNL     1     103.970  97.117  97.566  1.00  0.00     0.000 C 
BRANCH   2   3
ATOM      3  C   UNL     1     105.195  96.737  96.717  1.00  0.00     0.000 C 
BRANCH   3   4
ATOM      4  C   UNL     1     105.278  97.538  95.406  1.00  0.00    -0.000 C 
BRANCH   4   5
ATOM      5  C   UNL     1     103.949  98.222  95.049  1.00  0.00    -0.000 C 
BRANCH   5   6
ATOM      6  C   UNL     1     104.031  99.754  95.126  1.00  0.00    -0.000 C 
BRANCH   6   7
ATOM      7  C   UNL     1     105.486 100.230  95.013  1.00  0.00    -0.000 C 
BRANCH   7   8
ATOM      8  C   UNL     1     105.881 101.101  96.214  1.00  0.00    -0.000 C 
BRANCH   8   9
ATOM      9  C   UNL     1     104.942 100.890  97.421  1.00  0.00    -0.000 C 
BRANCH   9  10
ATOM     10  C   UNL     1     105.604 100.145  98.595  1.00  0.00    -0.000 C 
BRANCH  10  11
ATOM     11  C   UNL     1     107.023  99.659  98.271  1.00  0.00    -0.003 C 
ATOM     12  C   UNL     1     108.004 100.052  99.370  1.00  0.00     0.004 C 
ENDBRANCH  10  11
ENDBRANCH   9  10
ENDBRANCH   8   9
ENDBRANCH   7   8
ENDBRANCH   6   7
ENDBRANCH   5   6
ENDBRANCH   4   5
ENDBRANCH   3   4
ENDBRANCH   2   3
ENDBRANCH   1   2
BRANCH   1  13
ATOM     13  C   UNL     1     102.627  96.437  99.604  1.00  0.00     0.000 C 
BRANCH  13  14
ATOM     14  C   UNL     1     102.894  97.924  99.863  1.00  0.00     0.000 C 
BRANCH  14  15
ATOM     15  C   UNL     1     101.590  98.739  99.852  1.00  0.00     0.000 C 
BRANCH  15  16
ATOM     16  C   UNL     1     101.491  99.675  98.628  1.00  0.00     0.000 C 
BRANCH  16  17
ATOM     17  C   UNL     1     100.256  99.424  97.738  1.00  0.00     0.000 C 
BRANCH  17  18
ATOM     18  C   UNL     1     100.561  98.876  96.334  1.00  0.00     0.000 C 
BRANCH  18  19
ATOM     19  C   UNL     1     100.564  97.341  96.277  1.00  0.00     0.000 C 
BRANCH  19  20
ATOM     20  C   UNL     1      99.321  96.766  96.973  1.00  0.00     0.006 C 
BRANCH  20  21
ATOM     21  C   UNL     1      99.628  95.461  97.720  1.00  0.00     0.053 C 
BRANCH  21  22
ATOM     22  C   UNL     1      98.448  94.537  97.728  1.00  0.00     0.041 C 
ATOM     23  O   UNL     1      98.532  93.396  97.202  1.00  0.00    -0.550 OA
ATOM     24  O   UNL     1      97.248  94.946  98.297  1.00  0.00    -0.550 OA
ENDBRANCH  21  22
ENDBRANCH  20  21
ENDBRANCH  19  20
ENDBRANCH  18  19
ENDBRANCH  17  18
ENDBRANCH  16  17
ENDBRANCH  15  16
ENDBRANCH  14  15
ENDBRANCH  13  14
ENDBRANCH   1  13
TORSDOF 20
ENDMDL
MODEL 2
REMARK VINA RESULT:    -3.856      3.225      6.780
REMARK INTER + INTRA:         -12.334
REMARK INTER:                  -8.503
REMARK INTRA:                  -3.831
REMARK UNBOUND:                -3.970
REMARK SMILES CCCCCCCCCCCCCCCCCCCCCC(=O)[O-]
REMARK SMILES IDX 12 1 11 2 10 3 9 4 8 5 7 6 6 7 5 8 4 9 3 10 2 11 1 12 13 13
REMARK SMILES IDX 14 14 15 15 16 16 17 17 18 18 19 19 20 20 21 21 22 22 23 23
REMARK SMILES IDX 24 24
REMARK H PARENT
REMARK Flexibility Score: inf
ROOT
ATOM      1  C   UNL     1     101.990  96.940  98.720  1.00  0.00     0.000 C 
ENDROOT
BRANCH   1   2
ATOM      2  C   UNL     1     100.565  96.892  98.148  1.00  0.00     0.000 C 
BRANCH   2   3
ATOM      3  C   UNL     1     100.065  95.457  97.915  1.00  0.00     0.000 C 
BRANCH   3   4
ATOM      4  C   UNL     1      99.125  95.346  96.702  1.00  0.00    -0.000 C 
BRANCH   4   5
ATOM      5  C   UNL     1      99.438  96.389  95.618  1.00  0.00    -0.000 C 
BRANCH   5   6
ATOM      6  C   UNL     1      98.234  97.285  95.291  1.00  0.00    -0.000 C 
BRANCH   6   7
ATOM      7  C   UNL     1      98.499  98.734  95.717  1.00  0.00    -0.000 C 
BRANCH   7   8
ATOM      8  C   UNL     1      97.849  99.042  97.073  1.00  0.00    -0.000 C 
BRANCH   8   9
ATOM      9  C   UNL     1      96.658  98.107  97.374  1.00  0.00    -0.000 C 
BRANCH   9  10
ATOM     10  C   UNL     1      96.792  97.346  98.706  1.00  0.00    -0.000 C 
BRANCH  10  11
ATOM     11  C   UNL     1      95.963  96.056  98.744  1.00  0.00    -0.003 C 
ATOM     12  C   UNL     1      96.698  94.951  99.495  1.00  0.00     0.004 C 
ENDBRANCH  10  11
ENDBRANCH   9  10
ENDBRANCH   8   9
ENDBRANCH   7   8
ENDBRANCH   6   7
ENDBRANCH   5   6
ENDBRANCH   4   5
ENDBRANCH   3   4
ENDBRANCH   2   3
ENDBRANCH   1   2
BRANCH   1  13
ATOM     13  C   UNL     1     102.616  95.540  98.766  1.00  0.00     0.000 C 
BRANCH  13  14
ATOM     14  C   UNL     1     104.002  95.542  98.111  1.00  0.00     0.000 C 
BRANCH  14  15
ATOM     15  C   UNL     1     104.422  96.961  97.695  1.00  0.00     0.000 C 
BRANCH  15  16
ATOM     16  C   UNL     1     105.185  96.979  96.352  1.00  0.00     0.000 C 
BRANCH  16  17
ATOM     17  C   UNL     1     104.599  97.949  95.305  1.00  0.00     0.000 C 
BRANCH  17  18
ATOM     18  C   UNL     1     103.073  98.125  95.357  1.00  0.00     0.000 C 
BRANCH  18  19
ATOM     19  C   UNL     1     102.640  99.599  95.384  1.00  0.00     0.000 C 
BRANCH  19  20
ATOM     20  C   UNL     1     102.592 100.128  96.826  1.00  0.00     0.006 C 
BRANCH  20  21
ATOM     21  C   UNL     1     101.214 100.701  97.186  1.00  0.00     0.053 C 
BRANCH  21  22
ATOM     22  C   UNL     1     100.916 101.950  96.414  1.00  0.00     0.041 C 
ATOM     23  O   UNL     1     101.742 102.899  96.399  1.00  0.00    -0.550 OA
ATOM     24  O   UNL     1      99.713 102.074  95.729  1.00  0.00    -0.550 OA
ENDBRANCH  21  22
ENDBRANCH  20  21
ENDBRANCH  19  20
ENDBRANCH  18  19
ENDBRANCH  17  18
ENDBRANCH  16  17
ENDBRANCH  15  16
ENDBRANCH  14  15
ENDBRANCH  13  14
ENDBRANCH   1  13
TORSDOF 20
ENDMDL
MODEL 3
REMARK VINA RESULT:    -3.847      1.481      2.744
REMARK INTER + INTRA:         -12.314
REMARK INTER:                  -8.264
REMARK INTRA:                  -4.051
REMARK UNBOUND:                -3.970
REMARK SMILES CCCCCCCCCCCCCCCCCCCCCC(=O)[O-]
REMARK SMILES IDX 12 1 11 2 10 3 9 4 8 5 7 6 6 7 5 8 4 9 3 10 2 11 1 12 13 13
REMARK SMILES IDX 14 14 15 15 16 16 17 17 18 18 19 19 20 20 21 21 22 22 23 23
REMARK SMILES IDX 24 24
REMARK H PARENT
REMARK Flexibility Score: inf
ROOT
ATOM      1  C   UNL     1     103.636  98.144  96.487  1.00  0.00     0.000 C 
ENDROOT
BRANCH   1   2
ATOM      2  C   UNL     1     104.732  97.110  96.785  1.00  0.00     0.000 C 
BRANCH   2   3
ATOM      3  C   UNL     1     105.993  97.316  95.930  1.00  0.00     0.000 C 
BRANCH   3   4
ATOM      4  C   UNL     1     107.195  97.808  96.754  1.00  0.00    -0.000 C 
BRANCH   4   5
ATOM      5  C   UNL     1     107.910  98.999  96.097  1.00  0.00    -0.000 C 
BRANCH   5   6
ATOM      6  C   UNL     1     107.181  99.514  94.847  1.00  0.00    -0.000 C 
BRANCH   6   7
ATOM      7  C   UNL     1     106.821 100.998  94.997  1.00  0.00    -0.000 C 
BRANCH   7   8
ATOM      8  C   UNL     1     106.913 101.446  96.463  1.00  0.00    -0.000 C 
BRANCH   8   9
ATOM      9  C   UNL     1     105.528 101.498  97.143  1.00  0.00    -0.000 C 
BRANCH   9  10
ATOM     10  C   UNL     1     105.449 100.682  98.446  1.00  0.00    -0.000 C 
BRANCH  10  11
ATOM     11  C   UNL     1     104.058 100.719  99.092  1.00  0.00    -0.003 C 
ATOM     12  C   UNL     1     103.776  99.436  99.868  1.00  0.00     0.004 C 
ENDBRANCH  10  11
ENDBRANCH   9  10
ENDBRANCH   8   9
ENDBRANCH   7   8
ENDBRANCH   6   7
ENDBRANCH   5   6
ENDBRANCH   4   5
ENDBRANCH   3   4
ENDBRANCH   2   3
ENDBRANCH   1   2
BRANCH   1  13
ATOM     13  C   UNL     1     103.577  98.474  94.990  1.00  0.00     0.000 C 
BRANCH  13  14
ATOM     14  C   UNL     1     103.243  99.955  94.772  1.00  0.00     0.000 C 
BRANCH  14  15
ATOM     15  C   UNL     1     102.209 100.452  95.796  1.00  0.00     0.000 C 
BRANCH  15  16
ATOM     16  C   UNL     1     100.759 100.313  95.285  1.00  0.00     0.000 C 
BRANCH  16  17
ATOM     17  C   UNL     1      99.775  99.733  96.322  1.00  0.00     0.000 C 
BRANCH  17  18
ATOM     18  C   UNL     1     100.408  99.301  97.656  1.00  0.00     0.000 C 
BRANCH  18  19
ATOM     19  C   UNL     1     100.289  97.792  97.915  1.00  0.00     0.000 C 
BRANCH  19  20
ATOM     20  C   UNL     1     100.120  97.022  96.597  1.00  0.00     0.006 C 
BRANCH  20  21
ATOM     21  C   UNL     1      98.795  96.249  96.544  1.00  0.00     0.053 C 
BRANCH  21  22
ATOM     22  C   UNL     1      98.645  95.327  97.716  1.00  0.00     0.041 C 
ATOM     23  O   UNL     1      99.418  94.342  97.851  1.00  0.00    -0.550 OA
ATOM     24  O   UNL     1      97.635  95.542  98.646  1.00  0.00    -0.550 OA
ENDBRANCH  21  22
ENDBRANCH  20  21
ENDBRANCH  19  20
ENDBRANCH  18  19
ENDBRANCH  17  18
ENDBRANCH  16  17
ENDBRANCH  15  16
ENDBRANCH  14  15
ENDBRANCH  13  14
ENDBRANCH   1  13
TORSDOF 20
ENDMDL
MODEL 4
REMARK VINA RESULT:    -3.770      3.947      7.203
REMARK INTER + INTRA:         -12.149
REMARK INTER:                  -8.604
REMARK INTRA:                  -3.545
REMARK UNBOUND:                -3.970
REMARK SMILES CCCCCCCCCCCCCCCCCCCCCC(=O)[O-]
REMARK SMILES IDX 12 1 11 2 10 3 9 4 8 5 7 6 6 7 5 8 4 9 3 10 2 11 1 12 13 13
REMARK SMILES IDX 14 14 15 15 16 16 17 17 18 18 19 19 20 20 21 21 22 22 23 23
REMARK SMILES IDX 24 24
REMARK H PARENT
REMARK Flexibility Score: inf
ROOT
ATOM      1  C   UNL     1     104.407  97.033  97.429  1.00  0.00     0.000 C 
ENDROOT
BRANCH   1   2
ATOM      2  C   UNL     1     104.153  95.627  97.991  1.00  0.00     0.000 C 
BRANCH   2   3
ATOM      3  C   UNL     1     103.000  95.592  99.008  1.00  0.00     0.000 C 
BRANCH   3   4
ATOM      4  C   UNL     1     101.894  96.612  98.687  1.00  0.00    -0.000 C 
BRANCH   4   5
ATOM      5  C   UNL     1     101.902  97.810  99.650  1.00  0.00    -0.000 C 
BRANCH   5   6
ATOM      6  C   UNL     1     100.809  98.839  99.325  1.00  0.00    -0.000 C 
BRANCH   6   7
ATOM      7  C   UNL     1      99.657  98.187  98.549  1.00  0.00    -0.000 C 
BRANCH   7   8
ATOM      8  C   UNL     1      99.135  99.116  97.444  1.00  0.00    -0.000 C 
BRANCH   8   9
ATOM      9  C   UNL     1      99.413  98.557  96.033  1.00  0.00    -0.000 C 
BRANCH   9  10
ATOM     10  C   UNL     1     100.015  97.140  96.037  1.00  0.00    -0.000 C 
BRANCH  10  11
ATOM     11  C   UNL     1      98.996  96.055  95.666  1.00  0.00    -0.003 C 
ATOM     12  C   UNL     1      98.853  95.027  96.783  1.00  0.00     0.004 C 
ENDBRANCH  10  11
ENDBRANCH   9  10
ENDBRANCH   8   9
ENDBRANCH   7   8
ENDBRANCH   6   7
ENDBRANCH   5   6
ENDBRANCH   4   5
ENDBRANCH   3   4
ENDBRANCH   2   3
ENDBRANCH   1   2
BRANCH   1  13
ATOM     13  C   UNL     1     105.457  97.002  96.311  1.00  0.00     0.000 C 
BRANCH  13  14
ATOM     14  C   UNL     1     104.983  97.812  95.098  1.00  0.00     0.000 C 
BRANCH  14  15
ATOM     15  C   UNL     1     103.476  98.106  95.175  1.00  0.00     0.000 C 
BRANCH  15  16
ATOM     16  C   UNL     1     103.170  99.619  95.164  1.00  0.00     0.000 C 
BRANCH  16  17
ATOM     17  C   UNL     1     102.690 100.178  96.520  1.00  0.00     0.000 C 
BRANCH  17  18
ATOM     18  C   UNL     1     103.552 101.309  97.104  1.00  0.00     0.000 C 
BRANCH  18  19
ATOM     19  C   UNL     1     104.520 100.824  98.194  1.00  0.00     0.000 C 
BRANCH  19  20
ATOM     20  C   UNL     1     105.883 100.455  97.591  1.00  0.00     0.006 C 
BRANCH  20  21
ATOM     21  C   UNL     1     106.231 101.321  96.372  1.00  0.00     0.053 C 
BRANCH  21  22
ATOM     22  C   UNL     1     107.315 102.306  96.685  1.00  0.00     0.041 C 
ATOM     23  O   UNL     1     108.134 102.653  95.794  1.00  0.00    -0.550 OA
ATOM     24  O   UNL     1     107.436 102.824  97.969  1.00  0.00    -0.550 OA
ENDBRANCH  21  22
ENDBRANCH  20  21
ENDBRANCH  19  20
ENDBRANCH  18  19
ENDBRANCH  17  18
ENDBRANCH  16  17
ENDBRANCH  15  16
ENDBRANCH  14  15
ENDBRANCH  13  14
ENDBRANCH   1  13
TORSDOF 20
ENDMDL
MODEL 5
REMARK VINA RESULT:    -3.763      3.548      6.249
REMARK INTER + INTRA:         -12.133
REMARK INTER:                  -8.058
REMARK INTRA:                  -4.075
REMARK UNBOUND:                -3.970
REMARK SMILES CCCCCCCCCCCCCCCCCCCCCC(=O)[O-]
REMARK SMILES IDX 12 1 11 2 10 3 9 4 8 5 7 6 6 7 5 8 4 9 3 10 2 11 1 12 13 13
REMARK SMILES IDX 14 14 15 15 16 16 17 17 18 18 19 19 20 20 21 21 22 22 23 23
REMARK SMILES IDX 24 24
REMARK H PARENT
REMARK Flexibility Score: inf
ROOT
ATOM      1  C   UNL     1     103.323  97.143  97.414  1.00  0.00     0.000 C 
ENDROOT
BRANCH   1   2
ATOM      2  C   UNL     1     104.749  97.211  96.847  1.00  0.00     0.000 C 
BRANCH   2   3
ATOM      3  C   UNL     1     104.800  97.831  95.440  1.00  0.00     0.000 C 
BRANCH   3   4
ATOM      4  C   UNL     1     103.470  98.485  95.031  1.00  0.00    -0.000 C 
BRANCH   4   5
ATOM      5  C   UNL     1     103.597 100.005  94.840  1.00  0.00    -0.000 C 
BRANCH   5   6
ATOM      6  C   UNL     1     102.242 100.727  94.910  1.00  0.00    -0.000 C 
BRANCH   6   7
ATOM      7  C   UNL     1     101.352 100.113  95.999  1.00  0.00    -0.000 C 
BRANCH   7   8
ATOM      8  C   UNL     1      99.910  99.935  95.503  1.00  0.00    -0.000 C 
BRANCH   8   9
ATOM      9  C   UNL     1      99.217  98.719  96.152  1.00  0.00    -0.000 C 
BRANCH   9  10
ATOM     10  C   UNL     1     100.062  97.432  96.113  1.00  0.00    -0.000 C 
BRANCH  10  11
ATOM     11  C   UNL     1      99.234  96.165  96.363  1.00  0.00    -0.003 C 
ATOM     12  C   UNL     1      99.580  95.537  97.708  1.00  0.00     0.004 C 
ENDBRANCH  10  11
ENDBRANCH   9  10
ENDBRANCH   8   9
ENDBRANCH   7   8
ENDBRANCH   6   7
ENDBRANCH   5   6
ENDBRANCH   4   5
ENDBRANCH   3   4
ENDBRANCH   2   3
ENDBRANCH   1   2
BRANCH   1  13
ATOM     13  C   UNL     1     103.288  96.365  98.736  1.00  0.00     0.000 C 
BRANCH  13  14
ATOM     14  C   UNL     1     102.430  97.096  99.774  1.00  0.00     0.000 C 
BRANCH  14  15
ATOM     15  C   UNL     1     101.819  98.381  99.192  1.00  0.00     0.000 C 
BRANCH  15  16
ATOM     16  C   UNL     1     102.397  99.656  99.844  1.00  0.00     0.000 C 
BRANCH  16  17
ATOM     17  C   UNL     1     103.700 100.165  99.193  1.00  0.00     0.000 C 
BRANCH  17  18
ATOM     18  C   UNL     1     103.579 101.504  98.447  1.00  0.00     0.000 C 
BRANCH  18  19
ATOM     19  C   UNL     1     104.863 101.890  97.696  1.00  0.00     0.000 C 
BRANCH  19  20
ATOM     20  C   UNL     1     105.876 100.735  97.716  1.00  0.00     0.006 C 
BRANCH  20  21
ATOM     21  C   UNL     1     106.849 100.798  96.530  1.00  0.00     0.053 C 
BRANCH  21  22
ATOM     22  C   UNL     1     107.841  99.675  96.568  1.00  0.00     0.041 C 
ATOM     23  O   UNL     1     108.256  99.160  95.498  1.00  0.00    -0.550 OA
ATOM     24  O   UNL     1     108.289  99.184  97.788  1.00  0.00    -0.550 OA
ENDBRANCH  21  22
ENDBRANCH  20  21
ENDBRANCH  19  20
ENDBRANCH  18  19
ENDBRANCH  17  18
ENDBRANCH  16  17
ENDBRANCH  15  16
ENDBRANCH  14  15
ENDBRANCH  13  14
ENDBRANCH   1  13
TORSDOF 20
ENDMDL
MODEL 6
REMARK VINA RESULT:    -3.751      2.708      4.138
REMARK INTER + INTRA:         -12.107
REMARK INTER:                  -9.047
REMARK INTRA:                  -3.060
REMARK UNBOUND:                -3.970
REMARK SMILES CCCCCCCCCCCCCCCCCCCCCC(=O)[O-]
REMARK SMILES IDX 12 1 11 2 10 3 9 4 8 5 7 6 6 7 5 8 4 9 3 10 2 11 1 12 13 13
REMARK SMILES IDX 14 14 15 15 16 16 17 17 18 18 19 19 20 20 21 21 22 22 23 23
REMARK SMILES IDX 24 24
REMARK H PARENT
REMARK Flexibility Score: inf
ROOT
ATOM      1  C   UNL     1     102.856  98.265  98.498  1.00  0.00     0.000 C 
ENDROOT
BRANCH   1   2
ATOM      2  C   UNL     1     103.108  99.028  97.189  1.00  0.00     0.000 C 
BRANCH   2   3
ATOM      3  C   UNL     1     103.229  98.096  95.972  1.00  0.00     0.000 C 
BRANCH   3   4
ATOM      4  C   UNL     1     104.388  98.487  95.039  1.00  0.00    -0.000 C 
BRANCH   4   5
ATOM      5  C   UNL     1     105.502  97.428  95.011  1.00  0.00    -0.000 C 
BRANCH   5   6
ATOM      6  C   UNL     1     106.127  97.188  96.394  1.00  0.00    -0.000 C 
BRANCH   6   7
ATOM      7  C   UNL     1     107.236  98.210  96.677  1.00  0.00    -0.000 C 
BRANCH   7   8
ATOM      8  C   UNL     1     106.762  99.284  97.666  1.00  0.00    -0.000 C 
BRANCH   8   9
ATOM      9  C   UNL     1     107.340 100.677  97.334  1.00  0.00    -0.000 C 
BRANCH   9  10
ATOM     10  C   UNL     1     106.631 101.376  96.160  1.00  0.00    -0.000 C 
BRANCH  10  11
ATOM     11  C   UNL     1     107.515 101.494  94.911  1.00  0.00    -0.003 C 
ATOM     12  C   UNL     1     106.934 100.696  93.749  1.00  0.00     0.004 C 
ENDBRANCH  10  11
ENDBRANCH   9  10
ENDBRANCH   8   9
ENDBRANCH   7   8
ENDBRANCH   6   7
ENDBRANCH   5   6
ENDBRANCH   4   5
ENDBRANCH   3   4
ENDBRANCH   2   3
ENDBRANCH   1   2
BRANCH   1  13
ATOM     13  C   UNL     1     103.267  96.792  98.370  1.00  0.00     0.000 C 
BRANCH  13  14
ATOM     14  C   UNL     1     102.101  95.868  98.738  1.00  0.00     0.000 C 
BRANCH  14  15
ATOM     15  C   UNL     1     100.765  96.412  98.205  1.00  0.00     0.000 C 
BRANCH  15  16
ATOM     16  C   UNL     1      99.758  95.287  97.883  1.00  0.00     0.000 C 
BRANCH  16  17
ATOM     17  C   UNL     1      98.812  95.602  96.706  1.00  0.00     0.000 C 
BRANCH  17  18
ATOM     18  C   UNL     1      99.380  96.562  95.648  1.00  0.00     0.000 C 
BRANCH  18  19
ATOM     19  C   UNL     1      98.666  97.923  95.628  1.00  0.00     0.000 C 
BRANCH  19  20
ATOM     20  C   UNL     1      99.678  99.073  95.748  1.00  0.00     0.006 C 
BRANCH  20  21
ATOM     21  C   UNL     1      98.995 100.447  95.744  1.00  0.00     0.053 C 
BRANCH  21  22
ATOM     22  C   UNL     1      99.861 101.498  96.369  1.00  0.00     0.041 C 
ATOM     23  O   UNL     1     100.361 101.312  97.509  1.00  0.00    -0.550 OA
ATOM     24  O   UNL     1     100.098 102.692  95.700  1.00  0.00    -0.550 OA
ENDBRANCH  21  22
ENDBRANCH  20  21
ENDBRANCH  19  20
ENDBRANCH  18  19
ENDBRANCH  17  18
ENDBRANCH  16  17
ENDBRANCH  15  16
ENDBRANCH  14  15
ENDBRANCH  13  14
ENDBRANCH   1  13
TORSDOF 20
ENDMDL
MODEL 7
REMARK VINA RESULT:    -3.737      3.611      7.192
REMARK INTER + INTRA:         -12.077
REMARK INTER:                  -8.360
REMARK INTRA:                  -3.717
REMARK UNBOUND:                -3.970
REMARK SMILES CCCCCCCCCCCCCCCCCCCCCC(=O)[O-]
REMARK SMILES IDX 12 1 11 2 10 3 9 4 8 5 7 6 6 7 5 8 4 9 3 10 2 11 1 12 13 13
REMARK SMILES IDX 14 14 15 15 16 16 17 17 18 18 19 19 20 20 21 21 22 22 23 23
REMARK SMILES IDX 24 24
REMARK H PARENT
REMARK Flexibility Score: inf
ROOT
ATOM      1  C   UNL     1     103.753 100.612  98.760  1.00  0.00     0.000 C 
ENDROOT
BRANCH   1   2
ATOM      2  C   UNL     1     103.890  99.270  99.496  1.00  0.00     0.000 C 
BRANCH   2   3
ATOM      3  C   UNL     1     102.556  98.512  99.602  1.00  0.00     0.000 C 
BRANCH   3   4
ATOM      4  C   UNL     1     102.716  96.997  99.391  1.00  0.00    -0.000 C 
BRANCH   4   5
ATOM      5  C   UNL     1     101.734  96.442  98.348  1.00  0.00    -0.000 C 
BRANCH   5   6
ATOM      6  C   UNL     1     100.811  97.524  97.766  1.00  0.00    -0.000 C 
BRANCH   6   7
ATOM      7  C   UNL     1     100.438  97.201  96.313  1.00  0.00    -0.000 C 
BRANCH   7   8
ATOM      8  C   UNL     1      98.966  97.533  96.031  1.00  0.00    -0.000 C 
BRANCH   8   9
ATOM      9  C   UNL     1      98.050  96.302  96.193  1.00  0.00    -0.000 C 
BRANCH   9  10
ATOM     10  C   UNL     1      97.388  96.202  97.580  1.00  0.00    -0.000 C 
BRANCH  10  11
ATOM     11  C   UNL     1      97.766  94.920  98.333  1.00  0.00    -0.003 C 
ATOM     12  C   UNL     1      98.797  94.109  97.556  1.00  0.00     0.004 C 
ENDBRANCH  10  11
ENDBRANCH   9  10
ENDBRANCH   8   9
ENDBRANCH   7   8
ENDBRANCH   6   7
ENDBRANCH   5   6
ENDBRANCH   4   5
ENDBRANCH   3   4
ENDBRANCH   2   3
ENDBRANCH   1   2
BRANCH   1  13
ATOM     13  C   UNL     1     102.309 100.846  98.297  1.00  0.00     0.000 C 
BRANCH  13  14
ATOM     14  C   UNL     1     102.283 101.507  96.914  1.00  0.00     0.000 C 
BRANCH  14  15
ATOM     15  C   UNL     1     101.887 100.502  95.820  1.00  0.00     0.000 C 
BRANCH  15  16
ATOM     16  C   UNL     1     103.081 100.102  94.927  1.00  0.00     0.000 C 
BRANCH  16  17
ATOM     17  C   UNL     1     103.363  98.586  94.890  1.00  0.00     0.000 C 
BRANCH  17  18
ATOM     18  C   UNL     1     104.231  98.052  96.041  1.00  0.00     0.000 C 
BRANCH  18  19
ATOM     19  C   UNL     1     105.499  97.335  95.554  1.00  0.00     0.000 C 
BRANCH  19  20
ATOM     20  C   UNL     1     106.689  98.304  95.499  1.00  0.00     0.006 C 
BRANCH  20  21
ATOM     21  C   UNL     1     106.514  99.491  96.456  1.00  0.00     0.053 C 
BRANCH  21  22
ATOM     22  C   UNL     1     106.596 100.802  95.733  1.00  0.00     0.041 C 
ATOM     23  O   UNL     1     106.708 101.876  96.378  1.00  0.00    -0.550 OA
ATOM     24  O   UNL     1     106.524 100.837  94.346  1.00  0.00    -0.550 OA
ENDBRANCH  21  22
ENDBRANCH  20  21
ENDBRANCH  19  20
ENDBRANCH  18  19
ENDBRANCH  17  18
ENDBRANCH  16  17
ENDBRANCH  15  16
ENDBRANCH  14  15
ENDBRANCH  13  14
ENDBRANCH   1  13
TORSDOF 20
ENDMDL
MODEL 8
REMARK VINA RESULT:    -3.684      3.849      6.794
REMARK INTER + INTRA:         -11.961
REMARK INTER:                  -8.338
REMARK INTRA:                  -3.622
REMARK UNBOUND:                -3.970
REMARK SMILES CCCCCCCCCCCCCCCCCCCCCC(=O)[O-]
REMARK SMILES IDX 12 1 11 2 10 3 9 4 8 5 7 6 6 7 5 8 4 9 3 10 2 11 1 12 13 13
REMARK SMILES IDX 14 14 15 15 16 16 17 17 18 18 19 19 20 20 21 21 22 22 23 23
REMARK SMILES IDX 24 24
REMARK H PARENT
REMARK Flexibility Score: inf
ROOT
ATOM      1  C   UNL     1     101.580  99.806  99.554  1.00  0.00     0.000 C 
ENDROOT
BRANCH   1   2
ATOM      2  C   UNL     1     103.074 100.077  99.322  1.00  0.00     0.000 C 
BRANCH   2   3
ATOM      3  C   UNL     1     103.328 101.057  98.165  1.00  0.00     0.000 C 
BRANCH   3   4
ATOM      4  C   UNL     1     102.042 101.426  97.407  1.00  0.00    -0.000 C 
BRANCH   4   5
ATOM      5  C   UNL     1     102.130 101.104  95.907  1.00  0.00    -0.000 C 
BRANCH   5   6
ATOM      6  C   UNL     1     101.024 100.145  95.440  1.00  0.00    -0.000 C 
BRANCH   6   7
ATOM      7  C   UNL     1      99.740 100.356  96.252  1.00  0.00    -0.000 C 
BRANCH   7   8
ATOM      8  C   UNL     1      99.018  99.025  96.506  1.00  0.00    -0.000 C 
BRANCH   8   9
ATOM      9  C   UNL     1      99.974  97.817  96.415  1.00  0.00    -0.000 C 
BRANCH   9  10
ATOM     10  C   UNL     1      99.369  96.603  95.686  1.00  0.00    -0.000 C 
BRANCH  10  11
ATOM     11  C   UNL     1      99.096  95.418  96.621  1.00  0.00    -0.003 C 
ATOM     12  C   UNL     1      98.687  95.896  98.010  1.00  0.00     0.004 C 
ENDBRANCH  10  11
ENDBRANCH   9  10
ENDBRANCH   8   9
ENDBRANCH   7   8
ENDBRANCH   6   7
ENDBRANCH   5   6
ENDBRANCH   4   5
ENDBRANCH   3   4
ENDBRANCH   2   3
ENDBRANCH   1   2
BRANCH   1  13
ATOM     13  C   UNL     1     101.329  98.329  99.887  1.00  0.00     0.000 C 
BRANCH  13  14
ATOM     14  C   UNL     1     102.624  97.518  99.766  1.00  0.00     0.000 C 
BRANCH  14  15
ATOM     15  C   UNL     1     102.408  96.236  98.945  1.00  0.00     0.000 C 
BRANCH  15  16
ATOM     16  C   UNL     1     103.701  95.757  98.249  1.00  0.00     0.000 C 
BRANCH  16  17
ATOM     17  C   UNL     1     104.471  96.871  97.510  1.00  0.00     0.000 C 
BRANCH  17  18
ATOM     18  C   UNL     1     103.641  97.687  96.506  1.00  0.00     0.000 C 
BRANCH  18  19
ATOM     19  C   UNL     1     104.445  98.112  95.268  1.00  0.00     0.000 C 
BRANCH  19  20
ATOM     20  C   UNL     1     105.336  99.323  95.584  1.00  0.00     0.006 C 
BRANCH  20  21
ATOM     21  C   UNL     1     106.652  99.294  94.795  1.00  0.00     0.053 C 
BRANCH  21  22
ATOM     22  C   UNL     1     106.995 100.643  94.240  1.00  0.00     0.041 C 
ATOM     23  O   UNL     1     106.651 100.953  93.070  1.00  0.00    -0.550 OA
ATOM     24  O   UNL     1     107.714 101.550  95.009  1.00  0.00    -0.550 OA
ENDBRANCH  21  22
ENDBRANCH  20  21
ENDBRANCH  19  20
ENDBRANCH  18  19
ENDBRANCH  17  18
ENDBRANCH  16  17
ENDBRANCH  15  16
ENDBRANCH  14  15
ENDBRANCH  13  14
ENDBRANCH   1  13
TORSDOF 20
ENDMDL
MODEL 9
REMARK VINA RESULT:    -3.650      3.177      6.893
REMARK INTER + INTRA:         -11.887
REMARK INTER:                  -7.614
REMARK INTRA:                  -4.273
REMARK UNBOUND:                -3.970
REMARK SMILES CCCCCCCCCCCCCCCCCCCCCC(=O)[O-]
REMARK SMILES IDX 12 1 11 2 10 3 9 4 8 5 7 6 6 7 5 8 4 9 3 10 2 11 1 12 13 13
REMARK SMILES IDX 14 14 15 15 16 16 17 17 18 18 19 19 20 20 21 21 22 22 23 23
REMARK SMILES IDX 24 24
REMARK H PARENT
REMARK Flexibility Score: inf
ROOT
ATOM      1  C   UNL     1     103.402  97.179  97.539  1.00  0.00     0.000 C 
ENDROOT
BRANCH   1   2
ATOM      2  C   UNL     1     102.558  96.860  98.782  1.00  0.00     0.000 C 
BRANCH   2   3
ATOM      3  C   UNL     1     102.803  97.846  99.937  1.00  0.00     0.000 C 
BRANCH   3   4
ATOM      4  C   UNL     1     101.509  98.511 100.435  1.00  0.00    -0.000 C 
BRANCH   4   5
ATOM      5  C   UNL     1     101.147  99.769  99.629  1.00  0.00    -0.000 C 
BRANCH   5   6
ATOM      6  C   UNL     1      99.950  99.549  98.691  1.00  0.00    -0.000 C 
BRANCH   6   7
ATOM      7  C   UNL     1      98.847  98.745  99.393  1.00  0.00    -0.000 C 
BRANCH   7   8
ATOM      8  C   UNL     1      98.386  97.563  98.529  1.00  0.00    -0.000 C 
BRANCH   8   9
ATOM      9  C   UNL     1      99.044  97.571  97.132  1.00  0.00    -0.000 C 
BRANCH   9  10
ATOM     10  C   UNL     1      99.333  96.164  96.578  1.00  0.00    -0.000 C 
BRANCH  10  11
ATOM     11  C   UNL     1      99.530  95.115  97.680  1.00  0.00    -0.003 C 
ATOM     12  C   UNL     1      98.593  93.928  97.484  1.00  0.00     0.004 C 
ENDBRANCH  10  11
ENDBRANCH   9  10
ENDBRANCH   8   9
ENDBRANCH   7   8
ENDBRANCH   6   7
ENDBRANCH   5   6
ENDBRANCH   4   5
ENDBRANCH   3   4
ENDBRANCH   2   3
ENDBRANCH   1   2
BRANCH   1  13
ATOM     13  C   UNL     1     102.581  97.941  96.491  1.00  0.00     0.000 C 
BRANCH  13  14
ATOM     14  C   UNL     1     103.471  98.397  95.329  1.00  0.00     0.000 C 
BRANCH  14  15
ATOM     15  C   UNL     1     103.226  99.874  94.981  1.00  0.00     0.000 C 
BRANCH  15  16
ATOM     16  C   UNL     1     102.187 100.535  95.912  1.00  0.00     0.000 C 
BRANCH  16  17
ATOM     17  C   UNL     1     102.778 101.583  96.876  1.00  0.00     0.000 C 
BRANCH  17  18
ATOM     18  C   UNL     1     104.288 101.455  97.139  1.00  0.00     0.000 C 
BRANCH  18  19
ATOM     19  C   UNL     1     104.608 100.728  98.453  1.00  0.00     0.000 C 
BRANCH  19  20
ATOM     20  C   UNL     1     105.677  99.647  98.234  1.00  0.00     0.006 C 
BRANCH  20  21
ATOM     21  C   UNL     1     106.632 100.001  97.086  1.00  0.00     0.053 C 
BRANCH  21  22
ATOM     22  C   UNL     1     106.957  98.803  96.246  1.00  0.00     0.041 C 
ATOM     23  O   UNL     1     107.169  97.687  96.789  1.00  0.00    -0.550 OA
ATOM     24  O   UNL     1     107.048  98.925  94.866  1.00  0.00    -0.550 OA
ENDBRANCH  21  22
ENDBRANCH  20  21
ENDBRANCH  19  20
ENDBRANCH  18  19
ENDBRANCH  17  18
ENDBRANCH  16  17
ENDBRANCH  15  16
ENDBRANCH  14  15
ENDBRANCH  13  14
ENDBRANCH   1  13
TORSDOF 20
ENDMDL
