MODEL 1
REMARK VINA RESULT:    -6.911      0.000      0.000
REMARK INTER + INTRA:          -8.543
REMARK INTER:                  -8.325
REMARK INTRA:                  -0.218
REMARK UNBOUND:                -0.218
REMARK SMILES O=c1c(O)c(-c2ccc(O)c(O)c2)oc2cc(O)cc(O)c12
REMARK SMILES IDX 5 1 3 2 2 3 1 4 22 5 20 6 19 7 17 8 16 9 15 10 14 11 6 12
REMARK SMILES IDX 7 13 8 14 9 15 13 16 11 17 10 18 12 20 4 22 21 24 18 26
REMARK H PARENT 10 19 12 21 4 23 21 25 18 27
REMARK Flexibility Score: inf
ROOT
ATOM      1  C   UNL     1     -19.423  31.682  -3.055  1.00  0.00     0.180 A 
ATOM      2  C   UNL     1     -18.413  31.062  -2.300  1.00  0.00     0.208 A 
ATOM      3  C   UNL     1     -17.173  30.802  -2.905  1.00  0.00     0.238 A 
ATOM      4  O   UNL     1     -16.250  30.315  -2.202  1.00  0.00    -0.285 OA
ATOM      5  C   UNL     1     -16.976  31.115  -4.272  1.00  0.00     0.111 A 
ATOM      6  C   UNL     1     -15.775  30.855  -5.000  1.00  0.00     0.134 A 
ATOM      7  C   UNL     1     -15.657  31.305  -6.320  1.00  0.00     0.093 A 
ATOM      8  C   UNL     1     -16.719  31.948  -6.960  1.00  0.00     0.123 A 
ATOM      9  C   UNL     1     -17.914  32.157  -6.276  1.00  0.00     0.094 A 
ATOM     10  C   UNL     1     -18.049  31.754  -4.946  1.00  0.00     0.146 A 
ATOM     11  O   UNL     1     -19.199  31.993  -4.325  1.00  0.00    -0.452 OA
ENDROOT
BRANCH   1  12
ATOM     12  C   UNL     1     -20.752  32.000  -2.483  1.00  0.00     0.025 A 
ATOM     13  C   UNL     1     -21.079  33.336  -2.201  1.00  0.00     0.016 A 
ATOM     14  C   UNL     1     -22.318  33.658  -1.641  1.00  0.00     0.051 A 
ATOM     15  C   UNL     1     -23.240  32.651  -1.338  1.00  0.00     0.157 A 
ATOM     16  C   UNL     1     -21.671  30.987  -2.157  1.00  0.00     0.062 A 
ATOM     17  C   UNL     1     -22.915  31.308  -1.593  1.00  0.00     0.158 A 
BRANCH  15  18
ATOM     18  O   UNL     1     -24.469  33.003  -0.781  1.00  0.00    -0.504 OA
ATOM     19  H   UNL     1     -24.695  33.960  -0.537  1.00  0.00     0.293 HD
ENDBRANCH  15  18
BRANCH  17  20
ATOM     20  O   UNL     1     -23.823  30.299  -1.280  1.00  0.00    -0.504 OA
ATOM     21  H   UNL     1     -23.751  29.374  -1.688  1.00  0.00     0.293 HD
ENDBRANCH  17  20
ENDBRANCH   1  12
BRANCH   2  22
ATOM     22  O   UNL     1     -18.653  30.690  -0.974  1.00  0.00    -0.502 OA
ATOM     23  H   UNL     1     -18.410  31.284  -0.190  1.00  0.00     0.293 HD
ENDBRANCH   2  22
BRANCH   6  24
ATOM     24  O   UNL     1     -14.687  30.142  -4.486  1.00  0.00    -0.507 OA
ATOM     25  H   UNL     1     -14.165  30.398  -3.662  1.00  0.00     0.293 HD
ENDBRANCH   6  24
BRANCH   8  26
ATOM     26  O   UNL     1     -16.599  32.376  -8.280  1.00  0.00    -0.508 OA
ATOM     27  H   UNL     1     -16.607  33.361  -8.521  1.00  0.00     0.293 HD
ENDBRANCH   8  26
TORSDOF 6
ENDMDL
MODEL 2
REMARK VINA RESULT:    -6.643      1.731      6.942
REMARK INTER + INTRA:          -8.220
REMARK INTER:                  -7.900
REMARK INTRA:                  -0.320
REMARK UNBOUND:                -0.218
REMARK SMILES O=c1c(O)c(-c2ccc(O)c(O)c2)oc2cc(O)cc(O)c12
REMARK SMILES IDX 5 1 3 2 2 3 1 4 22 5 20 6 19 7 17 8 16 9 15 10 14 11 6 12
REMARK SMILES IDX 7 13 8 14 9 15 13 16 11 17 10 18 12 20 4 22 21 24 18 26
REMARK H PARENT 10 19 12 21 4 23 21 25 18 27
REMARK Flexibility Score: inf
ROOT
ATOM      1  C   UNL     1     -19.572  31.509  -4.133  1.00  0.00     0.180 A 
ATOM      2  C   UNL     1     -20.122  30.228  -3.958  1.00  0.00     0.208 A 
ATOM      3  C   UNL     1     -21.264  30.080  -3.155  1.00  0.00     0.238 A 
ATOM      4  O   UNL     1     -21.794  28.943  -3.063  1.00  0.00    -0.285 OA
ATOM      5  C   UNL     1     -21.809  31.207  -2.492  1.00  0.00     0.111 A 
ATOM      6  C   UNL     1     -22.938  31.167  -1.617  1.00  0.00     0.134 A 
ATOM      7  C   UNL     1     -23.454  32.362  -1.102  1.00  0.00     0.093 A 
ATOM      8  C   UNL     1     -22.844  33.588  -1.376  1.00  0.00     0.123 A 
ATOM      9  C   UNL     1     -21.710  33.632  -2.183  1.00  0.00     0.094 A 
ATOM     10  C   UNL     1     -21.194  32.461  -2.744  1.00  0.00     0.146 A 
ATOM     11  O   UNL     1     -20.124  32.551  -3.525  1.00  0.00    -0.452 OA
ENDROOT
BRANCH   1  12
ATOM     12  C   UNL     1     -18.377  31.745  -4.976  1.00  0.00     0.025 A 
ATOM     13  C   UNL     1     -17.121  31.889  -4.366  1.00  0.00     0.016 A 
ATOM     14  C   UNL     1     -15.983  32.134  -5.138  1.00  0.00     0.051 A 
ATOM     15  C   UNL     1     -16.084  32.255  -6.528  1.00  0.00     0.157 A 
ATOM     16  C   UNL     1     -18.481  31.889  -6.371  1.00  0.00     0.062 A 
ATOM     17  C   UNL     1     -17.339  32.137  -7.148  1.00  0.00     0.158 A 
BRANCH  15  18
ATOM     18  O   UNL     1     -14.931  32.498  -7.273  1.00  0.00    -0.504 OA
ATOM     19  H   UNL     1     -14.344  31.747  -7.615  1.00  0.00     0.293 HD
ENDBRANCH  15  18
BRANCH  17  20
ATOM     20  O   UNL     1     -17.450  32.271  -8.531  1.00  0.00    -0.504 OA
ATOM     21  H   UNL     1     -18.352  32.270  -8.994  1.00  0.00     0.293 HD
ENDBRANCH  17  20
ENDBRANCH   1  12
BRANCH   2  22
ATOM     22  O   UNL     1     -19.523  29.116  -4.559  1.00  0.00    -0.502 OA
ATOM     23  H   UNL     1     -19.995  28.224  -4.645  1.00  0.00     0.293 HD
ENDBRANCH   2  22
BRANCH   6  24
ATOM     24  O   UNL     1     -23.569  29.989  -1.207  1.00  0.00    -0.507 OA
ATOM     25  H   UNL     1     -23.431  29.082  -1.625  1.00  0.00     0.293 HD
ENDBRANCH   6  24
BRANCH   8  26
ATOM     26  O   UNL     1     -23.355  34.771  -0.844  1.00  0.00    -0.508 OA
ATOM     27  H   UNL     1     -23.990  35.358  -1.371  1.00  0.00     0.293 HD
ENDBRANCH   8  26
TORSDOF 6
ENDMDL
MODEL 3
REMARK VINA RESULT:    -6.621      1.622      7.125
REMARK INTER + INTRA:          -8.193
REMARK INTER:                  -7.994
REMARK INTRA:                  -0.198
REMARK UNBOUND:                -0.218
REMARK SMILES O=c1c(O)c(-c2ccc(O)c(O)c2)oc2cc(O)cc(O)c12
REMARK SMILES IDX 5 1 3 2 2 3 1 4 22 5 20 6 19 7 17 8 16 9 15 10 14 11 6 12
REMARK SMILES IDX 7 13 8 14 9 15 13 16 11 17 10 18 12 20 4 22 21 24 18 26
REMARK H PARENT 10 19 12 21 4 23 21 25 18 27
REMARK Flexibility Score: inf
ROOT
ATOM      1  C   UNL     1     -19.990  31.071  -3.428  1.00  0.00     0.180 A 
ATOM      2  C   UNL     1     -20.886  30.067  -3.831  1.00  0.00     0.208 A 
ATOM      3  C   UNL     1     -22.245  30.192  -3.499  1.00  0.00     0.238 A 
ATOM      4  O   UNL     1     -23.051  29.327  -3.927  1.00  0.00    -0.285 OA
ATOM      5  C   UNL     1     -22.681  31.291  -2.720  1.00  0.00     0.111 A 
ATOM      6  C   UNL     1     -24.027  31.496  -2.287  1.00  0.00     0.134 A 
ATOM      7  C   UNL     1     -24.363  32.674  -1.611  1.00  0.00     0.093 A 
ATOM      8  C   UNL     1     -23.390  33.626  -1.295  1.00  0.00     0.123 A 
ATOM      9  C   UNL     1     -22.065  33.410  -1.665  1.00  0.00     0.094 A 
ATOM     10  C   UNL     1     -21.705  32.262  -2.374  1.00  0.00     0.146 A 
ATOM     11  O   UNL     1     -20.434  32.107  -2.726  1.00  0.00    -0.452 OA
ENDROOT
BRANCH   1  12
ATOM     12  C   UNL     1     -18.546  31.016  -3.752  1.00  0.00     0.025 A 
ATOM     13  C   UNL     1     -17.735  30.056  -3.125  1.00  0.00     0.016 A 
ATOM     14  C   UNL     1     -16.367  29.999  -3.398  1.00  0.00     0.051 A 
ATOM     15  C   UNL     1     -15.784  30.908  -4.288  1.00  0.00     0.157 A 
ATOM     16  C   UNL     1     -17.955  31.943  -4.629  1.00  0.00     0.062 A 
ATOM     17  C   UNL     1     -16.581  31.888  -4.903  1.00  0.00     0.158 A 
BRANCH  15  18
ATOM     18  O   UNL     1     -14.416  30.825  -4.543  1.00  0.00    -0.504 OA
ATOM     19  H   UNL     1     -13.976  29.964  -4.844  1.00  0.00     0.293 HD
ENDBRANCH  15  18
BRANCH  17  20
ATOM     20  O   UNL     1     -16.005  32.806  -5.779  1.00  0.00    -0.504 OA
ATOM     21  H   UNL     1     -15.328  33.491  -5.462  1.00  0.00     0.293 HD
ENDBRANCH  17  20
ENDBRANCH   1  12
BRANCH   2  22
ATOM     22  O   UNL     1     -20.422  28.950  -4.533  1.00  0.00    -0.502 OA
ATOM     23  H   UNL     1     -19.435  28.751  -4.648  1.00  0.00     0.293 HD
ENDBRANCH   2  22
BRANCH   6  24
ATOM     24  O   UNL     1     -25.058  30.569  -2.471  1.00  0.00    -0.507 OA
ATOM     25  H   UNL     1     -24.927  29.590  -2.673  1.00  0.00     0.293 HD
ENDBRANCH   6  24
BRANCH   8  26
ATOM     26  O   UNL     1     -23.730  34.789  -0.607  1.00  0.00    -0.508 OA
ATOM     27  H   UNL     1     -24.545  35.336  -0.860  1.00  0.00     0.293 HD
ENDBRANCH   8  26
TORSDOF 6
ENDMDL
MODEL 4
REMARK VINA RESULT:    -6.491      2.034      3.634
REMARK INTER + INTRA:          -8.036
REMARK INTER:                  -7.740
REMARK INTRA:                  -0.296
REMARK UNBOUND:                -0.218
REMARK SMILES O=c1c(O)c(-c2ccc(O)c(O)c2)oc2cc(O)cc(O)c12
REMARK SMILES IDX 5 1 3 2 2 3 1 4 22 5 20 6 19 7 17 8 16 9 15 10 14 11 6 12
REMARK SMILES IDX 7 13 8 14 9 15 13 16 11 17 10 18 12 20 4 22 21 24 18 26
REMARK H PARENT 10 19 12 21 4 23 21 25 18 27
REMARK Flexibility Score: inf
ROOT
ATOM      1  C   UNL     1     -18.994  31.772  -5.185  1.00  0.00     0.180 A 
ATOM      2  C   UNL     1     -19.389  31.530  -6.512  1.00  0.00     0.208 A 
ATOM      3  C   UNL     1     -18.435  31.636  -7.537  1.00  0.00     0.238 A 
ATOM      4  O   UNL     1     -18.778  31.346  -8.712  1.00  0.00    -0.285 OA
ATOM      5  C   UNL     1     -17.112  32.038  -7.229  1.00  0.00     0.111 A 
ATOM      6  C   UNL     1     -16.074  32.222  -8.193  1.00  0.00     0.134 A 
ATOM      7  C   UNL     1     -14.776  32.517  -7.761  1.00  0.00     0.093 A 
ATOM      8  C   UNL     1     -14.491  32.699  -6.406  1.00  0.00     0.123 A 
ATOM      9  C   UNL     1     -15.508  32.576  -5.462  1.00  0.00     0.094 A 
ATOM     10  C   UNL     1     -16.805  32.244  -5.859  1.00  0.00     0.146 A 
ATOM     11  O   UNL     1     -17.739  32.115  -4.924  1.00  0.00    -0.452 OA
ENDROOT
BRANCH   1  12
ATOM     12  C   UNL     1     -19.940  31.667  -4.051  1.00  0.00     0.025 A 
ATOM     13  C   UNL     1     -19.977  30.486  -3.292  1.00  0.00     0.016 A 
ATOM     14  C   UNL     1     -20.876  30.355  -2.231  1.00  0.00     0.051 A 
ATOM     15  C   UNL     1     -21.763  31.392  -1.922  1.00  0.00     0.157 A 
ATOM     16  C   UNL     1     -20.847  32.700  -3.754  1.00  0.00     0.062 A 
ATOM     17  C   UNL     1     -21.752  32.569  -2.689  1.00  0.00     0.158 A 
BRANCH  15  18
ATOM     18  O   UNL     1     -22.647  31.233  -0.856  1.00  0.00    -0.504 OA
ATOM     19  H   UNL     1     -22.343  31.290   0.109  1.00  0.00     0.293 HD
ENDBRANCH  15  18
BRANCH  17  20
ATOM     20  O   UNL     1     -22.642  33.600  -2.397  1.00  0.00    -0.504 OA
ATOM     21  H   UNL     1     -23.010  34.206  -3.122  1.00  0.00     0.293 HD
ENDBRANCH  17  20
ENDBRANCH   1  12
BRANCH   2  22
ATOM     22  O   UNL     1     -20.718  31.211  -6.804  1.00  0.00    -0.502 OA
ATOM     23  H   UNL     1     -21.337  30.784  -6.125  1.00  0.00     0.293 HD
ENDBRANCH   2  22
BRANCH   6  24
ATOM     24  O   UNL     1     -16.269  32.151  -9.576  1.00  0.00    -0.507 OA
ATOM     25  H   UNL     1     -15.567  32.357 -10.270  1.00  0.00     0.293 HD
ENDBRANCH   6  24
BRANCH   8  26
ATOM     26  O   UNL     1     -13.199  33.010  -5.987  1.00  0.00    -0.508 OA
ATOM     27  H   UNL     1     -13.009  33.821  -5.409  1.00  0.00     0.293 HD
ENDBRANCH   8  26
TORSDOF 6
ENDMDL
MODEL 5
REMARK VINA RESULT:    -6.476      9.527     11.416
REMARK INTER + INTRA:          -8.019
REMARK INTER:                  -7.691
REMARK INTRA:                  -0.328
REMARK UNBOUND:                -0.218
REMARK SMILES O=c1c(O)c(-c2ccc(O)c(O)c2)oc2cc(O)cc(O)c12
REMARK SMILES IDX 5 1 3 2 2 3 1 4 22 5 20 6 19 7 17 8 16 9 15 10 14 11 6 12
REMARK SMILES IDX 7 13 8 14 9 15 13 16 11 17 10 18 12 20 4 22 21 24 18 26
REMARK H PARENT 10 19 12 21 4 23 21 25 18 27
REMARK Flexibility Score: inf
ROOT
ATOM      1  C   UNL     1     -21.575  22.481  -4.793  1.00  0.00     0.180 A 
ATOM      2  C   UNL     1     -22.682  22.280  -3.951  1.00  0.00     0.208 A 
ATOM      3  C   UNL     1     -23.898  21.857  -4.513  1.00  0.00     0.238 A 
ATOM      4  O   UNL     1     -24.862  21.607  -3.744  1.00  0.00    -0.285 OA
ATOM      5  C   UNL     1     -24.007  21.695  -5.915  1.00  0.00     0.111 A 
ATOM      6  C   UNL     1     -25.202  21.314  -6.598  1.00  0.00     0.134 A 
ATOM      7  C   UNL     1     -25.165  21.080  -7.978  1.00  0.00     0.093 A 
ATOM      8  C   UNL     1     -23.991  21.277  -8.710  1.00  0.00     0.123 A 
ATOM      9  C   UNL     1     -22.834  21.702  -8.062  1.00  0.00     0.094 A 
ATOM     10  C   UNL     1     -22.830  21.906  -6.680  1.00  0.00     0.146 A 
ATOM     11  O   UNL     1     -21.699  22.289  -6.100  1.00  0.00    -0.452 OA
ENDROOT
BRANCH   1  12
ATOM     12  C   UNL     1     -20.258  22.913  -4.272  1.00  0.00     0.025 A 
ATOM     13  C   UNL     1     -19.968  24.284  -4.182  1.00  0.00     0.016 A 
ATOM     14  C   UNL     1     -18.724  24.715  -3.715  1.00  0.00     0.051 A 
ATOM     15  C   UNL     1     -17.746  23.785  -3.347  1.00  0.00     0.157 A 
ATOM     16  C   UNL     1     -19.265  21.979  -3.923  1.00  0.00     0.062 A 
ATOM     17  C   UNL     1     -18.015  22.411  -3.455  1.00  0.00     0.158 A 
BRANCH  15  18
ATOM     18  O   UNL     1     -16.514  24.245  -2.882  1.00  0.00    -0.504 OA
ATOM     19  H   UNL     1     -15.892  24.796  -3.462  1.00  0.00     0.293 HD
ENDBRANCH  15  18
BRANCH  17  20
ATOM     20  O   UNL     1     -17.040  21.479  -3.104  1.00  0.00    -0.504 OA
ATOM     21  H   UNL     1     -17.278  20.613  -2.632  1.00  0.00     0.293 HD
ENDBRANCH  17  20
ENDBRANCH   1  12
BRANCH   2  22
ATOM     22  O   UNL     1     -22.575  22.520  -2.578  1.00  0.00    -0.502 OA
ATOM     23  H   UNL     1     -21.681  22.599  -2.107  1.00  0.00     0.293 HD
ENDBRANCH   2  22
BRANCH   6  24
ATOM     24  O   UNL     1     -26.448  21.176  -5.978  1.00  0.00    -0.507 OA
ATOM     25  H   UNL     1     -27.049  20.371  -6.059  1.00  0.00     0.293 HD
ENDBRANCH   6  24
BRANCH   8  26
ATOM     26  O   UNL     1     -23.968  21.059 -10.086  1.00  0.00    -0.508 OA
ATOM     27  H   UNL     1     -23.282  20.448 -10.515  1.00  0.00     0.293 HD
ENDBRANCH   8  26
TORSDOF 6
ENDMDL
MODEL 6
REMARK VINA RESULT:    -6.404      2.530      7.400
REMARK INTER + INTRA:          -7.932
REMARK INTER:                  -7.740
REMARK INTRA:                  -0.192
REMARK UNBOUND:                -0.218
REMARK SMILES O=c1c(O)c(-c2ccc(O)c(O)c2)oc2cc(O)cc(O)c12
REMARK SMILES IDX 5 1 3 2 2 3 1 4 22 5 20 6 19 7 17 8 16 9 15 10 14 11 6 12
REMARK SMILES IDX 7 13 8 14 9 15 13 16 11 17 10 18 12 20 4 22 21 24 18 26
REMARK H PARENT 10 19 12 21 4 23 21 25 18 27
REMARK Flexibility Score: inf
ROOT
ATOM      1  C   UNL     1     -21.494  30.856  -2.743  1.00  0.00     0.180 A 
ATOM      2  C   UNL     1     -22.633  31.642  -2.500  1.00  0.00     0.208 A 
ATOM      3  C   UNL     1     -23.783  31.032  -1.974  1.00  0.00     0.238 A 
ATOM      4  O   UNL     1     -24.772  31.755  -1.690  1.00  0.00    -0.285 OA
ATOM      5  C   UNL     1     -23.799  29.634  -1.751  1.00  0.00     0.111 A 
ATOM      6  C   UNL     1     -24.925  28.902  -1.263  1.00  0.00     0.134 A 
ATOM      7  C   UNL     1     -24.791  27.538  -0.979  1.00  0.00     0.093 A 
ATOM      8  C   UNL     1     -23.592  26.865  -1.226  1.00  0.00     0.123 A 
ATOM      9  C   UNL     1     -22.505  27.557  -1.753  1.00  0.00     0.094 A 
ATOM     10  C   UNL     1     -22.596  28.927  -2.011  1.00  0.00     0.146 A 
ATOM     11  O   UNL     1     -21.528  29.553  -2.493  1.00  0.00    -0.452 OA
ENDROOT
BRANCH   1  12
ATOM     12  C   UNL     1     -20.241  31.430  -3.284  1.00  0.00     0.025 A 
ATOM     13  C   UNL     1     -19.111  31.522  -2.455  1.00  0.00     0.016 A 
ATOM     14  C   UNL     1     -17.924  32.080  -2.936  1.00  0.00     0.051 A 
ATOM     15  C   UNL     1     -17.852  32.571  -4.244  1.00  0.00     0.157 A 
ATOM     16  C   UNL     1     -20.174  31.944  -4.592  1.00  0.00     0.062 A 
ATOM     17  C   UNL     1     -18.983  32.506  -5.075  1.00  0.00     0.158 A 
BRANCH  15  18
ATOM     18  O   UNL     1     -16.654  33.121  -4.697  1.00  0.00    -0.504 OA
ATOM     19  H   UNL     1     -16.476  33.286  -5.681  1.00  0.00     0.293 HD
ENDBRANCH  15  18
BRANCH  17  20
ATOM     20  O   UNL     1     -18.923  33.006  -6.375  1.00  0.00    -0.504 OA
ATOM     21  H   UNL     1     -18.268  33.736  -6.634  1.00  0.00     0.293 HD
ENDBRANCH  17  20
ENDBRANCH   1  12
BRANCH   2  22
ATOM     22  O   UNL     1     -22.623  33.008  -2.801  1.00  0.00    -0.502 OA
ATOM     23  H   UNL     1     -21.779  33.499  -3.070  1.00  0.00     0.293 HD
ENDBRANCH   2  22
BRANCH   6  24
ATOM     24  O   UNL     1     -26.193  29.456  -1.065  1.00  0.00    -0.507 OA
ATOM     25  H   UNL     1     -26.799  29.252  -0.286  1.00  0.00     0.293 HD
ENDBRANCH   6  24
BRANCH   8  26
ATOM     26  O   UNL     1     -23.473  25.502  -0.957  1.00  0.00    -0.508 OA
ATOM     27  H   UNL     1     -22.777  25.148  -0.312  1.00  0.00     0.293 HD
ENDBRANCH   8  26
TORSDOF 6
ENDMDL
MODEL 7
REMARK VINA RESULT:    -6.139      1.897      2.007
REMARK INTER + INTRA:          -7.612
REMARK INTER:                  -7.332
REMARK INTRA:                  -0.280
REMARK UNBOUND:                -0.218
REMARK SMILES O=c1c(O)c(-c2ccc(O)c(O)c2)oc2cc(O)cc(O)c12
REMARK SMILES IDX 5 1 3 2 2 3 1 4 22 5 20 6 19 7 17 8 16 9 15 10 14 11 6 12
REMARK SMILES IDX 7 13 8 14 9 15 13 16 11 17 10 18 12 20 4 22 21 24 18 26
REMARK H PARENT 10 19 12 21 4 23 21 25 18 27
REMARK Flexibility Score: inf
ROOT
ATOM      1  C   UNL     1     -20.370  31.456  -3.671  1.00  0.00     0.180 A 
ATOM      2  C   UNL     1     -19.285  30.768  -3.103  1.00  0.00     0.208 A 
ATOM      3  C   UNL     1     -18.382  30.102  -3.947  1.00  0.00     0.238 A 
ATOM      4  O   UNL     1     -17.373  29.551  -3.436  1.00  0.00    -0.285 OA
ATOM      5  C   UNL     1     -18.607  30.085  -5.345  1.00  0.00     0.111 A 
ATOM      6  C   UNL     1     -17.783  29.403  -6.292  1.00  0.00     0.134 A 
ATOM      7  C   UNL     1     -18.042  29.545  -7.661  1.00  0.00     0.093 A 
ATOM      8  C   UNL     1     -19.133  30.289  -8.114  1.00  0.00     0.123 A 
ATOM      9  C   UNL     1     -19.975  30.912  -7.197  1.00  0.00     0.094 A 
ATOM     10  C   UNL     1     -19.721  30.822  -5.826  1.00  0.00     0.146 A 
ATOM     11  O   UNL     1     -20.537  31.450  -4.988  1.00  0.00    -0.452 OA
ENDROOT
BRANCH   1  12
ATOM     12  C   UNL     1     -21.355  32.193  -2.846  1.00  0.00     0.025 A 
ATOM     13  C   UNL     1     -21.013  33.450  -2.323  1.00  0.00     0.016 A 
ATOM     14  C   UNL     1     -21.917  34.153  -1.524  1.00  0.00     0.051 A 
ATOM     15  C   UNL     1     -23.169  33.607  -1.222  1.00  0.00     0.157 A 
ATOM     16  C   UNL     1     -22.605  31.634  -2.524  1.00  0.00     0.062 A 
ATOM     17  C   UNL     1     -23.514  32.339  -1.720  1.00  0.00     0.158 A 
BRANCH  15  18
ATOM     18  O   UNL     1     -24.051  34.333  -0.423  1.00  0.00    -0.504 OA
ATOM     19  H   UNL     1     -23.728  35.015   0.252  1.00  0.00     0.293 HD
ENDBRANCH  15  18
BRANCH  17  20
ATOM     20  O   UNL     1     -24.753  31.782  -1.412  1.00  0.00    -0.504 OA
ATOM     21  H   UNL     1     -24.844  31.025  -0.743  1.00  0.00     0.293 HD
ENDBRANCH  17  20
ENDBRANCH   1  12
BRANCH   2  22
ATOM     22  O   UNL     1     -19.123  30.732  -1.714  1.00  0.00    -0.502 OA
ATOM     23  H   UNL     1     -19.817  30.328  -1.096  1.00  0.00     0.293 HD
ENDBRANCH   2  22
BRANCH   6  24
ATOM     24  O   UNL     1     -16.722  28.562  -5.944  1.00  0.00    -0.507 OA
ATOM     25  H   UNL     1     -16.249  28.565  -5.054  1.00  0.00     0.293 HD
ENDBRANCH   6  24
BRANCH   8  26
ATOM     26  O   UNL     1     -19.394  30.410  -9.478  1.00  0.00    -0.508 OA
ATOM     27  H   UNL     1     -20.306  30.198  -9.864  1.00  0.00     0.293 HD
ENDBRANCH   8  26
TORSDOF 6
ENDMDL
MODEL 8
REMARK VINA RESULT:    -6.127      2.210      7.390
REMARK INTER + INTRA:          -7.598
REMARK INTER:                  -7.507
REMARK INTRA:                  -0.092
REMARK UNBOUND:                -0.218
REMARK SMILES O=c1c(O)c(-c2ccc(O)c(O)c2)oc2cc(O)cc(O)c12
REMARK SMILES IDX 5 1 3 2 2 3 1 4 22 5 20 6 19 7 17 8 16 9 15 10 14 11 6 12
REMARK SMILES IDX 7 13 8 14 9 15 13 16 11 17 10 18 12 20 4 22 21 24 18 26
REMARK H PARENT 10 19 12 21 4 23 21 25 18 27
REMARK Flexibility Score: inf
ROOT
ATOM      1  C   UNL     1     -16.264  31.955  -5.308  1.00  0.00     0.180 A 
ATOM      2  C   UNL     1     -15.981  31.047  -4.275  1.00  0.00     0.208 A 
ATOM      3  C   UNL     1     -16.967  30.782  -3.311  1.00  0.00     0.238 A 
ATOM      4  O   UNL     1     -16.732  29.912  -2.433  1.00  0.00    -0.285 OA
ATOM      5  C   UNL     1     -18.203  31.471  -3.360  1.00  0.00     0.111 A 
ATOM      6  C   UNL     1     -19.258  31.316  -2.409  1.00  0.00     0.134 A 
ATOM      7  C   UNL     1     -20.477  31.970  -2.618  1.00  0.00     0.093 A 
ATOM      8  C   UNL     1     -20.659  32.825  -3.708  1.00  0.00     0.123 A 
ATOM      9  C   UNL     1     -19.618  33.026  -4.610  1.00  0.00     0.094 A 
ATOM     10  C   UNL     1     -18.402  32.357  -4.450  1.00  0.00     0.146 A 
ATOM     11  O   UNL     1     -17.444  32.562  -5.347  1.00  0.00    -0.452 OA
ENDROOT
BRANCH   1  12
ATOM     12  C   UNL     1     -15.280  32.275  -6.368  1.00  0.00     0.025 A 
ATOM     13  C   UNL     1     -15.593  31.990  -7.707  1.00  0.00     0.016 A 
ATOM     14  C   UNL     1     -14.672  32.262  -8.722  1.00  0.00     0.051 A 
ATOM     15  C   UNL     1     -13.421  32.806  -8.415  1.00  0.00     0.157 A 
ATOM     16  C   UNL     1     -14.013  32.801  -6.058  1.00  0.00     0.062 A 
ATOM     17  C   UNL     1     -13.087  33.073  -7.076  1.00  0.00     0.158 A 
BRANCH  15  18
ATOM     18  O   UNL     1     -12.523  33.069  -9.449  1.00  0.00    -0.504 OA
ATOM     19  H   UNL     1     -12.800  33.036 -10.422  1.00  0.00     0.293 HD
ENDBRANCH  15  18
BRANCH  17  20
ATOM     20  O   UNL     1     -11.836  33.601  -6.761  1.00  0.00    -0.504 OA
ATOM     21  H   UNL     1     -11.024  33.007  -6.642  1.00  0.00     0.293 HD
ENDBRANCH  17  20
ENDBRANCH   1  12
BRANCH   2  22
ATOM     22  O   UNL     1     -14.726  30.434  -4.200  1.00  0.00    -0.502 OA
ATOM     23  H   UNL     1     -14.604  29.480  -3.884  1.00  0.00     0.293 HD
ENDBRANCH   2  22
BRANCH   6  24
ATOM     24  O   UNL     1     -19.151  30.557  -1.239  1.00  0.00    -0.507 OA
ATOM     25  H   UNL     1     -19.796  30.593  -0.465  1.00  0.00     0.293 HD
ENDBRANCH   6  24
BRANCH   8  26
ATOM     26  O   UNL     1     -21.871  33.485  -3.898  1.00  0.00    -0.508 OA
ATOM     27  H   UNL     1     -22.261  34.093  -3.187  1.00  0.00     0.293 HD
ENDBRANCH   8  26
TORSDOF 6
ENDMDL
MODEL 9
REMARK VINA RESULT:    -6.121      1.486      2.856
REMARK INTER + INTRA:          -7.591
REMARK INTER:                  -7.323
REMARK INTRA:                  -0.269
REMARK UNBOUND:                -0.218
REMARK SMILES O=c1c(O)c(-c2ccc(O)c(O)c2)oc2cc(O)cc(O)c12
REMARK SMILES IDX 5 1 3 2 2 3 1 4 22 5 20 6 19 7 17 8 16 9 15 10 14 11 6 12
REMARK SMILES IDX 7 13 8 14 9 15 13 16 11 17 10 18 12 20 4 22 21 24 18 26
REMARK H PARENT 10 19 12 21 4 23 21 25 18 27
REMARK Flexibility Score: inf
ROOT
ATOM      1  C   UNL     1     -19.972  31.437  -4.232  1.00  0.00     0.180 A 
ATOM      2  C   UNL     1     -20.278  31.106  -5.563  1.00  0.00     0.208 A 
ATOM      3  C   UNL     1     -19.237  30.737  -6.430  1.00  0.00     0.238 A 
ATOM      4  O   UNL     1     -19.527  30.371  -7.598  1.00  0.00    -0.285 OA
ATOM      5  C   UNL     1     -17.898  30.757  -5.972  1.00  0.00     0.111 A 
ATOM      6  C   UNL     1     -16.759  30.446  -6.776  1.00  0.00     0.134 A 
ATOM      7  C   UNL     1     -15.490  30.395  -6.187  1.00  0.00     0.093 A 
ATOM      8  C   UNL     1     -15.310  30.708  -4.837  1.00  0.00     0.123 A 
ATOM      9  C   UNL     1     -16.406  31.067  -4.057  1.00  0.00     0.094 A 
ATOM     10  C   UNL     1     -17.690  31.089  -4.607  1.00  0.00     0.146 A 
ATOM     11  O   UNL     1     -18.710  31.415  -3.822  1.00  0.00    -0.452 OA
ENDROOT
BRANCH   1  12
ATOM     12  C   UNL     1     -21.017  31.822  -3.256  1.00  0.00     0.025 A 
ATOM     13  C   UNL     1     -21.102  33.157  -2.829  1.00  0.00     0.016 A 
ATOM     14  C   UNL     1     -22.065  33.540  -1.892  1.00  0.00     0.051 A 
ATOM     15  C   UNL     1     -22.946  32.594  -1.356  1.00  0.00     0.157 A 
ATOM     16  C   UNL     1     -21.888  30.868  -2.699  1.00  0.00     0.062 A 
ATOM     17  C   UNL     1     -22.854  31.251  -1.757  1.00  0.00     0.158 A 
BRANCH  15  18
ATOM     18  O   UNL     1     -23.898  33.006  -0.424  1.00  0.00    -0.504 OA
ATOM     19  H   UNL     1     -24.077  32.487   0.427  1.00  0.00     0.293 HD
ENDBRANCH  15  18
BRANCH  17  20
ATOM     20  O   UNL     1     -23.718  30.301  -1.216  1.00  0.00    -0.504 OA
ATOM     21  H   UNL     1     -24.051  30.368  -0.260  1.00  0.00     0.293 HD
ENDBRANCH  17  20
ENDBRANCH   1  12
BRANCH   2  22
ATOM     22  O   UNL     1     -21.599  31.167  -6.018  1.00  0.00    -0.502 OA
ATOM     23  H   UNL     1     -22.102  30.348  -6.340  1.00  0.00     0.293 HD
ENDBRANCH   2  22
BRANCH   6  24
ATOM     24  O   UNL     1     -16.815  30.204  -8.152  1.00  0.00    -0.507 OA
ATOM     25  H   UNL     1     -16.143  30.537  -8.826  1.00  0.00     0.293 HD
ENDBRANCH   6  24
BRANCH   8  26
ATOM     26  O   UNL     1     -14.041  30.673  -4.263  1.00  0.00    -0.508 OA
ATOM     27  H   UNL     1     -13.331  31.356  -4.501  1.00  0.00     0.293 HD
ENDBRANCH   8  26
TORSDOF 6
ENDMDL
