MODEL 1
REMARK VINA RESULT:    -4.599      0.000      0.000
REMARK INTER + INTRA:         -10.606
REMARK INTER:                  -8.632
REMARK INTRA:                  -1.975
REMARK UNBOUND:                -1.975
REMARK SMILES CCCCCCCCC=CCCCCCCCC(=O)[O-]
REMARK SMILES IDX 10 1 9 2 11 3 12 4 13 5 14 6 15 7 16 8 17 9 18 10 19 11
REMARK SMILES IDX 20 12 8 13 7 14 6 15 5 16 4 17 3 18 2 19 1 20
REMARK H PARENT
REMARK Flexibility Score: inf
ROOT
ATOM      1  C   UNL     1       1.415  -4.469  23.361  1.00  0.00    -0.031 C 
ATOM      2  C   UNL     1       1.431  -5.034  22.140  1.00  0.00    -0.031 C 
ENDROOT
BRANCH   1   3
ATOM      3  C   UNL     1       0.716  -5.050  24.564  1.00  0.00     0.027 C 
BRANCH   3   4
ATOM      4  C   UNL     1      -0.682  -4.443  24.726  1.00  0.00     0.004 C 
BRANCH   4   5
ATOM      5  C   UNL     1      -1.688  -5.501  25.204  1.00  0.00     0.000 C 
BRANCH   5   6
ATOM      6  C   UNL     1      -1.153  -6.933  25.055  1.00  0.00     0.000 C 
BRANCH   6   7
ATOM      7  C   UNL     1      -2.066  -7.819  24.189  1.00  0.00     0.000 C 
BRANCH   7   8
ATOM      8  C   UNL     1      -3.559  -7.634  24.517  1.00  0.00     0.006 C 
BRANCH   8   9
ATOM      9  C   UNL     1      -4.505  -7.949  23.347  1.00  0.00     0.053 C 
BRANCH   9  10
ATOM     10  C   UNL     1      -5.942  -7.928  23.767  1.00  0.00     0.041 C 
ATOM     11  O   UNL     1      -6.851  -7.798  22.906  1.00  0.00    -0.550 OA
ATOM     12  O   UNL     1      -6.276  -8.013  25.113  1.00  0.00    -0.550 OA
ENDBRANCH   9  10
ENDBRANCH   8   9
ENDBRANCH   7   8
ENDBRANCH   6   7
ENDBRANCH   5   6
ENDBRANCH   4   5
ENDBRANCH   3   4
ENDBRANCH   1   3
BRANCH   2  13
ATOM     13  C   UNL     1       0.838  -6.381  21.807  1.00  0.00     0.027 C 
BRANCH  13  14
ATOM     14  C   UNL     1       1.778  -7.538  22.185  1.00  0.00     0.004 C 
BRANCH  14  15
ATOM     15  C   UNL     1       3.184  -7.099  22.645  1.00  0.00     0.000 C 
BRANCH  15  16
ATOM     16  C   UNL     1       3.634  -7.658  24.006  1.00  0.00     0.000 C 
BRANCH  16  17
ATOM     17  C   UNL     1       2.455  -8.011  24.929  1.00  0.00    -0.000 C 
BRANCH  17  18
ATOM     18  C   UNL     1       2.873  -8.125  26.403  1.00  0.00    -0.000 C 
BRANCH  18  19
ATOM     19  C   UNL     1       1.692  -7.943  27.369  1.00  0.00    -0.003 C 
ATOM     20  C   UNL     1       1.428  -6.464  27.640  1.00  0.00     0.004 C 
ENDBRANCH  18  19
ENDBRANCH  17  18
ENDBRANCH  16  17
ENDBRANCH  15  16
ENDBRANCH  14  15
ENDBRANCH  13  14
ENDBRANCH   2  13
TORSDOF 15
ENDMDL
MODEL 2
REMARK VINA RESULT:    -4.517      1.159      3.224
REMARK INTER + INTRA:         -10.453
REMARK INTER:                  -8.313
REMARK INTRA:                  -2.140
REMARK UNBOUND:                -1.975
REMARK SMILES CCCCCCCCC=CCCCCCCCC(=O)[O-]
REMARK SMILES IDX 10 1 9 2 11 3 12 4 13 5 14 6 15 7 16 8 17 9 18 10 19 11
REMARK SMILES IDX 20 12 8 13 7 14 6 15 5 16 4 17 3 18 2 19 1 20
REMARK H PARENT
REMARK Flexibility Score: inf
ROOT
ATOM      1  C   UNL     1       0.013  -4.146  24.702  1.00  0.00    -0.031 C 
ATOM      2  C   UNL     1       1.070  -4.078  25.532  1.00  0.00    -0.031 C 
ENDROOT
BRANCH   1   3
ATOM      3  C   UNL     1      -1.425  -4.208  25.150  1.00  0.00     0.027 C 
BRANCH   3   4
ATOM      4  C   UNL     1      -1.788  -5.621  25.620  1.00  0.00     0.004 C 
BRANCH   4   5
ATOM      5  C   UNL     1      -1.204  -6.681  24.674  1.00  0.00     0.000 C 
BRANCH   5   6
ATOM      6  C   UNL     1      -2.210  -7.795  24.345  1.00  0.00     0.000 C 
BRANCH   6   7
ATOM      7  C   UNL     1      -3.667  -7.374  24.608  1.00  0.00     0.000 C 
BRANCH   7   8
ATOM      8  C   UNL     1      -4.615  -7.760  23.459  1.00  0.00     0.006 C 
BRANCH   8   9
ATOM      9  C   UNL     1      -6.050  -8.083  23.907  1.00  0.00     0.053 C 
BRANCH   9  10
ATOM     10  C   UNL     1      -7.004  -6.980  23.570  1.00  0.00     0.041 C 
ATOM     11  O   UNL     1      -6.762  -6.204  22.610  1.00  0.00    -0.550 OA
ATOM     12  O   UNL     1      -8.144  -6.787  24.341  1.00  0.00    -0.550 OA
ENDBRANCH   9  10
ENDBRANCH   8   9
ENDBRANCH   7   8
ENDBRANCH   6   7
ENDBRANCH   5   6
ENDBRANCH   4   5
ENDBRANCH   3   4
ENDBRANCH   1   3
BRANCH   2  13
ATOM     13  C   UNL     1       0.979  -3.955  27.033  1.00  0.00     0.027 C 
BRANCH  13  14
ATOM     14  C   UNL     1       1.735  -5.083  27.755  1.00  0.00     0.004 C 
BRANCH  14  15
ATOM     15  C   UNL     1       1.267  -6.507  27.387  1.00  0.00     0.000 C 
BRANCH  15  16
ATOM     16  C   UNL     1       2.391  -7.493  27.023  1.00  0.00     0.000 C 
BRANCH  16  17
ATOM     17  C   UNL     1       2.207  -8.125  25.633  1.00  0.00    -0.000 C 
BRANCH  17  18
ATOM     18  C   UNL     1       2.564  -7.157  24.493  1.00  0.00    -0.000 C 
BRANCH  18  19
ATOM     19  C   UNL     1       1.895  -7.535  23.163  1.00  0.00    -0.003 C 
ATOM     20  C   UNL     1       1.803  -6.329  22.233  1.00  0.00     0.004 C 
ENDBRANCH  18  19
ENDBRANCH  17  18
ENDBRANCH  16  17
ENDBRANCH  15  16
ENDBRANCH  14  15
ENDBRANCH  13  14
ENDBRANCH   2  13
TORSDOF 15
ENDMDL
MODEL 3
REMARK VINA RESULT:    -4.383      2.830      5.081
REMARK INTER + INTRA:         -10.201
REMARK INTER:                  -8.356
REMARK INTRA:                  -1.845
REMARK UNBOUND:                -1.975
REMARK SMILES CCCCCCCCC=CCCCCCCCC(=O)[O-]
REMARK SMILES IDX 10 1 9 2 11 3 12 4 13 5 14 6 15 7 16 8 17 9 18 10 19 11
REMARK SMILES IDX 20 12 8 13 7 14 6 15 5 16 4 17 3 18 2 19 1 20
REMARK H PARENT
REMARK Flexibility Score: inf
ROOT
ATOM      1  C   UNL     1       4.079  -7.358  24.160  1.00  0.00    -0.031 C 
ATOM      2  C   UNL     1       3.862  -7.325  22.833  1.00  0.00    -0.031 C 
ENDROOT
BRANCH   1   3
ATOM      3  C   UNL     1       3.234  -8.121  25.148  1.00  0.00     0.027 C 
BRANCH   3   4
ATOM      4  C   UNL     1       2.014  -7.296  25.572  1.00  0.00     0.004 C 
BRANCH   4   5
ATOM      5  C   UNL     1       1.785  -7.393  27.088  1.00  0.00     0.000 C 
BRANCH   5   6
ATOM      6  C   UNL     1       1.448  -6.035  27.721  1.00  0.00     0.000 C 
BRANCH   6   7
ATOM      7  C   UNL     1       1.846  -4.848  26.824  1.00  0.00     0.000 C 
BRANCH   7   8
ATOM      8  C   UNL     1       0.674  -3.887  26.555  1.00  0.00     0.006 C 
BRANCH   8   9
ATOM      9  C   UNL     1      -0.708  -4.466  26.899  1.00  0.00     0.053 C 
BRANCH   9  10
ATOM     10  C   UNL     1      -1.507  -4.778  25.671  1.00  0.00     0.041 C 
ATOM     11  O   UNL     1      -1.739  -5.974  25.354  1.00  0.00    -0.550 OA
ATOM     12  O   UNL     1      -1.963  -3.749  24.857  1.00  0.00    -0.550 OA
ENDBRANCH   9  10
ENDBRANCH   8   9
ENDBRANCH   7   8
ENDBRANCH   6   7
ENDBRANCH   5   6
ENDBRANCH   4   5
ENDBRANCH   3   4
ENDBRANCH   1   3
BRANCH   2  13
ATOM     13  C   UNL     1       2.801  -8.122  22.115  1.00  0.00     0.027 C 
BRANCH  13  14
ATOM     14  C   UNL     1       2.013  -7.266  21.110  1.00  0.00     0.004 C 
BRANCH  14  15
ATOM     15  C   UNL     1       0.649  -6.760  21.627  1.00  0.00     0.000 C 
BRANCH  15  16
ATOM     16  C   UNL     1       0.675  -6.118  23.025  1.00  0.00     0.000 C 
BRANCH  16  17
ATOM     17  C   UNL     1       1.329  -4.726  23.033  1.00  0.00    -0.000 C 
BRANCH  17  18
ATOM     18  C   UNL     1       0.951  -3.890  21.800  1.00  0.00    -0.000 C 
BRANCH  18  19
ATOM     19  C   UNL     1       0.963  -2.380  22.081  1.00  0.00    -0.003 C 
ATOM     20  C   UNL     1       1.990  -1.667  21.205  1.00  0.00     0.004 C 
ENDBRANCH  18  19
ENDBRANCH  17  18
ENDBRANCH  16  17
ENDBRANCH  15  16
ENDBRANCH  14  15
ENDBRANCH  13  14
ENDBRANCH   2  13
TORSDOF 15
ENDMDL
MODEL 4
REMARK VINA RESULT:    -4.345      2.009      4.131
REMARK INTER + INTRA:         -10.130
REMARK INTER:                  -8.700
REMARK INTRA:                  -1.430
REMARK UNBOUND:                -1.975
REMARK SMILES CCCCCCCCC=CCCCCCCCC(=O)[O-]
REMARK SMILES IDX 10 1 9 2 11 3 12 4 13 5 14 6 15 7 16 8 17 9 18 10 19 11
REMARK SMILES IDX 20 12 8 13 7 14 6 15 5 16 4 17 3 18 2 19 1 20
REMARK H PARENT
REMARK Flexibility Score: inf
ROOT
ATOM      1  C   UNL     1      -1.569  -5.803  25.159  1.00  0.00    -0.031 C 
ATOM      2  C   UNL     1      -0.896  -4.850  25.829  1.00  0.00    -0.031 C 
ENDROOT
BRANCH   1   3
ATOM      3  C   UNL     1      -1.083  -7.215  24.959  1.00  0.00     0.027 C 
BRANCH   3   4
ATOM      4  C   UNL     1      -2.165  -8.074  24.296  1.00  0.00     0.004 C 
BRANCH   4   5
ATOM      5  C   UNL     1      -3.512  -7.336  24.267  1.00  0.00     0.000 C 
BRANCH   5   6
ATOM      6  C   UNL     1      -4.513  -7.974  23.293  1.00  0.00     0.000 C 
BRANCH   6   7
ATOM      7  C   UNL     1      -5.977  -7.689  23.677  1.00  0.00     0.000 C 
BRANCH   7   8
ATOM      8  C   UNL     1      -6.617  -6.593  22.807  1.00  0.00     0.006 C 
BRANCH   8   9
ATOM      9  C   UNL     1      -7.915  -6.007  23.386  1.00  0.00     0.053 C 
BRANCH   9  10
ATOM     10  C   UNL     1      -8.404  -4.834  22.593  1.00  0.00     0.041 C 
ATOM     11  O   UNL     1      -9.472  -4.917  21.933  1.00  0.00    -0.550 OA
ATOM     12  O   UNL     1      -7.659  -3.662  22.554  1.00  0.00    -0.550 OA
ENDBRANCH   9  10
ENDBRANCH   8   9
ENDBRANCH   7   8
ENDBRANCH   6   7
ENDBRANCH   5   6
ENDBRANCH   4   5
ENDBRANCH   3   4
ENDBRANCH   1   3
BRANCH   2  13
ATOM     13  C   UNL     1       0.401  -5.072  26.569  1.00  0.00     0.027 C 
BRANCH  13  14
ATOM     14  C   UNL     1       1.585  -4.364  25.889  1.00  0.00     0.004 C 
BRANCH  14  15
ATOM     15  C   UNL     1       1.745  -4.680  24.387  1.00  0.00     0.000 C 
BRANCH  15  16
ATOM     16  C   UNL     1       2.919  -5.611  24.033  1.00  0.00     0.000 C 
BRANCH  16  17
ATOM     17  C   UNL     1       2.505  -7.089  23.940  1.00  0.00    -0.000 C 
BRANCH  17  18
ATOM     18  C   UNL     1       2.826  -7.706  22.569  1.00  0.00    -0.000 C 
BRANCH  18  19
ATOM     19  C   UNL     1       2.071  -7.021  21.420  1.00  0.00    -0.003 C 
ATOM     20  C   UNL     1       0.583  -7.355  21.464  1.00  0.00     0.004 C 
ENDBRANCH  18  19
ENDBRANCH  17  18
ENDBRANCH  16  17
ENDBRANCH  15  16
ENDBRANCH  14  15
ENDBRANCH  13  14
ENDBRANCH   2  13
TORSDOF 15
ENDMDL
MODEL 5
REMARK VINA RESULT:    -4.279      1.259      3.126
REMARK INTER + INTRA:         -10.006
REMARK INTER:                  -8.388
REMARK INTRA:                  -1.618
REMARK UNBOUND:                -1.975
REMARK SMILES CCCCCCCCC=CCCCCCCCC(=O)[O-]
REMARK SMILES IDX 10 1 9 2 11 3 12 4 13 5 14 6 15 7 16 8 17 9 18 10 19 11
REMARK SMILES IDX 20 12 8 13 7 14 6 15 5 16 4 17 3 18 2 19 1 20
REMARK H PARENT
REMARK Flexibility Score: inf
ROOT
ATOM      1  C   UNL     1      -0.154  -4.140  25.184  1.00  0.00    -0.031 C 
ATOM      2  C   UNL     1       1.141  -4.505  25.156  1.00  0.00    -0.031 C 
ENDROOT
BRANCH   1   3
ATOM      3  C   UNL     1      -1.247  -4.913  25.874  1.00  0.00     0.027 C 
BRANCH   3   4
ATOM      4  C   UNL     1      -2.203  -5.536  24.850  1.00  0.00     0.004 C 
BRANCH   4   5
ATOM      5  C   UNL     1      -2.101  -7.069  24.864  1.00  0.00     0.000 C 
BRANCH   5   6
ATOM      6  C   UNL     1      -3.477  -7.751  24.831  1.00  0.00     0.000 C 
BRANCH   6   7
ATOM      7  C   UNL     1      -4.070  -7.818  23.412  1.00  0.00     0.000 C 
BRANCH   7   8
ATOM      8  C   UNL     1      -5.594  -7.604  23.394  1.00  0.00     0.006 C 
BRANCH   8   9
ATOM      9  C   UNL     1      -6.283  -7.860  24.745  1.00  0.00     0.053 C 
BRANCH   9  10
ATOM     10  C   UNL     1      -7.604  -7.162  24.843  1.00  0.00     0.041 C 
ATOM     11  O   UNL     1      -8.276  -6.930  23.804  1.00  0.00    -0.550 OA
ATOM     12  O   UNL     1      -8.075  -6.733  26.078  1.00  0.00    -0.550 OA
ENDBRANCH   9  10
ENDBRANCH   8   9
ENDBRANCH   7   8
ENDBRANCH   6   7
ENDBRANCH   5   6
ENDBRANCH   4   5
ENDBRANCH   3   4
ENDBRANCH   1   3
BRANCH   2  13
ATOM     13  C   UNL     1       1.716  -5.691  25.892  1.00  0.00     0.027 C 
BRANCH  13  14
ATOM     14  C   UNL     1       1.549  -7.000  25.102  1.00  0.00     0.004 C 
BRANCH  14  15
ATOM     15  C   UNL     1       2.814  -7.882  25.048  1.00  0.00     0.000 C 
BRANCH  15  16
ATOM     16  C   UNL     1       3.945  -7.354  24.149  1.00  0.00     0.000 C 
BRANCH  16  17
ATOM     17  C   UNL     1       3.430  -6.729  22.842  1.00  0.00    -0.000 C 
BRANCH  17  18
ATOM     18  C   UNL     1       2.877  -7.779  21.864  1.00  0.00    -0.000 C 
BRANCH  18  19
ATOM     19  C   UNL     1       1.488  -7.409  21.321  1.00  0.00    -0.003 C 
ATOM     20  C   UNL     1       1.088  -6.000  21.751  1.00  0.00     0.004 C 
ENDBRANCH  18  19
ENDBRANCH  17  18
ENDBRANCH  16  17
ENDBRANCH  15  16
ENDBRANCH  14  15
ENDBRANCH  13  14
ENDBRANCH   2  13
TORSDOF 15
ENDMDL
MODEL 6
REMARK VINA RESULT:    -4.228      9.711     11.373
REMARK INTER + INTRA:          -9.909
REMARK INTER:                  -7.111
REMARK INTRA:                  -2.798
REMARK UNBOUND:                -1.975
REMARK SMILES CCCCCCCCC=CCCCCCCCC(=O)[O-]
REMARK SMILES IDX 10 1 9 2 11 3 12 4 13 5 14 6 15 7 16 8 17 9 18 10 19 11
REMARK SMILES IDX 20 12 8 13 7 14 6 15 5 16 4 17 3 18 2 19 1 20
REMARK H PARENT
REMARK Flexibility Score: inf
ROOT
ATOM      1  C   UNL     1      -7.617   1.235  25.783  1.00  0.00    -0.031 C 
ATOM      2  C   UNL     1      -7.309   1.074  27.083  1.00  0.00    -0.031 C 
ENDROOT
BRANCH   1   3
ATOM      3  C   UNL     1      -8.848   0.673  25.119  1.00  0.00     0.027 C 
BRANCH   3   4
ATOM      4  C   UNL     1      -8.467  -0.208  23.924  1.00  0.00     0.004 C 
BRANCH   4   5
ATOM      5  C   UNL     1      -8.036  -1.607  24.388  1.00  0.00     0.000 C 
BRANCH   5   6
ATOM      6  C   UNL     1      -8.470  -2.712  23.413  1.00  0.00     0.000 C 
BRANCH   6   7
ATOM      7  C   UNL     1      -9.125  -2.151  22.137  1.00  0.00     0.000 C 
BRANCH   7   8
ATOM      8  C   UNL     1     -10.257  -3.048  21.606  1.00  0.00     0.006 C 
BRANCH   8   9
ATOM      9  C   UNL     1      -9.857  -4.519  21.411  1.00  0.00     0.053 C 
BRANCH   9  10
ATOM     10  C   UNL     1     -11.051  -5.408  21.244  1.00  0.00     0.041 C 
ATOM     11  O   UNL     1     -11.318  -5.905  20.119  1.00  0.00    -0.550 OA
ATOM     12  O   UNL     1     -11.890  -5.657  22.323  1.00  0.00    -0.550 OA
ENDBRANCH   9  10
ENDBRANCH   8   9
ENDBRANCH   7   8
ENDBRANCH   6   7
ENDBRANCH   5   6
ENDBRANCH   4   5
ENDBRANCH   3   4
ENDBRANCH   1   3
BRANCH   2  13
ATOM     13  C   UNL     1      -8.194   0.393  28.099  1.00  0.00     0.027 C 
BRANCH  13  14
ATOM     14  C   UNL     1      -8.015  -1.135  28.091  1.00  0.00     0.004 C 
BRANCH  14  15
ATOM     15  C   UNL     1      -9.323  -1.933  27.910  1.00  0.00     0.000 C 
BRANCH  15  16
ATOM     16  C   UNL     1     -10.597  -1.082  27.767  1.00  0.00     0.000 C 
BRANCH  16  17
ATOM     17  C   UNL     1     -11.726  -1.813  27.020  1.00  0.00    -0.000 C 
BRANCH  17  18
ATOM     18  C   UNL     1     -11.497  -1.856  25.501  1.00  0.00    -0.000 C 
BRANCH  18  19
ATOM     19  C   UNL     1     -11.846  -3.220  24.887  1.00  0.00    -0.003 C 
ATOM     20  C   UNL     1     -11.002  -4.332  25.504  1.00  0.00     0.004 C 
ENDBRANCH  18  19
ENDBRANCH  17  18
ENDBRANCH  16  17
ENDBRANCH  15  16
ENDBRANCH  14  15
ENDBRANCH  13  14
ENDBRANCH   2  13
TORSDOF 15
ENDMDL
MODEL 7
REMARK VINA RESULT:    -4.211      3.599      6.841
REMARK INTER + INTRA:          -9.878
REMARK INTER:                  -8.186
REMARK INTRA:                  -1.692
REMARK UNBOUND:                -1.975
REMARK SMILES CCCCCCCCC=CCCCCCCCC(=O)[O-]
REMARK SMILES IDX 10 1 9 2 11 3 12 4 13 5 14 6 15 7 16 8 17 9 18 10 19 11
REMARK SMILES IDX 20 12 8 13 7 14 6 15 5 16 4 17 3 18 2 19 1 20
REMARK H PARENT
REMARK Flexibility Score: inf
ROOT
ATOM      1  C   UNL     1      -0.481  -3.619  25.123  1.00  0.00    -0.031 C 
ATOM      2  C   UNL     1      -1.625  -4.322  25.203  1.00  0.00    -0.031 C 
ENDROOT
BRANCH   1   3
ATOM      3  C   UNL     1       0.869  -4.128  25.561  1.00  0.00     0.027 C 
BRANCH   3   4
ATOM      4  C   UNL     1       1.073  -3.904  27.064  1.00  0.00     0.004 C 
BRANCH   4   5
ATOM      5  C   UNL     1       1.859  -5.066  27.690  1.00  0.00     0.000 C 
BRANCH   5   6
ATOM      6  C   UNL     1       1.139  -6.414  27.538  1.00  0.00     0.000 C 
BRANCH   6   7
ATOM      7  C   UNL     1       2.057  -7.515  26.975  1.00  0.00     0.000 C 
BRANCH   7   8
ATOM      8  C   UNL     1       2.004  -7.605  25.439  1.00  0.00     0.006 C 
BRANCH   8   9
ATOM      9  C   UNL     1       3.381  -7.733  24.767  1.00  0.00     0.053 C 
BRANCH   9  10
ATOM     10  C   UNL     1       3.583  -6.702  23.700  1.00  0.00     0.041 C 
ATOM     11  O   UNL     1       3.639  -5.482  24.001  1.00  0.00    -0.550 OA
ATOM     12  O   UNL     1       3.672  -7.088  22.368  1.00  0.00    -0.550 OA
ENDBRANCH   9  10
ENDBRANCH   8   9
ENDBRANCH   7   8
ENDBRANCH   6   7
ENDBRANCH   5   6
ENDBRANCH   4   5
ENDBRANCH   3   4
ENDBRANCH   1   3
BRANCH   2  13
ATOM     13  C   UNL     1      -1.722  -5.760  25.650  1.00  0.00     0.027 C 
BRANCH  13  14
ATOM     14  C   UNL     1      -1.486  -6.745  24.492  1.00  0.00     0.004 C 
BRANCH  14  15
ATOM     15  C   UNL     1      -2.154  -8.124  24.676  1.00  0.00     0.000 C 
BRANCH  15  16
ATOM     16  C   UNL     1      -3.693  -8.110  24.704  1.00  0.00     0.000 C 
BRANCH  16  17
ATOM     17  C   UNL     1      -4.318  -8.109  23.299  1.00  0.00    -0.000 C 
BRANCH  17  18
ATOM     18  C   UNL     1      -5.816  -7.765  23.320  1.00  0.00    -0.000 C 
BRANCH  18  19
ATOM     19  C   UNL     1      -6.406  -7.775  24.738  1.00  0.00    -0.003 C 
ATOM     20  C   UNL     1      -7.912  -8.023  24.705  1.00  0.00     0.004 C 
ENDBRANCH  18  19
ENDBRANCH  17  18
ENDBRANCH  16  17
ENDBRANCH  15  16
ENDBRANCH  14  15
ENDBRANCH  13  14
ENDBRANCH   2  13
TORSDOF 15
ENDMDL
MODEL 8
REMARK VINA RESULT:    -4.157      1.884      3.247
REMARK INTER + INTRA:          -9.777
REMARK INTER:                  -7.921
REMARK INTRA:                  -1.856
REMARK UNBOUND:                -1.975
REMARK SMILES CCCCCCCCC=CCCCCCCCC(=O)[O-]
REMARK SMILES IDX 10 1 9 2 11 3 12 4 13 5 14 6 15 7 16 8 17 9 18 10 19 11
REMARK SMILES IDX 20 12 8 13 7 14 6 15 5 16 4 17 3 18 2 19 1 20
REMARK H PARENT
REMARK Flexibility Score: inf
ROOT
ATOM      1  C   UNL     1       0.257  -7.675  22.277  1.00  0.00    -0.031 C 
ATOM      2  C   UNL     1       1.394  -7.621  21.559  1.00  0.00    -0.031 C 
ENDROOT
BRANCH   1   3
ATOM      3  C   UNL     1       0.170  -8.125  23.712  1.00  0.00     0.027 C 
BRANCH   3   4
ATOM      4  C   UNL     1      -1.122  -7.619  24.364  1.00  0.00     0.004 C 
BRANCH   4   5
ATOM      5  C   UNL     1      -2.354  -8.073  23.566  1.00  0.00     0.000 C 
BRANCH   5   6
ATOM      6  C   UNL     1      -3.655  -7.437  24.078  1.00  0.00     0.000 C 
BRANCH   6   7
ATOM      7  C   UNL     1      -4.911  -8.125  23.514  1.00  0.00     0.000 C 
BRANCH   7   8
ATOM      8  C   UNL     1      -6.212  -7.397  23.900  1.00  0.00     0.006 C 
BRANCH   8   9
ATOM      9  C   UNL     1      -7.343  -7.537  22.869  1.00  0.00     0.053 C 
BRANCH   9  10
ATOM     10  C   UNL     1      -8.590  -6.830  23.303  1.00  0.00     0.041 C 
ATOM     11  O   UNL     1      -9.041  -5.869  22.627  1.00  0.00    -0.550 OA
ATOM     12  O   UNL     1      -9.232  -7.210  24.475  1.00  0.00    -0.550 OA
ENDBRANCH   9  10
ENDBRANCH   8   9
ENDBRANCH   7   8
ENDBRANCH   6   7
ENDBRANCH   5   6
ENDBRANCH   4   5
ENDBRANCH   3   4
ENDBRANCH   1   3
BRANCH   2  13
ATOM     13  C   UNL     1       2.771  -7.906  22.108  1.00  0.00     0.027 C 
BRANCH  13  14
ATOM     14  C   UNL     1       3.440  -6.645  22.678  1.00  0.00     0.004 C 
BRANCH  14  15
ATOM     15  C   UNL     1       3.250  -6.448  24.197  1.00  0.00     0.000 C 
BRANCH  15  16
ATOM     16  C   UNL     1       2.660  -5.089  24.614  1.00  0.00     0.000 C 
BRANCH  16  17
ATOM     17  C   UNL     1       1.843  -4.422  23.494  1.00  0.00    -0.000 C 
BRANCH  17  18
ATOM     18  C   UNL     1       0.366  -4.233  23.874  1.00  0.00    -0.000 C 
BRANCH  18  19
ATOM     19  C   UNL     1       0.132  -4.293  25.390  1.00  0.00    -0.003 C 
ATOM     20  C   UNL     1      -1.257  -3.774  25.753  1.00  0.00     0.004 C 
ENDBRANCH  18  19
ENDBRANCH  17  18
ENDBRANCH  16  17
ENDBRANCH  15  16
ENDBRANCH  14  15
ENDBRANCH  13  14
ENDBRANCH   2  13
TORSDOF 15
ENDMDL
