MODEL 1
REMARK VINA RESULT:    -5.371      0.000      0.000
REMARK INTER + INTRA:         -10.571
REMARK INTER:                  -7.412
REMARK INTRA:                  -3.160
REMARK UNBOUND:                -3.160
REMARK SMILES CC[C@@H](CC[C@@H](C)[C@@H]1CC[C@H]2[C@@H]3CC=C4C[C@H](O)CC[C@@]4(C)[C@@H]3CC[C@]21C)C(C)C
REMARK SMILES IDX 5 1 4 2 3 3 2 4 1 5 28 6 29 7 30 8 6 9 7 10 8 11 9 12 26 13
REMARK SMILES IDX 10 14 11 15 25 16 27 17 12 18 24 19 23 20 13 21 21 22 14 23
REMARK SMILES IDX 15 24 20 25 22 26 16 27 19 28 17 29 18 30
REMARK H PARENT 18 31
REMARK Flexibility Score: inf
ROOT
ATOM      1  C   UNL     1     144.185 136.712 150.001  1.00  0.00     0.004 C 
ENDROOT
BRANCH   1   2
ATOM      2  C   UNL     1     144.128 137.738 148.846  1.00  0.00     0.004 C 
BRANCH   2   3
ATOM      3  C   UNL     1     143.230 137.388 147.616  1.00  0.00    -0.009 C 
BRANCH   3   4
ATOM      4  C   UNL     1     142.686 135.943 147.803  1.00  0.00     0.000 C 
ATOM      5  C   UNL     1     141.166 135.819 147.687  1.00  0.00     0.004 C 
ENDBRANCH   3   4
BRANCH   3   6
ATOM      6  C   UNL     1     143.906 137.607 146.216  1.00  0.00    -0.014 C 
ATOM      7  C   UNL     1     143.268 138.724 145.376  1.00  0.00     0.007 C 
ATOM      8  C   UNL     1     144.017 136.317 145.388  1.00  0.00     0.007 C 
ENDBRANCH   3   6
ENDBRANCH   2   3
ENDBRANCH   1   2
BRANCH   1   9
ATOM      9  C   UNL     1     145.501 135.897 150.131  1.00  0.00    -0.011 C 
ATOM     10  C   UNL     1     145.204 134.462 150.611  1.00  0.00     0.008 C 
BRANCH   9  11
ATOM     11  C   UNL     1     146.324 135.981 148.793  1.00  0.00    -0.002 C 
ATOM     12  C   UNL     1     146.323 134.727 147.906  1.00  0.00     0.005 C 
ATOM     13  C   UNL     1     147.807 136.473 148.872  1.00  0.00    -0.026 C 
ATOM     14  C   UNL     1     147.679 134.664 147.209  1.00  0.00     0.005 C 
ATOM     15  C   UNL     1     148.479 135.932 147.575  1.00  0.00    -0.001 C 
ATOM     16  C   UNL     1     147.887 138.020 148.970  1.00  0.00     0.007 C 
ATOM     17  C   UNL     1     148.560 135.870 150.088  1.00  0.00     0.012 C 
ATOM     18  C   UNL     1     148.578 136.946 146.383  1.00  0.00     0.000 C 
ATOM     19  C   UNL     1     147.425 138.790 147.711  1.00  0.00     0.005 C 
ATOM     20  C   UNL     1     147.433 137.979 146.376  1.00  0.00     0.003 C 
ATOM     21  C   UNL     1     149.931 137.679 146.346  1.00  0.00     0.031 C 
ATOM     22  C   UNL     1     147.470 138.874 145.071  1.00  0.00    -0.008 C 
ATOM     23  C   UNL     1     149.995 138.645 145.198  1.00  0.00    -0.027 C 
ATOM     24  C   UNL     1     148.903 139.227 144.646  1.00  0.00    -0.065 C 
ATOM     25  C   UNL     1     146.818 138.091 143.884  1.00  0.00     0.014 C 
ATOM     26  C   UNL     1     146.650 140.179 145.295  1.00  0.00     0.016 C 
ATOM     27  C   UNL     1     149.063 139.978 143.344  1.00  0.00     0.063 C 
ATOM     28  C   UNL     1     146.984 138.774 142.508  1.00  0.00     0.033 C 
ATOM     29  C   UNL     1     148.453 139.142 142.210  1.00  0.00     0.118 C 
BRANCH  29  30
ATOM     30  O   UNL     1     148.530 139.870 141.014  1.00  0.00    -0.393 OA
ATOM     31  H   UNL     1     147.782 139.562 140.440  1.00  0.00     0.210 HD
ENDBRANCH  29  30
ENDBRANCH   9  11
ENDBRANCH   1   9
TORSDOF 7
ENDMDL
MODEL 2
REMARK VINA RESULT:    -5.067      2.651      6.800
REMARK INTER + INTRA:         -10.152
REMARK INTER:                  -7.922
REMARK INTRA:                  -2.231
REMARK UNBOUND:                -3.160
REMARK SMILES CC[C@@H](CC[C@@H](C)[C@@H]1CC[C@H]2[C@@H]3CC=C4C[C@H](O)CC[C@@]4(C)[C@@H]3CC[C@]21C)C(C)C
REMARK SMILES IDX 5 1 4 2 3 3 2 4 1 5 28 6 29 7 30 8 6 9 7 10 8 11 9 12 26 13
REMARK SMILES IDX 10 14 11 15 25 16 27 17 12 18 24 19 23 20 13 21 21 22 14 23
REMARK SMILES IDX 15 24 20 25 22 26 16 27 19 28 17 29 18 30
REMARK H PARENT 18 31
REMARK Flexibility Score: inf
ROOT
ATOM      1  C   UNL     1     144.598 138.368 141.633  1.00  0.00     0.004 C 
ENDROOT
BRANCH   1   2
ATOM      2  C   UNL     1     145.852 138.404 142.538  1.00  0.00     0.004 C 
BRANCH   2   3
ATOM      3  C   UNL     1     146.621 139.760 142.648  1.00  0.00    -0.009 C 
BRANCH   3   4
ATOM      4  C   UNL     1     146.617 140.439 141.249  1.00  0.00     0.000 C 
ATOM      5  C   UNL     1     146.961 141.929 141.269  1.00  0.00     0.004 C 
ENDBRANCH   3   4
BRANCH   3   6
ATOM      6  C   UNL     1     148.060 139.659 143.270  1.00  0.00    -0.014 C 
ATOM      7  C   UNL     1     148.554 138.220 143.485  1.00  0.00     0.007 C 
ATOM      8  C   UNL     1     148.221 140.474 144.562  1.00  0.00     0.007 C 
ENDBRANCH   3   6
ENDBRANCH   2   3
ENDBRANCH   1   2
BRANCH   1   9
ATOM      9  C   UNL     1     143.244 138.098 142.346  1.00  0.00    -0.011 C 
ATOM     10  C   UNL     1     142.264 137.386 141.391  1.00  0.00     0.008 C 
BRANCH   9  11
ATOM     11  C   UNL     1     143.490 137.350 143.708  1.00  0.00    -0.002 C 
ATOM     12  C   UNL     1     143.061 135.876 143.769  1.00  0.00     0.005 C 
ATOM     13  C   UNL     1     142.968 138.023 145.020  1.00  0.00    -0.026 C 
ATOM     14  C   UNL     1     142.605 135.596 145.198  1.00  0.00     0.005 C 
ATOM     15  C   UNL     1     142.851 136.859 146.050  1.00  0.00    -0.001 C 
ATOM     16  C   UNL     1     143.932 139.139 145.506  1.00  0.00     0.007 C 
ATOM     17  C   UNL     1     141.558 138.644 144.839  1.00  0.00     0.012 C 
ATOM     18  C   UNL     1     144.060 136.694 147.034  1.00  0.00     0.000 C 
ATOM     19  C   UNL     1     145.316 138.654 145.996  1.00  0.00     0.005 C 
ATOM     20  C   UNL     1     145.400 137.154 146.425  1.00  0.00     0.003 C 
ATOM     21  C   UNL     1     143.829 137.419 148.373  1.00  0.00     0.031 C 
ATOM     22  C   UNL     1     146.615 136.816 147.379  1.00  0.00    -0.008 C 
ATOM     23  C   UNL     1     145.004 137.247 149.293  1.00  0.00    -0.027 C 
ATOM     24  C   UNL     1     146.269 137.024 148.861  1.00  0.00    -0.065 C 
ATOM     25  C   UNL     1     147.011 135.313 147.207  1.00  0.00     0.014 C 
ATOM     26  C   UNL     1     147.850 137.686 147.000  1.00  0.00     0.016 C 
ATOM     27  C   UNL     1     147.317 136.617 149.870  1.00  0.00     0.063 C 
ATOM     28  C   UNL     1     148.046 134.808 148.237  1.00  0.00     0.033 C 
ATOM     29  C   UNL     1     147.629 135.125 149.689  1.00  0.00     0.118 C 
BRANCH  29  30
ATOM     30  O   UNL     1     148.657 134.762 150.572  1.00  0.00    -0.393 OA
ATOM     31  H   UNL     1     148.588 133.783 150.709  1.00  0.00     0.210 HD
ENDBRANCH  29  30
ENDBRANCH   9  11
ENDBRANCH   1   9
TORSDOF 7
ENDMDL
MODEL 3
REMARK VINA RESULT:    -5.044      3.829      7.006
REMARK INTER + INTRA:         -10.120
REMARK INTER:                  -8.699
REMARK INTRA:                  -1.421
REMARK UNBOUND:                -3.160
REMARK SMILES CC[C@@H](CC[C@@H](C)[C@@H]1CC[C@H]2[C@@H]3CC=C4C[C@H](O)CC[C@@]4(C)[C@@H]3CC[C@]21C)C(C)C
REMARK SMILES IDX 5 1 4 2 3 3 2 4 1 5 28 6 29 7 30 8 6 9 7 10 8 11 9 12 26 13
REMARK SMILES IDX 10 14 11 15 25 16 27 17 12 18 24 19 23 20 13 21 21 22 14 23
REMARK SMILES IDX 15 24 20 25 22 26 16 27 19 28 17 29 18 30
REMARK H PARENT 18 31
REMARK Flexibility Score: inf
ROOT
ATOM      1  C   UNL     1     141.086 140.617 145.471  1.00  0.00     0.004 C 
ENDROOT
BRANCH   1   2
ATOM      2  C   UNL     1     140.167 140.702 146.711  1.00  0.00     0.004 C 
BRANCH   2   3
ATOM      3  C   UNL     1     138.961 141.695 146.646  1.00  0.00    -0.009 C 
BRANCH   3   4
ATOM      4  C   UNL     1     139.096 142.543 145.349  1.00  0.00     0.000 C 
ATOM      5  C   UNL     1     137.784 142.754 144.592  1.00  0.00     0.004 C 
ENDBRANCH   3   4
BRANCH   3   6
ATOM      6  C   UNL     1     138.756 142.576 147.929  1.00  0.00    -0.014 C 
ATOM      7  C   UNL     1     137.296 142.975 148.192  1.00  0.00     0.007 C 
ATOM      8  C   UNL     1     139.661 143.816 147.965  1.00  0.00     0.007 C 
ENDBRANCH   3   6
ENDBRANCH   2   3
ENDBRANCH   1   2
BRANCH   1   9
ATOM      9  C   UNL     1     140.806 139.448 144.487  1.00  0.00    -0.011 C 
ATOM     10  C   UNL     1     140.650 139.979 143.047  1.00  0.00     0.008 C 
BRANCH   9  11
ATOM     11  C   UNL     1     141.897 138.326 144.655  1.00  0.00    -0.002 C 
ATOM     12  C   UNL     1     142.697 137.953 143.398  1.00  0.00     0.005 C 
ATOM     13  C   UNL     1     141.469 136.981 145.330  1.00  0.00    -0.026 C 
ATOM     14  C   UNL     1     143.027 136.466 143.496  1.00  0.00     0.005 C 
ATOM     15  C   UNL     1     142.529 135.941 144.860  1.00  0.00    -0.001 C 
ATOM     16  C   UNL     1     141.425 137.112 146.876  1.00  0.00     0.007 C 
ATOM     17  C   UNL     1     140.077 136.498 144.843  1.00  0.00     0.012 C 
ATOM     18  C   UNL     1     143.703 135.661 145.861  1.00  0.00     0.000 C 
ATOM     19  C   UNL     1     142.793 137.324 147.565  1.00  0.00     0.005 C 
ATOM     20  C   UNL     1     144.045 136.879 146.743  1.00  0.00     0.003 C 
ATOM     21  C   UNL     1     143.431 134.439 146.758  1.00  0.00     0.031 C 
ATOM     22  C   UNL     1     145.337 136.616 147.617  1.00  0.00    -0.008 C 
ATOM     23  C   UNL     1     144.569 134.199 147.708  1.00  0.00    -0.027 C 
ATOM     24  C   UNL     1     145.403 135.174 148.141  1.00  0.00    -0.065 C 
ATOM     25  C   UNL     1     146.613 136.846 146.742  1.00  0.00     0.014 C 
ATOM     26  C   UNL     1     145.386 137.614 148.811  1.00  0.00     0.016 C 
ATOM     27  C   UNL     1     146.655 134.776 148.888  1.00  0.00     0.063 C 
ATOM     28  C   UNL     1     147.933 136.416 147.421  1.00  0.00     0.033 C 
ATOM     29  C   UNL     1     147.868 134.973 147.966  1.00  0.00     0.118 C 
BRANCH  29  30
ATOM     30  O   UNL     1     149.037 134.680 148.681  1.00  0.00    -0.393 OA
ATOM     31  H   UNL     1     149.425 133.861 148.278  1.00  0.00     0.210 HD
ENDBRANCH  29  30
ENDBRANCH   9  11
ENDBRANCH   1   9
TORSDOF 7
ENDMDL
MODEL 4
REMARK VINA RESULT:    -5.011      1.617      2.580
REMARK INTER + INTRA:         -10.075
REMARK INTER:                  -7.216
REMARK INTRA:                  -2.858
REMARK UNBOUND:                -3.160
REMARK SMILES CC[C@@H](CC[C@@H](C)[C@@H]1CC[C@H]2[C@@H]3CC=C4C[C@H](O)CC[C@@]4(C)[C@@H]3CC[C@]21C)C(C)C
REMARK SMILES IDX 5 1 4 2 3 3 2 4 1 5 28 6 29 7 30 8 6 9 7 10 8 11 9 12 26 13
REMARK SMILES IDX 10 14 11 15 25 16 27 17 12 18 24 19 23 20 13 21 21 22 14 23
REMARK SMILES IDX 15 24 20 25 22 26 16 27 19 28 17 29 18 30
REMARK H PARENT 18 31
REMARK Flexibility Score: inf
ROOT
ATOM      1  C   UNL     1     142.067 135.042 149.544  1.00  0.00     0.004 C 
ENDROOT
BRANCH   1   2
ATOM      2  C   UNL     1     141.259 134.963 148.228  1.00  0.00     0.004 C 
BRANCH   2   3
ATOM      3  C   UNL     1     141.618 135.984 147.100  1.00  0.00    -0.009 C 
BRANCH   3   4
ATOM      4  C   UNL     1     140.386 136.902 146.861  1.00  0.00     0.000 C 
ATOM      5  C   UNL     1     139.050 136.291 147.286  1.00  0.00     0.004 C 
ENDBRANCH   3   4
BRANCH   3   6
ATOM      6  C   UNL     1     142.166 135.343 145.775  1.00  0.00    -0.014 C 
ATOM      7  C   UNL     1     141.727 136.072 144.496  1.00  0.00     0.007 C 
ATOM      8  C   UNL     1     141.868 133.841 145.659  1.00  0.00     0.007 C 
ENDBRANCH   3   6
ENDBRANCH   2   3
ENDBRANCH   1   2
BRANCH   1   9
ATOM      9  C   UNL     1     143.394 134.235 149.584  1.00  0.00    -0.011 C 
ATOM     10  C   UNL     1     143.114 132.727 149.434  1.00  0.00     0.008 C 
BRANCH   9  11
ATOM     11  C   UNL     1     144.413 134.818 148.537  1.00  0.00    -0.002 C 
ATOM     12  C   UNL     1     145.186 133.797 147.689  1.00  0.00     0.005 C 
ATOM     13  C   UNL     1     145.459 135.869 149.037  1.00  0.00    -0.026 C 
ATOM     14  C   UNL     1     146.563 134.391 147.409  1.00  0.00     0.005 C 
ATOM     15  C   UNL     1     146.610 135.821 147.987  1.00  0.00    -0.001 C 
ATOM     16  C   UNL     1     144.831 137.284 149.151  1.00  0.00     0.007 C 
ATOM     17  C   UNL     1     146.057 135.490 150.418  1.00  0.00     0.012 C 
ATOM     18  C   UNL     1     146.562 136.922 146.871  1.00  0.00     0.000 C 
ATOM     19  C   UNL     1     144.423 137.940 147.812  1.00  0.00     0.005 C 
ATOM     20  C   UNL     1     145.128 137.377 146.536  1.00  0.00     0.003 C 
ATOM     21  C   UNL     1     147.422 138.150 147.222  1.00  0.00     0.031 C 
ATOM     22  C   UNL     1     145.108 138.359 145.295  1.00  0.00    -0.008 C 
ATOM     23  C   UNL     1     147.354 139.188 146.139  1.00  0.00    -0.027 C 
ATOM     24  C   UNL     1     146.301 139.326 145.297  1.00  0.00    -0.065 C 
ATOM     25  C   UNL     1     145.192 137.528 143.972  1.00  0.00     0.014 C 
ATOM     26  C   UNL     1     143.776 139.166 145.273  1.00  0.00     0.016 C 
ATOM     27  C   UNL     1     146.450 140.229 144.095  1.00  0.00     0.063 C 
ATOM     28  C   UNL     1     145.394 138.381 142.700  1.00  0.00     0.033 C 
ATOM     29  C   UNL     1     146.580 139.361 142.834  1.00  0.00     0.118 C 
BRANCH  29  30
ATOM     30  O   UNL     1     146.639 140.196 141.709  1.00  0.00    -0.393 OA
ATOM     31  H   UNL     1     146.950 139.638 140.951  1.00  0.00     0.210 HD
ENDBRANCH  29  30
ENDBRANCH   9  11
ENDBRANCH   1   9
TORSDOF 7
ENDMDL
MODEL 5
REMARK VINA RESULT:    -4.941      2.619      6.547
REMARK INTER + INTRA:          -9.978
REMARK INTER:                  -7.366
REMARK INTRA:                  -2.612
REMARK UNBOUND:                -3.160
REMARK SMILES CC[C@@H](CC[C@@H](C)[C@@H]1CC[C@H]2[C@@H]3CC=C4C[C@H](O)CC[C@@]4(C)[C@@H]3CC[C@]21C)C(C)C
REMARK SMILES IDX 5 1 4 2 3 3 2 4 1 5 28 6 29 7 30 8 6 9 7 10 8 11 9 12 26 13
REMARK SMILES IDX 10 14 11 15 25 16 27 17 12 18 24 19 23 20 13 21 21 22 14 23
REMARK SMILES IDX 15 24 20 25 22 26 16 27 19 28 17 29 18 30
REMARK H PARENT 18 31
REMARK Flexibility Score: inf
ROOT
ATOM      1  C   UNL     1     147.576 134.610 148.244  1.00  0.00     0.004 C 
ENDROOT
BRANCH   1   2
ATOM      2  C   UNL     1     146.907 135.636 147.301  1.00  0.00     0.004 C 
BRANCH   2   3
ATOM      3  C   UNL     1     147.762 136.865 146.852  1.00  0.00    -0.009 C 
BRANCH   3   4
ATOM      4  C   UNL     1     148.706 137.258 148.024  1.00  0.00     0.000 C 
ATOM      5  C   UNL     1     148.068 138.174 149.070  1.00  0.00     0.004 C 
ENDBRANCH   3   4
BRANCH   3   6
ATOM      6  C   UNL     1     146.938 138.083 146.301  1.00  0.00    -0.014 C 
ATOM      7  C   UNL     1     145.415 137.926 146.436  1.00  0.00     0.007 C 
ATOM      8  C   UNL     1     147.307 138.464 144.859  1.00  0.00     0.007 C 
ENDBRANCH   3   6
ENDBRANCH   2   3
ENDBRANCH   1   2
BRANCH   1   9
ATOM      9  C   UNL     1     146.879 134.378 149.612  1.00  0.00    -0.011 C 
ATOM     10  C   UNL     1     147.788 134.842 150.768  1.00  0.00     0.008 C 
BRANCH   9  11
ATOM     11  C   UNL     1     145.446 135.028 149.606  1.00  0.00    -0.002 C 
ATOM     12  C   UNL     1     145.217 136.192 150.583  1.00  0.00     0.005 C 
ATOM     13  C   UNL     1     144.209 134.081 149.738  1.00  0.00    -0.026 C 
ATOM     14  C   UNL     1     143.759 136.127 151.029  1.00  0.00     0.005 C 
ATOM     15  C   UNL     1     143.055 134.996 150.250  1.00  0.00    -0.001 C 
ATOM     16  C   UNL     1     143.863 133.407 148.383  1.00  0.00     0.007 C 
ATOM     17  C   UNL     1     144.436 132.964 150.792  1.00  0.00     0.012 C 
ATOM     18  C   UNL     1     142.077 135.540 149.152  1.00  0.00     0.000 C 
ATOM     19  C   UNL     1     143.344 134.360 147.281  1.00  0.00     0.005 C 
ATOM     20  C   UNL     1     142.754 135.718 147.778  1.00  0.00     0.003 C 
ATOM     21  C   UNL     1     140.823 134.660 148.995  1.00  0.00     0.031 C 
ATOM     22  C   UNL     1     141.787 136.425 146.744  1.00  0.00    -0.008 C 
ATOM     23  C   UNL     1     139.908 135.202 147.935  1.00  0.00    -0.027 C 
ATOM     24  C   UNL     1     140.332 135.955 146.891  1.00  0.00    -0.065 C 
ATOM     25  C   UNL     1     141.799 137.969 146.991  1.00  0.00     0.014 C 
ATOM     26  C   UNL     1     142.279 136.166 145.290  1.00  0.00     0.016 C 
ATOM     27  C   UNL     1     139.300 136.652 146.036  1.00  0.00     0.063 C 
ATOM     28  C   UNL     1     140.735 138.748 146.186  1.00  0.00     0.033 C 
ATOM     29  C   UNL     1     139.320 138.154 146.357  1.00  0.00     0.118 C 
BRANCH  29  30
ATOM     30  O   UNL     1     138.419 138.814 145.509  1.00  0.00    -0.393 OA
ATOM     31  H   UNL     1     138.745 139.746 145.411  1.00  0.00     0.210 HD
ENDBRANCH  29  30
ENDBRANCH   9  11
ENDBRANCH   1   9
TORSDOF 7
ENDMDL
MODEL 6
REMARK VINA RESULT:    -4.928      3.488      6.515
REMARK INTER + INTRA:          -9.960
REMARK INTER:                  -8.503
REMARK INTRA:                  -1.457
REMARK UNBOUND:                -3.160
REMARK SMILES CC[C@@H](CC[C@@H](C)[C@@H]1CC[C@H]2[C@@H]3CC=C4C[C@H](O)CC[C@@]4(C)[C@@H]3CC[C@]21C)C(C)C
REMARK SMILES IDX 5 1 4 2 3 3 2 4 1 5 28 6 29 7 30 8 6 9 7 10 8 11 9 12 26 13
REMARK SMILES IDX 10 14 11 15 25 16 27 17 12 18 24 19 23 20 13 21 21 22 14 23
REMARK SMILES IDX 15 24 20 25 22 26 16 27 19 28 17 29 18 30
REMARK H PARENT 18 31
REMARK Flexibility Score: inf
ROOT
ATOM      1  C   UNL     1     140.384 140.835 143.458  1.00  0.00     0.004 C 
ENDROOT
BRANCH   1   2
ATOM      2  C   UNL     1     139.094 141.167 144.243  1.00  0.00     0.004 C 
BRANCH   2   3
ATOM      3  C   UNL     1     139.238 142.055 145.521  1.00  0.00    -0.009 C 
BRANCH   3   4
ATOM      4  C   UNL     1     140.750 142.329 145.758  1.00  0.00     0.000 C 
ATOM      5  C   UNL     1     141.049 143.645 146.478  1.00  0.00     0.004 C 
ENDBRANCH   3   4
BRANCH   3   6
ATOM      6  C   UNL     1     138.513 141.501 146.800  1.00  0.00    -0.014 C 
ATOM      7  C   UNL     1     137.863 142.585 147.674  1.00  0.00     0.007 C 
ATOM      8  C   UNL     1     139.406 140.592 147.658  1.00  0.00     0.007 C 
ENDBRANCH   3   6
ENDBRANCH   2   3
ENDBRANCH   1   2
BRANCH   1   9
ATOM      9  C   UNL     1     140.361 139.526 142.621  1.00  0.00    -0.011 C 
ATOM     10  C   UNL     1     140.220 139.847 141.120  1.00  0.00     0.008 C 
BRANCH   9  11
ATOM     11  C   UNL     1     141.603 138.631 142.984  1.00  0.00    -0.002 C 
ATOM     12  C   UNL     1     141.980 137.537 141.973  1.00  0.00     0.005 C 
ATOM     13  C   UNL     1     141.639 137.965 144.399  1.00  0.00    -0.026 C 
ATOM     14  C   UNL     1     142.547 136.364 142.766  1.00  0.00     0.005 C 
ATOM     15  C   UNL     1     142.625 136.766 144.254  1.00  0.00    -0.001 C 
ATOM     16  C   UNL     1     142.100 138.971 145.488  1.00  0.00     0.007 C 
ATOM     17  C   UNL     1     140.257 137.397 144.816  1.00  0.00     0.012 C 
ATOM     18  C   UNL     1     144.096 137.031 144.729  1.00  0.00     0.000 C 
ATOM     19  C   UNL     1     143.570 139.438 145.382  1.00  0.00     0.005 C 
ATOM     20  C   UNL     1     144.524 138.504 144.571  1.00  0.00     0.003 C 
ATOM     21  C   UNL     1     144.333 136.581 146.182  1.00  0.00     0.031 C 
ATOM     22  C   UNL     1     146.060 138.698 144.898  1.00  0.00    -0.008 C 
ATOM     23  C   UNL     1     145.747 136.850 146.610  1.00  0.00    -0.027 C 
ATOM     24  C   UNL     1     146.519 137.828 146.078  1.00  0.00    -0.065 C 
ATOM     25  C   UNL     1     146.915 138.279 143.657  1.00  0.00     0.014 C 
ATOM     26  C   UNL     1     146.355 140.196 145.203  1.00  0.00     0.016 C 
ATOM     27  C   UNL     1     147.995 137.842 146.402  1.00  0.00     0.063 C 
ATOM     28  C   UNL     1     148.435 138.222 143.925  1.00  0.00     0.033 C 
ATOM     29  C   UNL     1     148.780 137.374 145.168  1.00  0.00     0.118 C 
BRANCH  29  30
ATOM     30  O   UNL     1     150.153 137.461 145.440  1.00  0.00    -0.393 OA
ATOM     31  H   UNL     1     150.628 137.294 144.586  1.00  0.00     0.210 HD
ENDBRANCH  29  30
ENDBRANCH   9  11
ENDBRANCH   1   9
TORSDOF 7
ENDMDL
MODEL 7
REMARK VINA RESULT:    -4.925      1.609      2.656
REMARK INTER + INTRA:          -9.956
REMARK INTER:                  -7.645
REMARK INTRA:                  -2.311
REMARK UNBOUND:                -3.160
REMARK SMILES CC[C@@H](CC[C@@H](C)[C@@H]1CC[C@H]2[C@@H]3CC=C4C[C@H](O)CC[C@@]4(C)[C@@H]3CC[C@]21C)C(C)C
REMARK SMILES IDX 5 1 4 2 3 3 2 4 1 5 28 6 29 7 30 8 6 9 7 10 8 11 9 12 26 13
REMARK SMILES IDX 10 14 11 15 25 16 27 17 12 18 24 19 23 20 13 21 21 22 14 23
REMARK SMILES IDX 15 24 20 25 22 26 16 27 19 28 17 29 18 30
REMARK H PARENT 18 31
REMARK Flexibility Score: inf
ROOT
ATOM      1  C   UNL     1     142.878 134.722 146.608  1.00  0.00     0.004 C 
ENDROOT
BRANCH   1   2
ATOM      2  C   UNL     1     142.122 136.067 146.703  1.00  0.00     0.004 C 
BRANCH   2   3
ATOM      3  C   UNL     1     142.259 137.055 145.500  1.00  0.00    -0.009 C 
BRANCH   3   4
ATOM      4  C   UNL     1     143.476 136.612 144.639  1.00  0.00     0.000 C 
ATOM      5  C   UNL     1     143.118 136.162 143.221  1.00  0.00     0.004 C 
ENDBRANCH   3   4
BRANCH   3   6
ATOM      6  C   UNL     1     142.313 138.575 145.891  1.00  0.00    -0.014 C 
ATOM      7  C   UNL     1     141.004 139.121 146.482  1.00  0.00     0.007 C 
ATOM      8  C   UNL     1     142.797 139.479 144.747  1.00  0.00     0.007 C 
ENDBRANCH   3   6
ENDBRANCH   2   3
ENDBRANCH   1   2
BRANCH   1   9
ATOM      9  C   UNL     1     143.777 134.352 147.821  1.00  0.00    -0.011 C 
ATOM     10  C   UNL     1     143.774 132.828 148.051  1.00  0.00     0.008 C 
BRANCH   9  11
ATOM     11  C   UNL     1     145.207 134.985 147.646  1.00  0.00    -0.002 C 
ATOM     12  C   UNL     1     146.379 134.002 147.504  1.00  0.00     0.005 C 
ATOM     13  C   UNL     1     145.658 136.075 148.672  1.00  0.00    -0.026 C 
ATOM     14  C   UNL     1     147.598 134.655 148.149  1.00  0.00     0.005 C 
ATOM     15  C   UNL     1     147.214 136.083 148.593  1.00  0.00    -0.001 C 
ATOM     16  C   UNL     1     145.049 137.462 148.330  1.00  0.00     0.007 C 
ATOM     17  C   UNL     1     145.256 135.713 150.127  1.00  0.00     0.012 C 
ATOM     18  C   UNL     1     147.846 137.187 147.676  1.00  0.00     0.000 C 
ATOM     19  C   UNL     1     145.561 138.108 147.023  1.00  0.00     0.005 C 
ATOM     20  C   UNL     1     146.935 137.584 146.497  1.00  0.00     0.003 C 
ATOM     21  C   UNL     1     148.241 138.449 148.466  1.00  0.00     0.031 C 
ATOM     22  C   UNL     1     147.673 138.571 145.504  1.00  0.00    -0.008 C 
ATOM     23  C   UNL     1     148.839 139.490 147.563  1.00  0.00    -0.027 C 
ATOM     24  C   UNL     1     148.556 139.588 146.242  1.00  0.00    -0.065 C 
ATOM     25  C   UNL     1     148.608 137.753 144.554  1.00  0.00     0.014 C 
ATOM     26  C   UNL     1     146.629 139.321 144.624  1.00  0.00     0.016 C 
ATOM     27  C   UNL     1     149.402 140.504 145.387  1.00  0.00     0.063 C 
ATOM     28  C   UNL     1     149.541 138.622 143.681  1.00  0.00     0.033 C 
ATOM     29  C   UNL     1     150.334 139.650 144.515  1.00  0.00     0.118 C 
BRANCH  29  30
ATOM     30  O   UNL     1     151.064 140.494 143.666  1.00  0.00    -0.393 OA
ATOM     31  H   UNL     1     150.565 141.349 143.610  1.00  0.00     0.210 HD
ENDBRANCH  29  30
ENDBRANCH   9  11
ENDBRANCH   1   9
TORSDOF 7
ENDMDL
MODEL 8
REMARK VINA RESULT:    -4.914      4.895      8.981
REMARK INTER + INTRA:          -9.941
REMARK INTER:                  -6.956
REMARK INTRA:                  -2.985
REMARK UNBOUND:                -3.160
REMARK SMILES CC[C@@H](CC[C@@H](C)[C@@H]1CC[C@H]2[C@@H]3CC=C4C[C@H](O)CC[C@@]4(C)[C@@H]3CC[C@]21C)C(C)C
REMARK SMILES IDX 5 1 4 2 3 3 2 4 1 5 28 6 29 7 30 8 6 9 7 10 8 11 9 12 26 13
REMARK SMILES IDX 10 14 11 15 25 16 27 17 12 18 24 19 23 20 13 21 21 22 14 23
REMARK SMILES IDX 15 24 20 25 22 26 16 27 19 28 17 29 18 30
REMARK H PARENT 18 31
REMARK Flexibility Score: inf
ROOT
ATOM      1  C   UNL     1     143.005 135.903 143.092  1.00  0.00     0.004 C 
ENDROOT
BRANCH   1   2
ATOM      2  C   UNL     1     143.008 136.114 144.624  1.00  0.00     0.004 C 
BRANCH   2   3
ATOM      3  C   UNL     1     143.062 137.585 145.149  1.00  0.00    -0.009 C 
BRANCH   3   4
ATOM      4  C   UNL     1     144.540 138.068 145.098  1.00  0.00     0.000 C 
ATOM      5  C   UNL     1     144.713 139.532 144.690  1.00  0.00     0.004 C 
ENDBRANCH   3   4
BRANCH   3   6
ATOM      6  C   UNL     1     142.396 137.815 146.552  1.00  0.00    -0.014 C 
ATOM      7  C   UNL     1     143.381 137.777 147.731  1.00  0.00     0.007 C 
ATOM      8  C   UNL     1     141.208 136.879 146.822  1.00  0.00     0.007 C 
ENDBRANCH   3   6
ENDBRANCH   2   3
ENDBRANCH   1   2
BRANCH   1   9
ATOM      9  C   UNL     1     141.626 135.603 142.443  1.00  0.00    -0.011 C 
ATOM     10  C   UNL     1     141.308 134.096 142.524  1.00  0.00     0.008 C 
BRANCH   9  11
ATOM     11  C   UNL     1     140.522 136.538 143.060  1.00  0.00    -0.002 C 
ATOM     12  C   UNL     1     139.354 135.842 143.776  1.00  0.00     0.005 C 
ATOM     13  C   UNL     1     139.894 137.638 142.142  1.00  0.00    -0.026 C 
ATOM     14  C   UNL     1     138.114 136.704 143.561  1.00  0.00     0.005 C 
ATOM     15  C   UNL     1     138.529 137.986 142.809  1.00  0.00    -0.001 C 
ATOM     16  C   UNL     1     140.821 138.877 142.027  1.00  0.00     0.007 C 
ATOM     17  C   UNL     1     139.606 137.112 140.711  1.00  0.00     0.012 C 
ATOM     18  C   UNL     1     138.523 139.253 143.732  1.00  0.00     0.000 C 
ATOM     19  C   UNL     1     141.000 139.696 143.327  1.00  0.00     0.005 C 
ATOM     20  C   UNL     1     139.886 139.513 144.406  1.00  0.00     0.003 C 
ATOM     21  C   UNL     1     138.071 140.522 142.984  1.00  0.00     0.031 C 
ATOM     22  C   UNL     1     139.796 140.694 145.455  1.00  0.00    -0.008 C 
ATOM     23  C   UNL     1     138.079 141.719 143.891  1.00  0.00    -0.027 C 
ATOM     24  C   UNL     1     138.883 141.832 144.976  1.00  0.00    -0.065 C 
ATOM     25  C   UNL     1     139.195 140.155 146.795  1.00  0.00     0.014 C 
ATOM     26  C   UNL     1     141.219 141.251 145.755  1.00  0.00     0.016 C 
ATOM     27  C   UNL     1     138.627 142.958 145.951  1.00  0.00     0.063 C 
ATOM     28  C   UNL     1     138.861 141.255 147.827  1.00  0.00     0.033 C 
ATOM     29  C   UNL     1     137.992 142.380 147.224  1.00  0.00     0.118 C 
BRANCH  29  30
ATOM     30  O   UNL     1     137.826 143.410 148.160  1.00  0.00    -0.393 OA
ATOM     31  H   UNL     1     137.183 144.056 147.769  1.00  0.00     0.210 HD
ENDBRANCH  29  30
ENDBRANCH   9  11
ENDBRANCH   1   9
TORSDOF 7
ENDMDL
MODEL 9
REMARK VINA RESULT:    -4.865      2.490      4.042
REMARK INTER + INTRA:          -9.873
REMARK INTER:                  -6.690
REMARK INTRA:                  -3.183
REMARK UNBOUND:                -3.160
REMARK SMILES CC[C@@H](CC[C@@H](C)[C@@H]1CC[C@H]2[C@@H]3CC=C4C[C@H](O)CC[C@@]4(C)[C@@H]3CC[C@]21C)C(C)C
REMARK SMILES IDX 5 1 4 2 3 3 2 4 1 5 28 6 29 7 30 8 6 9 7 10 8 11 9 12 26 13
REMARK SMILES IDX 10 14 11 15 25 16 27 17 12 18 24 19 23 20 13 21 21 22 14 23
REMARK SMILES IDX 15 24 20 25 22 26 16 27 19 28 17 29 18 30
REMARK H PARENT 18 31
REMARK Flexibility Score: inf
ROOT
ATOM      1  C   UNL     1     144.421 134.647 151.630  1.00  0.00     0.004 C 
ENDROOT
BRANCH   1   2
ATOM      2  C   UNL     1     143.291 135.079 150.668  1.00  0.00     0.004 C 
BRANCH   2   3
ATOM      3  C   UNL     1     142.542 133.953 149.884  1.00  0.00    -0.009 C 
BRANCH   3   4
ATOM      4  C   UNL     1     143.260 132.602 150.165  1.00  0.00     0.000 C 
ATOM      5  C   UNL     1     142.382 131.548 150.841  1.00  0.00     0.004 C 
ENDBRANCH   3   4
BRANCH   3   6
ATOM      6  C   UNL     1     142.345 134.229 148.351  1.00  0.00    -0.014 C 
ATOM      7  C   UNL     1     140.878 134.387 147.923  1.00  0.00     0.007 C 
ATOM      8  C   UNL     1     143.052 133.201 147.454  1.00  0.00     0.007 C 
ENDBRANCH   3   6
ENDBRANCH   2   3
ENDBRANCH   1   2
BRANCH   1   9
ATOM      9  C   UNL     1     145.874 134.848 151.118  1.00  0.00    -0.011 C 
ATOM     10  C   UNL     1     146.753 133.639 151.498  1.00  0.00     0.008 C 
BRANCH   9  11
ATOM     11  C   UNL     1     145.864 135.192 149.583  1.00  0.00    -0.002 C 
ATOM     12  C   UNL     1     146.399 134.110 148.633  1.00  0.00     0.005 C 
ATOM     13  C   UNL     1     146.506 136.544 149.129  1.00  0.00    -0.026 C 
ATOM     14  C   UNL     1     147.059 134.825 147.458  1.00  0.00     0.005 C 
ATOM     15  C   UNL     1     146.839 136.344 147.620  1.00  0.00    -0.001 C 
ATOM     16  C   UNL     1     145.539 137.736 149.361  1.00  0.00     0.007 C 
ATOM     17  C   UNL     1     147.832 136.843 149.876  1.00  0.00     0.012 C 
ATOM     18  C   UNL     1     145.785 136.911 146.607  1.00  0.00     0.000 C 
ATOM     19  C   UNL     1     144.269 137.743 148.479  1.00  0.00     0.005 C 
ATOM     20  C   UNL     1     144.348 136.901 147.165  1.00  0.00     0.003 C 
ATOM     21  C   UNL     1     146.139 138.330 146.125  1.00  0.00     0.031 C 
ATOM     22  C   UNL     1     143.296 137.319 146.059  1.00  0.00    -0.008 C 
ATOM     23  C   UNL     1     145.111 138.848 145.160  1.00  0.00    -0.027 C 
ATOM     24  C   UNL     1     143.819 138.440 145.150  1.00  0.00    -0.065 C 
ATOM     25  C   UNL     1     142.987 136.089 145.143  1.00  0.00     0.014 C 
ATOM     26  C   UNL     1     141.964 137.765 146.732  1.00  0.00     0.016 C 
ATOM     27  C   UNL     1     142.945 138.835 143.982  1.00  0.00     0.063 C 
ATOM     28  C   UNL     1     142.135 136.425 143.899  1.00  0.00     0.033 C 
ATOM     29  C   UNL     1     142.718 137.605 143.092  1.00  0.00     0.118 C 
BRANCH  29  30
ATOM     30  O   UNL     1     141.843 137.950 142.051  1.00  0.00    -0.393 OA
ATOM     31  H   UNL     1     141.823 138.941 142.008  1.00  0.00     0.210 HD
ENDBRANCH  29  30
ENDBRANCH   9  11
ENDBRANCH   1   9
TORSDOF 7
ENDMDL
