MODEL 1
REMARK VINA RESULT:    -4.679      0.000      0.000
REMARK INTER + INTRA:         -10.015
REMARK INTER:                  -8.509
REMARK INTRA:                  -1.506
REMARK UNBOUND:                -1.506
REMARK SMILES CCCCCCCCCCCCCCCC(=O)[O-]
REMARK SMILES IDX 9 1 10 2 11 3 12 4 13 5 14 6 15 7 16 8 17 9 18 10 8 11 7 12
REMARK SMILES IDX 6 13 5 14 4 15 3 16 2 17 1 18
REMARK H PARENT
REMARK Flexibility Score: inf
ROOT
ATOM      1  C   UNL     1       2.831 -12.944   4.053  1.00  0.00     0.000 C 
ENDROOT
BRANCH   1   2
ATOM      2  C   UNL     1       3.405 -12.227   2.818  1.00  0.00     0.000 C 
BRANCH   2   3
ATOM      3  C   UNL     1       3.164 -12.942   1.476  1.00  0.00     0.000 C 
BRANCH   3   4
ATOM      4  C   UNL     1       4.464 -13.264   0.724  1.00  0.00     0.000 C 
BRANCH   4   5
ATOM      5  C   UNL     1       5.320 -12.003   0.539  1.00  0.00     0.000 C 
BRANCH   5   6
ATOM      6  C   UNL     1       6.712 -12.297  -0.049  1.00  0.00     0.006 C 
BRANCH   6   7
ATOM      7  C   UNL     1       7.677 -12.977   0.938  1.00  0.00     0.053 C 
BRANCH   7   8
ATOM      8  C   UNL     1       8.216 -14.276   0.419  1.00  0.00     0.041 C 
ATOM      9  O   UNL     1       9.429 -14.572   0.584  1.00  0.00    -0.550 OA
ATOM     10  O   UNL     1       7.371 -15.176  -0.217  1.00  0.00    -0.550 OA
ENDBRANCH   7   8
ENDBRANCH   6   7
ENDBRANCH   5   6
ENDBRANCH   4   5
ENDBRANCH   3   4
ENDBRANCH   2   3
ENDBRANCH   1   2
BRANCH   1  11
ATOM     11  C   UNL     1       3.609 -14.219   4.420  1.00  0.00     0.000 C 
BRANCH  11  12
ATOM     12  C   UNL     1       4.976 -13.915   5.054  1.00  0.00    -0.000 C 
BRANCH  12  13
ATOM     13  C   UNL     1       4.863 -13.459   6.517  1.00  0.00    -0.000 C 
BRANCH  13  14
ATOM     14  C   UNL     1       5.985 -12.476   6.873  1.00  0.00    -0.000 C 
BRANCH  14  15
ATOM     15  C   UNL     1       5.443 -11.049   7.020  1.00  0.00    -0.000 C 
BRANCH  15  16
ATOM     16  C   UNL     1       3.908 -11.039   7.000  1.00  0.00    -0.000 C 
BRANCH  16  17
ATOM     17  C   UNL     1       3.334  -9.762   6.369  1.00  0.00    -0.003 C 
ATOM     18  C   UNL     1       4.419  -8.798   5.891  1.00  0.00     0.004 C 
ENDBRANCH  16  17
ENDBRANCH  15  16
ENDBRANCH  14  15
ENDBRANCH  13  14
ENDBRANCH  12  13
ENDBRANCH  11  12
ENDBRANCH   1  11
TORSDOF 14
ENDMDL
MODEL 2
REMARK VINA RESULT:    -4.651      3.128      6.829
REMARK INTER + INTRA:          -9.964
REMARK INTER:                  -8.520
REMARK INTRA:                  -1.444
REMARK UNBOUND:                -1.506
REMARK SMILES CCCCCCCCCCCCCCCC(=O)[O-]
REMARK SMILES IDX 9 1 10 2 11 3 12 4 13 5 14 6 15 7 16 8 17 9 18 10 8 11 7 12
REMARK SMILES IDX 6 13 5 14 4 15 3 16 2 17 1 18
REMARK H PARENT
REMARK Flexibility Score: inf
ROOT
ATOM      1  C   UNL     1       3.675 -14.249   4.134  1.00  0.00     0.000 C 
ENDROOT
BRANCH   1   2
ATOM      2  C   UNL     1       4.957 -14.122   4.977  1.00  0.00     0.000 C 
BRANCH   2   3
ATOM      3  C   UNL     1       4.774 -13.439   6.345  1.00  0.00     0.000 C 
BRANCH   3   4
ATOM      4  C   UNL     1       5.917 -12.472   6.691  1.00  0.00     0.000 C 
BRANCH   4   5
ATOM      5  C   UNL     1       5.373 -11.077   7.032  1.00  0.00     0.000 C 
BRANCH   5   6
ATOM      6  C   UNL     1       3.841 -10.981   6.916  1.00  0.00     0.006 C 
BRANCH   6   7
ATOM      7  C   UNL     1       3.307  -9.537   6.874  1.00  0.00     0.053 C 
BRANCH   7   8
ATOM      8  C   UNL     1       3.622  -8.840   5.585  1.00  0.00     0.041 C 
ATOM      9  O   UNL     1       2.901  -9.026   4.569  1.00  0.00    -0.550 OA
ATOM     10  O   UNL     1       4.691  -7.956   5.515  1.00  0.00    -0.550 OA
ENDBRANCH   7   8
ENDBRANCH   6   7
ENDBRANCH   5   6
ENDBRANCH   4   5
ENDBRANCH   3   4
ENDBRANCH   2   3
ENDBRANCH   1   2
BRANCH   1  11
ATOM     11  C   UNL     1       3.000 -12.894   3.861  1.00  0.00     0.000 C 
BRANCH  11  12
ATOM     12  C   UNL     1       3.800 -12.023   2.878  1.00  0.00    -0.000 C 
BRANCH  12  13
ATOM     13  C   UNL     1       4.355 -12.826   1.691  1.00  0.00    -0.000 C 
BRANCH  13  14
ATOM     14  C   UNL     1       4.908 -11.891   0.609  1.00  0.00    -0.000 C 
BRANCH  14  15
ATOM     15  C   UNL     1       6.260 -12.392   0.084  1.00  0.00    -0.000 C 
BRANCH  15  16
ATOM     16  C   UNL     1       7.106 -12.981   1.222  1.00  0.00    -0.000 C 
BRANCH  16  17
ATOM     17  C   UNL     1       8.259 -13.856   0.707  1.00  0.00    -0.003 C 
ATOM     18  C   UNL     1       7.805 -14.884  -0.329  1.00  0.00     0.004 C 
ENDBRANCH  16  17
ENDBRANCH  15  16
ENDBRANCH  14  15
ENDBRANCH  13  14
ENDBRANCH  12  13
ENDBRANCH  11  12
ENDBRANCH   1  11
TORSDOF 14
ENDMDL
MODEL 3
REMARK VINA RESULT:    -4.620      3.245      6.546
REMARK INTER + INTRA:          -9.907
REMARK INTER:                  -8.130
REMARK INTRA:                  -1.776
REMARK UNBOUND:                -1.506
REMARK SMILES CCCCCCCCCCCCCCCC(=O)[O-]
REMARK SMILES IDX 9 1 10 2 11 3 12 4 13 5 14 6 15 7 16 8 17 9 18 10 8 11 7 12
REMARK SMILES IDX 6 13 5 14 4 15 3 16 2 17 1 18
REMARK H PARENT
REMARK Flexibility Score: inf
ROOT
ATOM      1  C   UNL     1       3.183 -10.641   3.176  1.00  0.00     0.000 C 
ENDROOT
BRANCH   1   2
ATOM      2  C   UNL     1       2.199 -11.685   3.734  1.00  0.00     0.000 C 
BRANCH   2   3
ATOM      3  C   UNL     1       2.829 -13.035   4.122  1.00  0.00     0.000 C 
BRANCH   3   4
ATOM      4  C   UNL     1       4.364 -13.012   4.092  1.00  0.00     0.000 C 
BRANCH   4   5
ATOM      5  C   UNL     1       4.950 -13.902   5.199  1.00  0.00     0.000 C 
BRANCH   5   6
ATOM      6  C   UNL     1       4.986 -13.211   6.574  1.00  0.00     0.006 C 
BRANCH   6   7
ATOM      7  C   UNL     1       5.717 -11.856   6.574  1.00  0.00     0.053 C 
BRANCH   7   8
ATOM      8  C   UNL     1       4.801 -10.704   6.860  1.00  0.00     0.041 C 
ATOM      9  O   UNL     1       5.259  -9.535   6.947  1.00  0.00    -0.550 OA
ATOM     10  O   UNL     1       3.435 -10.918   6.994  1.00  0.00    -0.550 OA
ENDBRANCH   7   8
ENDBRANCH   6   7
ENDBRANCH   5   6
ENDBRANCH   4   5
ENDBRANCH   3   4
ENDBRANCH   2   3
ENDBRANCH   1   2
BRANCH   1  11
ATOM     11  C   UNL     1       3.062 -10.459   1.653  1.00  0.00     0.000 C 
BRANCH  11  12
ATOM     12  C   UNL     1       4.163 -11.203   0.881  1.00  0.00    -0.000 C 
BRANCH  12  13
ATOM     13  C   UNL     1       3.685 -12.549   0.315  1.00  0.00    -0.000 C 
BRANCH  13  14
ATOM     14  C   UNL     1       4.790 -13.608   0.411  1.00  0.00    -0.000 C 
BRANCH  14  15
ATOM     15  C   UNL     1       6.163 -13.003   0.090  1.00  0.00    -0.000 C 
BRANCH  15  16
ATOM     16  C   UNL     1       7.160 -13.269   1.227  1.00  0.00    -0.000 C 
BRANCH  16  17
ATOM     17  C   UNL     1       8.545 -13.688   0.711  1.00  0.00    -0.003 C 
ATOM     18  C   UNL     1       8.523 -15.028  -0.025  1.00  0.00     0.004 C 
ENDBRANCH  16  17
ENDBRANCH  15  16
ENDBRANCH  14  15
ENDBRANCH  13  14
ENDBRANCH  12  13
ENDBRANCH  11  12
ENDBRANCH   1  11
TORSDOF 14
ENDMDL
MODEL 4
REMARK VINA RESULT:    -4.541      3.157      6.935
REMARK INTER + INTRA:          -9.764
REMARK INTER:                  -8.454
REMARK INTRA:                  -1.309
REMARK UNBOUND:                -1.506
REMARK SMILES CCCCCCCCCCCCCCCC(=O)[O-]
REMARK SMILES IDX 9 1 10 2 11 3 12 4 13 5 14 6 15 7 16 8 17 9 18 10 8 11 7 12
REMARK SMILES IDX 6 13 5 14 4 15 3 16 2 17 1 18
REMARK H PARENT
REMARK Flexibility Score: inf
ROOT
ATOM      1  C   UNL     1       3.822 -12.558   3.247  1.00  0.00     0.000 C 
ENDROOT
BRANCH   1   2
ATOM      2  C   UNL     1       5.066 -13.352   3.685  1.00  0.00     0.000 C 
BRANCH   2   3
ATOM      3  C   UNL     1       4.903 -14.153   4.989  1.00  0.00     0.000 C 
BRANCH   3   4
ATOM      4  C   UNL     1       4.584 -13.267   6.203  1.00  0.00     0.000 C 
BRANCH   4   5
ATOM      5  C   UNL     1       5.868 -12.689   6.815  1.00  0.00     0.000 C 
BRANCH   5   6
ATOM      6  C   UNL     1       5.718 -11.223   7.263  1.00  0.00     0.006 C 
BRANCH   6   7
ATOM      7  C   UNL     1       4.334 -10.617   6.965  1.00  0.00     0.053 C 
BRANCH   7   8
ATOM      8  C   UNL     1       4.419  -9.327   6.206  1.00  0.00     0.041 C 
ATOM      9  O   UNL     1       5.098  -8.367   6.657  1.00  0.00    -0.550 OA
ATOM     10  O   UNL     1       3.775  -9.197   4.982  1.00  0.00    -0.550 OA
ENDBRANCH   7   8
ENDBRANCH   6   7
ENDBRANCH   5   6
ENDBRANCH   4   5
ENDBRANCH   3   4
ENDBRANCH   2   3
ENDBRANCH   1   2
BRANCH   1  11
ATOM     11  C   UNL     1       3.225 -13.062   1.922  1.00  0.00     0.000 C 
BRANCH  11  12
ATOM     12  C   UNL     1       4.271 -13.152   0.800  1.00  0.00    -0.000 C 
BRANCH  12  13
ATOM     13  C   UNL     1       4.878 -11.786   0.442  1.00  0.00    -0.000 C 
BRANCH  13  14
ATOM     14  C   UNL     1       6.320 -11.941  -0.057  1.00  0.00    -0.000 C 
BRANCH  14  15
ATOM     15  C   UNL     1       6.818 -13.379   0.133  1.00  0.00    -0.000 C 
BRANCH  15  16
ATOM     16  C   UNL     1       8.127 -13.406   0.936  1.00  0.00    -0.000 C 
BRANCH  16  17
ATOM     17  C   UNL     1       9.120 -14.454   0.411  1.00  0.00    -0.003 C 
ATOM     18  C   UNL     1       8.428 -15.693  -0.157  1.00  0.00     0.004 C 
ENDBRANCH  16  17
ENDBRANCH  15  16
ENDBRANCH  14  15
ENDBRANCH  13  14
ENDBRANCH  12  13
ENDBRANCH  11  12
ENDBRANCH   1  11
TORSDOF 14
ENDMDL
MODEL 5
REMARK VINA RESULT:    -4.499      1.094      2.345
REMARK INTER + INTRA:          -9.687
REMARK INTER:                  -7.997
REMARK INTRA:                  -1.690
REMARK UNBOUND:                -1.506
REMARK SMILES CCCCCCCCCCCCCCCC(=O)[O-]
REMARK SMILES IDX 9 1 10 2 11 3 12 4 13 5 14 6 15 7 16 8 17 9 18 10 8 11 7 12
REMARK SMILES IDX 6 13 5 14 4 15 3 16 2 17 1 18
REMARK H PARENT
REMARK Flexibility Score: inf
ROOT
ATOM      1  C   UNL     1       2.908 -10.978   2.605  1.00  0.00     0.000 C 
ENDROOT
BRANCH   1   2
ATOM      2  C   UNL     1       3.655 -10.973   1.259  1.00  0.00     0.000 C 
BRANCH   2   3
ATOM      3  C   UNL     1       3.316 -12.144   0.318  1.00  0.00     0.000 C 
BRANCH   3   4
ATOM      4  C   UNL     1       4.492 -13.111   0.114  1.00  0.00     0.000 C 
BRANCH   4   5
ATOM      5  C   UNL     1       5.812 -12.477   0.576  1.00  0.00     0.000 C 
BRANCH   5   6
ATOM      6  C   UNL     1       6.767 -13.486   1.240  1.00  0.00     0.006 C 
BRANCH   6   7
ATOM      7  C   UNL     1       8.240 -13.317   0.828  1.00  0.00     0.053 C 
BRANCH   7   8
ATOM      8  C   UNL     1       8.861 -14.598   0.359  1.00  0.00     0.041 C 
ATOM      9  O   UNL     1       8.208 -15.674   0.401  1.00  0.00    -0.550 OA
ATOM     10  O   UNL     1      10.150 -14.598  -0.159  1.00  0.00    -0.550 OA
ENDBRANCH   7   8
ENDBRANCH   6   7
ENDBRANCH   5   6
ENDBRANCH   4   5
ENDBRANCH   3   4
ENDBRANCH   2   3
ENDBRANCH   1   2
BRANCH   1  11
ATOM     11  C   UNL     1       1.940 -12.165   2.747  1.00  0.00     0.000 C 
BRANCH  11  12
ATOM     12  C   UNL     1       2.322 -13.103   3.903  1.00  0.00    -0.000 C 
BRANCH  12  13
ATOM     13  C   UNL     1       3.353 -14.165   3.490  1.00  0.00    -0.000 C 
BRANCH  13  14
ATOM     14  C   UNL     1       4.479 -14.268   4.526  1.00  0.00    -0.000 C 
BRANCH  14  15
ATOM     15  C   UNL     1       4.739 -12.912   5.195  1.00  0.00    -0.000 C 
BRANCH  15  16
ATOM     16  C   UNL     1       5.492 -13.089   6.521  1.00  0.00    -0.000 C 
BRANCH  16  17
ATOM     17  C   UNL     1       5.817 -11.749   7.199  1.00  0.00    -0.003 C 
ATOM     18  C   UNL     1       4.837 -10.640   6.818  1.00  0.00     0.004 C 
ENDBRANCH  16  17
ENDBRANCH  15  16
ENDBRANCH  14  15
ENDBRANCH  13  14
ENDBRANCH  12  13
ENDBRANCH  11  12
ENDBRANCH   1  11
TORSDOF 14
ENDMDL
MODEL 6
REMARK VINA RESULT:    -4.458      3.682      6.816
REMARK INTER + INTRA:          -9.612
REMARK INTER:                  -7.525
REMARK INTRA:                  -2.087
REMARK UNBOUND:                -1.506
REMARK SMILES CCCCCCCCCCCCCCCC(=O)[O-]
REMARK SMILES IDX 9 1 10 2 11 3 12 4 13 5 14 6 15 7 16 8 17 9 18 10 8 11 7 12
REMARK SMILES IDX 6 13 5 14 4 15 3 16 2 17 1 18
REMARK H PARENT
REMARK Flexibility Score: inf
ROOT
ATOM      1  C   UNL     1       4.885 -13.797   4.854  1.00  0.00     0.000 C 
ENDROOT
BRANCH   1   2
ATOM      2  C   UNL     1       5.079 -13.518   6.356  1.00  0.00     0.000 C 
BRANCH   2   3
ATOM      3  C   UNL     1       5.664 -12.134   6.693  1.00  0.00     0.000 C 
BRANCH   3   4
ATOM      4  C   UNL     1       4.598 -11.125   7.148  1.00  0.00     0.000 C 
BRANCH   4   5
ATOM      5  C   UNL     1       4.863  -9.737   6.549  1.00  0.00     0.000 C 
BRANCH   5   6
ATOM      6  C   UNL     1       3.573  -8.976   6.194  1.00  0.00     0.006 C 
BRANCH   6   7
ATOM      7  C   UNL     1       2.285  -9.788   6.420  1.00  0.00     0.053 C 
BRANCH   7   8
ATOM      8  C   UNL     1       1.164  -9.360   5.521  1.00  0.00     0.041 C 
ATOM      9  O   UNL     1       0.422 -10.219   4.976  1.00  0.00    -0.550 OA
ATOM     10  O   UNL     1       0.918  -8.009   5.312  1.00  0.00    -0.550 OA
ENDBRANCH   7   8
ENDBRANCH   6   7
ENDBRANCH   5   6
ENDBRANCH   4   5
ENDBRANCH   3   4
ENDBRANCH   2   3
ENDBRANCH   1   2
BRANCH   1  11
ATOM     11  C   UNL     1       3.426 -14.116   4.488  1.00  0.00     0.000 C 
BRANCH  11  12
ATOM     12  C   UNL     1       2.680 -12.898   3.920  1.00  0.00    -0.000 C 
BRANCH  12  13
ATOM     13  C   UNL     1       3.625 -11.750   3.535  1.00  0.00    -0.000 C 
BRANCH  13  14
ATOM     14  C   UNL     1       2.972 -10.826   2.499  1.00  0.00    -0.000 C 
BRANCH  14  15
ATOM     15  C   UNL     1       3.763 -10.824   1.185  1.00  0.00    -0.000 C 
BRANCH  15  16
ATOM     16  C   UNL     1       4.200 -12.246   0.804  1.00  0.00    -0.000 C 
BRANCH  16  17
ATOM     17  C   UNL     1       5.708 -12.347   0.531  1.00  0.00    -0.003 C 
ATOM     18  C   UNL     1       6.401 -13.388   1.412  1.00  0.00     0.004 C 
ENDBRANCH  16  17
ENDBRANCH  15  16
ENDBRANCH  14  15
ENDBRANCH  13  14
ENDBRANCH  12  13
ENDBRANCH  11  12
ENDBRANCH   1  11
TORSDOF 14
ENDMDL
MODEL 7
REMARK VINA RESULT:    -4.449      3.605      6.551
REMARK INTER + INTRA:          -9.596
REMARK INTER:                  -7.733
REMARK INTRA:                  -1.863
REMARK UNBOUND:                -1.506
REMARK SMILES CCCCCCCCCCCCCCCC(=O)[O-]
REMARK SMILES IDX 9 1 10 2 11 3 12 4 13 5 14 6 15 7 16 8 17 9 18 10 8 11 7 12
REMARK SMILES IDX 6 13 5 14 4 15 3 16 2 17 1 18
REMARK H PARENT
REMARK Flexibility Score: inf
ROOT
ATOM      1  C   UNL     1       3.077 -14.210   3.124  1.00  0.00     0.000 C 
ENDROOT
BRANCH   1   2
ATOM      2  C   UNL     1       3.500 -14.491   4.577  1.00  0.00     0.000 C 
BRANCH   2   3
ATOM      3  C   UNL     1       4.891 -13.958   4.967  1.00  0.00     0.000 C 
BRANCH   3   4
ATOM      4  C   UNL     1       4.970 -13.500   6.431  1.00  0.00     0.000 C 
BRANCH   4   5
ATOM      5  C   UNL     1       6.023 -12.396   6.607  1.00  0.00     0.000 C 
BRANCH   5   6
ATOM      6  C   UNL     1       5.436 -11.084   7.159  1.00  0.00     0.006 C 
BRANCH   6   7
ATOM      7  C   UNL     1       3.925 -10.922   6.914  1.00  0.00     0.053 C 
BRANCH   7   8
ATOM      8  C   UNL     1       3.492  -9.487   6.898  1.00  0.00     0.041 C 
ATOM      9  O   UNL     1       4.319  -8.576   6.632  1.00  0.00    -0.550 OA
ATOM     10  O   UNL     1       2.164  -9.159   7.141  1.00  0.00    -0.550 OA
ENDBRANCH   7   8
ENDBRANCH   6   7
ENDBRANCH   5   6
ENDBRANCH   4   5
ENDBRANCH   3   4
ENDBRANCH   2   3
ENDBRANCH   1   2
BRANCH   1  11
ATOM     11  C   UNL     1       1.867 -13.267   3.024  1.00  0.00     0.000 C 
BRANCH  11  12
ATOM     12  C   UNL     1       2.044 -11.988   3.859  1.00  0.00    -0.000 C 
BRANCH  12  13
ATOM     13  C   UNL     1       3.026 -10.994   3.220  1.00  0.00    -0.000 C 
BRANCH  13  14
ATOM     14  C   UNL     1       2.865 -10.967   1.695  1.00  0.00    -0.000 C 
BRANCH  14  15
ATOM     15  C   UNL     1       4.224 -11.086   0.994  1.00  0.00    -0.000 C 
BRANCH  15  16
ATOM     16  C   UNL     1       4.354 -12.437   0.275  1.00  0.00    -0.000 C 
BRANCH  16  17
ATOM     17  C   UNL     1       5.811 -12.912   0.171  1.00  0.00    -0.003 C 
ATOM     18  C   UNL     1       6.368 -13.409   1.504  1.00  0.00     0.004 C 
ENDBRANCH  16  17
ENDBRANCH  15  16
ENDBRANCH  14  15
ENDBRANCH  13  14
ENDBRANCH  12  13
ENDBRANCH  11  12
ENDBRANCH   1  11
TORSDOF 14
ENDMDL
MODEL 8
REMARK VINA RESULT:    -4.437      1.428      3.313
REMARK INTER + INTRA:          -9.574
REMARK INTER:                  -7.477
REMARK INTRA:                  -2.097
REMARK UNBOUND:                -1.506
REMARK SMILES CCCCCCCCCCCCCCCC(=O)[O-]
REMARK SMILES IDX 9 1 10 2 11 3 12 4 13 5 14 6 15 7 16 8 17 9 18 10 8 11 7 12
REMARK SMILES IDX 6 13 5 14 4 15 3 16 2 17 1 18
REMARK H PARENT
REMARK Flexibility Score: inf
ROOT
ATOM      1  C   UNL     1       2.690 -10.394   5.419  1.00  0.00     0.000 C 
ENDROOT
BRANCH   1   2
ATOM      2  C   UNL     1       2.132 -10.250   3.992  1.00  0.00     0.000 C 
BRANCH   2   3
ATOM      3  C   UNL     1       3.149 -10.505   2.864  1.00  0.00     0.000 C 
BRANCH   3   4
ATOM      4  C   UNL     1       2.484 -10.786   1.508  1.00  0.00     0.000 C 
BRANCH   4   5
ATOM      5  C   UNL     1       3.329 -11.758   0.672  1.00  0.00     0.000 C 
BRANCH   5   6
ATOM      6  C   UNL     1       4.604 -12.227   1.395  1.00  0.00     0.006 C 
BRANCH   6   7
ATOM      7  C   UNL     1       5.181 -13.547   0.853  1.00  0.00     0.053 C 
BRANCH   7   8
ATOM      8  C   UNL     1       6.589 -13.404   0.358  1.00  0.00     0.041 C 
ATOM      9  O   UNL     1       7.336 -14.413   0.267  1.00  0.00    -0.550 OA
ATOM     10  O   UNL     1       7.063 -12.160  -0.038  1.00  0.00    -0.550 OA
ENDBRANCH   7   8
ENDBRANCH   6   7
ENDBRANCH   5   6
ENDBRANCH   4   5
ENDBRANCH   3   4
ENDBRANCH   2   3
ENDBRANCH   1   2
BRANCH   1  11
ATOM     11  C   UNL     1       3.626  -9.240   5.816  1.00  0.00     0.000 C 
BRANCH  11  12
ATOM     12  C   UNL     1       4.902  -9.729   6.519  1.00  0.00    -0.000 C 
BRANCH  12  13
ATOM     13  C   UNL     1       4.696 -11.055   7.269  1.00  0.00    -0.000 C 
BRANCH  13  14
ATOM     14  C   UNL     1       5.801 -12.059   6.920  1.00  0.00    -0.000 C 
BRANCH  14  15
ATOM     15  C   UNL     1       5.209 -13.365   6.376  1.00  0.00    -0.000 C 
BRANCH  15  16
ATOM     16  C   UNL     1       4.939 -13.261   4.868  1.00  0.00    -0.000 C 
BRANCH  16  17
ATOM     17  C   UNL     1       4.081 -14.420   4.341  1.00  0.00    -0.003 C 
ATOM     18  C   UNL     1       2.624 -14.020   4.106  1.00  0.00     0.004 C 
ENDBRANCH  16  17
ENDBRANCH  15  16
ENDBRANCH  14  15
ENDBRANCH  13  14
ENDBRANCH  12  13
ENDBRANCH  11  12
ENDBRANCH   1  11
TORSDOF 14
ENDMDL
MODEL 9
REMARK VINA RESULT:    -4.430      4.583      7.503
REMARK INTER + INTRA:          -9.562
REMARK INTER:                  -8.070
REMARK INTRA:                  -1.492
REMARK UNBOUND:                -1.506
REMARK SMILES CCCCCCCCCCCCCCCC(=O)[O-]
REMARK SMILES IDX 9 1 10 2 11 3 12 4 13 5 14 6 15 7 16 8 17 9 18 10 8 11 7 12
REMARK SMILES IDX 6 13 5 14 4 15 3 16 2 17 1 18
REMARK H PARENT
REMARK Flexibility Score: inf
ROOT
ATOM      1  C   UNL     1       4.851 -13.421   6.238  1.00  0.00     0.000 C 
ENDROOT
BRANCH   1   2
ATOM      2  C   UNL     1       5.984 -12.426   6.552  1.00  0.00     0.000 C 
BRANCH   2   3
ATOM      3  C   UNL     1       5.538 -11.124   7.241  1.00  0.00     0.000 C 
BRANCH   3   4
ATOM      4  C   UNL     1       4.140 -10.661   6.804  1.00  0.00     0.000 C 
BRANCH   4   5
ATOM      5  C   UNL     1       4.231  -9.449   5.865  1.00  0.00     0.000 C 
BRANCH   5   6
ATOM      6  C   UNL     1       4.235  -8.103   6.613  1.00  0.00     0.006 C 
BRANCH   6   7
ATOM      7  C   UNL     1       2.829  -7.545   6.904  1.00  0.00     0.053 C 
BRANCH   7   8
ATOM      8  C   UNL     1       2.856  -6.119   7.363  1.00  0.00     0.041 C 
ATOM      9  O   UNL     1       3.137  -5.195   6.555  1.00  0.00    -0.550 OA
ATOM     10  O   UNL     1       2.537  -5.806   8.679  1.00  0.00    -0.550 OA
ENDBRANCH   7   8
ENDBRANCH   6   7
ENDBRANCH   5   6
ENDBRANCH   4   5
ENDBRANCH   3   4
ENDBRANCH   2   3
ENDBRANCH   1   2
BRANCH   1  11
ATOM     11  C   UNL     1       4.755 -13.767   4.743  1.00  0.00     0.000 C 
BRANCH  11  12
ATOM     12  C   UNL     1       3.302 -13.889   4.257  1.00  0.00    -0.000 C 
BRANCH  12  13
ATOM     13  C   UNL     1       2.788 -12.602   3.591  1.00  0.00    -0.000 C 
BRANCH  13  14
ATOM     14  C   UNL     1       3.950 -11.772   3.034  1.00  0.00    -0.000 C 
BRANCH  14  15
ATOM     15  C   UNL     1       3.612 -11.209   1.647  1.00  0.00    -0.000 C 
BRANCH  15  16
ATOM     16  C   UNL     1       4.013 -12.196   0.542  1.00  0.00    -0.000 C 
BRANCH  16  17
ATOM     17  C   UNL     1       5.343 -12.905   0.838  1.00  0.00    -0.003 C 
ATOM     18  C   UNL     1       6.528 -12.269   0.111  1.00  0.00     0.004 C 
ENDBRANCH  16  17
ENDBRANCH  15  16
ENDBRANCH  14  15
ENDBRANCH  13  14
ENDBRANCH  12  13
ENDBRANCH  11  12
ENDBRANCH   1  11
TORSDOF 14
ENDMDL
