MODEL 1
REMARK VINA RESULT:    -4.309      0.000      0.000
REMARK INTER + INTRA:          -6.195
REMARK INTER:                  -6.324
REMARK INTRA:                   0.130
REMARK UNBOUND:                 0.130
REMARK SMILES O=c1c(O[C@H]2O[C@@H](CO)[C@H](O)[C@@H](O)[C@H]2O)c(-c2ccc(O)c(O)c2)oc2cc(O)cc(O)c12
REMARK SMILES IDX 4 1 3 2 16 3 25 4 2 5 26 6 1 7 33 8 27 9 31 10 28 11 30 12
REMARK SMILES IDX 17 13 18 14 19 15 20 16 24 17 22 18 21 19 23 21 32 23 29 25
REMARK SMILES IDX 5 27 14 28 6 29 12 30 7 31 10 32 15 33 13 35 8 37 9 38 11 40
REMARK H PARENT 21 20 23 22 32 24 29 26 15 34 13 36 9 39 11 41
REMARK Flexibility Score: inf
ROOT
ATOM      1  O   UNL     1     -11.818  61.272  40.616  1.00  0.00    -0.454 OA
ENDROOT
BRANCH   1   2
ATOM      2  C   UNL     1     -10.829  62.246  40.846  1.00  0.00     0.214 A 
ATOM      3  C   UNL     1     -10.267  62.365  42.132  1.00  0.00     0.180 A 
ATOM      4  O   UNL     1      -9.388  63.330  42.385  1.00  0.00    -0.452 OA
ATOM      5  C   UNL     1     -10.385  63.115  39.833  1.00  0.00     0.239 A 
ATOM      6  C   UNL     1      -8.979  64.202  41.472  1.00  0.00     0.146 A 
ATOM      7  O   UNL     1     -10.791  62.960  38.650  1.00  0.00    -0.285 OA
ATOM      8  C   UNL     1      -9.461  64.136  40.146  1.00  0.00     0.111 A 
ATOM      9  C   UNL     1      -8.057  65.185  41.838  1.00  0.00     0.094 A 
ATOM     10  C   UNL     1      -9.002  65.080  39.197  1.00  0.00     0.134 A 
ATOM     11  C   UNL     1      -7.613  66.123  40.900  1.00  0.00     0.123 A 
ATOM     12  C   UNL     1      -8.085  66.068  39.587  1.00  0.00     0.093 A 
BRANCH   3  13
ATOM     13  C   UNL     1     -10.663  61.476  43.251  1.00  0.00     0.025 A 
ATOM     14  C   UNL     1      -9.727  61.004  44.188  1.00  0.00     0.016 A 
ATOM     15  C   UNL     1     -10.129  60.155  45.224  1.00  0.00     0.051 A 
ATOM     16  C   UNL     1     -11.473  59.791  45.359  1.00  0.00     0.157 A 
ATOM     17  C   UNL     1     -12.014  61.119  43.401  1.00  0.00     0.062 A 
ATOM     18  C   UNL     1     -12.421  60.278  44.444  1.00  0.00     0.158 A 
BRANCH  16  19
ATOM     19  O   UNL     1     -11.871  58.960  46.404  1.00  0.00    -0.504 OA
ATOM     20  H   UNL     1     -11.708  57.961  46.381  1.00  0.00     0.293 HD
ENDBRANCH  16  19
BRANCH  18  21
ATOM     21  O   UNL     1     -13.769  59.941  44.554  1.00  0.00    -0.504 OA
ATOM     22  H   UNL     1     -14.507  60.629  44.458  1.00  0.00     0.293 HD
ENDBRANCH  18  21
ENDBRANCH   3  13
BRANCH  10  23
ATOM     23  O   UNL     1      -9.447  65.046  37.875  1.00  0.00    -0.507 OA
ATOM     24  H   UNL     1     -10.026  64.287  37.526  1.00  0.00     0.293 HD
ENDBRANCH  10  23
BRANCH  11  25
ATOM     25  O   UNL     1      -6.714  67.125  41.269  1.00  0.00    -0.508 OA
ATOM     26  H   UNL     1      -7.024  67.966  41.745  1.00  0.00     0.293 HD
ENDBRANCH  11  25
ENDBRANCH   1   2
BRANCH   1  27
ATOM     27  C   UNL     1     -13.220  61.522  40.455  1.00  0.00     0.339 C 
ATOM     28  C   UNL     1     -14.014  60.184  40.270  1.00  0.00     0.214 C 
ATOM     29  O   UNL     1     -13.363  62.400  39.346  1.00  0.00    -0.332 OA
ATOM     30  C   UNL     1     -14.419  59.965  38.802  1.00  0.00     0.180 C 
ATOM     31  C   UNL     1     -14.716  62.504  38.945  1.00  0.00     0.179 C 
ATOM     32  C   UNL     1     -15.175  61.196  38.241  1.00  0.00     0.177 C 
BRANCH  28  33
ATOM     33  O   UNL     1     -13.294  59.067  40.726  1.00  0.00    -0.384 OA
ATOM     34  H   UNL     1     -13.476  58.330  40.087  1.00  0.00     0.211 HD
ENDBRANCH  28  33
BRANCH  30  35
ATOM     35  O   UNL     1     -13.303  59.633  38.010  1.00  0.00    -0.387 OA
ATOM     36  H   UNL     1     -12.629  60.357  38.098  1.00  0.00     0.211 HD
ENDBRANCH  30  35
BRANCH  31  37
ATOM     37  C   UNL     1     -14.874  63.726  38.037  1.00  0.00     0.191 C 
BRANCH  37  38
ATOM     38  O   UNL     1     -16.118  64.339  38.253  1.00  0.00    -0.394 OA
ATOM     39  H   UNL     1     -16.612  63.750  38.881  1.00  0.00     0.210 HD
ENDBRANCH  37  38
ENDBRANCH  31  37
BRANCH  32  40
ATOM     40  O   UNL     1     -16.554  61.027  38.449  1.00  0.00    -0.387 OA
ATOM     41  H   UNL     1     -16.754  61.369  39.363  1.00  0.00     0.211 HD
ENDBRANCH  32  40
ENDBRANCH   1  27
TORSDOF 12
ENDMDL
MODEL 2
REMARK VINA RESULT:    -3.922      1.671      6.740
REMARK INTER + INTRA:          -5.626
REMARK INTER:                  -6.412
REMARK INTRA:                   0.785
REMARK UNBOUND:                 0.130
REMARK SMILES O=c1c(O[C@H]2O[C@@H](CO)[C@H](O)[C@@H](O)[C@H]2O)c(-c2ccc(O)c(O)c2)oc2cc(O)cc(O)c12
REMARK SMILES IDX 4 1 3 2 16 3 25 4 2 5 26 6 1 7 33 8 27 9 31 10 28 11 30 12
REMARK SMILES IDX 17 13 18 14 19 15 20 16 24 17 22 18 21 19 23 21 32 23 29 25
REMARK SMILES IDX 5 27 14 28 6 29 12 30 7 31 10 32 15 33 13 35 8 37 9 38 11 40
REMARK H PARENT 21 20 23 22 32 24 29 26 15 34 13 36 9 39 11 41
REMARK Flexibility Score: inf
ROOT
ATOM      1  O   UNL     1     -11.353  60.872  39.270  1.00  0.00    -0.454 OA
ENDROOT
BRANCH   1   2
ATOM      2  C   UNL     1     -12.484  61.645  38.952  1.00  0.00     0.214 A 
ATOM      3  C   UNL     1     -12.360  63.046  38.875  1.00  0.00     0.180 A 
ATOM      4  O   UNL     1     -13.436  63.796  38.652  1.00  0.00    -0.452 OA
ATOM      5  C   UNL     1     -13.744  61.065  38.714  1.00  0.00     0.239 A 
ATOM      6  C   UNL     1     -14.651  63.294  38.472  1.00  0.00     0.146 A 
ATOM      7  O   UNL     1     -13.861  59.812  38.670  1.00  0.00    -0.285 OA
ATOM      8  C   UNL     1     -14.864  61.898  38.496  1.00  0.00     0.111 A 
ATOM      9  C   UNL     1     -15.719  64.166  38.252  1.00  0.00     0.094 A 
ATOM     10  C   UNL     1     -16.173  61.397  38.298  1.00  0.00     0.134 A 
ATOM     11  C   UNL     1     -17.013  63.667  38.067  1.00  0.00     0.123 A 
ATOM     12  C   UNL     1     -17.235  62.289  38.091  1.00  0.00     0.093 A 
BRANCH   3  13
ATOM     13  C   UNL     1     -11.065  63.735  39.090  1.00  0.00     0.025 A 
ATOM     14  C   UNL     1     -10.030  63.680  38.140  1.00  0.00     0.016 A 
ATOM     15  C   UNL     1      -8.815  64.329  38.377  1.00  0.00     0.051 A 
ATOM     16  C   UNL     1      -8.626  65.069  39.550  1.00  0.00     0.157 A 
ATOM     17  C   UNL     1     -10.874  64.493  40.258  1.00  0.00     0.062 A 
ATOM     18  C   UNL     1      -9.662  65.154  40.493  1.00  0.00     0.158 A 
BRANCH  16  19
ATOM     19  O   UNL     1      -7.420  65.729  39.773  1.00  0.00    -0.504 OA
ATOM     20  H   UNL     1      -7.118  66.499  39.189  1.00  0.00     0.293 HD
ENDBRANCH  16  19
BRANCH  18  21
ATOM     21  O   UNL     1      -9.510  65.888  41.668  1.00  0.00    -0.504 OA
ATOM     22  H   UNL     1      -9.363  65.444  42.567  1.00  0.00     0.293 HD
ENDBRANCH  18  21
ENDBRANCH   3  13
BRANCH  10  23
ATOM     23  O   UNL     1     -16.426  60.024  38.306  1.00  0.00    -0.507 OA
ATOM     24  H   UNL     1     -17.070  59.596  37.647  1.00  0.00     0.293 HD
ENDBRANCH  10  23
BRANCH  11  25
ATOM     25  O   UNL     1     -18.088  64.536  37.875  1.00  0.00    -0.508 OA
ATOM     26  H   UNL     1     -18.079  65.480  38.248  1.00  0.00     0.293 HD
ENDBRANCH  11  25
ENDBRANCH   1   2
BRANCH   1  27
ATOM     27  C   UNL     1     -10.899  60.553  40.591  1.00  0.00     0.339 C 
ATOM     28  C   UNL     1     -11.886  59.568  41.304  1.00  0.00     0.214 C 
ATOM     29  O   UNL     1     -10.753  61.782  41.290  1.00  0.00    -0.332 OA
ATOM     30  C   UNL     1     -12.756  60.293  42.346  1.00  0.00     0.180 C 
ATOM     31  C   UNL     1     -10.558  61.565  42.675  1.00  0.00     0.179 C 
ATOM     32  C   UNL     1     -11.882  61.096  43.342  1.00  0.00     0.177 C 
BRANCH  28  33
ATOM     33  O   UNL     1     -12.715  58.890  40.395  1.00  0.00    -0.384 OA
ATOM     34  H   UNL     1     -13.431  58.458  40.929  1.00  0.00     0.211 HD
ENDBRANCH  28  33
BRANCH  30  35
ATOM     35  O   UNL     1     -13.720  61.110  41.723  1.00  0.00    -0.387 OA
ATOM     36  H   UNL     1     -14.033  61.783  42.381  1.00  0.00     0.211 HD
ENDBRANCH  30  35
BRANCH  31  37
ATOM     37  C   UNL     1     -10.022  62.850  43.311  1.00  0.00     0.191 C 
BRANCH  37  38
ATOM     38  O   UNL     1      -9.650  62.619  44.643  1.00  0.00    -0.394 OA
ATOM     39  H   UNL     1     -10.401  62.948  45.203  1.00  0.00     0.210 HD
ENDBRANCH  37  38
ENDBRANCH  31  37
BRANCH  32  40
ATOM     40  O   UNL     1     -11.573  60.283  44.446  1.00  0.00    -0.387 OA
ATOM     41  H   UNL     1     -12.280  59.583  44.498  1.00  0.00     0.211 HD
ENDBRANCH  32  40
ENDBRANCH   1  27
TORSDOF 12
ENDMDL
MODEL 3
REMARK VINA RESULT:    -3.712      2.043      5.966
REMARK INTER + INTRA:          -5.318
REMARK INTER:                  -6.202
REMARK INTRA:                   0.884
REMARK UNBOUND:                 0.130
REMARK SMILES O=c1c(O[C@H]2O[C@@H](CO)[C@H](O)[C@@H](O)[C@H]2O)c(-c2ccc(O)c(O)c2)oc2cc(O)cc(O)c12
REMARK SMILES IDX 4 1 3 2 16 3 25 4 2 5 26 6 1 7 33 8 27 9 31 10 28 11 30 12
REMARK SMILES IDX 17 13 18 14 19 15 20 16 24 17 22 18 21 19 23 21 32 23 29 25
REMARK SMILES IDX 5 27 14 28 6 29 12 30 7 31 10 32 15 33 13 35 8 37 9 38 11 40
REMARK H PARENT 21 20 23 22 32 24 29 26 15 34 13 36 9 39 11 41
REMARK Flexibility Score: inf
ROOT
ATOM      1  O   UNL     1     -10.025  61.934  40.950  1.00  0.00    -0.454 OA
ENDROOT
BRANCH   1   2
ATOM      2  C   UNL     1      -9.830  62.398  42.264  1.00  0.00     0.214 A 
ATOM      3  C   UNL     1      -9.324  63.697  42.467  1.00  0.00     0.180 A 
ATOM      4  O   UNL     1      -9.061  64.121  43.700  1.00  0.00    -0.452 OA
ATOM      5  C   UNL     1     -10.117  61.603  43.389  1.00  0.00     0.239 A 
ATOM      6  C   UNL     1      -9.269  63.387  44.785  1.00  0.00     0.146 A 
ATOM      7  O   UNL     1     -10.670  60.481  43.241  1.00  0.00    -0.285 OA
ATOM      8  C   UNL     1      -9.809  62.086  44.680  1.00  0.00     0.111 A 
ATOM      9  C   UNL     1      -8.954  63.920  46.036  1.00  0.00     0.094 A 
ATOM     10  C   UNL     1     -10.020  61.330  45.858  1.00  0.00     0.134 A 
ATOM     11  C   UNL     1      -9.155  63.167  47.197  1.00  0.00     0.123 A 
ATOM     12  C   UNL     1      -9.685  61.879  47.105  1.00  0.00     0.093 A 
BRANCH   3  13
ATOM     13  C   UNL     1      -9.016  64.607  41.338  1.00  0.00     0.025 A 
ATOM     14  C   UNL     1      -9.176  66.001  41.446  1.00  0.00     0.016 A 
ATOM     15  C   UNL     1      -8.889  66.832  40.358  1.00  0.00     0.051 A 
ATOM     16  C   UNL     1      -8.410  66.290  39.161  1.00  0.00     0.157 A 
ATOM     17  C   UNL     1      -8.519  64.072  40.137  1.00  0.00     0.062 A 
ATOM     18  C   UNL     1      -8.221  64.903  39.051  1.00  0.00     0.158 A 
BRANCH  16  19
ATOM     19  O   UNL     1      -8.109  67.125  38.087  1.00  0.00    -0.504 OA
ATOM     20  H   UNL     1      -7.780  66.757  37.202  1.00  0.00     0.293 HD
ENDBRANCH  16  19
BRANCH  18  21
ATOM     21  O   UNL     1      -7.738  64.332  37.875  1.00  0.00    -0.504 OA
ATOM     22  H   UNL     1      -7.923  64.734  36.964  1.00  0.00     0.293 HD
ENDBRANCH  18  21
ENDBRANCH   3  13
BRANCH  10  23
ATOM     23  O   UNL     1     -10.559  60.044  45.801  1.00  0.00    -0.507 OA
ATOM     24  H   UNL     1     -10.512  59.483  44.955  1.00  0.00     0.293 HD
ENDBRANCH  10  23
BRANCH  11  25
ATOM     25  O   UNL     1      -8.814  63.685  48.447  1.00  0.00    -0.508 OA
ATOM     26  H   UNL     1      -8.857  64.681  48.638  1.00  0.00     0.293 HD
ENDBRANCH  11  25
ENDBRANCH   1   2
BRANCH   1  27
ATOM     27  C   UNL     1     -11.093  61.086  40.511  1.00  0.00     0.339 C 
ATOM     28  C   UNL     1     -11.561  61.470  39.066  1.00  0.00     0.214 C 
ATOM     29  O   UNL     1     -12.136  61.196  41.471  1.00  0.00    -0.332 OA
ATOM     30  C   UNL     1     -12.889  62.246  39.089  1.00  0.00     0.180 C 
ATOM     31  C   UNL     1     -13.331  60.601  41.000  1.00  0.00     0.179 C 
ATOM     32  C   UNL     1     -13.972  61.477  39.888  1.00  0.00     0.177 C 
BRANCH  28  33
ATOM     33  O   UNL     1     -10.595  62.219  38.373  1.00  0.00    -0.384 OA
ATOM     34  H   UNL     1      -9.802  62.280  38.966  1.00  0.00     0.211 HD
ENDBRANCH  28  33
BRANCH  30  35
ATOM     35  O   UNL     1     -12.707  63.553  39.583  1.00  0.00    -0.387 OA
ATOM     36  H   UNL     1     -13.600  63.952  39.752  1.00  0.00     0.211 HD
ENDBRANCH  30  35
BRANCH  31  37
ATOM     37  C   UNL     1     -14.282  60.392  42.181  1.00  0.00     0.191 C 
BRANCH  37  38
ATOM     38  O   UNL     1     -13.676  60.803  43.378  1.00  0.00    -0.394 OA
ATOM     39  H   UNL     1     -13.330  61.719  43.213  1.00  0.00     0.210 HD
ENDBRANCH  37  38
ENDBRANCH  31  37
BRANCH  32  40
ATOM     40  O   UNL     1     -14.691  60.647  39.011  1.00  0.00    -0.387 OA
ATOM     41  H   UNL     1     -15.166  59.974  39.573  1.00  0.00     0.211 HD
ENDBRANCH  32  40
ENDBRANCH   1  27
TORSDOF 12
ENDMDL
MODEL 4
REMARK VINA RESULT:    -2.821      1.751      6.490
REMARK INTER + INTRA:          -4.011
REMARK INTER:                  -4.062
REMARK INTRA:                   0.051
REMARK UNBOUND:                 0.130
REMARK SMILES O=c1c(O[C@H]2O[C@@H](CO)[C@H](O)[C@@H](O)[C@H]2O)c(-c2ccc(O)c(O)c2)oc2cc(O)cc(O)c12
REMARK SMILES IDX 4 1 3 2 16 3 25 4 2 5 26 6 1 7 33 8 27 9 31 10 28 11 30 12
REMARK SMILES IDX 17 13 18 14 19 15 20 16 24 17 22 18 21 19 23 21 32 23 29 25
REMARK SMILES IDX 5 27 14 28 6 29 12 30 7 31 10 32 15 33 13 35 8 37 9 38 11 40
REMARK H PARENT 21 20 23 22 32 24 29 26 15 34 13 36 9 39 11 41
REMARK Flexibility Score: inf
ROOT
ATOM      1  O   UNL     1     -11.133  62.316  40.258  1.00  0.00    -0.454 OA
ENDROOT
BRANCH   1   2
ATOM      2  C   UNL     1     -11.279  61.699  41.514  1.00  0.00     0.214 A 
ATOM      3  C   UNL     1     -12.421  60.913  41.765  1.00  0.00     0.180 A 
ATOM      4  O   UNL     1     -12.611  60.387  42.972  1.00  0.00    -0.452 OA
ATOM      5  C   UNL     1     -10.324  61.846  42.536  1.00  0.00     0.239 A 
ATOM      6  C   UNL     1     -11.761  60.542  43.978  1.00  0.00     0.146 A 
ATOM      7  O   UNL     1      -9.244  62.453  42.304  1.00  0.00    -0.285 OA
ATOM      8  C   UNL     1     -10.571  61.284  43.807  1.00  0.00     0.111 A 
ATOM      9  C   UNL     1     -12.055  59.956  45.211  1.00  0.00     0.094 A 
ATOM     10  C   UNL     1      -9.686  61.428  44.902  1.00  0.00     0.134 A 
ATOM     11  C   UNL     1     -11.182  60.108  46.293  1.00  0.00     0.123 A 
ATOM     12  C   UNL     1     -10.004  60.841  46.136  1.00  0.00     0.093 A 
BRANCH   3  13
ATOM     13  C   UNL     1     -13.465  60.689  40.736  1.00  0.00     0.025 A 
ATOM     14  C   UNL     1     -13.147  60.223  39.448  1.00  0.00     0.016 A 
ATOM     15  C   UNL     1     -14.153  60.035  38.495  1.00  0.00     0.051 A 
ATOM     16  C   UNL     1     -15.491  60.277  38.823  1.00  0.00     0.157 A 
ATOM     17  C   UNL     1     -14.813  60.915  41.063  1.00  0.00     0.062 A 
ATOM     18  C   UNL     1     -15.823  60.716  40.114  1.00  0.00     0.158 A 
BRANCH  16  19
ATOM     19  O   UNL     1     -16.492  60.070  37.875  1.00  0.00    -0.504 OA
ATOM     20  H   UNL     1     -16.510  60.579  37.000  1.00  0.00     0.293 HD
ENDBRANCH  16  19
BRANCH  18  21
ATOM     21  O   UNL     1     -17.148  60.960  40.475  1.00  0.00    -0.504 OA
ATOM     22  H   UNL     1     -17.460  60.920  41.438  1.00  0.00     0.293 HD
ENDBRANCH  18  21
ENDBRANCH   3  13
BRANCH  10  23
ATOM     23  O   UNL     1      -8.495  62.145  44.774  1.00  0.00    -0.507 OA
ATOM     24  H   UNL     1      -7.930  62.389  45.582  1.00  0.00     0.293 HD
ENDBRANCH  10  23
BRANCH  11  25
ATOM     25  O   UNL     1     -11.486  59.548  47.535  1.00  0.00    -0.508 OA
ATOM     26  H   UNL     1     -12.327  59.805  48.040  1.00  0.00     0.293 HD
ENDBRANCH  11  25
ENDBRANCH   1   2
BRANCH   1  27
ATOM     27  C   UNL     1     -10.991  63.723  40.026  1.00  0.00     0.339 C 
ATOM     28  C   UNL     1     -10.123  64.000  38.751  1.00  0.00     0.214 C 
ATOM     29  O   UNL     1     -10.427  64.285  41.204  1.00  0.00    -0.332 OA
ATOM     30  C   UNL     1      -8.700  64.451  39.122  1.00  0.00     0.180 C 
ATOM     31  C   UNL     1     -10.010  65.620  40.986  1.00  0.00     0.179 C 
ATOM     32  C   UNL     1      -8.731  65.651  40.102  1.00  0.00     0.177 C 
BRANCH  28  33
ATOM     33  O   UNL     1     -10.053  62.885  37.900  1.00  0.00    -0.384 OA
ATOM     34  H   UNL     1     -10.870  62.347  38.066  1.00  0.00     0.211 HD
ENDBRANCH  28  33
BRANCH  30  35
ATOM     35  O   UNL     1      -7.945  63.379  39.636  1.00  0.00    -0.387 OA
ATOM     36  H   UNL     1      -7.138  63.263  39.069  1.00  0.00     0.211 HD
ENDBRANCH  30  35
BRANCH  31  37
ATOM     37  C   UNL     1      -9.784  66.299  42.339  1.00  0.00     0.191 C 
BRANCH  37  38
ATOM     38  O   UNL     1      -8.531  66.928  42.369  1.00  0.00    -0.394 OA
ATOM     39  H   UNL     1      -8.635  67.727  42.949  1.00  0.00     0.210 HD
ENDBRANCH  37  38
ENDBRANCH  31  37
BRANCH  32  40
ATOM     40  O   UNL     1      -8.714  66.849  39.367  1.00  0.00    -0.387 OA
ATOM     41  H   UNL     1      -8.644  66.598  38.406  1.00  0.00     0.211 HD
ENDBRANCH  32  40
ENDBRANCH   1  27
TORSDOF 12
ENDMDL
MODEL 5
REMARK VINA RESULT:    -2.230      2.530      6.473
REMARK INTER + INTRA:          -3.144
REMARK INTER:                  -2.901
REMARK INTRA:                  -0.243
REMARK UNBOUND:                 0.130
REMARK SMILES O=c1c(O[C@H]2O[C@@H](CO)[C@H](O)[C@@H](O)[C@H]2O)c(-c2ccc(O)c(O)c2)oc2cc(O)cc(O)c12
REMARK SMILES IDX 4 1 3 2 16 3 25 4 2 5 26 6 1 7 33 8 27 9 31 10 28 11 30 12
REMARK SMILES IDX 17 13 18 14 19 15 20 16 24 17 22 18 21 19 23 21 32 23 29 25
REMARK SMILES IDX 5 27 14 28 6 29 12 30 7 31 10 32 15 33 13 35 8 37 9 38 11 40
REMARK H PARENT 21 20 23 22 32 24 29 26 15 34 13 36 9 39 11 41
REMARK Flexibility Score: inf
ROOT
ATOM      1  O   UNL     1      -9.681  64.434  42.468  1.00  0.00    -0.454 OA
ENDROOT
BRANCH   1   2
ATOM      2  C   UNL     1      -9.594  63.715  43.674  1.00  0.00     0.214 A 
ATOM      3  C   UNL     1     -10.068  62.389  43.719  1.00  0.00     0.180 A 
ATOM      4  O   UNL     1     -10.064  61.722  44.870  1.00  0.00    -0.452 OA
ATOM      5  C   UNL     1      -9.055  64.279  44.844  1.00  0.00     0.239 A 
ATOM      6  C   UNL     1      -9.612  62.232  46.007  1.00  0.00     0.146 A 
ATOM      7  O   UNL     1      -8.527  65.422  44.806  1.00  0.00    -0.285 OA
ATOM      8  C   UNL     1      -9.084  63.542  46.049  1.00  0.00     0.111 A 
ATOM      9  C   UNL     1      -9.657  61.454  47.166  1.00  0.00     0.094 A 
ATOM     10  C   UNL     1      -8.608  64.054  47.280  1.00  0.00     0.134 A 
ATOM     11  C   UNL     1      -9.195  61.968  48.382  1.00  0.00     0.123 A 
ATOM     12  C   UNL     1      -8.674  63.261  48.435  1.00  0.00     0.093 A 
BRANCH   3  13
ATOM     13  C   UNL     1     -10.630  61.712  42.525  1.00  0.00     0.025 A 
ATOM     14  C   UNL     1      -9.837  61.407  41.405  1.00  0.00     0.016 A 
ATOM     15  C   UNL     1     -10.400  60.780  40.288  1.00  0.00     0.051 A 
ATOM     16  C   UNL     1     -11.752  60.421  40.286  1.00  0.00     0.157 A 
ATOM     17  C   UNL     1     -11.984  61.334  42.522  1.00  0.00     0.062 A 
ATOM     18  C   UNL     1     -12.547  60.697  41.410  1.00  0.00     0.158 A 
BRANCH  16  19
ATOM     19  O   UNL     1     -12.304  59.780  39.179  1.00  0.00    -0.504 OA
ATOM     20  H   UNL     1     -12.274  58.773  39.076  1.00  0.00     0.293 HD
ENDBRANCH  16  19
BRANCH  18  21
ATOM     21  O   UNL     1     -13.896  60.345  41.444  1.00  0.00    -0.504 OA
ATOM     22  H   UNL     1     -14.440  60.211  40.600  1.00  0.00     0.293 HD
ENDBRANCH  18  21
ENDBRANCH   3  13
BRANCH  10  23
ATOM     23  O   UNL     1      -8.072  65.340  47.364  1.00  0.00    -0.507 OA
ATOM     24  H   UNL     1      -7.146  65.557  47.007  1.00  0.00     0.293 HD
ENDBRANCH  10  23
BRANCH  11  25
ATOM     25  O   UNL     1      -9.266  61.203  49.548  1.00  0.00    -0.508 OA
ATOM     26  H   UNL     1      -9.084  61.610  50.459  1.00  0.00     0.293 HD
ENDBRANCH  11  25
ENDBRANCH   1   2
BRANCH   1  27
ATOM     27  C   UNL     1      -8.877  64.216  41.302  1.00  0.00     0.339 C 
ATOM     28  C   UNL     1      -7.868  65.394  41.083  1.00  0.00     0.214 C 
ATOM     29  O   UNL     1      -9.768  64.050  40.206  1.00  0.00    -0.332 OA
ATOM     30  C   UNL     1      -8.325  66.329  39.950  1.00  0.00     0.180 C 
ATOM     31  C   UNL     1      -9.076  64.086  38.972  1.00  0.00     0.179 C 
ATOM     32  C   UNL     1      -8.613  65.534  38.652  1.00  0.00     0.177 C 
BRANCH  28  33
ATOM     33  O   UNL     1      -7.662  66.145  42.253  1.00  0.00    -0.384 OA
ATOM     34  H   UNL     1      -7.924  65.565  43.014  1.00  0.00     0.211 HD
ENDBRANCH  28  33
BRANCH  30  35
ATOM     35  O   UNL     1      -9.435  67.102  40.345  1.00  0.00    -0.387 OA
ATOM     36  H   UNL     1      -9.102  67.940  40.759  1.00  0.00     0.211 HD
ENDBRANCH  30  35
BRANCH  31  37
ATOM     37  C   UNL     1      -9.982  63.521  37.876  1.00  0.00     0.191 C 
BRANCH  37  38
ATOM     38  O   UNL     1     -11.319  63.512  38.301  1.00  0.00    -0.394 OA
ATOM     39  H   UNL     1     -11.598  64.463  38.358  1.00  0.00     0.210 HD
ENDBRANCH  37  38
ENDBRANCH  31  37
BRANCH  32  40
ATOM     40  O   UNL     1      -7.442  65.477  37.875  1.00  0.00    -0.387 OA
ATOM     41  H   UNL     1      -6.674  65.484  38.509  1.00  0.00     0.211 HD
ENDBRANCH  32  40
ENDBRANCH   1  27
TORSDOF 12
ENDMDL
MODEL 6
REMARK VINA RESULT:    -1.883      2.170      5.725
REMARK INTER + INTRA:          -2.634
REMARK INTER:                  -2.644
REMARK INTRA:                   0.010
REMARK UNBOUND:                 0.130
REMARK SMILES O=c1c(O[C@H]2O[C@@H](CO)[C@H](O)[C@@H](O)[C@H]2O)c(-c2ccc(O)c(O)c2)oc2cc(O)cc(O)c12
REMARK SMILES IDX 4 1 3 2 16 3 25 4 2 5 26 6 1 7 33 8 27 9 31 10 28 11 30 12
REMARK SMILES IDX 17 13 18 14 19 15 20 16 24 17 22 18 21 19 23 21 32 23 29 25
REMARK SMILES IDX 5 27 14 28 6 29 12 30 7 31 10 32 15 33 13 35 8 37 9 38 11 40
REMARK H PARENT 21 20 23 22 32 24 29 26 15 34 13 36 9 39 11 41
REMARK Flexibility Score: inf
ROOT
ATOM      1  O   UNL     1     -10.827  61.620  42.059  1.00  0.00    -0.454 OA
ENDROOT
BRANCH   1   2
ATOM      2  C   UNL     1     -10.370  62.088  43.305  1.00  0.00     0.214 A 
ATOM      3  C   UNL     1      -9.619  63.279  43.359  1.00  0.00     0.180 A 
ATOM      4  O   UNL     1      -9.114  63.693  44.518  1.00  0.00    -0.452 OA
ATOM      5  C   UNL     1     -10.631  61.401  44.504  1.00  0.00     0.239 A 
ATOM      6  C   UNL     1      -9.294  63.049  45.664  1.00  0.00     0.146 A 
ATOM      7  O   UNL     1     -11.389  60.394  44.500  1.00  0.00    -0.285 OA
ATOM      8  C   UNL     1     -10.064  61.866  45.711  1.00  0.00     0.111 A 
ATOM      9  C   UNL     1      -8.716  63.561  46.827  1.00  0.00     0.094 A 
ATOM     10  C   UNL     1     -10.237  61.206  46.952  1.00  0.00     0.134 A 
ATOM     11  C   UNL     1      -8.881  62.900  48.049  1.00  0.00     0.123 A 
ATOM     12  C   UNL     1      -9.638  61.729  48.107  1.00  0.00     0.093 A 
BRANCH   3  13
ATOM     13  C   UNL     1      -9.317  64.075  42.145  1.00  0.00     0.025 A 
ATOM     14  C   UNL     1      -9.283  65.481  42.172  1.00  0.00     0.016 A 
ATOM     15  C   UNL     1      -9.009  66.205  41.007  1.00  0.00     0.051 A 
ATOM     16  C   UNL     1      -8.733  65.537  39.808  1.00  0.00     0.157 A 
ATOM     17  C   UNL     1      -9.024  63.411  40.941  1.00  0.00     0.062 A 
ATOM     18  C   UNL     1      -8.738  64.134  39.777  1.00  0.00     0.158 A 
BRANCH  16  19
ATOM     19  O   UNL     1      -8.443  66.263  38.655  1.00  0.00    -0.504 OA
ATOM     20  H   UNL     1      -7.598  66.099  38.121  1.00  0.00     0.293 HD
ENDBRANCH  16  19
BRANCH  18  21
ATOM     21  O   UNL     1      -8.461  63.438  38.601  1.00  0.00    -0.504 OA
ATOM     22  H   UNL     1      -8.454  63.890  37.694  1.00  0.00     0.293 HD
ENDBRANCH  18  21
ENDBRANCH   3  13
BRANCH  10  23
ATOM     23  O   UNL     1     -10.997  60.039  47.045  1.00  0.00    -0.507 OA
ATOM     24  H   UNL     1     -11.027  59.488  47.898  1.00  0.00     0.293 HD
ENDBRANCH  10  23
BRANCH  11  25
ATOM     25  O   UNL     1      -8.281  63.393  49.209  1.00  0.00    -0.508 OA
ATOM     26  H   UNL     1      -8.813  63.910  49.901  1.00  0.00     0.293 HD
ENDBRANCH  11  25
ENDBRANCH   1   2
BRANCH   1  27
ATOM     27  C   UNL     1     -12.116  61.878  41.489  1.00  0.00     0.339 C 
ATOM     28  C   UNL     1     -13.063  60.640  41.652  1.00  0.00     0.214 C 
ATOM     29  O   UNL     1     -11.906  62.229  40.127  1.00  0.00    -0.332 OA
ATOM     30  C   UNL     1     -13.215  59.865  40.332  1.00  0.00     0.180 C 
ATOM     31  C   UNL     1     -13.126  62.252  39.409  1.00  0.00     0.179 C 
ATOM     32  C   UNL     1     -13.646  60.806  39.178  1.00  0.00     0.177 C 
BRANCH  28  33
ATOM     33  O   UNL     1     -12.628  59.764  42.660  1.00  0.00    -0.384 OA
ATOM     34  H   UNL     1     -11.764  59.383  42.354  1.00  0.00     0.211 HD
ENDBRANCH  28  33
BRANCH  30  35
ATOM     35  O   UNL     1     -12.037  59.161  40.017  1.00  0.00    -0.387 OA
ATOM     36  H   UNL     1     -11.294  59.814  39.930  1.00  0.00     0.211 HD
ENDBRANCH  30  35
BRANCH  31  37
ATOM     37  C   UNL     1     -12.915  63.000  38.091  1.00  0.00     0.191 C 
BRANCH  37  38
ATOM     38  O   UNL     1     -11.550  63.246  37.879  1.00  0.00    -0.394 OA
ATOM     39  H   UNL     1     -11.499  64.037  37.283  1.00  0.00     0.210 HD
ENDBRANCH  37  38
ENDBRANCH  31  37
BRANCH  32  40
ATOM     40  O   UNL     1     -15.049  60.833  39.103  1.00  0.00    -0.387 OA
ATOM     41  H   UNL     1     -15.391  60.782  40.037  1.00  0.00     0.211 HD
ENDBRANCH  32  40
ENDBRANCH   1  27
TORSDOF 12
ENDMDL
MODEL 7
REMARK VINA RESULT:    -1.673      2.788      6.200
REMARK INTER + INTRA:          -2.326
REMARK INTER:                  -2.051
REMARK INTRA:                  -0.275
REMARK UNBOUND:                 0.130
REMARK SMILES O=c1c(O[C@H]2O[C@@H](CO)[C@H](O)[C@@H](O)[C@H]2O)c(-c2ccc(O)c(O)c2)oc2cc(O)cc(O)c12
REMARK SMILES IDX 4 1 3 2 16 3 25 4 2 5 26 6 1 7 33 8 27 9 31 10 28 11 30 12
REMARK SMILES IDX 17 13 18 14 19 15 20 16 24 17 22 18 21 19 23 21 32 23 29 25
REMARK SMILES IDX 5 27 14 28 6 29 12 30 7 31 10 32 15 33 13 35 8 37 9 38 11 40
REMARK H PARENT 21 20 23 22 32 24 29 26 15 34 13 36 9 39 11 41
REMARK Flexibility Score: inf
ROOT
ATOM      1  O   UNL     1      -9.721  62.294  42.415  1.00  0.00    -0.454 OA
ENDROOT
BRANCH   1   2
ATOM      2  C   UNL     1      -9.490  62.952  43.637  1.00  0.00     0.214 A 
ATOM      3  C   UNL     1      -9.058  64.293  43.625  1.00  0.00     0.180 A 
ATOM      4  O   UNL     1      -8.761  64.904  44.769  1.00  0.00    -0.452 OA
ATOM      5  C   UNL     1      -9.670  62.312  44.877  1.00  0.00     0.239 A 
ATOM      6  C   UNL     1      -8.868  64.323  45.956  1.00  0.00     0.146 A 
ATOM      7  O   UNL     1     -10.158  61.152  44.921  1.00  0.00    -0.285 OA
ATOM      8  C   UNL     1      -9.329  62.992  46.068  1.00  0.00     0.111 A 
ATOM      9  C   UNL     1      -8.525  65.047  47.100  1.00  0.00     0.094 A 
ATOM     10  C   UNL     1      -9.433  62.404  47.351  1.00  0.00     0.134 A 
ATOM     11  C   UNL     1      -8.620  64.459  48.365  1.00  0.00     0.123 A 
ATOM     12  C   UNL     1      -9.072  63.144  48.486  1.00  0.00     0.093 A 
BRANCH   3  13
ATOM     13  C   UNL     1      -8.865  65.047  42.363  1.00  0.00     0.025 A 
ATOM     14  C   UNL     1      -9.391  66.339  42.185  1.00  0.00     0.016 A 
ATOM     15  C   UNL     1      -9.203  67.020  40.978  1.00  0.00     0.051 A 
ATOM     16  C   UNL     1      -8.462  66.435  39.945  1.00  0.00     0.157 A 
ATOM     17  C   UNL     1      -8.109  64.473  41.327  1.00  0.00     0.062 A 
ATOM     18  C   UNL     1      -7.910  65.157  40.122  1.00  0.00     0.158 A 
BRANCH  16  19
ATOM     19  O   UNL     1      -8.263  67.125  38.751  1.00  0.00    -0.504 OA
ATOM     20  H   UNL     1      -7.341  67.228  38.343  1.00  0.00     0.293 HD
ENDBRANCH  16  19
BRANCH  18  21
ATOM     21  O   UNL     1      -7.160  64.549  39.116  1.00  0.00    -0.504 OA
ATOM     22  H   UNL     1      -6.419  65.036  38.626  1.00  0.00     0.293 HD
ENDBRANCH  18  21
ENDBRANCH   3  13
BRANCH  10  23
ATOM     23  O   UNL     1      -9.891  61.095  47.506  1.00  0.00    -0.507 OA
ATOM     24  H   UNL     1      -9.426  60.310  47.059  1.00  0.00     0.293 HD
ENDBRANCH  10  23
BRANCH  11  25
ATOM     25  O   UNL     1      -8.250  65.170  49.508  1.00  0.00    -0.508 OA
ATOM     26  H   UNL     1      -7.567  64.802  50.162  1.00  0.00     0.293 HD
ENDBRANCH  11  25
ENDBRANCH   1   2
BRANCH   1  27
ATOM     27  C   UNL     1     -10.770  62.594  41.486  1.00  0.00     0.339 C 
ATOM     28  C   UNL     1     -11.913  61.525  41.561  1.00  0.00     0.214 C 
ATOM     29  O   UNL     1     -10.177  62.670  40.197  1.00  0.00    -0.332 OA
ATOM     30  C   UNL     1     -11.855  60.550  40.373  1.00  0.00     0.180 C 
ATOM     31  C   UNL     1     -11.160  62.706  39.180  1.00  0.00     0.179 C 
ATOM     32  C   UNL     1     -11.831  61.312  39.024  1.00  0.00     0.177 C 
BRANCH  28  33
ATOM     33  O   UNL     1     -11.888  60.799  42.763  1.00  0.00    -0.384 OA
ATOM     34  H   UNL     1     -10.938  60.749  43.046  1.00  0.00     0.211 HD
ENDBRANCH  28  33
BRANCH  30  35
ATOM     35  O   UNL     1     -10.764  59.668  40.492  1.00  0.00    -0.387 OA
ATOM     36  H   UNL     1     -11.083  58.829  40.917  1.00  0.00     0.211 HD
ENDBRANCH  30  35
BRANCH  31  37
ATOM     37  C   UNL     1     -10.512  63.176  37.876  1.00  0.00     0.191 C 
BRANCH  37  38
ATOM     38  O   UNL     1     -10.046  64.493  38.007  1.00  0.00    -0.394 OA
ATOM     39  H   UNL     1     -10.620  64.923  38.694  1.00  0.00     0.210 HD
ENDBRANCH  37  38
ENDBRANCH  31  37
BRANCH  32  40
ATOM     40  O   UNL     1     -13.149  61.489  38.569  1.00  0.00    -0.387 OA
ATOM     41  H   UNL     1     -13.706  60.796  39.019  1.00  0.00     0.211 HD
ENDBRANCH  32  40
ENDBRANCH   1  27
TORSDOF 12
ENDMDL
