MODEL 1
REMARK VINA RESULT:    -6.507      0.000      0.000
REMARK INTER + INTRA:          -7.778
REMARK INTER:                  -7.648
REMARK INTRA:                  -0.130
REMARK UNBOUND:                -0.130
REMARK SMILES O=C([O-])C=Cc1ccc(O)c(O)c1
REMARK SMILES IDX 6 1 13 2 7 3 11 4 8 5 9 6 5 7 4 8 2 9 1 10 3 11 12 12 10 14
REMARK H PARENT 12 13 10 15
REMARK Flexibility Score: inf
ROOT
ATOM      1  C   UNL     1      11.222 -12.641  28.290  1.00  0.00    -0.022 A 
ATOM      2  C   UNL     1      11.541 -11.829  29.392  1.00  0.00     0.058 A 
ATOM      3  C   UNL     1       9.912 -12.602  27.773  1.00  0.00     0.012 A 
ATOM      4  C   UNL     1      10.581 -10.976  29.953  1.00  0.00     0.157 A 
ATOM      5  C   UNL     1       8.956 -11.752  28.334  1.00  0.00     0.051 A 
ATOM      6  C   UNL     1       9.287 -10.935  29.422  1.00  0.00     0.157 A 
ENDROOT
BRANCH   1   7
ATOM      7  C   UNL     1      12.272 -13.535  27.739  1.00  0.00     0.010 C 
ATOM      8  C   UNL     1      13.025 -14.350  28.489  1.00  0.00     0.025 C 
BRANCH   8   9
ATOM      9  C   UNL     1      14.046 -15.229  27.898  1.00  0.00     0.064 C 
ATOM     10  O   UNL     1      14.686 -14.845  26.884  1.00  0.00    -0.545 OA
ATOM     11  O   UNL     1      14.316 -16.482  28.439  1.00  0.00    -0.545 OA
ENDBRANCH   8   9
ENDBRANCH   1   7
BRANCH   4  12
ATOM     12  O   UNL     1      10.906 -10.166  31.040  1.00  0.00    -0.504 OA
ATOM     13  H   UNL     1      11.869  -9.942  31.266  1.00  0.00     0.293 HD
ENDBRANCH   4  12
BRANCH   6  14
ATOM     14  O   UNL     1       8.336 -10.084  29.982  1.00  0.00    -0.504 OA
ATOM     15  H   UNL     1       7.498  -9.818  29.476  1.00  0.00     0.293 HD
ENDBRANCH   6  14
TORSDOF 4
ENDMDL
MODEL 2
REMARK VINA RESULT:    -6.154      1.801      6.013
REMARK INTER + INTRA:          -7.363
REMARK INTER:                  -7.229
REMARK INTRA:                  -0.134
REMARK UNBOUND:                -0.130
REMARK SMILES O=C([O-])C=Cc1ccc(O)c(O)c1
REMARK SMILES IDX 6 1 13 2 7 3 11 4 8 5 9 6 5 7 4 8 2 9 1 10 3 11 12 12 10 14
REMARK H PARENT 12 13 10 15
REMARK Flexibility Score: inf
ROOT
ATOM      1  C   UNL     1      13.098 -12.878  29.127  1.00  0.00    -0.022 A 
ATOM      2  C   UNL     1      13.017 -14.211  29.561  1.00  0.00     0.058 A 
ATOM      3  C   UNL     1      13.803 -12.590  27.941  1.00  0.00     0.012 A 
ATOM      4  C   UNL     1      13.605 -15.243  28.816  1.00  0.00     0.157 A 
ATOM      5  C   UNL     1      14.388 -13.619  27.200  1.00  0.00     0.051 A 
ATOM      6  C   UNL     1      14.289 -14.947  27.632  1.00  0.00     0.157 A 
ENDROOT
BRANCH   1   7
ATOM      7  C   UNL     1      12.468 -11.820  29.957  1.00  0.00     0.010 C 
ATOM      8  C   UNL     1      11.686 -10.851  29.462  1.00  0.00     0.025 C 
BRANCH   8   9
ATOM      9  C   UNL     1      11.073  -9.830  30.326  1.00  0.00     0.064 C 
ATOM     10  O   UNL     1       9.832  -9.628  30.265  1.00  0.00    -0.545 OA
ATOM     11  O   UNL     1      11.843  -9.079  31.208  1.00  0.00    -0.545 OA
ENDBRANCH   8   9
ENDBRANCH   1   7
BRANCH   4  12
ATOM     12  O   UNL     1      13.512 -16.565  29.247  1.00  0.00    -0.504 OA
ATOM     13  H   UNL     1      13.322 -17.322  28.600  1.00  0.00     0.293 HD
ENDBRANCH   4  12
BRANCH   6  14
ATOM     14  O   UNL     1      14.870 -15.976  26.893  1.00  0.00    -0.504 OA
ATOM     15  H   UNL     1      15.837 -16.249  27.034  1.00  0.00     0.293 HD
ENDBRANCH   6  14
TORSDOF 4
ENDMDL
MODEL 3
REMARK VINA RESULT:    -6.086      1.278      2.493
REMARK INTER + INTRA:          -7.284
REMARK INTER:                  -7.150
REMARK INTRA:                  -0.134
REMARK UNBOUND:                -0.130
REMARK SMILES O=C([O-])C=Cc1ccc(O)c(O)c1
REMARK SMILES IDX 6 1 13 2 7 3 11 4 8 5 9 6 5 7 4 8 2 9 1 10 3 11 12 12 10 14
REMARK H PARENT 12 13 10 15
REMARK Flexibility Score: inf
ROOT
ATOM      1  C   UNL     1      12.372 -12.588  29.386  1.00  0.00    -0.022 A 
ATOM      2  C   UNL     1      11.105 -12.083  29.049  1.00  0.00     0.058 A 
ATOM      3  C   UNL     1      13.189 -11.845  30.262  1.00  0.00     0.012 A 
ATOM      4  C   UNL     1      10.648 -10.875  29.593  1.00  0.00     0.157 A 
ATOM      5  C   UNL     1      12.732 -10.641  30.804  1.00  0.00     0.051 A 
ATOM      6  C   UNL     1      11.462 -10.154  30.474  1.00  0.00     0.157 A 
ENDROOT
BRANCH   1   7
ATOM      7  C   UNL     1      12.814 -13.866  28.774  1.00  0.00     0.010 C 
ATOM      8  C   UNL     1      13.612 -14.750  29.388  1.00  0.00     0.025 C 
BRANCH   8   9
ATOM      9  C   UNL     1      14.015 -16.011  28.747  1.00  0.00     0.064 C 
ATOM     10  O   UNL     1      13.996 -17.080  29.412  1.00  0.00    -0.545 OA
ATOM     11  O   UNL     1      14.420 -16.043  27.417  1.00  0.00    -0.545 OA
ENDBRANCH   8   9
ENDBRANCH   1   7
BRANCH   4  12
ATOM     12  O   UNL     1       9.386 -10.384  29.262  1.00  0.00    -0.504 OA
ATOM     13  H   UNL     1       8.579 -10.556  29.850  1.00  0.00     0.293 HD
ENDBRANCH   4  12
BRANCH   6  14
ATOM     14  O   UNL     1      11.003  -8.954  31.015  1.00  0.00    -0.504 OA
ATOM     15  H   UNL     1      11.051  -8.768  32.011  1.00  0.00     0.293 HD
ENDBRANCH   6  14
TORSDOF 4
ENDMDL
MODEL 4
REMARK VINA RESULT:    -5.500     12.496     14.410
REMARK INTER + INTRA:          -6.595
REMARK INTER:                  -6.469
REMARK INTRA:                  -0.126
REMARK UNBOUND:                -0.130
REMARK SMILES O=C([O-])C=Cc1ccc(O)c(O)c1
REMARK SMILES IDX 6 1 13 2 7 3 11 4 8 5 9 6 5 7 4 8 2 9 1 10 3 11 12 12 10 14
REMARK H PARENT 12 13 10 15
REMARK Flexibility Score: inf
ROOT
ATOM      1  C   UNL     1      16.037  -0.634  26.179  1.00  0.00    -0.022 A 
ATOM      2  C   UNL     1      15.713  -1.555  27.190  1.00  0.00     0.058 A 
ATOM      3  C   UNL     1      17.291  -0.735  25.544  1.00  0.00     0.012 A 
ATOM      4  C   UNL     1      16.609  -2.573  27.544  1.00  0.00     0.157 A 
ATOM      5  C   UNL     1      18.183  -1.750  25.898  1.00  0.00     0.051 A 
ATOM      6  C   UNL     1      17.845  -2.672  26.896  1.00  0.00     0.157 A 
ENDROOT
BRANCH   1   7
ATOM      7  C   UNL     1      15.058   0.432  25.848  1.00  0.00     0.010 C 
ATOM      8  C   UNL     1      14.979   1.600  26.501  1.00  0.00     0.025 C 
BRANCH   8   9
ATOM      9  C   UNL     1      14.000   2.633  26.131  1.00  0.00     0.064 C 
ATOM     10  O   UNL     1      13.251   3.125  27.014  1.00  0.00    -0.545 OA
ATOM     11  O   UNL     1      13.886   3.076  24.817  1.00  0.00    -0.545 OA
ENDBRANCH   8   9
ENDBRANCH   1   7
BRANCH   4  12
ATOM     12  O   UNL     1      16.277  -3.489  28.541  1.00  0.00    -0.504 OA
ATOM     13  H   UNL     1      16.719  -4.400  28.593  1.00  0.00     0.293 HD
ENDBRANCH   4  12
BRANCH   6  14
ATOM     14  O   UNL     1      18.732  -3.687  27.250  1.00  0.00    -0.504 OA
ATOM     15  H   UNL     1      19.656  -3.752  26.835  1.00  0.00     0.293 HD
ENDBRANCH   6  14
TORSDOF 4
ENDMDL
MODEL 5
REMARK VINA RESULT:    -5.494      1.416      6.024
REMARK INTER + INTRA:          -6.588
REMARK INTER:                  -6.454
REMARK INTRA:                  -0.134
REMARK UNBOUND:                -0.130
REMARK SMILES O=C([O-])C=Cc1ccc(O)c(O)c1
REMARK SMILES IDX 6 1 13 2 7 3 11 4 8 5 9 6 5 7 4 8 2 9 1 10 3 11 12 12 10 14
REMARK H PARENT 12 13 10 15
REMARK Flexibility Score: inf
ROOT
ATOM      1  C   UNL     1      12.890 -12.882  29.076  1.00  0.00    -0.022 A 
ATOM      2  C   UNL     1      13.447 -13.044  27.796  1.00  0.00     0.058 A 
ATOM      3  C   UNL     1      12.935 -13.963  29.979  1.00  0.00     0.012 A 
ATOM      4  C   UNL     1      14.059 -14.251  27.430  1.00  0.00     0.157 A 
ATOM      5  C   UNL     1      13.545 -15.165  29.613  1.00  0.00     0.051 A 
ATOM      6  C   UNL     1      14.110 -15.312  28.341  1.00  0.00     0.157 A 
ENDROOT
BRANCH   1   7
ATOM      7  C   UNL     1      12.244 -11.587  29.411  1.00  0.00     0.010 C 
ATOM      8  C   UNL     1      10.967 -11.472  29.801  1.00  0.00     0.025 C 
BRANCH   8   9
ATOM      9  C   UNL     1      10.371 -10.169  30.135  1.00  0.00     0.064 C 
ATOM     10  O   UNL     1      11.103  -9.245  30.575  1.00  0.00    -0.545 OA
ATOM     11  O   UNL     1       9.009  -9.941  29.974  1.00  0.00    -0.545 OA
ENDBRANCH   8   9
ENDBRANCH   1   7
BRANCH   4  12
ATOM     12  O   UNL     1      14.618 -14.402  26.162  1.00  0.00    -0.504 OA
ATOM     13  H   UNL     1      15.622 -14.424  26.024  1.00  0.00     0.293 HD
ENDBRANCH   4  12
BRANCH   6  14
ATOM     14  O   UNL     1      14.722 -16.510  27.973  1.00  0.00    -0.504 OA
ATOM     15  H   UNL     1      15.626 -16.524  27.514  1.00  0.00     0.293 HD
ENDBRANCH   6  14
TORSDOF 4
ENDMDL
MODEL 6
REMARK VINA RESULT:    -4.967     12.398     13.307
REMARK INTER + INTRA:          -5.969
REMARK INTER:                  -5.840
REMARK INTRA:                  -0.129
REMARK UNBOUND:                -0.130
REMARK SMILES O=C([O-])C=Cc1ccc(O)c(O)c1
REMARK SMILES IDX 6 1 13 2 7 3 11 4 8 5 9 6 5 7 4 8 2 9 1 10 3 11 12 12 10 14
REMARK H PARENT 12 13 10 15
REMARK Flexibility Score: inf
ROOT
ATOM      1  C   UNL     1      15.264  -0.494  26.668  1.00  0.00    -0.022 A 
ATOM      2  C   UNL     1      15.223   0.579  27.575  1.00  0.00     0.058 A 
ATOM      3  C   UNL     1      14.642  -0.347  25.412  1.00  0.00     0.012 A 
ATOM      4  C   UNL     1      14.597   1.784  27.230  1.00  0.00     0.157 A 
ATOM      5  C   UNL     1      14.018   0.855  25.070  1.00  0.00     0.051 A 
ATOM      6  C   UNL     1      13.996   1.924  25.974  1.00  0.00     0.157 A 
ENDROOT
BRANCH   1   7
ATOM      7  C   UNL     1      15.931  -1.753  27.086  1.00  0.00     0.010 C 
ATOM      8  C   UNL     1      17.217  -2.033  26.839  1.00  0.00     0.025 C 
BRANCH   8   9
ATOM      9  C   UNL     1      17.839  -3.290  27.283  1.00  0.00     0.064 C 
ATOM     10  O   UNL     1      17.157  -4.347  27.306  1.00  0.00    -0.545 OA
ATOM     11  O   UNL     1      19.171  -3.330  27.682  1.00  0.00    -0.545 OA
ENDBRANCH   8   9
ENDBRANCH   1   7
BRANCH   4  12
ATOM     12  O   UNL     1      14.569   2.848  28.130  1.00  0.00    -0.504 OA
ATOM     13  H   UNL     1      14.183   3.750  27.874  1.00  0.00     0.293 HD
ENDBRANCH   4  12
BRANCH   6  14
ATOM     14  O   UNL     1      13.376   3.125  25.633  1.00  0.00    -0.504 OA
ATOM     15  H   UNL     1      13.068   3.782  26.342  1.00  0.00     0.293 HD
ENDBRANCH   6  14
TORSDOF 4
ENDMDL
MODEL 7
REMARK VINA RESULT:    -4.269     16.460     17.660
REMARK INTER + INTRA:          -5.148
REMARK INTER:                  -5.015
REMARK INTRA:                  -0.133
REMARK UNBOUND:                -0.130
REMARK SMILES O=C([O-])C=Cc1ccc(O)c(O)c1
REMARK SMILES IDX 6 1 13 2 7 3 11 4 8 5 9 6 5 7 4 8 2 9 1 10 3 11 12 12 10 14
REMARK H PARENT 12 13 10 15
REMARK Flexibility Score: inf
ROOT
ATOM      1  C   UNL     1       4.095  -7.186  13.349  1.00  0.00    -0.022 A 
ATOM      2  C   UNL     1       4.240  -6.331  14.455  1.00  0.00     0.058 A 
ATOM      3  C   UNL     1       3.924  -6.620  12.070  1.00  0.00     0.012 A 
ATOM      4  C   UNL     1       4.242  -4.939  14.288  1.00  0.00     0.157 A 
ATOM      5  C   UNL     1       3.926  -5.232  11.905  1.00  0.00     0.051 A 
ATOM      6  C   UNL     1       4.087  -4.389  13.011  1.00  0.00     0.157 A 
ENDROOT
BRANCH   1   7
ATOM      7  C   UNL     1       4.089  -8.652  13.581  1.00  0.00     0.010 C 
ATOM      8  C   UNL     1       4.294  -9.218  14.778  1.00  0.00     0.025 C 
BRANCH   8   9
ATOM      9  C   UNL     1       4.268 -10.678  14.963  1.00  0.00     0.064 C 
ATOM     10  O   UNL     1       3.896 -11.158  16.065  1.00  0.00    -0.545 OA
ATOM     11  O   UNL     1       4.650 -11.538  13.939  1.00  0.00    -0.545 OA
ENDBRANCH   8   9
ENDBRANCH   1   7
BRANCH   4  12
ATOM     12  O   UNL     1       4.396  -4.097  15.388  1.00  0.00    -0.504 OA
ATOM     13  H   UNL     1       5.077  -4.291  16.114  1.00  0.00     0.293 HD
ENDBRANCH   4  12
BRANCH   6  14
ATOM     14  O   UNL     1       4.090  -3.005  12.849  1.00  0.00    -0.504 OA
ATOM     15  H   UNL     1       3.993  -2.378  13.640  1.00  0.00     0.293 HD
ENDBRANCH   6  14
TORSDOF 4
ENDMDL
MODEL 8
REMARK VINA RESULT:    -4.228     18.456     19.859
REMARK INTER + INTRA:          -5.100
REMARK INTER:                  -4.967
REMARK INTRA:                  -0.133
REMARK UNBOUND:                -0.130
REMARK SMILES O=C([O-])C=Cc1ccc(O)c(O)c1
REMARK SMILES IDX 6 1 13 2 7 3 11 4 8 5 9 6 5 7 4 8 2 9 1 10 3 11 12 12 10 14
REMARK H PARENT 12 13 10 15
REMARK Flexibility Score: inf
ROOT
ATOM      1  C   UNL     1      24.010  -8.606  13.472  1.00  0.00    -0.022 A 
ATOM      2  C   UNL     1      23.755  -7.785  14.584  1.00  0.00     0.058 A 
ATOM      3  C   UNL     1      24.110  -8.013  12.198  1.00  0.00     0.012 A 
ATOM      4  C   UNL     1      23.628  -6.397  14.434  1.00  0.00     0.157 A 
ATOM      5  C   UNL     1      23.984  -6.629  12.050  1.00  0.00     0.051 A 
ATOM      6  C   UNL     1      23.745  -5.818  13.166  1.00  0.00     0.157 A 
ENDROOT
BRANCH   1   7
ATOM      7  C   UNL     1      24.125 -10.071  13.682  1.00  0.00     0.010 C 
ATOM      8  C   UNL     1      23.619 -10.714  14.744  1.00  0.00     0.025 C 
BRANCH   8   9
ATOM      9  C   UNL     1      23.746 -12.170  14.904  1.00  0.00     0.064 C 
ATOM     10  O   UNL     1      23.559 -12.690  16.036  1.00  0.00    -0.545 OA
ATOM     11  O   UNL     1      24.073 -12.986  13.826  1.00  0.00    -0.545 OA
ENDBRANCH   8   9
ENDBRANCH   1   7
BRANCH   4  12
ATOM     12  O   UNL     1      23.386  -5.587  15.543  1.00  0.00    -0.504 OA
ATOM     13  H   UNL     1      22.515  -5.078  15.647  1.00  0.00     0.293 HD
ENDBRANCH   4  12
BRANCH   6  14
ATOM     14  O   UNL     1      23.621  -4.437  13.022  1.00  0.00    -0.504 OA
ATOM     15  H   UNL     1      24.432  -3.842  12.890  1.00  0.00     0.293 HD
ENDBRANCH   6  14
TORSDOF 4
ENDMDL
MODEL 9
REMARK VINA RESULT:    -4.010     12.545     14.441
REMARK INTER + INTRA:          -4.844
REMARK INTER:                  -4.717
REMARK INTRA:                  -0.127
REMARK UNBOUND:                -0.130
REMARK SMILES O=C([O-])C=Cc1ccc(O)c(O)c1
REMARK SMILES IDX 6 1 13 2 7 3 11 4 8 5 9 6 5 7 4 8 2 9 1 10 3 11 12 12 10 14
REMARK H PARENT 12 13 10 15
REMARK Flexibility Score: inf
ROOT
ATOM      1  C   UNL     1      15.668  -0.795  26.624  1.00  0.00    -0.022 A 
ATOM      2  C   UNL     1      17.026  -0.640  26.300  1.00  0.00     0.058 A 
ATOM      3  C   UNL     1      15.248  -1.990  27.243  1.00  0.00     0.012 A 
ATOM      4  C   UNL     1      17.954  -1.643  26.608  1.00  0.00     0.157 A 
ATOM      5  C   UNL     1      16.175  -2.989  27.550  1.00  0.00     0.051 A 
ATOM      6  C   UNL     1      17.529  -2.819  27.237  1.00  0.00     0.157 A 
ENDROOT
BRANCH   1   7
ATOM      7  C   UNL     1      14.722   0.293  26.266  1.00  0.00     0.010 C 
ATOM      8  C   UNL     1      14.955   1.591  26.506  1.00  0.00     0.025 C 
BRANCH   8   9
ATOM      9  C   UNL     1      13.994   2.637  26.122  1.00  0.00     0.064 C 
ATOM     10  O   UNL     1      13.227   3.125  26.992  1.00  0.00    -0.545 OA
ATOM     11  O   UNL     1      13.917   3.095  24.811  1.00  0.00    -0.545 OA
ENDBRANCH   8   9
ENDBRANCH   1   7
BRANCH   4  12
ATOM     12  O   UNL     1      19.302  -1.479  26.293  1.00  0.00    -0.504 OA
ATOM     13  H   UNL     1      19.779  -0.598  26.445  1.00  0.00     0.293 HD
ENDBRANCH   4  12
BRANCH   6  14
ATOM     14  O   UNL     1      18.456  -3.814  27.544  1.00  0.00    -0.504 OA
ATOM     15  H   UNL     1      18.343  -4.764  27.209  1.00  0.00     0.293 HD
ENDBRANCH   6  14
TORSDOF 4
ENDMDL
