MODEL 1
REMARK VINA RESULT:    -3.938      0.000      0.000
REMARK INTER + INTRA:         -11.475
REMARK INTER:                  -9.002
REMARK INTRA:                  -2.473
REMARK UNBOUND:                -2.473
REMARK SMILES CCCCCCCCCCCCCCCCCCCCCCCC(=O)[O-]
REMARK SMILES IDX 13 1 14 2 15 3 16 4 17 5 18 6 19 7 20 8 21 9 22 10 23 11
REMARK SMILES IDX 24 12 25 13 26 14 12 15 11 16 10 17 9 18 8 19 7 20 6 21 5 22
REMARK SMILES IDX 4 23 3 24 2 25 1 26
REMARK H PARENT
REMARK Flexibility Score: inf
ROOT
ATOM      1  C   UNL     1      -7.962  -4.521  -6.584  1.00  0.00     0.000 C 
ENDROOT
BRANCH   1   2
ATOM      2  C   UNL     1      -8.287  -5.251  -5.273  1.00  0.00     0.000 C 
BRANCH   2   3
ATOM      3  C   UNL     1      -9.618  -6.024  -5.328  1.00  0.00     0.000 C 
BRANCH   3   4
ATOM      4  C   UNL     1     -10.733  -5.459  -4.427  1.00  0.00     0.000 C 
BRANCH   4   5
ATOM      5  C   UNL     1     -11.125  -3.997  -4.710  1.00  0.00     0.000 C 
BRANCH   5   6
ATOM      6  C   UNL     1     -11.084  -3.089  -3.462  1.00  0.00     0.000 C 
BRANCH   6   7
ATOM      7  C   UNL     1     -10.854  -3.883  -2.164  1.00  0.00     0.000 C 
BRANCH   7   8
ATOM      8  C   UNL     1      -9.519  -3.537  -1.487  1.00  0.00     0.000 C 
BRANCH   8   9
ATOM      9  C   UNL     1      -8.600  -2.701  -2.391  1.00  0.00     0.000 C 
BRANCH   9  10
ATOM     10  C   UNL     1      -7.669  -1.813  -1.554  1.00  0.00     0.006 C 
BRANCH  10  11
ATOM     11  C   UNL     1      -8.454  -0.696  -0.860  1.00  0.00     0.053 C 
BRANCH  11  12
ATOM     12  C   UNL     1      -7.817   0.633  -1.123  1.00  0.00     0.041 C 
ATOM     13  O   UNL     1      -6.664   0.695  -1.624  1.00  0.00    -0.550 OA
ATOM     14  O   UNL     1      -8.478   1.802  -0.767  1.00  0.00    -0.550 OA
ENDBRANCH  11  12
ENDBRANCH  10  11
ENDBRANCH   9  10
ENDBRANCH   8   9
ENDBRANCH   7   8
ENDBRANCH   6   7
ENDBRANCH   5   6
ENDBRANCH   4   5
ENDBRANCH   3   4
ENDBRANCH   2   3
ENDBRANCH   1   2
BRANCH   1  15
ATOM     15  C   UNL     1      -8.863  -5.013  -7.723  1.00  0.00     0.000 C 
BRANCH  15  16
ATOM     16  C   UNL     1      -8.516  -4.309  -9.044  1.00  0.00     0.000 C 
BRANCH  16  17
ATOM     17  C   UNL     1      -7.391  -5.018  -9.816  1.00  0.00     0.000 C 
BRANCH  17  18
ATOM     18  C   UNL     1      -7.358  -6.533  -9.553  1.00  0.00    -0.000 C 
BRANCH  18  19
ATOM     19  C   UNL     1      -5.983  -7.020  -9.067  1.00  0.00    -0.000 C 
BRANCH  19  20
ATOM     20  C   UNL     1      -5.832  -6.942  -7.538  1.00  0.00    -0.000 C 
BRANCH  20  21
ATOM     21  C   UNL     1      -4.365  -6.802  -7.100  1.00  0.00    -0.000 C 
BRANCH  21  22
ATOM     22  C   UNL     1      -4.205  -5.956  -5.824  1.00  0.00    -0.000 C 
BRANCH  22  23
ATOM     23  C   UNL     1      -2.758  -5.480  -5.598  1.00  0.00    -0.000 C 
BRANCH  23  24
ATOM     24  C   UNL     1      -2.616  -3.991  -5.239  1.00  0.00    -0.000 C 
BRANCH  24  25
ATOM     25  C   UNL     1      -3.721  -3.118  -5.853  1.00  0.00    -0.003 C 
ATOM     26  C   UNL     1      -3.201  -1.719  -6.174  1.00  0.00     0.004 C 
ENDBRANCH  24  25
ENDBRANCH  23  24
ENDBRANCH  22  23
ENDBRANCH  21  22
ENDBRANCH  20  21
ENDBRANCH  19  20
ENDBRANCH  18  19
ENDBRANCH  17  18
ENDBRANCH  16  17
ENDBRANCH  15  16
ENDBRANCH   1  15
TORSDOF 22
ENDMDL
MODEL 2
REMARK VINA RESULT:    -3.774      2.612      7.168
REMARK INTER + INTRA:         -11.102
REMARK INTER:                  -8.623
REMARK INTRA:                  -2.478
REMARK UNBOUND:                -2.473
REMARK SMILES CCCCCCCCCCCCCCCCCCCCCCCC(=O)[O-]
REMARK SMILES IDX 13 1 14 2 15 3 16 4 17 5 18 6 19 7 20 8 21 9 22 10 23 11
REMARK SMILES IDX 24 12 25 13 26 14 12 15 11 16 10 17 9 18 8 19 7 20 6 21 5 22
REMARK SMILES IDX 4 23 3 24 2 25 1 26
REMARK H PARENT
REMARK Flexibility Score: inf
ROOT
ATOM      1  C   UNL     1      -8.957  -5.474  -5.390  1.00  0.00     0.000 C 
ENDROOT
BRANCH   1   2
ATOM      2  C   UNL     1     -10.174  -5.823  -6.259  1.00  0.00     0.000 C 
BRANCH   2   3
ATOM      3  C   UNL     1      -9.821  -5.988  -7.749  1.00  0.00     0.000 C 
BRANCH   3   4
ATOM      4  C   UNL     1      -9.952  -4.705  -8.592  1.00  0.00     0.000 C 
BRANCH   4   5
ATOM      5  C   UNL     1      -8.678  -4.289  -9.352  1.00  0.00     0.000 C 
BRANCH   5   6
ATOM      6  C   UNL     1      -7.371  -4.595  -8.590  1.00  0.00     0.000 C 
BRANCH   6   7
ATOM      7  C   UNL     1      -6.413  -5.488  -9.399  1.00  0.00     0.000 C 
BRANCH   7   8
ATOM      8  C   UNL     1      -5.590  -6.432  -8.508  1.00  0.00     0.000 C 
BRANCH   8   9
ATOM      9  C   UNL     1      -6.189  -6.585  -7.102  1.00  0.00     0.000 C 
BRANCH   9  10
ATOM     10  C   UNL     1      -5.426  -5.726  -6.085  1.00  0.00     0.006 C 
BRANCH  10  11
ATOM     11  C   UNL     1      -4.059  -6.339  -5.764  1.00  0.00     0.053 C 
BRANCH  11  12
ATOM     12  C   UNL     1      -3.032  -5.267  -5.588  1.00  0.00     0.041 C 
ATOM     13  O   UNL     1      -3.381  -4.059  -5.522  1.00  0.00    -0.550 OA
ATOM     14  O   UNL     1      -1.683  -5.596  -5.548  1.00  0.00    -0.550 OA
ENDBRANCH  11  12
ENDBRANCH  10  11
ENDBRANCH   9  10
ENDBRANCH   8   9
ENDBRANCH   7   8
ENDBRANCH   6   7
ENDBRANCH   5   6
ENDBRANCH   4   5
ENDBRANCH   3   4
ENDBRANCH   2   3
ENDBRANCH   1   2
BRANCH   1  15
ATOM     15  C   UNL     1      -8.976  -3.995  -4.989  1.00  0.00     0.000 C 
BRANCH  15  16
ATOM     16  C   UNL     1     -10.410  -3.441  -4.992  1.00  0.00     0.000 C 
BRANCH  16  17
ATOM     17  C   UNL     1     -11.125  -3.637  -3.646  1.00  0.00     0.000 C 
BRANCH  17  18
ATOM     18  C   UNL     1     -11.124  -2.362  -2.785  1.00  0.00    -0.000 C 
BRANCH  18  19
ATOM     19  C   UNL     1     -10.741  -2.635  -1.321  1.00  0.00    -0.000 C 
BRANCH  19  20
ATOM     20  C   UNL     1      -9.786  -3.832  -1.171  1.00  0.00    -0.000 C 
BRANCH  20  21
ATOM     21  C   UNL     1      -8.366  -3.515  -1.668  1.00  0.00    -0.000 C 
BRANCH  21  22
ATOM     22  C   UNL     1      -7.795  -2.227  -1.049  1.00  0.00    -0.000 C 
BRANCH  22  23
ATOM     23  C   UNL     1      -7.510  -1.135  -2.096  1.00  0.00    -0.000 C 
BRANCH  23  24
ATOM     24  C   UNL     1      -7.122   0.235  -1.513  1.00  0.00    -0.000 C 
BRANCH  24  25
ATOM     25  C   UNL     1      -8.339   1.086  -1.120  1.00  0.00    -0.003 C 
ATOM     26  C   UNL     1      -7.974   2.101  -0.040  1.00  0.00     0.004 C 
ENDBRANCH  24  25
ENDBRANCH  23  24
ENDBRANCH  22  23
ENDBRANCH  21  22
ENDBRANCH  20  21
ENDBRANCH  19  20
ENDBRANCH  18  19
ENDBRANCH  17  18
ENDBRANCH  16  17
ENDBRANCH  15  16
ENDBRANCH   1  15
TORSDOF 22
ENDMDL
MODEL 3
REMARK VINA RESULT:    -3.380      3.256      7.415
REMARK INTER + INTRA:         -10.200
REMARK INTER:                  -7.897
REMARK INTRA:                  -2.303
REMARK UNBOUND:                -2.473
REMARK SMILES CCCCCCCCCCCCCCCCCCCCCCCC(=O)[O-]
REMARK SMILES IDX 13 1 14 2 15 3 16 4 17 5 18 6 19 7 20 8 21 9 22 10 23 11
REMARK SMILES IDX 24 12 25 13 26 14 12 15 11 16 10 17 9 18 8 19 7 20 6 21 5 22
REMARK SMILES IDX 4 23 3 24 2 25 1 26
REMARK H PARENT
REMARK Flexibility Score: inf
ROOT
ATOM      1  C   UNL     1      -8.886  -5.037  -4.777  1.00  0.00     0.000 C 
ENDROOT
BRANCH   1   2
ATOM      2  C   UNL     1      -9.198  -5.946  -5.975  1.00  0.00     0.000 C 
BRANCH   2   3
ATOM      3  C   UNL     1     -10.708  -6.082  -6.250  1.00  0.00     0.000 C 
BRANCH   3   4
ATOM      4  C   UNL     1     -11.110  -5.971  -7.733  1.00  0.00     0.000 C 
BRANCH   4   5
ATOM      5  C   UNL     1     -10.515  -4.764  -8.483  1.00  0.00     0.000 C 
BRANCH   5   6
ATOM      6  C   UNL     1      -9.384  -5.137  -9.465  1.00  0.00     0.000 C 
BRANCH   6   7
ATOM      7  C   UNL     1      -9.056  -6.640  -9.441  1.00  0.00     0.000 C 
BRANCH   7   8
ATOM      8  C   UNL     1      -7.554  -6.921  -9.608  1.00  0.00     0.000 C 
BRANCH   8   9
ATOM      9  C   UNL     1      -6.707  -5.641  -9.557  1.00  0.00     0.000 C 
BRANCH   9  10
ATOM     10  C   UNL     1      -5.883  -5.581  -8.264  1.00  0.00     0.006 C 
BRANCH  10  11
ATOM     11  C   UNL     1      -5.755  -6.970  -7.630  1.00  0.00     0.053 C 
BRANCH  11  12
ATOM     12  C   UNL     1      -5.396  -6.853  -6.182  1.00  0.00     0.041 C 
ATOM     13  O   UNL     1      -4.335  -6.269  -5.837  1.00  0.00    -0.550 OA
ATOM     14  O   UNL     1      -6.208  -7.435  -5.216  1.00  0.00    -0.550 OA
ENDBRANCH  11  12
ENDBRANCH  10  11
ENDBRANCH   9  10
ENDBRANCH   8   9
ENDBRANCH   7   8
ENDBRANCH   6   7
ENDBRANCH   5   6
ENDBRANCH   4   5
ENDBRANCH   3   4
ENDBRANCH   2   3
ENDBRANCH   1   2
BRANCH   1  15
ATOM     15  C   UNL     1      -9.299  -3.589  -5.066  1.00  0.00     0.000 C 
BRANCH  15  16
ATOM     16  C   UNL     1     -10.719  -3.306  -4.552  1.00  0.00     0.000 C 
BRANCH  16  17
ATOM     17  C   UNL     1     -11.006  -3.981  -3.200  1.00  0.00     0.000 C 
BRANCH  17  18
ATOM     18  C   UNL     1     -11.125  -2.968  -2.048  1.00  0.00    -0.000 C 
BRANCH  18  19
ATOM     19  C   UNL     1     -10.298  -3.372  -0.816  1.00  0.00    -0.000 C 
BRANCH  19  20
ATOM     20  C   UNL     1      -8.835  -3.698  -1.164  1.00  0.00    -0.000 C 
BRANCH  20  21
ATOM     21  C   UNL     1      -8.167  -2.588  -1.991  1.00  0.00    -0.000 C 
BRANCH  21  22
ATOM     22  C   UNL     1      -7.977  -1.286  -1.191  1.00  0.00    -0.000 C 
BRANCH  22  23
ATOM     23  C   UNL     1      -7.037  -0.287  -1.889  1.00  0.00    -0.000 C 
BRANCH  23  24
ATOM     24  C   UNL     1      -6.894   1.071  -1.179  1.00  0.00    -0.000 C 
BRANCH  24  25
ATOM     25  C   UNL     1      -8.173   1.500  -0.443  1.00  0.00    -0.003 C 
ATOM     26  C   UNL     1      -8.861   2.655  -1.165  1.00  0.00     0.004 C 
ENDBRANCH  24  25
ENDBRANCH  23  24
ENDBRANCH  22  23
ENDBRANCH  21  22
ENDBRANCH  20  21
ENDBRANCH  19  20
ENDBRANCH  18  19
ENDBRANCH  17  18
ENDBRANCH  16  17
ENDBRANCH  15  16
ENDBRANCH   1  15
TORSDOF 22
ENDMDL
MODEL 4
REMARK VINA RESULT:    -3.372      0.964      1.316
REMARK INTER + INTRA:         -10.182
REMARK INTER:                  -8.832
REMARK INTRA:                  -1.350
REMARK UNBOUND:                -2.473
REMARK SMILES CCCCCCCCCCCCCCCCCCCCCCCC(=O)[O-]
REMARK SMILES IDX 13 1 14 2 15 3 16 4 17 5 18 6 19 7 20 8 21 9 22 10 23 11
REMARK SMILES IDX 24 12 25 13 26 14 12 15 11 16 10 17 9 18 8 19 7 20 6 21 5 22
REMARK SMILES IDX 4 23 3 24 2 25 1 26
REMARK H PARENT
REMARK Flexibility Score: inf
ROOT
ATOM      1  C   UNL     1      -8.427  -4.605  -6.855  1.00  0.00     0.000 C 
ENDROOT
BRANCH   1   2
ATOM      2  C   UNL     1      -8.892  -5.573  -5.757  1.00  0.00     0.000 C 
BRANCH   2   3
ATOM      3  C   UNL     1     -10.365  -5.367  -5.357  1.00  0.00     0.000 C 
BRANCH   3   4
ATOM      4  C   UNL     1     -10.878  -3.921  -5.491  1.00  0.00     0.000 C 
BRANCH   4   5
ATOM      5  C   UNL     1     -10.795  -3.076  -4.205  1.00  0.00     0.000 C 
BRANCH   5   6
ATOM      6  C   UNL     1     -10.824  -3.912  -2.908  1.00  0.00     0.000 C 
BRANCH   6   7
ATOM      7  C   UNL     1     -10.111  -3.209  -1.739  1.00  0.00     0.000 C 
BRANCH   7   8
ATOM      8  C   UNL     1      -8.588  -3.419  -1.763  1.00  0.00     0.000 C 
BRANCH   8   9
ATOM      9  C   UNL     1      -7.817  -2.112  -1.997  1.00  0.00     0.000 C 
BRANCH   9  10
ATOM     10  C   UNL     1      -8.403  -0.972  -1.152  1.00  0.00     0.006 C 
BRANCH  10  11
ATOM     11  C   UNL     1      -7.532   0.285  -1.247  1.00  0.00     0.053 C 
BRANCH  11  12
ATOM     12  C   UNL     1      -8.272   1.475  -0.724  1.00  0.00     0.041 C 
ATOM     13  O   UNL     1      -7.817   2.124   0.255  1.00  0.00    -0.550 OA
ATOM     14  O   UNL     1      -9.490   1.838  -1.284  1.00  0.00    -0.550 OA
ENDBRANCH  11  12
ENDBRANCH  10  11
ENDBRANCH   9  10
ENDBRANCH   8   9
ENDBRANCH   7   8
ENDBRANCH   6   7
ENDBRANCH   5   6
ENDBRANCH   4   5
ENDBRANCH   3   4
ENDBRANCH   2   3
ENDBRANCH   1   2
BRANCH   1  15
ATOM     15  C   UNL     1      -9.566  -4.303  -7.836  1.00  0.00     0.000 C 
BRANCH  15  16
ATOM     16  C   UNL     1      -9.084  -4.409  -9.291  1.00  0.00     0.000 C 
BRANCH  16  17
ATOM     17  C   UNL     1      -9.638  -5.649 -10.011  1.00  0.00     0.000 C 
BRANCH  17  18
ATOM     18  C   UNL     1      -8.713  -6.872  -9.877  1.00  0.00    -0.000 C 
BRANCH  18  19
ATOM     19  C   UNL     1      -7.246  -6.481  -9.633  1.00  0.00    -0.000 C 
BRANCH  19  20
ATOM     20  C   UNL     1      -6.653  -7.150  -8.382  1.00  0.00    -0.000 C 
BRANCH  20  21
ATOM     21  C   UNL     1      -5.281  -6.571  -8.000  1.00  0.00    -0.000 C 
BRANCH  21  22
ATOM     22  C   UNL     1      -4.991  -6.679  -6.492  1.00  0.00    -0.000 C 
BRANCH  22  23
ATOM     23  C   UNL     1      -3.892  -5.708  -6.023  1.00  0.00    -0.000 C 
BRANCH  23  24
ATOM     24  C   UNL     1      -4.298  -4.224  -6.019  1.00  0.00    -0.000 C 
BRANCH  24  25
ATOM     25  C   UNL     1      -3.191  -3.301  -5.486  1.00  0.00    -0.003 C 
ATOM     26  C   UNL     1      -3.257  -1.926  -6.145  1.00  0.00     0.004 C 
ENDBRANCH  24  25
ENDBRANCH  23  24
ENDBRANCH  22  23
ENDBRANCH  21  22
ENDBRANCH  20  21
ENDBRANCH  19  20
ENDBRANCH  18  19
ENDBRANCH  17  18
ENDBRANCH  16  17
ENDBRANCH  15  16
ENDBRANCH   1  15
TORSDOF 22
ENDMDL
MODEL 5
REMARK VINA RESULT:    -3.159      1.277      2.258
REMARK INTER + INTRA:          -9.695
REMARK INTER:                  -7.651
REMARK INTRA:                  -2.045
REMARK UNBOUND:                -2.473
REMARK SMILES CCCCCCCCCCCCCCCCCCCCCCCC(=O)[O-]
REMARK SMILES IDX 13 1 14 2 15 3 16 4 17 5 18 6 19 7 20 8 21 9 22 10 23 11
REMARK SMILES IDX 24 12 25 13 26 14 12 15 11 16 10 17 9 18 8 19 7 20 6 21 5 22
REMARK SMILES IDX 4 23 3 24 2 25 1 26
REMARK H PARENT
REMARK Flexibility Score: inf
ROOT
ATOM      1  C   UNL     1      -9.014  -5.332  -6.243  1.00  0.00     0.000 C 
ENDROOT
BRANCH   1   2
ATOM      2  C   UNL     1      -9.017  -4.860  -4.781  1.00  0.00     0.000 C 
BRANCH   2   3
ATOM      3  C   UNL     1     -10.420  -4.478  -4.275  1.00  0.00     0.000 C 
BRANCH   3   4
ATOM      4  C   UNL     1     -10.558  -3.026  -3.778  1.00  0.00     0.000 C 
BRANCH   4   5
ATOM      5  C   UNL     1     -10.926  -2.877  -2.290  1.00  0.00     0.000 C 
BRANCH   5   6
ATOM      6  C   UNL     1     -10.060  -3.736  -1.344  1.00  0.00     0.000 C 
BRANCH   6   7
ATOM      7  C   UNL     1      -8.553  -3.525  -1.574  1.00  0.00     0.000 C 
BRANCH   7   8
ATOM      8  C   UNL     1      -8.061  -2.164  -1.057  1.00  0.00     0.000 C 
BRANCH   8   9
ATOM      9  C   UNL     1      -7.457  -1.295  -2.170  1.00  0.00     0.000 C 
BRANCH   9  10
ATOM     10  C   UNL     1      -7.282   0.155  -1.698  1.00  0.00     0.006 C 
BRANCH  10  11
ATOM     11  C   UNL     1      -8.446   0.585  -0.800  1.00  0.00     0.053 C 
BRANCH  11  12
ATOM     12  C   UNL     1      -8.329   2.034  -0.449  1.00  0.00     0.041 C 
ATOM     13  O   UNL     1      -7.807   2.382   0.643  1.00  0.00    -0.550 OA
ATOM     14  O   UNL     1      -8.843   3.000  -1.305  1.00  0.00    -0.550 OA
ENDBRANCH  11  12
ENDBRANCH  10  11
ENDBRANCH   9  10
ENDBRANCH   8   9
ENDBRANCH   7   8
ENDBRANCH   6   7
ENDBRANCH   5   6
ENDBRANCH   4   5
ENDBRANCH   3   4
ENDBRANCH   2   3
ENDBRANCH   1   2
BRANCH   1  15
ATOM     15  C   UNL     1     -10.438  -5.373  -6.808  1.00  0.00     0.000 C 
BRANCH  15  16
ATOM     16  C   UNL     1     -10.422  -5.420  -8.344  1.00  0.00     0.000 C 
BRANCH  16  17
ATOM     17  C   UNL     1     -10.462  -6.855  -8.894  1.00  0.00     0.000 C 
BRANCH  17  18
ATOM     18  C   UNL     1      -9.274  -7.165  -9.821  1.00  0.00    -0.000 C 
BRANCH  18  19
ATOM     19  C   UNL     1      -8.061  -6.260  -9.553  1.00  0.00    -0.000 C 
BRANCH  19  20
ATOM     20  C   UNL     1      -6.744  -7.047  -9.447  1.00  0.00    -0.000 C 
BRANCH  20  21
ATOM     21  C   UNL     1      -5.930  -6.665  -8.199  1.00  0.00    -0.000 C 
BRANCH  21  22
ATOM     22  C   UNL     1      -6.109  -5.188  -7.805  1.00  0.00    -0.000 C 
BRANCH  22  23
ATOM     23  C   UNL     1      -5.412  -4.835  -6.478  1.00  0.00    -0.000 C 
BRANCH  23  24
ATOM     24  C   UNL     1      -4.410  -5.888  -5.974  1.00  0.00    -0.000 C 
BRANCH  24  25
ATOM     25  C   UNL     1      -3.049  -5.285  -5.591  1.00  0.00    -0.003 C 
ATOM     26  C   UNL     1      -3.087  -3.761  -5.650  1.00  0.00     0.004 C 
ENDBRANCH  24  25
ENDBRANCH  23  24
ENDBRANCH  22  23
ENDBRANCH  21  22
ENDBRANCH  20  21
ENDBRANCH  19  20
ENDBRANCH  18  19
ENDBRANCH  17  18
ENDBRANCH  16  17
ENDBRANCH  15  16
ENDBRANCH   1  15
TORSDOF 22
ENDMDL
MODEL 6
REMARK VINA RESULT:    -2.609      2.140      6.812
REMARK INTER + INTRA:          -8.437
REMARK INTER:                  -7.342
REMARK INTRA:                  -1.095
REMARK UNBOUND:                -2.473
REMARK SMILES CCCCCCCCCCCCCCCCCCCCCCCC(=O)[O-]
REMARK SMILES IDX 13 1 14 2 15 3 16 4 17 5 18 6 19 7 20 8 21 9 22 10 23 11
REMARK SMILES IDX 24 12 25 13 26 14 12 15 11 16 10 17 9 18 8 19 7 20 6 21 5 22
REMARK SMILES IDX 4 23 3 24 2 25 1 26
REMARK H PARENT
REMARK Flexibility Score: inf
ROOT
ATOM      1  C   UNL     1     -10.784  -4.769  -6.651  1.00  0.00     0.000 C 
ENDROOT
BRANCH   1   2
ATOM      2  C   UNL     1      -9.656  -5.318  -7.537  1.00  0.00     0.000 C 
BRANCH   2   3
ATOM      3  C   UNL     1      -8.353  -4.504  -7.424  1.00  0.00     0.000 C 
BRANCH   3   4
ATOM      4  C   UNL     1      -7.301  -5.094  -6.466  1.00  0.00     0.000 C 
BRANCH   4   5
ATOM      5  C   UNL     1      -6.352  -6.132  -7.096  1.00  0.00     0.000 C 
BRANCH   5   6
ATOM      6  C   UNL     1      -5.937  -7.263  -6.130  1.00  0.00     0.000 C 
BRANCH   6   7
ATOM      7  C   UNL     1      -4.450  -7.187  -5.741  1.00  0.00     0.000 C 
BRANCH   7   8
ATOM      8  C   UNL     1      -3.787  -5.876  -6.189  1.00  0.00     0.000 C 
BRANCH   8   9
ATOM      9  C   UNL     1      -2.597  -5.483  -5.301  1.00  0.00     0.000 C 
BRANCH   9  10
ATOM     10  C   UNL     1      -2.267  -3.992  -5.454  1.00  0.00     0.006 C 
BRANCH  10  11
ATOM     11  C   UNL     1      -3.490  -3.207  -5.939  1.00  0.00     0.053 C 
BRANCH  11  12
ATOM     12  C   UNL     1      -3.336  -1.752  -5.624  1.00  0.00     0.041 C 
ATOM     13  O   UNL     1      -3.499  -0.888  -6.526  1.00  0.00    -0.550 OA
ATOM     14  O   UNL     1      -2.963  -1.353  -4.347  1.00  0.00    -0.550 OA
ENDBRANCH  11  12
ENDBRANCH  10  11
ENDBRANCH   9  10
ENDBRANCH   8   9
ENDBRANCH   7   8
ENDBRANCH   6   7
ENDBRANCH   5   6
ENDBRANCH   4   5
ENDBRANCH   3   4
ENDBRANCH   2   3
ENDBRANCH   1   2
BRANCH   1  15
ATOM     15  C   UNL     1     -10.302  -3.566  -5.833  1.00  0.00     0.000 C 
BRANCH  15  16
ATOM     16  C   UNL     1     -11.090  -3.440  -4.520  1.00  0.00     0.000 C 
BRANCH  16  17
ATOM     17  C   UNL     1     -11.125  -4.752  -3.720  1.00  0.00     0.000 C 
BRANCH  17  18
ATOM     18  C   UNL     1     -10.914  -4.530  -2.212  1.00  0.00    -0.000 C 
BRANCH  18  19
ATOM     19  C   UNL     1     -10.839  -3.041  -1.837  1.00  0.00    -0.000 C 
BRANCH  19  20
ATOM     20  C   UNL     1      -9.410  -2.586  -1.492  1.00  0.00    -0.000 C 
BRANCH  20  21
ATOM     21  C   UNL     1      -8.418  -2.849  -2.637  1.00  0.00    -0.000 C 
BRANCH  21  22
ATOM     22  C   UNL     1      -7.401  -1.707  -2.813  1.00  0.00    -0.000 C 
BRANCH  22  23
ATOM     23  C   UNL     1      -7.090  -0.974  -1.495  1.00  0.00    -0.000 C 
BRANCH  23  24
ATOM     24  C   UNL     1      -8.142   0.064  -1.068  1.00  0.00    -0.000 C 
BRANCH  24  25
ATOM     25  C   UNL     1      -7.560   1.477  -0.911  1.00  0.00    -0.003 C 
ATOM     26  C   UNL     1      -8.670   2.520  -0.801  1.00  0.00     0.004 C 
ENDBRANCH  24  25
ENDBRANCH  23  24
ENDBRANCH  22  23
ENDBRANCH  21  22
ENDBRANCH  20  21
ENDBRANCH  19  20
ENDBRANCH  18  19
ENDBRANCH  17  18
ENDBRANCH  16  17
ENDBRANCH  15  16
ENDBRANCH   1  15
TORSDOF 22
ENDMDL
MODEL 7
REMARK VINA RESULT:    -2.500      2.039      4.184
REMARK INTER + INTRA:          -8.188
REMARK INTER:                  -6.273
REMARK INTRA:                  -1.915
REMARK UNBOUND:                -2.473
REMARK SMILES CCCCCCCCCCCCCCCCCCCCCCCC(=O)[O-]
REMARK SMILES IDX 13 1 14 2 15 3 16 4 17 5 18 6 19 7 20 8 21 9 22 10 23 11
REMARK SMILES IDX 24 12 25 13 26 14 12 15 11 16 10 17 9 18 8 19 7 20 6 21 5 22
REMARK SMILES IDX 4 23 3 24 2 25 1 26
REMARK H PARENT
REMARK Flexibility Score: inf
ROOT
ATOM      1  C   UNL     1      -6.710  -6.729  -5.082  1.00  0.00     0.000 C 
ENDROOT
BRANCH   1   2
ATOM      2  C   UNL     1      -7.957  -6.061  -5.679  1.00  0.00     0.000 C 
BRANCH   2   3
ATOM      3  C   UNL     1      -8.441  -4.849  -4.861  1.00  0.00     0.000 C 
BRANCH   3   4
ATOM      4  C   UNL     1      -9.897  -4.940  -4.365  1.00  0.00     0.000 C 
BRANCH   4   5
ATOM      5  C   UNL     1     -10.428  -3.677  -3.662  1.00  0.00     0.000 C 
BRANCH   5   6
ATOM      6  C   UNL     1     -10.878  -3.917  -2.205  1.00  0.00     0.000 C 
BRANCH   6   7
ATOM      7  C   UNL     1      -9.729  -3.732  -1.197  1.00  0.00     0.000 C 
BRANCH   7   8
ATOM      8  C   UNL     1      -8.575  -2.891  -1.764  1.00  0.00     0.000 C 
BRANCH   8   9
ATOM      9  C   UNL     1      -8.446  -1.526  -1.071  1.00  0.00     0.000 C 
BRANCH   9  10
ATOM     10  C   UNL     1      -7.694  -0.529  -1.962  1.00  0.00     0.006 C 
BRANCH  10  11
ATOM     11  C   UNL     1      -7.060   0.587  -1.125  1.00  0.00     0.053 C 
BRANCH  11  12
ATOM     12  C   UNL     1      -8.109   1.535  -0.637  1.00  0.00     0.041 C 
ATOM     13  O   UNL     1      -9.210   1.628  -1.240  1.00  0.00    -0.550 OA
ATOM     14  O   UNL     1      -7.851   2.354   0.456  1.00  0.00    -0.550 OA
ENDBRANCH  11  12
ENDBRANCH  10  11
ENDBRANCH   9  10
ENDBRANCH   8   9
ENDBRANCH   7   8
ENDBRANCH   6   7
ENDBRANCH   5   6
ENDBRANCH   4   5
ENDBRANCH   3   4
ENDBRANCH   2   3
ENDBRANCH   1   2
BRANCH   1  15
ATOM     15  C   UNL     1      -5.673  -7.025  -6.171  1.00  0.00     0.000 C 
BRANCH  15  16
ATOM     16  C   UNL     1      -5.842  -6.076  -7.368  1.00  0.00     0.000 C 
BRANCH  16  17
ATOM     17  C   UNL     1      -5.536  -6.756  -8.712  1.00  0.00     0.000 C 
BRANCH  17  18
ATOM     18  C   UNL     1      -6.056  -5.948  -9.914  1.00  0.00    -0.000 C 
BRANCH  18  19
ATOM     19  C   UNL     1      -7.572  -6.103 -10.120  1.00  0.00    -0.000 C 
BRANCH  19  20
ATOM     20  C   UNL     1      -8.120  -7.415  -9.533  1.00  0.00    -0.000 C 
BRANCH  20  21
ATOM     21  C   UNL     1      -9.584  -7.668  -9.927  1.00  0.00    -0.000 C 
BRANCH  21  22
ATOM     22  C   UNL     1     -10.463  -6.413  -9.778  1.00  0.00    -0.000 C 
BRANCH  22  23
ATOM     23  C   UNL     1     -11.125  -6.307  -8.392  1.00  0.00    -0.000 C 
BRANCH  23  24
ATOM     24  C   UNL     1     -11.108  -4.899  -7.773  1.00  0.00    -0.000 C 
BRANCH  24  25
ATOM     25  C   UNL     1      -9.974  -4.018  -8.319  1.00  0.00    -0.003 C 
ATOM     26  C   UNL     1     -10.393  -3.322  -9.611  1.00  0.00     0.004 C 
ENDBRANCH  24  25
ENDBRANCH  23  24
ENDBRANCH  22  23
ENDBRANCH  21  22
ENDBRANCH  20  21
ENDBRANCH  19  20
ENDBRANCH  18  19
ENDBRANCH  17  18
ENDBRANCH  16  17
ENDBRANCH  15  16
ENDBRANCH   1  15
TORSDOF 22
ENDMDL
