MODEL 1
REMARK VINA RESULT:    -4.286      0.000      0.000
REMARK INTER + INTRA:          -9.569
REMARK INTER:                  -8.294
REMARK INTRA:                  -1.275
REMARK UNBOUND:                -1.275
REMARK SMILES CCCCCCCCCCCCCCCCCC(=O)[O-]
REMARK SMILES IDX 10 1 11 2 12 3 13 4 14 5 15 6 16 7 17 8 18 9 19 10 20 11
REMARK SMILES IDX 9 12 8 13 7 14 6 15 5 16 4 17 3 18 2 19 1 20
REMARK H PARENT
REMARK Flexibility Score: inf
ROOT
ATOM      1  C   UNL     1     -10.105 -13.159  -2.145  1.00  0.00     0.000 C 
ENDROOT
BRANCH   1   2
ATOM      2  C   UNL     1      -8.684 -12.627  -2.413  1.00  0.00     0.000 C 
BRANCH   2   3
ATOM      3  C   UNL     1      -7.933 -13.335  -3.556  1.00  0.00     0.000 C 
BRANCH   3   4
ATOM      4  C   UNL     1      -6.564 -12.699  -3.853  1.00  0.00     0.000 C 
BRANCH   4   5
ATOM      5  C   UNL     1      -5.552 -13.707  -4.422  1.00  0.00     0.000 C 
BRANCH   5   6
ATOM      6  C   UNL     1      -4.880 -13.205  -5.712  1.00  0.00     0.000 C 
BRANCH   6   7
ATOM      7  C   UNL     1      -5.697 -12.109  -6.420  1.00  0.00     0.006 C 
BRANCH   7   8
ATOM      8  C   UNL     1      -6.240 -12.513  -7.800  1.00  0.00     0.053 C 
BRANCH   8   9
ATOM      9  C   UNL     1      -7.652 -12.055  -8.005  1.00  0.00     0.041 C 
ATOM     10  O   UNL     1      -8.010 -11.584  -9.117  1.00  0.00    -0.550 OA
ATOM     11  O   UNL     1      -8.579 -12.178  -6.979  1.00  0.00    -0.550 OA
ENDBRANCH   8   9
ENDBRANCH   7   8
ENDBRANCH   6   7
ENDBRANCH   5   6
ENDBRANCH   4   5
ENDBRANCH   3   4
ENDBRANCH   2   3
ENDBRANCH   1   2
BRANCH   1  12
ATOM     12  C   UNL     1     -10.855 -13.675  -3.390  1.00  0.00     0.000 C 
BRANCH  12  13
ATOM     13  C   UNL     1     -11.583 -12.567  -4.181  1.00  0.00    -0.000 C 
BRANCH  13  14
ATOM     14  C   UNL     1     -13.114 -12.703  -4.108  1.00  0.00    -0.000 C 
BRANCH  14  15
ATOM     15  C   UNL     1     -13.824 -11.349  -3.958  1.00  0.00    -0.000 C 
BRANCH  15  16
ATOM     16  C   UNL     1     -13.956 -10.914  -2.488  1.00  0.00    -0.000 C 
BRANCH  16  17
ATOM     17  C   UNL     1     -13.809 -12.087  -1.502  1.00  0.00    -0.000 C 
BRANCH  17  18
ATOM     18  C   UNL     1     -13.081 -11.751  -0.184  1.00  0.00    -0.000 C 
BRANCH  18  19
ATOM     19  C   UNL     1     -13.866 -12.086   1.097  1.00  0.00    -0.003 C 
ATOM     20  C   UNL     1     -13.347 -11.342   2.327  1.00  0.00     0.004 C 
ENDBRANCH  18  19
ENDBRANCH  17  18
ENDBRANCH  16  17
ENDBRANCH  15  16
ENDBRANCH  14  15
ENDBRANCH  13  14
ENDBRANCH  12  13
ENDBRANCH   1  12
TORSDOF 16
ENDMDL
MODEL 2
REMARK VINA RESULT:    -4.133     17.184     19.460
REMARK INTER + INTRA:          -9.273
REMARK INTER:                  -6.602
REMARK INTRA:                  -2.672
REMARK UNBOUND:                -1.275
REMARK SMILES CCCCCCCCCCCCCCCCCC(=O)[O-]
REMARK SMILES IDX 10 1 11 2 12 3 13 4 14 5 15 6 16 7 17 8 18 9 19 10 20 11
REMARK SMILES IDX 9 12 8 13 7 14 6 15 5 16 4 17 3 18 2 19 1 20
REMARK H PARENT
REMARK Flexibility Score: inf
ROOT
ATOM      1  C   UNL     1       2.575   0.177  -4.339  1.00  0.00     0.000 C 
ENDROOT
BRANCH   1   2
ATOM      2  C   UNL     1       2.600   1.353  -5.333  1.00  0.00     0.000 C 
BRANCH   2   3
ATOM      3  C   UNL     1       4.008   1.824  -5.741  1.00  0.00     0.000 C 
BRANCH   3   4
ATOM      4  C   UNL     1       4.098   3.350  -5.915  1.00  0.00     0.000 C 
BRANCH   4   5
ATOM      5  C   UNL     1       2.721   4.009  -6.100  1.00  0.00     0.000 C 
BRANCH   5   6
ATOM      6  C   UNL     1       2.434   4.377  -7.567  1.00  0.00     0.000 C 
BRANCH   6   7
ATOM      7  C   UNL     1       0.937   4.609  -7.840  1.00  0.00     0.006 C 
BRANCH   7   8
ATOM      8  C   UNL     1       0.051   4.582  -6.584  1.00  0.00     0.053 C 
BRANCH   8   9
ATOM      9  C   UNL     1      -1.407   4.626  -6.923  1.00  0.00     0.041 C 
ATOM     10  O   UNL     1      -1.777   4.695  -8.125  1.00  0.00    -0.550 OA
ATOM     11  O   UNL     1      -2.359   4.557  -5.914  1.00  0.00    -0.550 OA
ENDBRANCH   8   9
ENDBRANCH   7   8
ENDBRANCH   6   7
ENDBRANCH   5   6
ENDBRANCH   4   5
ENDBRANCH   3   4
ENDBRANCH   2   3
ENDBRANCH   1   2
BRANCH   1  12
ATOM     12  C   UNL     1       3.900  -0.602  -4.214  1.00  0.00     0.000 C 
BRANCH  12  13
ATOM     13  C   UNL     1       3.749  -2.124  -4.428  1.00  0.00    -0.000 C 
BRANCH  13  14
ATOM     14  C   UNL     1       4.615  -2.641  -5.591  1.00  0.00    -0.000 C 
BRANCH  14  15
ATOM     15  C   UNL     1       4.131  -2.142  -6.961  1.00  0.00    -0.000 C 
BRANCH  15  16
ATOM     16  C   UNL     1       2.654  -2.482  -7.222  1.00  0.00    -0.000 C 
BRANCH  16  17
ATOM     17  C   UNL     1       1.965  -1.472  -8.157  1.00  0.00    -0.000 C 
BRANCH  17  18
ATOM     18  C   UNL     1       2.865  -0.328  -8.668  1.00  0.00    -0.000 C 
BRANCH  18  19
ATOM     19  C   UNL     1       2.136   0.998  -8.949  1.00  0.00    -0.003 C 
ATOM     20  C   UNL     1       0.677   0.985  -8.494  1.00  0.00     0.004 C 
ENDBRANCH  18  19
ENDBRANCH  17  18
ENDBRANCH  16  17
ENDBRANCH  15  16
ENDBRANCH  14  15
ENDBRANCH  13  14
ENDBRANCH  12  13
ENDBRANCH   1  12
TORSDOF 16
ENDMDL
MODEL 3
REMARK VINA RESULT:    -4.101      5.138     10.317
REMARK INTER + INTRA:          -9.213
REMARK INTER:                  -8.473
REMARK INTRA:                  -0.740
REMARK UNBOUND:                -1.275
REMARK SMILES CCCCCCCCCCCCCCCCCC(=O)[O-]
REMARK SMILES IDX 10 1 11 2 12 3 13 4 14 5 15 6 16 7 17 8 18 9 19 10 20 11
REMARK SMILES IDX 9 12 8 13 7 14 6 15 5 16 4 17 3 18 2 19 1 20
REMARK H PARENT
REMARK Flexibility Score: inf
ROOT
ATOM      1  C   UNL     1     -11.266 -13.308  -0.988  1.00  0.00     0.000 C 
ENDROOT
BRANCH   1   2
ATOM      2  C   UNL     1     -12.511 -12.514  -1.428  1.00  0.00     0.000 C 
BRANCH   2   3
ATOM      3  C   UNL     1     -13.198 -11.716  -0.305  1.00  0.00     0.000 C 
BRANCH   3   4
ATOM      4  C   UNL     1     -12.884 -12.269   1.096  1.00  0.00     0.000 C 
BRANCH   4   5
ATOM      5  C   UNL     1     -13.372 -11.343   2.223  1.00  0.00     0.000 C 
BRANCH   5   6
ATOM      6  C   UNL     1     -12.585 -11.539   3.531  1.00  0.00     0.000 C 
BRANCH   6   7
ATOM      7  C   UNL     1     -12.420 -10.231   4.327  1.00  0.00     0.006 C 
BRANCH   7   8
ATOM      8  C   UNL     1     -13.122 -10.227   5.694  1.00  0.00     0.053 C 
BRANCH   8   9
ATOM      9  C   UNL     1     -12.145 -10.154   6.827  1.00  0.00     0.041 C 
ATOM     10  O   UNL     1     -11.552 -11.193   7.221  1.00  0.00    -0.550 OA
ATOM     11  O   UNL     1     -11.865  -8.933   7.426  1.00  0.00    -0.550 OA
ENDBRANCH   8   9
ENDBRANCH   7   8
ENDBRANCH   6   7
ENDBRANCH   5   6
ENDBRANCH   4   5
ENDBRANCH   3   4
ENDBRANCH   2   3
ENDBRANCH   1   2
BRANCH   1  12
ATOM     12  C   UNL     1     -10.363 -13.797  -2.138  1.00  0.00     0.000 C 
BRANCH  12  13
ATOM     13  C   UNL     1      -9.116 -12.916  -2.367  1.00  0.00    -0.000 C 
BRANCH  13  14
ATOM     14  C   UNL     1      -8.231 -13.436  -3.514  1.00  0.00    -0.000 C 
BRANCH  14  15
ATOM     15  C   UNL     1      -6.887 -12.698  -3.610  1.00  0.00    -0.000 C 
BRANCH  15  16
ATOM     16  C   UNL     1      -5.778 -13.571  -4.222  1.00  0.00    -0.000 C 
BRANCH  16  17
ATOM     17  C   UNL     1      -5.128 -12.929  -5.460  1.00  0.00    -0.000 C 
BRANCH  17  18
ATOM     18  C   UNL     1      -6.006 -11.903  -6.207  1.00  0.00    -0.000 C 
BRANCH  18  19
ATOM     19  C   UNL     1      -6.642 -12.417  -7.511  1.00  0.00    -0.003 C 
ATOM     20  C   UNL     1      -8.108 -12.011  -7.659  1.00  0.00     0.004 C 
ENDBRANCH  18  19
ENDBRANCH  17  18
ENDBRANCH  16  17
ENDBRANCH  15  16
ENDBRANCH  14  15
ENDBRANCH  13  14
ENDBRANCH  12  13
ENDBRANCH   1  12
TORSDOF 16
ENDMDL
MODEL 4
REMARK VINA RESULT:    -4.097      4.429      9.589
REMARK INTER + INTRA:          -9.204
REMARK INTER:                  -8.452
REMARK INTRA:                  -0.752
REMARK UNBOUND:                -1.275
REMARK SMILES CCCCCCCCCCCCCCCCCC(=O)[O-]
REMARK SMILES IDX 10 1 11 2 12 3 13 4 14 5 15 6 16 7 17 8 18 9 19 10 20 11
REMARK SMILES IDX 9 12 8 13 7 14 6 15 5 16 4 17 3 18 2 19 1 20
REMARK H PARENT
REMARK Flexibility Score: inf
ROOT
ATOM      1  C   UNL     1     -14.028 -11.264  -2.644  1.00  0.00     0.000 C 
ENDROOT
BRANCH   1   2
ATOM      2  C   UNL     1     -13.978 -12.152  -1.386  1.00  0.00     0.000 C 
BRANCH   2   3
ATOM      3  C   UNL     1     -12.892 -11.766  -0.366  1.00  0.00     0.000 C 
BRANCH   3   4
ATOM      4  C   UNL     1     -13.103 -12.425   1.008  1.00  0.00     0.000 C 
BRANCH   4   5
ATOM      5  C   UNL     1     -13.817 -11.499   2.007  1.00  0.00     0.000 C 
BRANCH   5   6
ATOM      6  C   UNL     1     -13.017 -11.307   3.308  1.00  0.00     0.000 C 
BRANCH   6   7
ATOM      7  C   UNL     1     -13.359  -9.988   4.026  1.00  0.00     0.006 C 
BRANCH   7   8
ATOM      8  C   UNL     1     -12.989  -9.962   5.517  1.00  0.00     0.053 C 
BRANCH   8   9
ATOM      9  C   UNL     1     -11.616 -10.506   5.765  1.00  0.00     0.041 C 
ATOM     10  O   UNL     1     -10.627 -10.039   5.141  1.00  0.00    -0.550 OA
ATOM     11  O   UNL     1     -11.424 -11.506   6.710  1.00  0.00    -0.550 OA
ENDBRANCH   8   9
ENDBRANCH   7   8
ENDBRANCH   6   7
ENDBRANCH   5   6
ENDBRANCH   4   5
ENDBRANCH   3   4
ENDBRANCH   2   3
ENDBRANCH   1   2
BRANCH   1  12
ATOM     12  C   UNL     1     -13.277 -11.823  -3.869  1.00  0.00     0.000 C 
BRANCH  12  13
ATOM     13  C   UNL     1     -12.506 -13.129  -3.583  1.00  0.00    -0.000 C 
BRANCH  13  14
ATOM     14  C   UNL     1     -10.984 -12.961  -3.748  1.00  0.00    -0.000 C 
BRANCH  14  15
ATOM     15  C   UNL     1     -10.207 -13.300  -2.467  1.00  0.00    -0.000 C 
BRANCH  15  16
ATOM     16  C   UNL     1      -8.753 -12.800  -2.511  1.00  0.00    -0.000 C 
BRANCH  16  17
ATOM     17  C   UNL     1      -7.982 -13.315  -3.740  1.00  0.00    -0.000 C 
BRANCH  17  18
ATOM     18  C   UNL     1      -6.505 -12.876  -3.822  1.00  0.00    -0.000 C 
BRANCH  18  19
ATOM     19  C   UNL     1      -6.099 -12.203  -5.145  1.00  0.00    -0.003 C 
ATOM     20  C   UNL     1      -4.939 -12.913  -5.844  1.00  0.00     0.004 C 
ENDBRANCH  18  19
ENDBRANCH  17  18
ENDBRANCH  16  17
ENDBRANCH  15  16
ENDBRANCH  14  15
ENDBRANCH  13  14
ENDBRANCH  12  13
ENDBRANCH   1  12
TORSDOF 16
ENDMDL
MODEL 5
REMARK VINA RESULT:    -4.066      1.252      2.514
REMARK INTER + INTRA:          -9.144
REMARK INTER:                  -8.339
REMARK INTRA:                  -0.805
REMARK UNBOUND:                -1.275
REMARK SMILES CCCCCCCCCCCCCCCCCC(=O)[O-]
REMARK SMILES IDX 10 1 11 2 12 3 13 4 14 5 15 6 16 7 17 8 18 9 19 10 20 11
REMARK SMILES IDX 9 12 8 13 7 14 6 15 5 16 4 17 3 18 2 19 1 20
REMARK H PARENT
REMARK Flexibility Score: inf
ROOT
ATOM      1  C   UNL     1      -9.984 -13.002  -2.127  1.00  0.00     0.000 C 
ENDROOT
BRANCH   1   2
ATOM      2  C   UNL     1      -8.714 -13.275  -2.954  1.00  0.00     0.000 C 
BRANCH   2   3
ATOM      3  C   UNL     1      -7.555 -12.293  -2.703  1.00  0.00     0.000 C 
BRANCH   3   4
ATOM      4  C   UNL     1      -6.567 -12.224  -3.880  1.00  0.00     0.000 C 
BRANCH   4   5
ATOM      5  C   UNL     1      -6.039 -13.608  -4.294  1.00  0.00     0.000 C 
BRANCH   5   6
ATOM      6  C   UNL     1      -4.957 -13.526  -5.385  1.00  0.00     0.000 C 
BRANCH   6   7
ATOM      7  C   UNL     1      -5.271 -12.464  -6.454  1.00  0.00     0.006 C 
BRANCH   7   8
ATOM      8  C   UNL     1      -6.055 -12.995  -7.665  1.00  0.00     0.053 C 
BRANCH   8   9
ATOM      9  C   UNL     1      -7.324 -12.233  -7.892  1.00  0.00     0.041 C 
ATOM     10  O   UNL     1      -8.158 -12.098  -6.958  1.00  0.00    -0.550 OA
ATOM     11  O   UNL     1      -7.570 -11.642  -9.125  1.00  0.00    -0.550 OA
ENDBRANCH   8   9
ENDBRANCH   7   8
ENDBRANCH   6   7
ENDBRANCH   5   6
ENDBRANCH   4   5
ENDBRANCH   3   4
ENDBRANCH   2   3
ENDBRANCH   1   2
BRANCH   1  12
ATOM     12  C   UNL     1     -11.309 -13.374  -2.822  1.00  0.00     0.000 C 
BRANCH  12  13
ATOM     13  C   UNL     1     -12.546 -13.258  -1.905  1.00  0.00    -0.000 C 
BRANCH  13  14
ATOM     14  C   UNL     1     -12.206 -12.645  -0.535  1.00  0.00    -0.000 C 
BRANCH  14  15
ATOM     15  C   UNL     1     -13.208 -11.563  -0.103  1.00  0.00    -0.000 C 
BRANCH  15  16
ATOM     16  C   UNL     1     -13.848 -11.864   1.263  1.00  0.00    -0.000 C 
BRANCH  16  17
ATOM     17  C   UNL     1     -12.871 -11.666   2.436  1.00  0.00    -0.000 C 
BRANCH  17  18
ATOM     18  C   UNL     1     -13.516 -11.203   3.759  1.00  0.00    -0.000 C 
BRANCH  18  19
ATOM     19  C   UNL     1     -12.912  -9.924   4.365  1.00  0.00    -0.003 C 
ATOM     20  C   UNL     1     -11.479 -10.118   4.860  1.00  0.00     0.004 C 
ENDBRANCH  18  19
ENDBRANCH  17  18
ENDBRANCH  16  17
ENDBRANCH  15  16
ENDBRANCH  14  15
ENDBRANCH  13  14
ENDBRANCH  12  13
ENDBRANCH   1  12
TORSDOF 16
ENDMDL
MODEL 6
REMARK VINA RESULT:    -4.032     16.631     19.405
REMARK INTER + INTRA:          -9.078
REMARK INTER:                  -6.628
REMARK INTRA:                  -2.450
REMARK UNBOUND:                -1.275
REMARK SMILES CCCCCCCCCCCCCCCCCC(=O)[O-]
REMARK SMILES IDX 10 1 11 2 12 3 13 4 14 5 15 6 16 7 17 8 18 9 19 10 20 11
REMARK SMILES IDX 9 12 8 13 7 14 6 15 5 16 4 17 3 18 2 19 1 20
REMARK H PARENT
REMARK Flexibility Score: inf
ROOT
ATOM      1  C   UNL     1       2.501   1.270  -5.306  1.00  0.00     0.000 C 
ENDROOT
BRANCH   1   2
ATOM      2  C   UNL     1       2.594   0.238  -4.166  1.00  0.00     0.000 C 
BRANCH   2   3
ATOM      3  C   UNL     1       3.858  -0.641  -4.193  1.00  0.00     0.000 C 
BRANCH   3   4
ATOM      4  C   UNL     1       3.606  -2.026  -4.813  1.00  0.00     0.000 C 
BRANCH   4   5
ATOM      5  C   UNL     1       3.732  -2.023  -6.346  1.00  0.00     0.000 C 
BRANCH   5   6
ATOM      6  C   UNL     1       2.434  -2.462  -7.046  1.00  0.00     0.000 C 
BRANCH   6   7
ATOM      7  C   UNL     1       2.375  -2.024  -8.520  1.00  0.00     0.006 C 
BRANCH   7   8
ATOM      8  C   UNL     1       2.048  -0.536  -8.728  1.00  0.00     0.053 C 
BRANCH   8   9
ATOM      9  C   UNL     1       0.575  -0.272  -8.673  1.00  0.00     0.041 C 
ATOM     10  O   UNL     1      -0.244  -1.178  -8.978  1.00  0.00    -0.550 OA
ATOM     11  O   UNL     1       0.106   0.966  -8.251  1.00  0.00    -0.550 OA
ENDBRANCH   8   9
ENDBRANCH   7   8
ENDBRANCH   6   7
ENDBRANCH   5   6
ENDBRANCH   4   5
ENDBRANCH   3   4
ENDBRANCH   2   3
ENDBRANCH   1   2
BRANCH   1  12
ATOM     12  C   UNL     1       3.833   1.944  -5.689  1.00  0.00     0.000 C 
BRANCH  12  13
ATOM     13  C   UNL     1       3.949   2.286  -7.191  1.00  0.00    -0.000 C 
BRANCH  13  14
ATOM     14  C   UNL     1       4.371   3.746  -7.430  1.00  0.00    -0.000 C 
BRANCH  14  15
ATOM     15  C   UNL     1       4.464   4.559  -6.129  1.00  0.00    -0.000 C 
BRANCH  15  16
ATOM     16  C   UNL     1       3.569   5.810  -6.152  1.00  0.00    -0.000 C 
BRANCH  16  17
ATOM     17  C   UNL     1       2.345   5.685  -5.227  1.00  0.00    -0.000 C 
BRANCH  17  18
ATOM     18  C   UNL     1       0.985   5.580  -5.947  1.00  0.00    -0.000 C 
BRANCH  18  19
ATOM     19  C   UNL     1       0.726   4.240  -6.658  1.00  0.00    -0.003 C 
ATOM     20  C   UNL     1       0.737   4.361  -8.182  1.00  0.00     0.004 C 
ENDBRANCH  18  19
ENDBRANCH  17  18
ENDBRANCH  16  17
ENDBRANCH  15  16
ENDBRANCH  14  15
ENDBRANCH  13  14
ENDBRANCH  12  13
ENDBRANCH   1  12
TORSDOF 16
ENDMDL
MODEL 7
REMARK VINA RESULT:    -3.970      7.823     11.831
REMARK INTER + INTRA:          -8.959
REMARK INTER:                  -6.039
REMARK INTRA:                  -2.919
REMARK UNBOUND:                -1.275
REMARK SMILES CCCCCCCCCCCCCCCCCC(=O)[O-]
REMARK SMILES IDX 10 1 11 2 12 3 13 4 14 5 15 6 16 7 17 8 18 9 19 10 20 11
REMARK SMILES IDX 9 12 8 13 7 14 6 15 5 16 4 17 3 18 2 19 1 20
REMARK H PARENT
REMARK Flexibility Score: inf
ROOT
ATOM      1  C   UNL     1     -11.385 -10.755   5.117  1.00  0.00     0.000 C 
ENDROOT
BRANCH   1   2
ATOM      2  C   UNL     1     -11.345 -12.277   4.877  1.00  0.00     0.000 C 
BRANCH   2   3
ATOM      3  C   UNL     1     -11.600 -13.135   6.130  1.00  0.00     0.000 C 
BRANCH   3   4
ATOM      4  C   UNL     1     -13.042 -13.669   6.202  1.00  0.00     0.000 C 
BRANCH   4   5
ATOM      5  C   UNL     1     -13.951 -12.804   7.090  1.00  0.00     0.000 C 
BRANCH   5   6
ATOM      6  C   UNL     1     -13.166 -12.035   8.167  1.00  0.00     0.000 C 
BRANCH   6   7
ATOM      7  C   UNL     1     -13.776 -10.655   8.475  1.00  0.00     0.006 C 
BRANCH   7   8
ATOM      8  C   UNL     1     -12.753  -9.509   8.539  1.00  0.00     0.053 C 
BRANCH   8   9
ATOM      9  C   UNL     1     -13.415  -8.167   8.604  1.00  0.00     0.041 C 
ATOM     10  O   UNL     1     -14.573  -8.008   8.136  1.00  0.00    -0.550 OA
ATOM     11  O   UNL     1     -12.766  -7.100   9.211  1.00  0.00    -0.550 OA
ENDBRANCH   8   9
ENDBRANCH   7   8
ENDBRANCH   6   7
ENDBRANCH   5   6
ENDBRANCH   4   5
ENDBRANCH   3   4
ENDBRANCH   2   3
ENDBRANCH   1   2
BRANCH   1  12
ATOM     12  C   UNL     1     -12.425  -9.988   4.277  1.00  0.00     0.000 C 
BRANCH  12  13
ATOM     13  C   UNL     1     -13.725  -9.662   5.044  1.00  0.00    -0.000 C 
BRANCH  13  14
ATOM     14  C   UNL     1     -14.945 -10.410   4.476  1.00  0.00    -0.000 C 
BRANCH  14  15
ATOM     15  C   UNL     1     -14.704 -10.948   3.057  1.00  0.00    -0.000 C 
BRANCH  15  16
ATOM     16  C   UNL     1     -14.654 -12.485   3.011  1.00  0.00    -0.000 C 
BRANCH  16  17
ATOM     17  C   UNL     1     -13.595 -13.019   2.030  1.00  0.00    -0.000 C 
BRANCH  17  18
ATOM     18  C   UNL     1     -12.847 -11.940   1.218  1.00  0.00    -0.000 C 
BRANCH  18  19
ATOM     19  C   UNL     1     -12.588 -12.299  -0.256  1.00  0.00    -0.003 C 
ATOM     20  C   UNL     1     -13.608 -11.677  -1.210  1.00  0.00     0.004 C 
ENDBRANCH  18  19
ENDBRANCH  17  18
ENDBRANCH  16  17
ENDBRANCH  15  16
ENDBRANCH  14  15
ENDBRANCH  13  14
ENDBRANCH  12  13
ENDBRANCH   1  12
TORSDOF 16
ENDMDL
MODEL 8
REMARK VINA RESULT:    -3.965      7.980     12.223
REMARK INTER + INTRA:          -8.949
REMARK INTER:                  -6.069
REMARK INTRA:                  -2.880
REMARK UNBOUND:                -1.275
REMARK SMILES CCCCCCCCCCCCCCCCCC(=O)[O-]
REMARK SMILES IDX 10 1 11 2 12 3 13 4 14 5 15 6 16 7 17 8 18 9 19 10 20 11
REMARK SMILES IDX 9 12 8 13 7 14 6 15 5 16 4 17 3 18 2 19 1 20
REMARK H PARENT
REMARK Flexibility Score: inf
ROOT
ATOM      1  C   UNL     1     -11.448 -10.366   5.145  1.00  0.00     0.000 C 
ENDROOT
BRANCH   1   2
ATOM      2  C   UNL     1     -12.579  -9.970   4.177  1.00  0.00     0.000 C 
BRANCH   2   3
ATOM      3  C   UNL     1     -13.926  -9.654   4.852  1.00  0.00     0.000 C 
BRANCH   3   4
ATOM      4  C   UNL     1     -13.801  -9.473   6.375  1.00  0.00     0.000 C 
BRANCH   4   5
ATOM      5  C   UNL     1     -14.669 -10.468   7.164  1.00  0.00     0.000 C 
BRANCH   5   6
ATOM      6  C   UNL     1     -13.988 -10.947   8.459  1.00  0.00     0.000 C 
BRANCH   6   7
ATOM      7  C   UNL     1     -12.645 -10.242   8.720  1.00  0.00     0.006 C 
BRANCH   7   8
ATOM      8  C   UNL     1     -11.991 -10.599  10.064  1.00  0.00     0.053 C 
BRANCH   8   9
ATOM      9  C   UNL     1     -10.684 -11.308   9.883  1.00  0.00     0.041 C 
ATOM     10  O   UNL     1     -10.642 -12.421   9.295  1.00  0.00    -0.550 OA
ATOM     11  O   UNL     1      -9.507 -10.723  10.333  1.00  0.00    -0.550 OA
ENDBRANCH   8   9
ENDBRANCH   7   8
ENDBRANCH   6   7
ENDBRANCH   5   6
ENDBRANCH   4   5
ENDBRANCH   3   4
ENDBRANCH   2   3
ENDBRANCH   1   2
BRANCH   1  12
ATOM     12  C   UNL     1     -11.044 -11.853   5.104  1.00  0.00     0.000 C 
BRANCH  12  13
ATOM     13  C   UNL     1     -11.921 -12.761   5.993  1.00  0.00    -0.000 C 
BRANCH  13  14
ATOM     14  C   UNL     1     -12.700 -13.807   5.176  1.00  0.00    -0.000 C 
BRANCH  14  15
ATOM     15  C   UNL     1     -14.223 -13.629   5.282  1.00  0.00    -0.000 C 
BRANCH  15  16
ATOM     16  C   UNL     1     -14.860 -13.203   3.948  1.00  0.00    -0.000 C 
BRANCH  16  17
ATOM     17  C   UNL     1     -13.830 -13.052   2.815  1.00  0.00    -0.000 C 
BRANCH  17  18
ATOM     18  C   UNL     1     -14.269 -12.150   1.643  1.00  0.00    -0.000 C 
BRANCH  18  19
ATOM     19  C   UNL     1     -13.117 -11.556   0.812  1.00  0.00    -0.003 C 
ATOM     20  C   UNL     1     -13.333 -11.697  -0.694  1.00  0.00     0.004 C 
ENDBRANCH  18  19
ENDBRANCH  17  18
ENDBRANCH  16  17
ENDBRANCH  15  16
ENDBRANCH  14  15
ENDBRANCH  13  14
ENDBRANCH  12  13
ENDBRANCH   1  12
TORSDOF 16
ENDMDL
MODEL 9
REMARK VINA RESULT:    -3.897      6.262     10.006
REMARK INTER + INTRA:          -8.816
REMARK INTER:                  -6.202
REMARK INTRA:                  -2.614
REMARK UNBOUND:                -1.275
REMARK SMILES CCCCCCCCCCCCCCCCCC(=O)[O-]
REMARK SMILES IDX 10 1 11 2 12 3 13 4 14 5 15 6 16 7 17 8 18 9 19 10 20 11
REMARK SMILES IDX 9 12 8 13 7 14 6 15 5 16 4 17 3 18 2 19 1 20
REMARK H PARENT
REMARK Flexibility Score: inf
ROOT
ATOM      1  C   UNL     1     -11.869  -9.998   5.287  1.00  0.00     0.000 C 
ENDROOT
BRANCH   1   2
ATOM      2  C   UNL     1     -11.060 -11.301   5.136  1.00  0.00     0.000 C 
BRANCH   2   3
ATOM      3  C   UNL     1     -11.790 -12.572   5.608  1.00  0.00     0.000 C 
BRANCH   3   4
ATOM      4  C   UNL     1     -12.020 -13.583   4.472  1.00  0.00     0.000 C 
BRANCH   4   5
ATOM      5  C   UNL     1     -13.512 -13.830   4.190  1.00  0.00     0.000 C 
BRANCH   5   6
ATOM      6  C   UNL     1     -14.025 -13.026   2.982  1.00  0.00     0.000 C 
BRANCH   6   7
ATOM      7  C   UNL     1     -12.900 -12.638   2.005  1.00  0.00     0.006 C 
BRANCH   7   8
ATOM      8  C   UNL     1     -13.283 -11.539   1.000  1.00  0.00     0.053 C 
BRANCH   8   9
ATOM      9  C   UNL     1     -12.960 -11.929  -0.410  1.00  0.00     0.041 C 
ATOM     10  O   UNL     1     -12.072 -12.791  -0.641  1.00  0.00    -0.550 OA
ATOM     11  O   UNL     1     -13.664 -11.365  -1.466  1.00  0.00    -0.550 OA
ENDBRANCH   8   9
ENDBRANCH   7   8
ENDBRANCH   6   7
ENDBRANCH   5   6
ENDBRANCH   4   5
ENDBRANCH   3   4
ENDBRANCH   2   3
ENDBRANCH   1   2
BRANCH   1  12
ATOM     12  C   UNL     1     -13.065  -9.855   4.326  1.00  0.00     0.000 C 
BRANCH  12  13
ATOM     13  C   UNL     1     -14.400  -9.542   5.036  1.00  0.00    -0.000 C 
BRANCH  13  14
ATOM     14  C   UNL     1     -14.425 -10.048   6.489  1.00  0.00    -0.000 C 
BRANCH  14  15
ATOM     15  C   UNL     1     -14.568  -8.910   7.512  1.00  0.00    -0.000 C 
BRANCH  15  16
ATOM     16  C   UNL     1     -13.235  -8.566   8.199  1.00  0.00    -0.000 C 
BRANCH  16  17
ATOM     17  C   UNL     1     -12.819  -9.609   9.252  1.00  0.00    -0.000 C 
BRANCH  17  18
ATOM     18  C   UNL     1     -11.516 -10.374   8.940  1.00  0.00    -0.000 C 
BRANCH  18  19
ATOM     19  C   UNL     1     -11.540 -11.871   9.297  1.00  0.00    -0.003 C 
ATOM     20  C   UNL     1     -12.893 -12.528   9.026  1.00  0.00     0.004 C 
ENDBRANCH  18  19
ENDBRANCH  17  18
ENDBRANCH  16  17
ENDBRANCH  15  16
ENDBRANCH  14  15
ENDBRANCH  13  14
ENDBRANCH  12  13
ENDBRANCH   1  12
TORSDOF 16
ENDMDL
