MODEL 1
REMARK VINA RESULT:    -5.547      0.000      0.000
REMARK INTER + INTRA:         -11.410
REMARK INTER:                 -10.087
REMARK INTRA:                  -1.323
REMARK UNBOUND:                -1.323
REMARK SMILES CCCCCCCCCCCCCCCC(=O)[O-]
REMARK SMILES IDX 9 1 10 2 11 3 12 4 13 5 14 6 15 7 16 8 17 9 18 10 8 11 7 12
REMARK SMILES IDX 6 13 5 14 4 15 3 16 2 17 1 18
REMARK H PARENT
REMARK Flexibility Score: inf
ROOT
ATOM      1  C   UNL     1      14.728  18.336  16.580  1.00  0.00     0.000 C 
ENDROOT
BRANCH   1   2
ATOM      2  C   UNL     1      14.043  18.246  17.955  1.00  0.00     0.000 C 
BRANCH   2   3
ATOM      3  C   UNL     1      14.973  18.664  19.107  1.00  0.00     0.000 C 
BRANCH   3   4
ATOM      4  C   UNL     1      16.422  18.889  18.642  1.00  0.00     0.000 C 
BRANCH   4   5
ATOM      5  C   UNL     1      17.453  18.646  19.759  1.00  0.00     0.000 C 
BRANCH   5   6
ATOM      6  C   UNL     1      18.649  19.617  19.778  1.00  0.00     0.006 C 
BRANCH   6   7
ATOM      7  C   UNL     1      19.965  18.983  20.267  1.00  0.00     0.053 C 
BRANCH   7   8
ATOM      8  C   UNL     1      20.790  19.934  21.081  1.00  0.00     0.041 C 
ATOM      9  O   UNL     1      21.892  19.563  21.565  1.00  0.00    -0.550 OA
ATOM     10  O   UNL     1      20.365  21.243  21.270  1.00  0.00    -0.550 OA
ENDBRANCH   7   8
ENDBRANCH   6   7
ENDBRANCH   5   6
ENDBRANCH   4   5
ENDBRANCH   3   4
ENDBRANCH   2   3
ENDBRANCH   1   2
BRANCH   1  11
ATOM     11  C   UNL     1      13.801  18.909  15.496  1.00  0.00     0.000 C 
BRANCH  11  12
ATOM     12  C   UNL     1      12.691  19.802  16.076  1.00  0.00    -0.000 C 
BRANCH  12  13
ATOM     13  C   UNL     1      13.007  21.300  15.936  1.00  0.00    -0.000 C 
BRANCH  13  14
ATOM     14  C   UNL     1      13.204  21.991  17.297  1.00  0.00    -0.000 C 
BRANCH  14  15
ATOM     15  C   UNL     1      12.279  21.424  18.386  1.00  0.00    -0.000 C 
BRANCH  15  16
ATOM     16  C   UNL     1      10.831  21.916  18.247  1.00  0.00    -0.000 C 
BRANCH  16  17
ATOM     17  C   UNL     1       9.843  20.868  18.770  1.00  0.00    -0.003 C 
ATOM     18  C   UNL     1       9.270  20.031  17.629  1.00  0.00     0.004 C 
ENDBRANCH  16  17
ENDBRANCH  15  16
ENDBRANCH  14  15
ENDBRANCH  13  14
ENDBRANCH  12  13
ENDBRANCH  11  12
ENDBRANCH   1  11
TORSDOF 14
ENDMDL
MODEL 2
REMARK VINA RESULT:    -5.538      3.777      7.826
REMARK INTER + INTRA:         -11.393
REMARK INTER:                 -10.069
REMARK INTRA:                  -1.324
REMARK UNBOUND:                -1.323
REMARK SMILES CCCCCCCCCCCCCCCC(=O)[O-]
REMARK SMILES IDX 9 1 10 2 11 3 12 4 13 5 14 6 15 7 16 8 17 9 18 10 8 11 7 12
REMARK SMILES IDX 6 13 5 14 4 15 3 16 2 17 1 18
REMARK H PARENT
REMARK Flexibility Score: inf
ROOT
ATOM      1  C   UNL     1      14.694  18.527  16.607  1.00  0.00     0.000 C 
ENDROOT
BRANCH   1   2
ATOM      2  C   UNL     1      13.639  18.836  15.530  1.00  0.00     0.000 C 
BRANCH   2   3
ATOM      3  C   UNL     1      13.700  20.294  15.044  1.00  0.00     0.000 C 
BRANCH   3   4
ATOM      4  C   UNL     1      12.723  21.209  15.802  1.00  0.00     0.000 C 
BRANCH   4   5
ATOM      5  C   UNL     1      13.307  21.746  17.120  1.00  0.00     0.000 C 
BRANCH   5   6
ATOM      6  C   UNL     1      12.391  21.615  18.351  1.00  0.00     0.006 C 
BRANCH   6   7
ATOM      7  C   UNL     1      11.269  20.572  18.192  1.00  0.00     0.053 C 
BRANCH   7   8
ATOM      8  C   UNL     1      10.039  20.930  18.970  1.00  0.00     0.041 C 
ATOM      9  O   UNL     1      10.129  21.263  20.182  1.00  0.00    -0.550 OA
ATOM     10  O   UNL     1       8.796  20.940  18.348  1.00  0.00    -0.550 OA
ENDBRANCH   7   8
ENDBRANCH   6   7
ENDBRANCH   5   6
ENDBRANCH   4   5
ENDBRANCH   3   4
ENDBRANCH   2   3
ENDBRANCH   1   2
BRANCH   1  11
ATOM     11  C   UNL     1      14.066  18.198  17.971  1.00  0.00     0.000 C 
BRANCH  11  12
ATOM     12  C   UNL     1      14.969  18.592  19.152  1.00  0.00    -0.000 C 
BRANCH  12  13
ATOM     13  C   UNL     1      16.394  18.958  18.706  1.00  0.00    -0.000 C 
BRANCH  13  14
ATOM     14  C   UNL     1      17.446  18.649  19.786  1.00  0.00    -0.000 C 
BRANCH  14  15
ATOM     15  C   UNL     1      18.634  19.624  19.749  1.00  0.00    -0.000 C 
BRANCH  15  16
ATOM     16  C   UNL     1      19.956  18.959  20.160  1.00  0.00    -0.000 C 
BRANCH  16  17
ATOM     17  C   UNL     1      20.768  19.876  21.081  1.00  0.00    -0.003 C 
ATOM     18  C   UNL     1      19.978  21.130  21.446  1.00  0.00     0.004 C 
ENDBRANCH  16  17
ENDBRANCH  15  16
ENDBRANCH  14  15
ENDBRANCH  13  14
ENDBRANCH  12  13
ENDBRANCH  11  12
ENDBRANCH   1  11
TORSDOF 14
ENDMDL
MODEL 3
REMARK VINA RESULT:    -5.531      1.116      2.028
REMARK INTER + INTRA:         -11.381
REMARK INTER:                 -10.006
REMARK INTRA:                  -1.375
REMARK UNBOUND:                -1.323
REMARK SMILES CCCCCCCCCCCCCCCC(=O)[O-]
REMARK SMILES IDX 9 1 10 2 11 3 12 4 13 5 14 6 15 7 16 8 17 9 18 10 8 11 7 12
REMARK SMILES IDX 6 13 5 14 4 15 3 16 2 17 1 18
REMARK H PARENT
REMARK Flexibility Score: inf
ROOT
ATOM      1  C   UNL     1      13.059  19.522  14.598  1.00  0.00     0.000 C 
ENDROOT
BRANCH   1   2
ATOM      2  C   UNL     1      14.344  18.808  15.055  1.00  0.00     0.000 C 
BRANCH   2   3
ATOM      3  C   UNL     1      14.278  18.355  16.523  1.00  0.00     0.000 C 
BRANCH   3   4
ATOM      4  C   UNL     1      15.629  18.497  17.245  1.00  0.00     0.000 C 
BRANCH   4   5
ATOM      5  C   UNL     1      15.477  18.794  18.746  1.00  0.00     0.000 C 
BRANCH   5   6
ATOM      6  C   UNL     1      16.756  18.623  19.588  1.00  0.00     0.006 C 
BRANCH   6   7
ATOM      7  C   UNL     1      17.967  19.415  19.059  1.00  0.00     0.053 C 
BRANCH   7   8
ATOM      8  C   UNL     1      19.010  19.639  20.113  1.00  0.00     0.041 C 
ATOM      9  O   UNL     1      19.985  18.848  20.218  1.00  0.00    -0.550 OA
ATOM     10  O   UNL     1      18.929  20.743  20.953  1.00  0.00    -0.550 OA
ENDBRANCH   7   8
ENDBRANCH   6   7
ENDBRANCH   5   6
ENDBRANCH   4   5
ENDBRANCH   3   4
ENDBRANCH   2   3
ENDBRANCH   1   2
BRANCH   1  11
ATOM     11  C   UNL     1      12.261  20.109  15.773  1.00  0.00     0.000 C 
BRANCH  11  12
ATOM     12  C   UNL     1      12.737  21.517  16.169  1.00  0.00    -0.000 C 
BRANCH  12  13
ATOM     13  C   UNL     1      13.253  21.579  17.617  1.00  0.00    -0.000 C 
BRANCH  13  14
ATOM     14  C   UNL     1      12.311  20.874  18.608  1.00  0.00    -0.000 C 
BRANCH  14  15
ATOM     15  C   UNL     1      11.396  21.858  19.355  1.00  0.00    -0.000 C 
BRANCH  15  16
ATOM     16  C   UNL     1       9.996  21.282  19.613  1.00  0.00    -0.000 C 
BRANCH  16  17
ATOM     17  C   UNL     1       9.161  21.274  18.327  1.00  0.00    -0.003 C 
ATOM     18  C   UNL     1       9.147  19.888  17.687  1.00  0.00     0.004 C 
ENDBRANCH  16  17
ENDBRANCH  15  16
ENDBRANCH  14  15
ENDBRANCH  13  14
ENDBRANCH  12  13
ENDBRANCH  11  12
ENDBRANCH   1  11
TORSDOF 14
ENDMDL
MODEL 4
REMARK VINA RESULT:    -5.474      1.128      1.708
REMARK INTER + INTRA:         -11.278
REMARK INTER:                 -10.275
REMARK INTRA:                  -1.003
REMARK UNBOUND:                -1.323
REMARK SMILES CCCCCCCCCCCCCCCC(=O)[O-]
REMARK SMILES IDX 9 1 10 2 11 3 12 4 13 5 14 6 15 7 16 8 17 9 18 10 8 11 7 12
REMARK SMILES IDX 6 13 5 14 4 15 3 16 2 17 1 18
REMARK H PARENT
REMARK Flexibility Score: inf
ROOT
ATOM      1  C   UNL     1      14.650  18.486  17.273  1.00  0.00     0.000 C 
ENDROOT
BRANCH   1   2
ATOM      2  C   UNL     1      14.680  18.854  18.767  1.00  0.00     0.000 C 
BRANCH   2   3
ATOM      3  C   UNL     1      15.990  18.431  19.454  1.00  0.00     0.000 C 
BRANCH   3   4
ATOM      4  C   UNL     1      17.217  19.164  18.884  1.00  0.00     0.000 C 
BRANCH   4   5
ATOM      5  C   UNL     1      18.196  19.627  19.977  1.00  0.00     0.000 C 
BRANCH   5   6
ATOM      6  C   UNL     1      19.609  19.017  19.901  1.00  0.00     0.006 C 
BRANCH   6   7
ATOM      7  C   UNL     1      20.494  19.328  21.123  1.00  0.00     0.053 C 
BRANCH   7   8
ATOM      8  C   UNL     1      21.219  20.633  20.986  1.00  0.00     0.041 C 
ATOM      9  O   UNL     1      22.337  20.680  20.407  1.00  0.00    -0.550 OA
ATOM     10  O   UNL     1      20.644  21.806  21.461  1.00  0.00    -0.550 OA
ENDBRANCH   7   8
ENDBRANCH   6   7
ENDBRANCH   5   6
ENDBRANCH   4   5
ENDBRANCH   3   4
ENDBRANCH   2   3
ENDBRANCH   1   2
BRANCH   1  11
ATOM     11  C   UNL     1      13.718  19.398  16.459  1.00  0.00     0.000 C 
BRANCH  11  12
ATOM     12  C   UNL     1      13.389  20.712  17.188  1.00  0.00    -0.000 C 
BRANCH  12  13
ATOM     13  C   UNL     1      11.938  21.165  16.958  1.00  0.00    -0.000 C 
BRANCH  13  14
ATOM     14  C   UNL     1      10.961  19.981  16.850  1.00  0.00    -0.000 C 
BRANCH  14  15
ATOM     15  C   UNL     1       9.613  20.264  17.532  1.00  0.00    -0.000 C 
BRANCH  15  16
ATOM     16  C   UNL     1       9.652  21.515  18.423  1.00  0.00    -0.000 C 
BRANCH  16  17
ATOM     17  C   UNL     1       9.732  21.130  19.904  1.00  0.00    -0.003 C 
ATOM     18  C   UNL     1      11.124  21.397  20.471  1.00  0.00     0.004 C 
ENDBRANCH  16  17
ENDBRANCH  15  16
ENDBRANCH  14  15
ENDBRANCH  13  14
ENDBRANCH  12  13
ENDBRANCH  11  12
ENDBRANCH   1  11
TORSDOF 14
ENDMDL
MODEL 5
REMARK VINA RESULT:    -5.270      3.877      8.512
REMARK INTER + INTRA:         -10.907
REMARK INTER:                 -10.130
REMARK INTRA:                  -0.777
REMARK UNBOUND:                -1.323
REMARK SMILES CCCCCCCCCCCCCCCC(=O)[O-]
REMARK SMILES IDX 9 1 10 2 11 3 12 4 13 5 14 6 15 7 16 8 17 9 18 10 8 11 7 12
REMARK SMILES IDX 6 13 5 14 4 15 3 16 2 17 1 18
REMARK H PARENT
REMARK Flexibility Score: inf
ROOT
ATOM      1  C   UNL     1      14.329  18.894  17.048  1.00  0.00     0.000 C 
ENDROOT
BRANCH   1   2
ATOM      2  C   UNL     1      13.581  19.884  17.958  1.00  0.00     0.000 C 
BRANCH   2   3
ATOM      3  C   UNL     1      13.251  21.208  17.247  1.00  0.00     0.000 C 
BRANCH   3   4
ATOM      4  C   UNL     1      11.738  21.478  17.178  1.00  0.00     0.000 C 
BRANCH   4   5
ATOM      5  C   UNL     1      10.913  20.201  16.948  1.00  0.00     0.000 C 
BRANCH   5   6
ATOM      6  C   UNL     1       9.526  20.180  17.619  1.00  0.00     0.006 C 
BRANCH   6   7
ATOM      7  C   UNL     1       9.143  21.501  18.314  1.00  0.00     0.053 C 
BRANCH   7   8
ATOM      8  C   UNL     1       9.196  21.398  19.808  1.00  0.00     0.041 C 
ATOM      9  O   UNL     1       8.139  21.495  20.488  1.00  0.00    -0.550 OA
ATOM     10  O   UNL     1      10.403  21.152  20.451  1.00  0.00    -0.550 OA
ENDBRANCH   7   8
ENDBRANCH   6   7
ENDBRANCH   5   6
ENDBRANCH   4   5
ENDBRANCH   3   4
ENDBRANCH   2   3
ENDBRANCH   1   2
BRANCH   1  11
ATOM     11  C   UNL     1      15.679  18.455  17.638  1.00  0.00     0.000 C 
BRANCH  11  12
ATOM     12  C   UNL     1      15.831  18.837  19.121  1.00  0.00    -0.000 C 
BRANCH  12  13
ATOM     13  C   UNL     1      17.191  18.416  19.700  1.00  0.00    -0.000 C 
BRANCH  13  14
ATOM     14  C   UNL     1      18.325  19.377  19.300  1.00  0.00    -0.000 C 
BRANCH  14  15
ATOM     15  C   UNL     1      19.496  19.357  20.295  1.00  0.00    -0.000 C 
BRANCH  15  16
ATOM     16  C   UNL     1      19.528  20.602  21.194  1.00  0.00    -0.000 C 
BRANCH  16  17
ATOM     17  C   UNL     1      20.943  21.186  21.270  1.00  0.00    -0.003 C 
ATOM     18  C   UNL     1      21.997  20.083  21.262  1.00  0.00     0.004 C 
ENDBRANCH  16  17
ENDBRANCH  15  16
ENDBRANCH  14  15
ENDBRANCH  13  14
ENDBRANCH  12  13
ENDBRANCH  11  12
ENDBRANCH   1  11
TORSDOF 14
ENDMDL
MODEL 6
REMARK VINA RESULT:    -5.157     15.329     17.260
REMARK INTER + INTRA:         -10.701
REMARK INTER:                  -9.015
REMARK INTRA:                  -1.686
REMARK UNBOUND:                -1.323
REMARK SMILES CCCCCCCCCCCCCCCC(=O)[O-]
REMARK SMILES IDX 9 1 10 2 11 3 12 4 13 5 14 6 15 7 16 8 17 9 18 10 8 11 7 12
REMARK SMILES IDX 6 13 5 14 4 15 3 16 2 17 1 18
REMARK H PARENT
REMARK Flexibility Score: inf
ROOT
ATOM      1  C   UNL     1      23.849  12.609   3.200  1.00  0.00     0.000 C 
ENDROOT
BRANCH   1   2
ATOM      2  C   UNL     1      23.664  14.105   3.510  1.00  0.00     0.000 C 
BRANCH   2   3
ATOM      3  C   UNL     1      24.725  14.985   2.828  1.00  0.00     0.000 C 
BRANCH   3   4
ATOM      4  C   UNL     1      25.023  16.269   3.621  1.00  0.00     0.000 C 
BRANCH   4   5
ATOM      5  C   UNL     1      24.755  17.549   2.810  1.00  0.00     0.000 C 
BRANCH   5   6
ATOM      6  C   UNL     1      24.155  18.723   3.606  1.00  0.00     0.006 C 
BRANCH   6   7
ATOM      7  C   UNL     1      23.871  18.400   5.086  1.00  0.00     0.053 C 
BRANCH   7   8
ATOM      8  C   UNL     1      23.805  19.632   5.938  1.00  0.00     0.041 C 
ATOM      9  O   UNL     1      23.914  20.772   5.413  1.00  0.00    -0.550 OA
ATOM     10  O   UNL     1      23.582  19.525   7.305  1.00  0.00    -0.550 OA
ENDBRANCH   7   8
ENDBRANCH   6   7
ENDBRANCH   5   6
ENDBRANCH   4   5
ENDBRANCH   3   4
ENDBRANCH   2   3
ENDBRANCH   1   2
BRANCH   1  11
ATOM     11  C   UNL     1      22.640  12.005   2.467  1.00  0.00     0.000 C 
BRANCH  11  12
ATOM     12  C   UNL     1      21.403  12.918   2.511  1.00  0.00    -0.000 C 
BRANCH  12  13
ATOM     13  C   UNL     1      20.180  12.223   3.132  1.00  0.00    -0.000 C 
BRANCH  13  14
ATOM     14  C   UNL     1      19.011  13.193   3.375  1.00  0.00    -0.000 C 
BRANCH  14  15
ATOM     15  C   UNL     1      19.049  13.824   4.777  1.00  0.00    -0.000 C 
BRANCH  15  16
ATOM     16  C   UNL     1      19.098  15.359   4.732  1.00  0.00    -0.000 C 
BRANCH  16  17
ATOM     17  C   UNL     1      20.546  15.861   4.729  1.00  0.00    -0.003 C 
ATOM     18  C   UNL     1      20.897  16.527   3.402  1.00  0.00     0.004 C 
ENDBRANCH  16  17
ENDBRANCH  15  16
ENDBRANCH  14  15
ENDBRANCH  13  14
ENDBRANCH  12  13
ENDBRANCH  11  12
ENDBRANCH   1  11
TORSDOF 14
ENDMDL
MODEL 7
REMARK VINA RESULT:    -5.060      1.392      2.751
REMARK INTER + INTRA:         -10.524
REMARK INTER:                  -9.270
REMARK INTRA:                  -1.254
REMARK UNBOUND:                -1.323
REMARK SMILES CCCCCCCCCCCCCCCC(=O)[O-]
REMARK SMILES IDX 9 1 10 2 11 3 12 4 13 5 14 6 15 7 16 8 17 9 18 10 8 11 7 12
REMARK SMILES IDX 6 13 5 14 4 15 3 16 2 17 1 18
REMARK H PARENT
REMARK Flexibility Score: inf
ROOT
ATOM      1  C   UNL     1      15.163  18.873  17.871  1.00  0.00     0.000 C 
ENDROOT
BRANCH   1   2
ATOM      2  C   UNL     1      16.093  18.858  19.097  1.00  0.00     0.000 C 
BRANCH   2   3
ATOM      3  C   UNL     1      17.573  19.035  18.718  1.00  0.00     0.000 C 
BRANCH   3   4
ATOM      4  C   UNL     1      18.411  19.619  19.869  1.00  0.00     0.000 C 
BRANCH   4   5
ATOM      5  C   UNL     1      19.680  18.799  20.160  1.00  0.00     0.000 C 
BRANCH   5   6
ATOM      6  C   UNL     1      20.581  19.352  21.281  1.00  0.00     0.006 C 
BRANCH   6   7
ATOM      7  C   UNL     1      20.090  20.681  21.885  1.00  0.00     0.053 C 
BRANCH   7   8
ATOM      8  C   UNL     1      20.888  21.857  21.406  1.00  0.00     0.041 C 
ATOM      9  O   UNL     1      21.855  21.687  20.616  1.00  0.00    -0.550 OA
ATOM     10  O   UNL     1      20.541  23.144  21.797  1.00  0.00    -0.550 OA
ENDBRANCH   7   8
ENDBRANCH   6   7
ENDBRANCH   5   6
ENDBRANCH   4   5
ENDBRANCH   3   4
ENDBRANCH   2   3
ENDBRANCH   1   2
BRANCH   1  11
ATOM     11  C   UNL     1      13.766  18.315  18.185  1.00  0.00     0.000 C 
BRANCH  11  12
ATOM     12  C   UNL     1      13.137  18.956  19.434  1.00  0.00    -0.000 C 
BRANCH  12  13
ATOM     13  C   UNL     1      11.816  19.680  19.124  1.00  0.00    -0.000 C 
BRANCH  13  14
ATOM     14  C   UNL     1      12.025  21.166  18.783  1.00  0.00    -0.000 C 
BRANCH  14  15
ATOM     15  C   UNL     1      11.838  21.460  17.286  1.00  0.00    -0.000 C 
BRANCH  15  16
ATOM     16  C   UNL     1      11.174  20.297  16.534  1.00  0.00    -0.000 C 
BRANCH  16  17
ATOM     17  C   UNL     1      11.938  19.971  15.245  1.00  0.00    -0.003 C 
ATOM     18  C   UNL     1      13.176  20.852  15.099  1.00  0.00     0.004 C 
ENDBRANCH  16  17
ENDBRANCH  15  16
ENDBRANCH  14  15
ENDBRANCH  13  14
ENDBRANCH  12  13
ENDBRANCH  11  12
ENDBRANCH   1  11
TORSDOF 14
ENDMDL
MODEL 8
REMARK VINA RESULT:    -5.059     14.861     17.086
REMARK INTER + INTRA:         -10.522
REMARK INTER:                  -8.602
REMARK INTRA:                  -1.921
REMARK UNBOUND:                -1.323
REMARK SMILES CCCCCCCCCCCCCCCC(=O)[O-]
REMARK SMILES IDX 9 1 10 2 11 3 12 4 13 5 14 6 15 7 16 8 17 9 18 10 8 11 7 12
REMARK SMILES IDX 6 13 5 14 4 15 3 16 2 17 1 18
REMARK H PARENT
REMARK Flexibility Score: inf
ROOT
ATOM      1  C   UNL     1      20.449  16.835   3.864  1.00  0.00     0.000 C 
ENDROOT
BRANCH   1   2
ATOM      2  C   UNL     1      21.484  16.394   2.814  1.00  0.00     0.000 C 
BRANCH   2   3
ATOM      3  C   UNL     1      22.714  15.720   3.444  1.00  0.00     0.000 C 
BRANCH   3   4
ATOM      4  C   UNL     1      24.012  16.507   3.190  1.00  0.00     0.000 C 
BRANCH   4   5
ATOM      5  C   UNL     1      24.479  17.302   4.421  1.00  0.00     0.000 C 
BRANCH   5   6
ATOM      6  C   UNL     1      23.850  18.700   4.583  1.00  0.00     0.006 C 
BRANCH   6   7
ATOM      7  C   UNL     1      22.885  18.820   5.778  1.00  0.00     0.053 C 
BRANCH   7   8
ATOM      8  C   UNL     1      23.520  19.485   6.962  1.00  0.00     0.041 C 
ATOM      9  O   UNL     1      22.893  19.574   8.051  1.00  0.00    -0.550 OA
ATOM     10  O   UNL     1      24.819  19.971   6.878  1.00  0.00    -0.550 OA
ENDBRANCH   7   8
ENDBRANCH   6   7
ENDBRANCH   5   6
ENDBRANCH   4   5
ENDBRANCH   3   4
ENDBRANCH   2   3
ENDBRANCH   1   2
BRANCH   1  11
ATOM     11  C   UNL     1      20.153  15.737   4.898  1.00  0.00     0.000 C 
BRANCH  11  12
ATOM     12  C   UNL     1      18.907  14.908   4.542  1.00  0.00    -0.000 C 
BRANCH  12  13
ATOM     13  C   UNL     1      19.205  13.402   4.459  1.00  0.00    -0.000 C 
BRANCH  13  14
ATOM     14  C   UNL     1      19.092  12.857   3.024  1.00  0.00    -0.000 C 
BRANCH  14  15
ATOM     15  C   UNL     1      20.416  12.955   2.249  1.00  0.00    -0.000 C 
BRANCH  15  16
ATOM     16  C   UNL     1      21.560  12.193   2.936  1.00  0.00    -0.000 C 
BRANCH  16  17
ATOM     17  C   UNL     1      22.845  12.269   2.105  1.00  0.00    -0.003 C 
ATOM     18  C   UNL     1      24.083  12.164   2.991  1.00  0.00     0.004 C 
ENDBRANCH  16  17
ENDBRANCH  15  16
ENDBRANCH  14  15
ENDBRANCH  13  14
ENDBRANCH  12  13
ENDBRANCH  11  12
ENDBRANCH   1  11
TORSDOF 14
ENDMDL
MODEL 9
REMARK VINA RESULT:    -5.035     15.699     17.586
REMARK INTER + INTRA:         -10.479
REMARK INTER:                  -8.565
REMARK INTRA:                  -1.915
REMARK UNBOUND:                -1.323
REMARK SMILES CCCCCCCCCCCCCCCC(=O)[O-]
REMARK SMILES IDX 9 1 10 2 11 3 12 4 13 5 14 6 15 7 16 8 17 9 18 10 8 11 7 12
REMARK SMILES IDX 6 13 5 14 4 15 3 16 2 17 1 18
REMARK H PARENT
REMARK Flexibility Score: inf
ROOT
ATOM      1  C   UNL     1      22.232  12.796   2.457  1.00  0.00     0.000 C 
ENDROOT
BRANCH   1   2
ATOM      2  C   UNL     1      23.495  12.148   3.053  1.00  0.00     0.000 C 
BRANCH   2   3
ATOM      3  C   UNL     1      24.737  13.045   2.923  1.00  0.00     0.000 C 
BRANCH   3   4
ATOM      4  C   UNL     1      24.449  14.509   3.300  1.00  0.00     0.000 C 
BRANCH   4   5
ATOM      5  C   UNL     1      24.840  15.500   2.191  1.00  0.00     0.000 C 
BRANCH   5   6
ATOM      6  C   UNL     1      25.304  16.887   2.677  1.00  0.00     0.006 C 
BRANCH   6   7
ATOM      7  C   UNL     1      25.016  17.160   4.165  1.00  0.00     0.053 C 
BRANCH   7   8
ATOM      8  C   UNL     1      24.119  18.344   4.367  1.00  0.00     0.041 C 
ATOM      9  O   UNL     1      24.105  19.280   3.524  1.00  0.00    -0.550 OA
ATOM     10  O   UNL     1      23.265  18.396   5.462  1.00  0.00    -0.550 OA
ENDBRANCH   7   8
ENDBRANCH   6   7
ENDBRANCH   5   6
ENDBRANCH   4   5
ENDBRANCH   3   4
ENDBRANCH   2   3
ENDBRANCH   1   2
BRANCH   1  11
ATOM     11  C   UNL     1      20.937  12.170   2.999  1.00  0.00     0.000 C 
BRANCH  11  12
ATOM     12  C   UNL     1      19.673  12.800   2.389  1.00  0.00    -0.000 C 
BRANCH  12  13
ATOM     13  C   UNL     1      18.646  13.212   3.456  1.00  0.00    -0.000 C 
BRANCH  13  14
ATOM     14  C   UNL     1      19.290  13.966   4.633  1.00  0.00    -0.000 C 
BRANCH  14  15
ATOM     15  C   UNL     1      18.579  15.293   4.945  1.00  0.00    -0.000 C 
BRANCH  15  16
ATOM     16  C   UNL     1      19.421  16.519   4.563  1.00  0.00    -0.000 C 
BRANCH  16  17
ATOM     17  C   UNL     1      20.883  16.125   4.322  1.00  0.00    -0.003 C 
ATOM     18  C   UNL     1      21.306  16.425   2.886  1.00  0.00     0.004 C 
ENDBRANCH  16  17
ENDBRANCH  15  16
ENDBRANCH  14  15
ENDBRANCH  13  14
ENDBRANCH  12  13
ENDBRANCH  11  12
ENDBRANCH   1  11
TORSDOF 14
ENDMDL
