MODEL 1
REMARK VINA RESULT:    -6.550      0.000      0.000
REMARK INTER + INTRA:          -7.154
REMARK INTER:                  -6.933
REMARK INTRA:                  -0.221
REMARK UNBOUND:                -0.221
REMARK SMILES CC1=CC[C@@H](C(C)C)C=C1
REMARK SMILES IDX 1 1 2 2 3 3 4 4 5 5 9 6 10 7 6 8 7 9 8 10
REMARK H PARENT
REMARK Flexibility Score: inf
ROOT
ATOM      1  C   UNL     1       3.618  10.907  11.773  1.00  0.00     0.044 C 
ATOM      2  C   UNL     1       3.966   9.502  12.164  1.00  0.00    -0.055 C 
ATOM      3  C   UNL     1       4.331   8.612  11.230  1.00  0.00    -0.023 C 
ATOM      4  C   UNL     1       4.629   7.181  11.594  1.00  0.00     0.035 C 
ATOM      5  C   UNL     1       5.227   7.037  13.017  1.00  0.00     0.018 C 
ATOM      6  C   UNL     1       4.553   7.977  13.994  1.00  0.00    -0.023 C 
ATOM      7  C   UNL     1       4.003   9.129  13.594  1.00  0.00    -0.001 C 
ENDROOT
BRANCH   5   8
ATOM      8  C   UNL     1       6.780   7.162  13.039  1.00  0.00    -0.010 C 
ATOM      9  C   UNL     1       7.452   5.855  12.586  1.00  0.00     0.008 C 
ATOM     10  C   UNL     1       7.347   7.599  14.400  1.00  0.00     0.008 C 
ENDBRANCH   5   8
TORSDOF 1
ENDMDL
MODEL 2
REMARK VINA RESULT:    -6.233      0.977      4.166
REMARK INTER + INTRA:          -6.818
REMARK INTER:                  -6.694
REMARK INTRA:                  -0.124
REMARK UNBOUND:                -0.221
REMARK SMILES CC1=CC[C@@H](C(C)C)C=C1
REMARK SMILES IDX 1 1 2 2 3 3 4 4 5 5 9 6 10 7 6 8 7 9 8 10
REMARK H PARENT
REMARK Flexibility Score: inf
ROOT
ATOM      1  C   UNL     1       7.771   5.959  12.137  1.00  0.00     0.044 C 
ATOM      2  C   UNL     1       6.598   6.531  12.876  1.00  0.00    -0.055 C 
ATOM      3  C   UNL     1       6.786   7.460  13.825  1.00  0.00    -0.023 C 
ATOM      4  C   UNL     1       5.627   8.006  14.618  1.00  0.00     0.035 C 
ATOM      5  C   UNL     1       4.309   8.047  13.803  1.00  0.00     0.018 C 
ATOM      6  C   UNL     1       4.162   6.815  12.934  1.00  0.00    -0.023 C 
ATOM      7  C   UNL     1       5.227   6.142  12.484  1.00  0.00    -0.001 C 
ENDROOT
BRANCH   5   8
ATOM      8  C   UNL     1       4.132   9.371  13.001  1.00  0.00    -0.010 C 
ATOM      9  C   UNL     1       2.908  10.162  13.491  1.00  0.00     0.008 C 
ATOM     10  C   UNL     1       4.050   9.167  11.479  1.00  0.00     0.008 C 
ENDBRANCH   5   8
TORSDOF 1
ENDMDL
MODEL 3
REMARK VINA RESULT:    -6.203      1.743      4.806
REMARK INTER + INTRA:          -6.787
REMARK INTER:                  -6.574
REMARK INTRA:                  -0.213
REMARK UNBOUND:                -0.221
REMARK SMILES CC1=CC[C@@H](C(C)C)C=C1
REMARK SMILES IDX 1 1 2 2 3 3 4 4 5 5 9 6 10 7 6 8 7 9 8 10
REMARK H PARENT
REMARK Flexibility Score: inf
ROOT
ATOM      1  C   UNL     1       4.860   6.773  12.605  1.00  0.00     0.044 C 
ATOM      2  C   UNL     1       4.409   8.193  12.432  1.00  0.00    -0.055 C 
ATOM      3  C   UNL     1       4.321   8.728  11.205  1.00  0.00    -0.023 C 
ATOM      4  C   UNL     1       3.925  10.168  11.012  1.00  0.00     0.035 C 
ATOM      5  C   UNL     1       2.945  10.672  12.103  1.00  0.00     0.018 C 
ATOM      6  C   UNL     1       3.316  10.130  13.468  1.00  0.00    -0.023 C 
ATOM      7  C   UNL     1       3.963   8.968  13.609  1.00  0.00    -0.001 C 
ENDROOT
BRANCH   5   8
ATOM      8  C   UNL     1       1.451  10.415  11.743  1.00  0.00    -0.010 C 
ATOM      9  C   UNL     1       0.882  11.550  10.876  1.00  0.00     0.008 C 
ATOM     10  C   UNL     1       0.549  10.186  12.967  1.00  0.00     0.008 C 
ENDBRANCH   5   8
TORSDOF 1
ENDMDL
MODEL 4
REMARK VINA RESULT:    -5.717      0.601      1.270
REMARK INTER + INTRA:          -6.272
REMARK INTER:                  -6.227
REMARK INTRA:                  -0.045
REMARK UNBOUND:                -0.221
REMARK SMILES CC1=CC[C@@H](C(C)C)C=C1
REMARK SMILES IDX 1 1 2 2 3 3 4 4 5 5 9 6 10 7 6 8 7 9 8 10
REMARK H PARENT
REMARK Flexibility Score: inf
ROOT
ATOM      1  C   UNL     1       3.875  10.827  11.499  1.00  0.00     0.044 C 
ATOM      2  C   UNL     1       3.994   9.465  12.116  1.00  0.00    -0.055 C 
ATOM      3  C   UNL     1       4.399   8.423  11.376  1.00  0.00    -0.023 C 
ATOM      4  C   UNL     1       4.471   7.036  11.959  1.00  0.00     0.035 C 
ATOM      5  C   UNL     1       4.815   7.040  13.472  1.00  0.00     0.018 C 
ATOM      6  C   UNL     1       4.106   8.166  14.194  1.00  0.00    -0.023 C 
ATOM      7  C   UNL     1       3.761   9.295  13.565  1.00  0.00    -0.001 C 
ENDROOT
BRANCH   5   8
ATOM      8  C   UNL     1       6.349   7.024  13.745  1.00  0.00    -0.010 C 
ATOM      9  C   UNL     1       6.788   8.265  14.539  1.00  0.00     0.008 C 
ATOM     10  C   UNL     1       7.203   6.884  12.474  1.00  0.00     0.008 C 
ENDBRANCH   5   8
TORSDOF 1
ENDMDL
MODEL 5
REMARK VINA RESULT:    -5.562      1.898      3.609
REMARK INTER + INTRA:          -6.108
REMARK INTER:                  -5.900
REMARK INTRA:                  -0.208
REMARK UNBOUND:                -0.221
REMARK SMILES CC1=CC[C@@H](C(C)C)C=C1
REMARK SMILES IDX 1 1 2 2 3 3 4 4 5 5 9 6 10 7 6 8 7 9 8 10
REMARK H PARENT
REMARK Flexibility Score: inf
ROOT
ATOM      1  C   UNL     1      -0.117  10.632  11.106  1.00  0.00     0.044 C 
ATOM      2  C   UNL     1       1.208  10.604  11.808  1.00  0.00    -0.055 C 
ATOM      3  C   UNL     1       1.286  10.207  13.086  1.00  0.00    -0.023 C 
ATOM      4  C   UNL     1       2.598  10.224  13.827  1.00  0.00     0.035 C 
ATOM      5  C   UNL     1       3.812   9.958  12.900  1.00  0.00     0.018 C 
ATOM      6  C   UNL     1       3.648  10.653  11.565  1.00  0.00    -0.023 C 
ATOM      7  C   UNL     1       2.441  10.917  11.054  1.00  0.00    -0.001 C 
ENDROOT
BRANCH   5   8
ATOM      8  C   UNL     1       4.140   8.442  12.750  1.00  0.00    -0.010 C 
ATOM      9  C   UNL     1       5.100   7.966  13.853  1.00  0.00     0.008 C 
ATOM     10  C   UNL     1       4.698   8.063  11.369  1.00  0.00     0.008 C 
ENDBRANCH   5   8
TORSDOF 1
ENDMDL
MODEL 6
REMARK VINA RESULT:    -5.441      1.243      2.469
REMARK INTER + INTRA:          -5.980
REMARK INTER:                  -5.835
REMARK INTRA:                  -0.145
REMARK UNBOUND:                -0.221
REMARK SMILES CC1=CC[C@@H](C(C)C)C=C1
REMARK SMILES IDX 1 1 2 2 3 3 4 4 5 5 9 6 10 7 6 8 7 9 8 10
REMARK H PARENT
REMARK Flexibility Score: inf
ROOT
ATOM      1  C   UNL     1       2.347   9.740  13.777  1.00  0.00     0.044 C 
ATOM      2  C   UNL     1       3.671   9.091  13.499  1.00  0.00    -0.055 C 
ATOM      3  C   UNL     1       4.487   8.763  14.512  1.00  0.00    -0.023 C 
ATOM      4  C   UNL     1       5.843   8.162  14.253  1.00  0.00     0.035 C 
ATOM      5  C   UNL     1       5.877   7.290  12.971  1.00  0.00     0.018 C 
ATOM      6  C   UNL     1       5.064   7.916  11.858  1.00  0.00    -0.023 C 
ATOM      7  C   UNL     1       4.026   8.720  12.113  1.00  0.00    -0.001 C 
ENDROOT
BRANCH   5   8
ATOM      8  C   UNL     1       5.486   5.805  13.237  1.00  0.00    -0.010 C 
ATOM      9  C   UNL     1       6.704   4.875  13.116  1.00  0.00     0.008 C 
ATOM     10  C   UNL     1       4.346   5.295  12.340  1.00  0.00     0.008 C 
ENDBRANCH   5   8
TORSDOF 1
ENDMDL
MODEL 7
REMARK VINA RESULT:    -3.828      1.468      3.909
REMARK INTER + INTRA:          -4.272
REMARK INTER:                  -4.317
REMARK INTRA:                   0.045
REMARK UNBOUND:                -0.221
REMARK SMILES CC1=CC[C@@H](C(C)C)C=C1
REMARK SMILES IDX 1 1 2 2 3 3 4 4 5 5 9 6 10 7 6 8 7 9 8 10
REMARK H PARENT
REMARK Flexibility Score: inf
ROOT
ATOM      1  C   UNL     1       7.886   5.404  12.366  1.00  0.00     0.044 C 
ATOM      2  C   UNL     1       6.490   5.951  12.318  1.00  0.00    -0.055 C 
ATOM      3  C   UNL     1       5.503   5.342  12.993  1.00  0.00    -0.023 C 
ATOM      4  C   UNL     1       4.084   5.840  12.913  1.00  0.00     0.035 C 
ATOM      5  C   UNL     1       3.999   7.376  12.716  1.00  0.00     0.018 C 
ATOM      6  C   UNL     1       5.065   7.868  11.759  1.00  0.00    -0.023 C 
ATOM      7  C   UNL     1       6.225   7.220  11.608  1.00  0.00    -0.001 C 
ENDROOT
BRANCH   5   8
ATOM      8  C   UNL     1       3.993   8.161  14.062  1.00  0.00    -0.010 C 
ATOM      9  C   UNL     1       3.356   9.551  13.896  1.00  0.00     0.008 C 
ATOM     10  C   UNL     1       5.382   8.295  14.707  1.00  0.00     0.008 C 
ENDBRANCH   5   8
TORSDOF 1
ENDMDL
MODEL 8
REMARK VINA RESULT:    -3.778      1.331      4.063
REMARK INTER + INTRA:          -4.219
REMARK INTER:                  -3.999
REMARK INTRA:                  -0.221
REMARK UNBOUND:                -0.221
REMARK SMILES CC1=CC[C@@H](C(C)C)C=C1
REMARK SMILES IDX 1 1 2 2 3 3 4 4 5 5 9 6 10 7 6 8 7 9 8 10
REMARK H PARENT
REMARK Flexibility Score: inf
ROOT
ATOM      1  C   UNL     1       5.150   5.113  12.909  1.00  0.00     0.044 C 
ATOM      2  C   UNL     1       5.067   6.598  12.709  1.00  0.00    -0.055 C 
ATOM      3  C   UNL     1       4.582   7.098  11.564  1.00  0.00    -0.023 C 
ATOM      4  C   UNL     1       4.542   8.584  11.321  1.00  0.00     0.035 C 
ATOM      5  C   UNL     1       4.335   9.399  12.623  1.00  0.00     0.018 C 
ATOM      6  C   UNL     1       5.122   8.807  13.773  1.00  0.00    -0.023 C 
ATOM      7  C   UNL     1       5.426   7.506  13.819  1.00  0.00    -0.001 C 
ENDROOT
BRANCH   5   8
ATOM      8  C   UNL     1       2.831   9.613  12.974  1.00  0.00    -0.010 C 
ATOM      9  C   UNL     1       2.159  10.580  11.985  1.00  0.00     0.008 C 
ATOM     10  C   UNL     1       2.593  10.088  14.417  1.00  0.00     0.008 C 
ENDBRANCH   5   8
TORSDOF 1
ENDMDL
