MODEL 1
REMARK VINA RESULT:    -5.537      0.000      0.000
REMARK INTER + INTRA:         -12.166
REMARK INTER:                 -10.392
REMARK INTRA:                  -1.774
REMARK UNBOUND:                -1.774
REMARK SMILES CCCCCCCCC=CCCCCCCCC(=O)[O-]
REMARK SMILES IDX 10 1 9 2 11 3 12 4 13 5 14 6 15 7 16 8 17 9 18 10 19 11
REMARK SMILES IDX 20 12 8 13 7 14 6 15 5 16 4 17 3 18 2 19 1 20
REMARK H PARENT
REMARK Flexibility Score: inf
ROOT
ATOM      1  C   UNL     1      11.873  -3.208  14.237  1.00  0.00    -0.031 C 
ATOM      2  C   UNL     1      10.853  -2.491  14.745  1.00  0.00    -0.031 C 
ENDROOT
BRANCH   1   3
ATOM      3  C   UNL     1      11.770  -4.177  13.084  1.00  0.00     0.027 C 
BRANCH   3   4
ATOM      4  C   UNL     1      12.620  -3.775  11.865  1.00  0.00     0.004 C 
BRANCH   4   5
ATOM      5  C   UNL     1      14.138  -3.898  12.089  1.00  0.00     0.000 C 
BRANCH   5   6
ATOM      6  C   UNL     1      14.935  -4.030  10.778  1.00  0.00     0.000 C 
BRANCH   6   7
ATOM      7  C   UNL     1      14.259  -4.974   9.771  1.00  0.00     0.000 C 
BRANCH   7   8
ATOM      8  C   UNL     1      14.456  -4.524   8.314  1.00  0.00     0.006 C 
BRANCH   8   9
ATOM      9  C   UNL     1      14.613  -3.004   8.193  1.00  0.00     0.053 C 
BRANCH   9  10
ATOM     10  C   UNL     1      13.287  -2.307   8.151  1.00  0.00     0.041 C 
ATOM     11  O   UNL     1      12.240  -2.948   7.875  1.00  0.00    -0.550 OA
ATOM     12  O   UNL     1      13.209  -0.946   8.398  1.00  0.00    -0.550 OA
ENDBRANCH   9  10
ENDBRANCH   8   9
ENDBRANCH   7   8
ENDBRANCH   6   7
ENDBRANCH   5   6
ENDBRANCH   4   5
ENDBRANCH   3   4
ENDBRANCH   1   3
BRANCH   2  13
ATOM     13  C   UNL     1       9.423  -2.548  14.272  1.00  0.00     0.027 C 
BRANCH  13  14
ATOM     14  C   UNL     1       8.573  -3.357  15.258  1.00  0.00     0.004 C 
BRANCH  14  15
ATOM     15  C   UNL     1       8.429  -4.814  14.796  1.00  0.00     0.000 C 
BRANCH  15  16
ATOM     16  C   UNL     1       8.958  -5.817  15.832  1.00  0.00     0.000 C 
BRANCH  16  17
ATOM     17  C   UNL     1      10.453  -6.123  15.651  1.00  0.00    -0.000 C 
BRANCH  17  18
ATOM     18  C   UNL     1      11.227  -6.055  16.984  1.00  0.00    -0.000 C 
BRANCH  18  19
ATOM     19  C   UNL     1      11.258  -4.648  17.605  1.00  0.00    -0.003 C 
ATOM     20  C   UNL     1      11.980  -4.602  18.948  1.00  0.00     0.004 C 
ENDBRANCH  18  19
ENDBRANCH  17  18
ENDBRANCH  16  17
ENDBRANCH  15  16
ENDBRANCH  14  15
ENDBRANCH  13  14
ENDBRANCH   2  13
TORSDOF 15
ENDMDL
MODEL 2
REMARK VINA RESULT:    -5.493      3.555      7.983
REMARK INTER + INTRA:         -12.083
REMARK INTER:                 -10.605
REMARK INTRA:                  -1.478
REMARK UNBOUND:                -1.774
REMARK SMILES CCCCCCCCC=CCCCCCCCC(=O)[O-]
REMARK SMILES IDX 10 1 9 2 11 3 12 4 13 5 14 6 15 7 16 8 17 9 18 10 19 11
REMARK SMILES IDX 20 12 8 13 7 14 6 15 5 16 4 17 3 18 2 19 1 20
REMARK H PARENT
REMARK Flexibility Score: inf
ROOT
ATOM      1  C   UNL     1      12.179  -3.125  14.212  1.00  0.00    -0.031 C 
ATOM      2  C   UNL     1      13.448  -3.298  14.626  1.00  0.00    -0.031 C 
ENDROOT
BRANCH   1   3
ATOM      3  C   UNL     1      11.444  -4.025  13.249  1.00  0.00     0.027 C 
BRANCH   3   4
ATOM      4  C   UNL     1      11.041  -5.380  13.860  1.00  0.00     0.004 C 
BRANCH   4   5
ATOM      5  C   UNL     1       9.535  -5.687  13.771  1.00  0.00     0.000 C 
BRANCH   5   6
ATOM      6  C   UNL     1       8.681  -4.804  14.700  1.00  0.00     0.000 C 
BRANCH   6   7
ATOM      7  C   UNL     1       8.941  -5.091  16.187  1.00  0.00     0.000 C 
BRANCH   7   8
ATOM      8  C   UNL     1      10.024  -4.178  16.786  1.00  0.00     0.006 C 
BRANCH   8   9
ATOM      9  C   UNL     1      10.423  -4.605  18.203  1.00  0.00     0.053 C 
BRANCH   9  10
ATOM     10  C   UNL     1      11.899  -4.825  18.326  1.00  0.00     0.041 C 
ATOM     11  O   UNL     1      12.514  -4.453  19.359  1.00  0.00    -0.550 OA
ATOM     12  O   UNL     1      12.601  -5.423  17.292  1.00  0.00    -0.550 OA
ENDBRANCH   9  10
ENDBRANCH   8   9
ENDBRANCH   7   8
ENDBRANCH   6   7
ENDBRANCH   5   6
ENDBRANCH   4   5
ENDBRANCH   3   4
ENDBRANCH   1   3
BRANCH   2  13
ATOM     13  C   UNL     1      14.369  -4.406  14.183  1.00  0.00     0.027 C 
BRANCH  13  14
ATOM     14  C   UNL     1      15.560  -3.825  13.411  1.00  0.00     0.004 C 
BRANCH  14  15
ATOM     15  C   UNL     1      15.575  -4.326  11.960  1.00  0.00     0.000 C 
BRANCH  15  16
ATOM     16  C   UNL     1      14.368  -3.827  11.150  1.00  0.00     0.000 C 
BRANCH  16  17
ATOM     17  C   UNL     1      13.986  -4.783  10.008  1.00  0.00    -0.000 C 
BRANCH  17  18
ATOM     18  C   UNL     1      14.300  -4.186   8.621  1.00  0.00    -0.000 C 
BRANCH  18  19
ATOM     19  C   UNL     1      14.420  -2.653   8.626  1.00  0.00    -0.003 C 
ATOM     20  C   UNL     1      13.254  -1.959   7.927  1.00  0.00     0.004 C 
ENDBRANCH  18  19
ENDBRANCH  17  18
ENDBRANCH  16  17
ENDBRANCH  15  16
ENDBRANCH  14  15
ENDBRANCH  13  14
ENDBRANCH   2  13
TORSDOF 15
ENDMDL
MODEL 3
REMARK VINA RESULT:    -5.357      4.617      8.786
REMARK INTER + INTRA:         -11.828
REMARK INTER:                 -10.623
REMARK INTRA:                  -1.205
REMARK UNBOUND:                -1.774
REMARK SMILES CCCCCCCCC=CCCCCCCCC(=O)[O-]
REMARK SMILES IDX 10 1 9 2 11 3 12 4 13 5 14 6 15 7 16 8 17 9 18 10 19 11
REMARK SMILES IDX 20 12 8 13 7 14 6 15 5 16 4 17 3 18 2 19 1 20
REMARK H PARENT
REMARK Flexibility Score: inf
ROOT
ATOM      1  C   UNL     1       9.089  -3.113  14.898  1.00  0.00    -0.031 C 
ATOM      2  C   UNL     1      10.232  -2.696  14.323  1.00  0.00    -0.031 C 
ENDROOT
BRANCH   1   3
ATOM      3  C   UNL     1       8.633  -4.549  14.993  1.00  0.00     0.027 C 
BRANCH   3   4
ATOM      4  C   UNL     1       9.396  -5.369  16.050  1.00  0.00     0.004 C 
BRANCH   4   5
ATOM      5  C   UNL     1       9.677  -4.604  17.356  1.00  0.00     0.000 C 
BRANCH   5   6
ATOM      6  C   UNL     1      11.179  -4.376  17.613  1.00  0.00     0.000 C 
BRANCH   6   7
ATOM      7  C   UNL     1      11.909  -5.665  18.019  1.00  0.00     0.000 C 
BRANCH   7   8
ATOM      8  C   UNL     1      12.551  -5.568  19.413  1.00  0.00     0.006 C 
BRANCH   8   9
ATOM      9  C   UNL     1      11.606  -4.940  20.444  1.00  0.00     0.053 C 
BRANCH   9  10
ATOM     10  C   UNL     1      12.343  -4.454  21.654  1.00  0.00     0.041 C 
ATOM     11  O   UNL     1      12.763  -5.271  22.514  1.00  0.00    -0.550 OA
ATOM     12  O   UNL     1      12.551  -3.097  21.843  1.00  0.00    -0.550 OA
ENDBRANCH   9  10
ENDBRANCH   8   9
ENDBRANCH   7   8
ENDBRANCH   6   7
ENDBRANCH   5   6
ENDBRANCH   4   5
ENDBRANCH   3   4
ENDBRANCH   1   3
BRANCH   2  13
ATOM     13  C   UNL     1      11.246  -3.584  13.648  1.00  0.00     0.027 C 
BRANCH  13  14
ATOM     14  C   UNL     1      12.625  -3.391  14.288  1.00  0.00     0.004 C 
BRANCH  14  15
ATOM     15  C   UNL     1      13.747  -3.649  13.272  1.00  0.00     0.000 C 
BRANCH  15  16
ATOM     16  C   UNL     1      13.216  -3.850  11.844  1.00  0.00     0.000 C 
BRANCH  16  17
ATOM     17  C   UNL     1      14.338  -3.862  10.792  1.00  0.00    -0.000 C 
BRANCH  17  18
ATOM     18  C   UNL     1      13.953  -4.679   9.541  1.00  0.00    -0.000 C 
BRANCH  18  19
ATOM     19  C   UNL     1      14.181  -3.923   8.221  1.00  0.00    -0.003 C 
ATOM     20  C   UNL     1      13.085  -2.906   7.917  1.00  0.00     0.004 C 
ENDBRANCH  18  19
ENDBRANCH  17  18
ENDBRANCH  16  17
ENDBRANCH  15  16
ENDBRANCH  14  15
ENDBRANCH  13  14
ENDBRANCH   2  13
TORSDOF 15
ENDMDL
MODEL 4
REMARK VINA RESULT:    -5.270      1.618      2.953
REMARK INTER + INTRA:         -11.666
REMARK INTER:                  -9.655
REMARK INTRA:                  -2.011
REMARK UNBOUND:                -1.774
REMARK SMILES CCCCCCCCC=CCCCCCCCC(=O)[O-]
REMARK SMILES IDX 10 1 9 2 11 3 12 4 13 5 14 6 15 7 16 8 17 9 18 10 19 11
REMARK SMILES IDX 20 12 8 13 7 14 6 15 5 16 4 17 3 18 2 19 1 20
REMARK H PARENT
REMARK Flexibility Score: inf
ROOT
ATOM      1  C   UNL     1      11.192  -5.056  13.311  1.00  0.00    -0.031 C 
ATOM      2  C   UNL     1      10.180  -5.898  13.593  1.00  0.00    -0.031 C 
ENDROOT
BRANCH   1   3
ATOM      3  C   UNL     1      11.143  -3.554  13.454  1.00  0.00     0.027 C 
BRANCH   3   4
ATOM      4  C   UNL     1      11.913  -3.028  14.679  1.00  0.00     0.004 C 
BRANCH   4   5
ATOM      5  C   UNL     1      13.226  -3.778  14.967  1.00  0.00     0.000 C 
BRANCH   5   6
ATOM      6  C   UNL     1      14.435  -3.193  14.213  1.00  0.00     0.000 C 
BRANCH   6   7
ATOM      7  C   UNL     1      15.370  -4.282  13.665  1.00  0.00     0.000 C 
BRANCH   7   8
ATOM      8  C   UNL     1      15.510  -4.227  12.134  1.00  0.00     0.006 C 
BRANCH   8   9
ATOM      9  C   UNL     1      14.194  -3.848  11.445  1.00  0.00     0.053 C 
BRANCH   9  10
ATOM     10  C   UNL     1      14.264  -4.042   9.962  1.00  0.00     0.041 C 
ATOM     11  O   UNL     1      14.614  -3.094   9.212  1.00  0.00    -0.550 OA
ATOM     12  O   UNL     1      13.926  -5.265   9.404  1.00  0.00    -0.550 OA
ENDBRANCH   9  10
ENDBRANCH   8   9
ENDBRANCH   7   8
ENDBRANCH   6   7
ENDBRANCH   5   6
ENDBRANCH   4   5
ENDBRANCH   3   4
ENDBRANCH   1   3
BRANCH   2  13
ATOM     13  C   UNL     1       8.811  -5.491  14.076  1.00  0.00     0.027 C 
BRANCH  13  14
ATOM     14  C   UNL     1       8.701  -5.702  15.590  1.00  0.00     0.004 C 
BRANCH  14  15
ATOM     15  C   UNL     1       9.161  -4.454  16.357  1.00  0.00     0.000 C 
BRANCH  15  16
ATOM     16  C   UNL     1       9.780  -4.793  17.721  1.00  0.00     0.000 C 
BRANCH  16  17
ATOM     17  C   UNL     1      11.223  -5.310  17.604  1.00  0.00    -0.000 C 
BRANCH  17  18
ATOM     18  C   UNL     1      12.185  -4.569  18.555  1.00  0.00    -0.000 C 
BRANCH  18  19
ATOM     19  C   UNL     1      12.595  -5.400  19.783  1.00  0.00    -0.003 C 
ATOM     20  C   UNL     1      11.946  -4.915  21.077  1.00  0.00     0.004 C 
ENDBRANCH  18  19
ENDBRANCH  17  18
ENDBRANCH  16  17
ENDBRANCH  15  16
ENDBRANCH  14  15
ENDBRANCH  13  14
ENDBRANCH   2  13
TORSDOF 15
ENDMDL
MODEL 5
REMARK VINA RESULT:    -5.260      5.306      8.433
REMARK INTER + INTRA:         -11.647
REMARK INTER:                  -9.909
REMARK INTRA:                  -1.738
REMARK UNBOUND:                -1.774
REMARK SMILES CCCCCCCCC=CCCCCCCCC(=O)[O-]
REMARK SMILES IDX 10 1 9 2 11 3 12 4 13 5 14 6 15 7 16 8 17 9 18 10 19 11
REMARK SMILES IDX 20 12 8 13 7 14 6 15 5 16 4 17 3 18 2 19 1 20
REMARK H PARENT
REMARK Flexibility Score: inf
ROOT
ATOM      1  C   UNL     1       8.790  -4.103  15.789  1.00  0.00    -0.031 C 
ATOM      2  C   UNL     1       8.504  -4.717  14.626  1.00  0.00    -0.031 C 
ENDROOT
BRANCH   1   3
ATOM      3  C   UNL     1       9.764  -4.606  16.826  1.00  0.00     0.027 C 
BRANCH   3   4
ATOM      4  C   UNL     1      11.026  -3.734  16.959  1.00  0.00     0.004 C 
BRANCH   4   5
ATOM      5  C   UNL     1      12.327  -4.534  17.147  1.00  0.00     0.000 C 
BRANCH   5   6
ATOM      6  C   UNL     1      12.094  -5.937  17.740  1.00  0.00     0.000 C 
BRANCH   6   7
ATOM      7  C   UNL     1      12.676  -6.082  19.154  1.00  0.00     0.000 C 
BRANCH   7   8
ATOM      8  C   UNL     1      11.732  -5.543  20.241  1.00  0.00     0.006 C 
BRANCH   8   9
ATOM      9  C   UNL     1      12.269  -4.263  20.893  1.00  0.00     0.053 C 
BRANCH   9  10
ATOM     10  C   UNL     1      12.073  -4.268  22.378  1.00  0.00     0.041 C 
ATOM     11  O   UNL     1      12.813  -3.570  23.119  1.00  0.00    -0.550 OA
ATOM     12  O   UNL     1      11.087  -5.057  22.947  1.00  0.00    -0.550 OA
ENDBRANCH   9  10
ENDBRANCH   8   9
ENDBRANCH   7   8
ENDBRANCH   6   7
ENDBRANCH   5   6
ENDBRANCH   4   5
ENDBRANCH   3   4
ENDBRANCH   1   3
BRANCH   2  13
ATOM     13  C   UNL     1       9.085  -6.029  14.163  1.00  0.00     0.027 C 
BRANCH  13  14
ATOM     14  C   UNL     1      10.117  -5.788  13.056  1.00  0.00     0.004 C 
BRANCH  14  15
ATOM     15  C   UNL     1      11.380  -5.115  13.615  1.00  0.00     0.000 C 
BRANCH  15  16
ATOM     16  C   UNL     1      11.760  -3.841  12.847  1.00  0.00     0.000 C 
BRANCH  16  17
ATOM     17  C   UNL     1      13.258  -3.780  12.507  1.00  0.00    -0.000 C 
BRANCH  17  18
ATOM     18  C   UNL     1      14.142  -3.780  13.771  1.00  0.00    -0.000 C 
BRANCH  18  19
ATOM     19  C   UNL     1      15.620  -4.098  13.487  1.00  0.00    -0.003 C 
ATOM     20  C   UNL     1      16.211  -5.114  14.460  1.00  0.00     0.004 C 
ENDBRANCH  18  19
ENDBRANCH  17  18
ENDBRANCH  16  17
ENDBRANCH  15  16
ENDBRANCH  14  15
ENDBRANCH  13  14
ENDBRANCH   2  13
TORSDOF 15
ENDMDL
MODEL 6
REMARK VINA RESULT:    -5.167      5.396      9.315
REMARK INTER + INTRA:         -11.472
REMARK INTER:                 -10.293
REMARK INTRA:                  -1.179
REMARK UNBOUND:                -1.774
REMARK SMILES CCCCCCCCC=CCCCCCCCC(=O)[O-]
REMARK SMILES IDX 10 1 9 2 11 3 12 4 13 5 14 6 15 7 16 8 17 9 18 10 19 11
REMARK SMILES IDX 20 12 8 13 7 14 6 15 5 16 4 17 3 18 2 19 1 20
REMARK H PARENT
REMARK Flexibility Score: inf
ROOT
ATOM      1  C   UNL     1       8.793  -4.255  15.836  1.00  0.00    -0.031 C 
ATOM      2  C   UNL     1       8.623  -4.793  14.614  1.00  0.00    -0.031 C 
ENDROOT
BRANCH   1   3
ATOM      3  C   UNL     1       9.703  -4.797  16.910  1.00  0.00     0.027 C 
BRANCH   3   4
ATOM      4  C   UNL     1      11.053  -4.063  17.001  1.00  0.00     0.004 C 
BRANCH   4   5
ATOM      5  C   UNL     1      12.261  -4.993  17.219  1.00  0.00     0.000 C 
BRANCH   5   6
ATOM      6  C   UNL     1      12.351  -5.541  18.655  1.00  0.00     0.000 C 
BRANCH   6   7
ATOM      7  C   UNL     1      12.181  -4.444  19.716  1.00  0.00     0.000 C 
BRANCH   7   8
ATOM      8  C   UNL     1      12.336  -4.977  21.150  1.00  0.00     0.006 C 
BRANCH   8   9
ATOM      9  C   UNL     1      12.308  -3.853  22.193  1.00  0.00     0.053 C 
BRANCH   9  10
ATOM     10  C   UNL     1      12.764  -4.328  23.538  1.00  0.00     0.041 C 
ATOM     11  O   UNL     1      12.245  -5.347  24.063  1.00  0.00    -0.550 OA
ATOM     12  O   UNL     1      13.750  -3.636  24.222  1.00  0.00    -0.550 OA
ENDBRANCH   9  10
ENDBRANCH   8   9
ENDBRANCH   7   8
ENDBRANCH   6   7
ENDBRANCH   5   6
ENDBRANCH   4   5
ENDBRANCH   3   4
ENDBRANCH   1   3
BRANCH   2  13
ATOM     13  C   UNL     1       9.290  -6.048  14.110  1.00  0.00     0.027 C 
BRANCH  13  14
ATOM     14  C   UNL     1      10.313  -5.702  13.023  1.00  0.00     0.004 C 
BRANCH  14  15
ATOM     15  C   UNL     1      11.568  -5.059  13.629  1.00  0.00     0.000 C 
BRANCH  15  16
ATOM     16  C   UNL     1      11.953  -3.744  12.935  1.00  0.00     0.000 C 
BRANCH  16  17
ATOM     17  C   UNL     1      13.219  -3.879  12.072  1.00  0.00    -0.000 C 
BRANCH  17  18
ATOM     18  C   UNL     1      12.924  -3.677  10.571  1.00  0.00    -0.000 C 
BRANCH  18  19
ATOM     19  C   UNL     1      14.192  -3.540   9.710  1.00  0.00    -0.003 C 
ATOM     20  C   UNL     1      14.207  -4.486   8.514  1.00  0.00     0.004 C 
ENDBRANCH  18  19
ENDBRANCH  17  18
ENDBRANCH  16  17
ENDBRANCH  15  16
ENDBRANCH  14  15
ENDBRANCH  13  14
ENDBRANCH   2  13
TORSDOF 15
ENDMDL
MODEL 7
REMARK VINA RESULT:    -5.098      2.517      4.995
REMARK INTER + INTRA:         -11.341
REMARK INTER:                  -9.847
REMARK INTRA:                  -1.494
REMARK UNBOUND:                -1.774
REMARK SMILES CCCCCCCCC=CCCCCCCCC(=O)[O-]
REMARK SMILES IDX 10 1 9 2 11 3 12 4 13 5 14 6 15 7 16 8 17 9 18 10 19 11
REMARK SMILES IDX 20 12 8 13 7 14 6 15 5 16 4 17 3 18 2 19 1 20
REMARK H PARENT
REMARK Flexibility Score: inf
ROOT
ATOM      1  C   UNL     1      10.102  -4.007  16.776  1.00  0.00    -0.031 C 
ATOM      2  C   UNL     1      11.379  -4.171  17.167  1.00  0.00    -0.031 C 
ENDROOT
BRANCH   1   3
ATOM      3  C   UNL     1       9.207  -5.095  16.235  1.00  0.00     0.027 C 
BRANCH   3   4
ATOM      4  C   UNL     1       8.897  -4.947  14.734  1.00  0.00     0.004 C 
BRANCH   4   5
ATOM      5  C   UNL     1       9.419  -6.106  13.866  1.00  0.00     0.000 C 
BRANCH   5   6
ATOM      6  C   UNL     1      10.536  -5.679  12.895  1.00  0.00     0.000 C 
BRANCH   6   7
ATOM      7  C   UNL     1      11.729  -5.034  13.617  1.00  0.00     0.000 C 
BRANCH   7   8
ATOM      8  C   UNL     1      12.179  -3.719  12.959  1.00  0.00     0.006 C 
BRANCH   8   9
ATOM      9  C   UNL     1      12.419  -3.877  11.453  1.00  0.00     0.053 C 
BRANCH   9  10
ATOM     10  C   UNL     1      13.879  -3.941  11.124  1.00  0.00     0.041 C 
ATOM     11  O   UNL     1      14.740  -3.867  12.038  1.00  0.00    -0.550 OA
ATOM     12  O   UNL     1      14.290  -4.064   9.806  1.00  0.00    -0.550 OA
ENDBRANCH   9  10
ENDBRANCH   8   9
ENDBRANCH   7   8
ENDBRANCH   6   7
ENDBRANCH   5   6
ENDBRANCH   4   5
ENDBRANCH   3   4
ENDBRANCH   1   3
BRANCH   2  13
ATOM     13  C   UNL     1      12.153  -5.463  17.108  1.00  0.00     0.027 C 
BRANCH  13  14
ATOM     14  C   UNL     1      12.693  -5.819  18.497  1.00  0.00     0.004 C 
BRANCH  14  15
ATOM     15  C   UNL     1      12.278  -4.768  19.537  1.00  0.00     0.000 C 
BRANCH  15  16
ATOM     16  C   UNL     1      11.369  -5.347  20.631  1.00  0.00     0.000 C 
BRANCH  16  17
ATOM     17  C   UNL     1      11.549  -4.641  21.985  1.00  0.00    -0.000 C 
BRANCH  17  18
ATOM     18  C   UNL     1      12.643  -3.554  21.933  1.00  0.00    -0.000 C 
BRANCH  18  19
ATOM     19  C   UNL     1      13.734  -3.729  23.003  1.00  0.00    -0.003 C 
ATOM     20  C   UNL     1      13.171  -3.872  24.414  1.00  0.00     0.004 C 
ENDBRANCH  18  19
ENDBRANCH  17  18
ENDBRANCH  16  17
ENDBRANCH  15  16
ENDBRANCH  14  15
ENDBRANCH  13  14
ENDBRANCH   2  13
TORSDOF 15
ENDMDL
MODEL 8
REMARK VINA RESULT:    -4.564      3.523      7.576
REMARK INTER + INTRA:         -10.339
REMARK INTER:                  -8.381
REMARK INTRA:                  -1.959
REMARK UNBOUND:                -1.774
REMARK SMILES CCCCCCCCC=CCCCCCCCC(=O)[O-]
REMARK SMILES IDX 10 1 9 2 11 3 12 4 13 5 14 6 15 7 16 8 17 9 18 10 19 11
REMARK SMILES IDX 20 12 8 13 7 14 6 15 5 16 4 17 3 18 2 19 1 20
REMARK H PARENT
REMARK Flexibility Score: inf
ROOT
ATOM      1  C   UNL     1      10.510  -2.394  15.174  1.00  0.00    -0.031 C 
ATOM      2  C   UNL     1      11.824  -2.597  14.965  1.00  0.00    -0.031 C 
ENDROOT
BRANCH   1   3
ATOM      3  C   UNL     1       9.400  -2.829  14.248  1.00  0.00     0.027 C 
BRANCH   3   4
ATOM      4  C   UNL     1       8.217  -3.491  14.976  1.00  0.00     0.004 C 
BRANCH   4   5
ATOM      5  C   UNL     1       8.294  -5.028  15.033  1.00  0.00     0.000 C 
BRANCH   5   6
ATOM      6  C   UNL     1       9.222  -5.628  13.960  1.00  0.00     0.000 C 
BRANCH   6   7
ATOM      7  C   UNL     1      10.563  -6.103  14.541  1.00  0.00     0.000 C 
BRANCH   7   8
ATOM      8  C   UNL     1      10.568  -6.125  16.078  1.00  0.00     0.006 C 
BRANCH   8   9
ATOM      9  C   UNL     1      11.982  -5.982  16.655  1.00  0.00     0.053 C 
BRANCH   9  10
ATOM     10  C   UNL     1      11.995  -5.148  17.900  1.00  0.00     0.041 C 
ATOM     11  O   UNL     1      11.130  -4.251  18.073  1.00  0.00    -0.550 OA
ATOM     12  O   UNL     1      12.973  -5.348  18.860  1.00  0.00    -0.550 OA
ENDBRANCH   9  10
ENDBRANCH   8   9
ENDBRANCH   7   8
ENDBRANCH   6   7
ENDBRANCH   5   6
ENDBRANCH   4   5
ENDBRANCH   3   4
ENDBRANCH   1   3
BRANCH   2  13
ATOM     13  C   UNL     1      12.423  -3.272  13.757  1.00  0.00     0.027 C 
BRANCH  13  14
ATOM     14  C   UNL     1      13.815  -3.817  14.093  1.00  0.00     0.004 C 
BRANCH  14  15
ATOM     15  C   UNL     1      14.696  -3.895  12.837  1.00  0.00     0.000 C 
BRANCH  15  16
ATOM     16  C   UNL     1      13.875  -3.910  11.539  1.00  0.00     0.000 C 
BRANCH  16  17
ATOM     17  C   UNL     1      14.612  -4.601  10.381  1.00  0.00    -0.000 C 
BRANCH  17  18
ATOM     18  C   UNL     1      13.832  -4.501   9.053  1.00  0.00    -0.000 C 
BRANCH  18  19
ATOM     19  C   UNL     1      14.234  -3.290   8.195  1.00  0.00    -0.003 C 
ATOM     20  C   UNL     1      13.133  -2.239   8.090  1.00  0.00     0.004 C 
ENDBRANCH  18  19
ENDBRANCH  17  18
ENDBRANCH  16  17
ENDBRANCH  15  16
ENDBRANCH  14  15
ENDBRANCH  13  14
ENDBRANCH   2  13
TORSDOF 15
ENDMDL
