MODEL 1
REMARK VINA RESULT:    -4.024      0.000      0.000
REMARK INTER + INTRA:          -4.988
REMARK INTER:                  -4.847
REMARK INTRA:                  -0.140
REMARK UNBOUND:                -0.140
REMARK SMILES O=c1c(O)c(-c2ccc(O)c(O)c2)oc2cc(O)cc(O)c12
REMARK SMILES IDX 5 1 3 2 2 3 1 4 22 5 20 6 19 7 17 8 16 9 15 10 14 11 6 12
REMARK SMILES IDX 7 13 8 14 9 15 13 16 11 17 10 18 12 20 4 22 21 24 18 26
REMARK H PARENT 10 19 12 21 4 23 21 25 18 27
REMARK Flexibility Score: inf
ROOT
ATOM      1  C   UNL     1       8.234  10.833 -23.358  1.00  0.00     0.180 A 
ATOM      2  C   UNL     1       7.566   9.767 -23.986  1.00  0.00     0.208 A 
ATOM      3  C   UNL     1       8.311   8.848 -24.742  1.00  0.00     0.238 A 
ATOM      4  O   UNL     1       7.714   7.867 -25.257  1.00  0.00    -0.285 OA
ATOM      5  C   UNL     1       9.710   9.014 -24.875  1.00  0.00     0.111 A 
ATOM      6  C   UNL     1      10.557   8.166 -25.651  1.00  0.00     0.134 A 
ATOM      7  C   UNL     1      11.945   8.348 -25.604  1.00  0.00     0.093 A 
ATOM      8  C   UNL     1      12.512   9.385 -24.865  1.00  0.00     0.123 A 
ATOM      9  C   UNL     1      11.689  10.257 -24.150  1.00  0.00     0.094 A 
ATOM     10  C   UNL     1      10.303  10.080 -24.147  1.00  0.00     0.146 A 
ATOM     11  O   UNL     1       9.556  10.923 -23.446  1.00  0.00    -0.452 OA
ENDROOT
BRANCH   1  12
ATOM     12  C   UNL     1       7.515  11.855 -22.564  1.00  0.00     0.025 A 
ATOM     13  C   UNL     1       7.873  12.069 -21.224  1.00  0.00     0.016 A 
ATOM     14  C   UNL     1       7.222  13.042 -20.463  1.00  0.00     0.051 A 
ATOM     15  C   UNL     1       6.215  13.829 -21.035  1.00  0.00     0.157 A 
ATOM     16  C   UNL     1       6.517  12.662 -23.141  1.00  0.00     0.062 A 
ATOM     17  C   UNL     1       5.864  13.640 -22.382  1.00  0.00     0.158 A 
BRANCH  15  18
ATOM     18  O   UNL     1       5.565  14.800 -20.273  1.00  0.00    -0.504 OA
ATOM     19  H   UNL     1       5.483  14.717 -19.267  1.00  0.00     0.293 HD
ENDBRANCH  15  18
BRANCH  17  20
ATOM     20  O   UNL     1       4.876  14.417 -22.986  1.00  0.00    -0.504 OA
ATOM     21  H   UNL     1       4.517  15.261 -22.555  1.00  0.00     0.293 HD
ENDBRANCH  17  20
ENDBRANCH   1  12
BRANCH   2  22
ATOM     22  O   UNL     1       6.187   9.609 -23.824  1.00  0.00    -0.502 OA
ATOM     23  H   UNL     1       5.599  10.332 -23.425  1.00  0.00     0.293 HD
ENDBRANCH   2  22
BRANCH   6  24
ATOM     24  O   UNL     1      10.087   7.158 -26.496  1.00  0.00    -0.507 OA
ATOM     25  H   UNL     1       9.681   6.288 -26.184  1.00  0.00     0.293 HD
ENDBRANCH   6  24
BRANCH   8  26
ATOM     26  O   UNL     1      13.895   9.546 -24.854  1.00  0.00    -0.508 OA
ATOM     27  H   UNL     1      14.402   9.716 -23.993  1.00  0.00     0.293 HD
ENDBRANCH   8  26
TORSDOF 6
ENDMDL
MODEL 2
REMARK VINA RESULT:    -3.357      1.697      3.624
REMARK INTER + INTRA:          -4.184
REMARK INTER:                  -4.177
REMARK INTRA:                  -0.008
REMARK UNBOUND:                -0.140
REMARK SMILES O=c1c(O)c(-c2ccc(O)c(O)c2)oc2cc(O)cc(O)c12
REMARK SMILES IDX 5 1 3 2 2 3 1 4 22 5 20 6 19 7 17 8 16 9 15 10 14 11 6 12
REMARK SMILES IDX 7 13 8 14 9 15 13 16 11 17 10 18 12 20 4 22 21 24 18 26
REMARK H PARENT 10 19 12 21 4 23 21 25 18 27
REMARK Flexibility Score: inf
ROOT
ATOM      1  C   UNL     1       7.563  11.028 -23.306  1.00  0.00     0.180 A 
ATOM      2  C   UNL     1       8.945  10.788 -23.394  1.00  0.00     0.208 A 
ATOM      3  C   UNL     1       9.403   9.736 -24.205  1.00  0.00     0.238 A 
ATOM      4  O   UNL     1      10.645   9.561 -24.322  1.00  0.00    -0.285 OA
ATOM      5  C   UNL     1       8.475   8.928 -24.903  1.00  0.00     0.111 A 
ATOM      6  C   UNL     1       8.825   7.812 -25.720  1.00  0.00     0.134 A 
ATOM      7  C   UNL     1       7.833   7.166 -26.468  1.00  0.00     0.093 A 
ATOM      8  C   UNL     1       6.497   7.551 -26.378  1.00  0.00     0.123 A 
ATOM      9  C   UNL     1       6.134   8.604 -25.537  1.00  0.00     0.094 A 
ATOM     10  C   UNL     1       7.106   9.292 -24.806  1.00  0.00     0.146 A 
ATOM     11  O   UNL     1       6.721  10.295 -24.025  1.00  0.00    -0.452 OA
ENDROOT
BRANCH   1  12
ATOM     12  C   UNL     1       7.003  12.101 -22.454  1.00  0.00     0.025 A 
ATOM     13  C   UNL     1       6.017  12.955 -22.976  1.00  0.00     0.016 A 
ATOM     14  C   UNL     1       5.460  13.960 -22.183  1.00  0.00     0.051 A 
ATOM     15  C   UNL     1       5.867  14.118 -20.852  1.00  0.00     0.157 A 
ATOM     16  C   UNL     1       7.393  12.250 -21.111  1.00  0.00     0.062 A 
ATOM     17  C   UNL     1       6.836  13.255 -20.313  1.00  0.00     0.158 A 
BRANCH  15  18
ATOM     18  O   UNL     1       5.310  15.124 -20.063  1.00  0.00    -0.504 OA
ATOM     19  H   UNL     1       4.871  15.939 -20.474  1.00  0.00     0.293 HD
ENDBRANCH  15  18
BRANCH  17  20
ATOM     20  O   UNL     1       7.251  13.376 -18.987  1.00  0.00    -0.504 OA
ATOM     21  H   UNL     1       7.810  14.158 -18.668  1.00  0.00     0.293 HD
ENDBRANCH  17  20
ENDBRANCH   1  12
BRANCH   2  22
ATOM     22  O   UNL     1       9.847  11.612 -22.714  1.00  0.00    -0.502 OA
ATOM     23  H   UNL     1      10.590  11.242 -22.134  1.00  0.00     0.293 HD
ENDBRANCH   2  22
BRANCH   6  24
ATOM     24  O   UNL     1      10.117   7.286 -25.810  1.00  0.00    -0.507 OA
ATOM     25  H   UNL     1      10.376   6.490 -26.374  1.00  0.00     0.293 HD
ENDBRANCH   6  24
BRANCH   8  26
ATOM     26  O   UNL     1       5.535   6.875 -27.125  1.00  0.00    -0.508 OA
ATOM     27  H   UNL     1       4.559   7.147 -27.101  1.00  0.00     0.293 HD
ENDBRANCH   8  26
TORSDOF 6
ENDMDL
MODEL 3
REMARK VINA RESULT:    -3.223      2.294      7.403
REMARK INTER + INTRA:          -4.023
REMARK INTER:                  -4.316
REMARK INTRA:                   0.294
REMARK UNBOUND:                -0.140
REMARK SMILES O=c1c(O)c(-c2ccc(O)c(O)c2)oc2cc(O)cc(O)c12
REMARK SMILES IDX 5 1 3 2 2 3 1 4 22 5 20 6 19 7 17 8 16 9 15 10 14 11 6 12
REMARK SMILES IDX 7 13 8 14 9 15 13 16 11 17 10 18 12 20 4 22 21 24 18 26
REMARK H PARENT 10 19 12 21 4 23 21 25 18 27
REMARK Flexibility Score: inf
ROOT
ATOM      1  C   UNL     1      11.662   8.490 -25.364  1.00  0.00     0.180 A 
ATOM      2  C   UNL     1      10.752   7.759 -26.148  1.00  0.00     0.208 A 
ATOM      3  C   UNL     1       9.375   7.962 -25.960  1.00  0.00     0.238 A 
ATOM      4  O   UNL     1       8.567   7.344 -26.701  1.00  0.00    -0.285 OA
ATOM      5  C   UNL     1       8.926   8.879 -24.980  1.00  0.00     0.111 A 
ATOM      6  C   UNL     1       7.554   9.133 -24.677  1.00  0.00     0.134 A 
ATOM      7  C   UNL     1       7.224  10.157 -23.780  1.00  0.00     0.093 A 
ATOM      8  C   UNL     1       8.213  10.891 -23.127  1.00  0.00     0.123 A 
ATOM      9  C   UNL     1       9.558  10.611 -23.372  1.00  0.00     0.094 A 
ATOM     10  C   UNL     1       9.920   9.620 -24.288  1.00  0.00     0.146 A 
ATOM     11  O   UNL     1      11.210   9.392 -24.501  1.00  0.00    -0.452 OA
ENDROOT
BRANCH   1  12
ATOM     12  C   UNL     1      13.127   8.314 -25.488  1.00  0.00     0.025 A 
ATOM     13  C   UNL     1      13.644   7.064 -25.865  1.00  0.00     0.016 A 
ATOM     14  C   UNL     1      15.021   6.881 -26.007  1.00  0.00     0.051 A 
ATOM     15  C   UNL     1      15.902   7.949 -25.792  1.00  0.00     0.157 A 
ATOM     16  C   UNL     1      14.014   9.389 -25.292  1.00  0.00     0.062 A 
ATOM     17  C   UNL     1      15.394   9.210 -25.436  1.00  0.00     0.158 A 
BRANCH  15  18
ATOM     18  O   UNL     1      17.277   7.763 -25.933  1.00  0.00    -0.504 OA
ATOM     19  H   UNL     1      17.761   8.013 -26.787  1.00  0.00     0.293 HD
ENDBRANCH  15  18
BRANCH  17  20
ATOM     20  O   UNL     1      16.243  10.296 -25.229  1.00  0.00    -0.504 OA
ATOM     21  H   UNL     1      17.179  10.330 -25.616  1.00  0.00     0.293 HD
ENDBRANCH  17  20
ENDBRANCH   1  12
BRANCH   2  22
ATOM     22  O   UNL     1      11.218   6.875 -27.125  1.00  0.00    -0.502 OA
ATOM     23  H   UNL     1      10.701   6.681 -27.975  1.00  0.00     0.293 HD
ENDBRANCH   2  22
BRANCH   6  24
ATOM     24  O   UNL     1       6.489   8.397 -25.203  1.00  0.00    -0.507 OA
ATOM     25  H   UNL     1       5.746   8.783 -25.766  1.00  0.00     0.293 HD
ENDBRANCH   6  24
BRANCH   8  26
ATOM     26  O   UNL     1       7.848  11.891 -22.230  1.00  0.00    -0.508 OA
ATOM     27  H   UNL     1       8.540  12.480 -21.782  1.00  0.00     0.293 HD
ENDBRANCH   8  26
TORSDOF 6
ENDMDL
MODEL 4
REMARK VINA RESULT:    -3.095      2.728      7.010
REMARK INTER + INTRA:          -3.869
REMARK INTER:                  -4.095
REMARK INTRA:                   0.226
REMARK UNBOUND:                -0.140
REMARK SMILES O=c1c(O)c(-c2ccc(O)c(O)c2)oc2cc(O)cc(O)c12
REMARK SMILES IDX 5 1 3 2 2 3 1 4 22 5 20 6 19 7 17 8 16 9 15 10 14 11 6 12
REMARK SMILES IDX 7 13 8 14 9 15 13 16 11 17 10 18 12 20 4 22 21 24 18 26
REMARK H PARENT 10 19 12 21 4 23 21 25 18 27
REMARK Flexibility Score: inf
ROOT
ATOM      1  C   UNL     1      10.701   9.509 -24.748  1.00  0.00     0.180 A 
ATOM      2  C   UNL     1      10.088  10.305 -23.765  1.00  0.00     0.208 A 
ATOM      3  C   UNL     1       8.687  10.306 -23.665  1.00  0.00     0.238 A 
ATOM      4  O   UNL     1       8.148  10.979 -22.749  1.00  0.00    -0.285 OA
ATOM      5  C   UNL     1       7.917   9.525 -24.560  1.00  0.00     0.111 A 
ATOM      6  C   UNL     1       6.490   9.482 -24.575  1.00  0.00     0.134 A 
ATOM      7  C   UNL     1       5.837   8.573 -25.418  1.00  0.00     0.093 A 
ATOM      8  C   UNL     1       6.553   7.755 -26.290  1.00  0.00     0.123 A 
ATOM      9  C   UNL     1       7.946   7.832 -26.325  1.00  0.00     0.094 A 
ATOM     10  C   UNL     1       8.629   8.702 -25.471  1.00  0.00     0.146 A 
ATOM     11  O   UNL     1       9.954   8.737 -25.528  1.00  0.00    -0.452 OA
ENDROOT
BRANCH   1  12
ATOM     12  C   UNL     1      12.170   9.475 -24.930  1.00  0.00     0.025 A 
ATOM     13  C   UNL     1      12.920  10.644 -24.727  1.00  0.00     0.016 A 
ATOM     14  C   UNL     1      14.309  10.629 -24.873  1.00  0.00     0.051 A 
ATOM     15  C   UNL     1      14.971   9.441 -25.209  1.00  0.00     0.157 A 
ATOM     16  C   UNL     1      12.841   8.279 -25.247  1.00  0.00     0.062 A 
ATOM     17  C   UNL     1      14.233   8.260 -25.392  1.00  0.00     0.158 A 
BRANCH  15  18
ATOM     18  O   UNL     1      16.358   9.429 -25.356  1.00  0.00    -0.504 OA
ATOM     19  H   UNL     1      16.794   9.410 -26.270  1.00  0.00     0.293 HD
ENDBRANCH  15  18
BRANCH  17  20
ATOM     20  O   UNL     1      14.864   7.058 -25.712  1.00  0.00    -0.504 OA
ATOM     21  H   UNL     1      14.575   6.492 -26.500  1.00  0.00     0.293 HD
ENDBRANCH  17  20
ENDBRANCH   1  12
BRANCH   2  22
ATOM     22  O   UNL     1      10.868  11.052 -22.877  1.00  0.00    -0.502 OA
ATOM     23  H   UNL     1      10.825  12.063 -22.832  1.00  0.00     0.293 HD
ENDBRANCH   2  22
BRANCH   6  24
ATOM     24  O   UNL     1       5.676  10.321 -23.811  1.00  0.00    -0.507 OA
ATOM     25  H   UNL     1       6.009  10.948 -23.094  1.00  0.00     0.293 HD
ENDBRANCH   6  24
BRANCH   8  26
ATOM     26  O   UNL     1       5.869   6.875 -27.125  1.00  0.00    -0.508 OA
ATOM     27  H   UNL     1       5.809   7.031 -28.124  1.00  0.00     0.293 HD
ENDBRANCH   8  26
TORSDOF 6
ENDMDL
MODEL 5
REMARK VINA RESULT:    -3.040      2.083      6.976
REMARK INTER + INTRA:          -3.803
REMARK INTER:                  -3.538
REMARK INTRA:                  -0.265
REMARK UNBOUND:                -0.140
REMARK SMILES O=c1c(O)c(-c2ccc(O)c(O)c2)oc2cc(O)cc(O)c12
REMARK SMILES IDX 5 1 3 2 2 3 1 4 22 5 20 6 19 7 17 8 16 9 15 10 14 11 6 12
REMARK SMILES IDX 7 13 8 14 9 15 13 16 11 17 10 18 12 20 4 22 21 24 18 26
REMARK H PARENT 10 19 12 21 4 23 21 25 18 27
REMARK Flexibility Score: inf
ROOT
ATOM      1  C   UNL     1       9.857  10.606 -24.230  1.00  0.00     0.180 A 
ATOM      2  C   UNL     1       9.494  10.929 -22.911  1.00  0.00     0.208 A 
ATOM      3  C   UNL     1       8.245  11.528 -22.677  1.00  0.00     0.238 A 
ATOM      4  O   UNL     1       7.903  11.765 -21.489  1.00  0.00    -0.285 OA
ATOM      5  C   UNL     1       7.384  11.812 -23.763  1.00  0.00     0.111 A 
ATOM      6  C   UNL     1       6.115  12.454 -23.645  1.00  0.00     0.134 A 
ATOM      7  C   UNL     1       5.291  12.565 -24.772  1.00  0.00     0.093 A 
ATOM      8  C   UNL     1       5.715  12.120 -26.023  1.00  0.00     0.123 A 
ATOM      9  C   UNL     1       6.979  11.544 -26.161  1.00  0.00     0.094 A 
ATOM     10  C   UNL     1       7.810  11.385 -25.049  1.00  0.00     0.146 A 
ATOM     11  O   UNL     1       9.000  10.824 -25.220  1.00  0.00    -0.452 OA
ENDROOT
BRANCH   1  12
ATOM     12  C   UNL     1      11.165   9.995 -24.559  1.00  0.00     0.025 A 
ATOM     13  C   UNL     1      11.216   8.660 -24.991  1.00  0.00     0.016 A 
ATOM     14  C   UNL     1      12.437   8.070 -25.327  1.00  0.00     0.051 A 
ATOM     15  C   UNL     1      13.623   8.811 -25.252  1.00  0.00     0.157 A 
ATOM     16  C   UNL     1      12.357  10.741 -24.505  1.00  0.00     0.062 A 
ATOM     17  C   UNL     1      13.582  10.154 -24.843  1.00  0.00     0.158 A 
BRANCH  15  18
ATOM     18  O   UNL     1      14.842   8.220 -25.586  1.00  0.00    -0.504 OA
ATOM     19  H   UNL     1      15.133   7.339 -25.178  1.00  0.00     0.293 HD
ENDBRANCH  15  18
BRANCH  17  20
ATOM     20  O   UNL     1      14.743  10.923 -24.772  1.00  0.00    -0.504 OA
ATOM     21  H   UNL     1      14.859  11.662 -24.089  1.00  0.00     0.293 HD
ENDBRANCH  17  20
ENDBRANCH   1  12
BRANCH   2  22
ATOM     22  O   UNL     1      10.349  10.620 -21.850  1.00  0.00    -0.502 OA
ATOM     23  H   UNL     1      10.649   9.673 -21.651  1.00  0.00     0.293 HD
ENDBRANCH   2  22
BRANCH   6  24
ATOM     24  O   UNL     1       5.633  13.018 -22.461  1.00  0.00    -0.507 OA
ATOM     25  H   UNL     1       4.727  13.451 -22.357  1.00  0.00     0.293 HD
ENDBRANCH   6  24
BRANCH   8  26
ATOM     26  O   UNL     1       4.875  12.262 -27.125  1.00  0.00    -0.508 OA
ATOM     27  H   UNL     1       4.078  12.887 -27.106  1.00  0.00     0.293 HD
ENDBRANCH   8  26
TORSDOF 6
ENDMDL
MODEL 6
REMARK VINA RESULT:    -2.725      2.001      3.513
REMARK INTER + INTRA:          -3.423
REMARK INTER:                  -3.270
REMARK INTRA:                  -0.152
REMARK UNBOUND:                -0.140
REMARK SMILES O=c1c(O)c(-c2ccc(O)c(O)c2)oc2cc(O)cc(O)c12
REMARK SMILES IDX 5 1 3 2 2 3 1 4 22 5 20 6 19 7 17 8 16 9 15 10 14 11 6 12
REMARK SMILES IDX 7 13 8 14 9 15 13 16 11 17 10 18 12 20 4 22 21 24 18 26
REMARK H PARENT 10 19 12 21 4 23 21 25 18 27
REMARK Flexibility Score: inf
ROOT
ATOM      1  C   UNL     1      10.838   9.915 -24.567  1.00  0.00     0.180 A 
ATOM      2  C   UNL     1      10.655   8.679 -25.211  1.00  0.00     0.208 A 
ATOM      3  C   UNL     1      11.774   8.012 -25.735  1.00  0.00     0.238 A 
ATOM      4  O   UNL     1      11.610   6.881 -26.263  1.00  0.00    -0.285 OA
ATOM      5  C   UNL     1      13.059   8.596 -25.625  1.00  0.00     0.111 A 
ATOM      6  C   UNL     1      14.256   8.027 -26.155  1.00  0.00     0.134 A 
ATOM      7  C   UNL     1      15.489   8.628 -25.871  1.00  0.00     0.093 A 
ATOM      8  C   UNL     1      15.564   9.809 -25.135  1.00  0.00     0.123 A 
ATOM      9  C   UNL     1      14.394  10.406 -24.662  1.00  0.00     0.094 A 
ATOM     10  C   UNL     1      13.151   9.811 -24.897  1.00  0.00     0.146 A 
ATOM     11  O   UNL     1      12.064  10.404 -24.421  1.00  0.00    -0.452 OA
ENDROOT
BRANCH   1  12
ATOM     12  C   UNL     1       9.705  10.689 -24.011  1.00  0.00     0.025 A 
ATOM     13  C   UNL     1       8.706  11.169 -24.873  1.00  0.00     0.016 A 
ATOM     14  C   UNL     1       7.619  11.884 -24.368  1.00  0.00     0.051 A 
ATOM     15  C   UNL     1       7.503  12.115 -22.991  1.00  0.00     0.157 A 
ATOM     16  C   UNL     1       9.575  10.905 -22.627  1.00  0.00     0.062 A 
ATOM     17  C   UNL     1       8.484  11.619 -22.116  1.00  0.00     0.158 A 
BRANCH  15  18
ATOM     18  O   UNL     1       6.416  12.830 -22.488  1.00  0.00    -0.504 OA
ATOM     19  H   UNL     1       5.954  13.547 -23.036  1.00  0.00     0.293 HD
ENDBRANCH  15  18
BRANCH  17  20
ATOM     20  O   UNL     1       8.391  11.819 -20.739  1.00  0.00    -0.504 OA
ATOM     21  H   UNL     1       8.838  12.602 -20.278  1.00  0.00     0.293 HD
ENDBRANCH  17  20
ENDBRANCH   1  12
BRANCH   2  22
ATOM     22  O   UNL     1       9.381   8.109 -25.290  1.00  0.00    -0.502 OA
ATOM     23  H   UNL     1       9.222   7.114 -25.185  1.00  0.00     0.293 HD
ENDBRANCH   2  22
BRANCH   6  24
ATOM     24  O   UNL     1      14.285   6.900 -26.981  1.00  0.00    -0.507 OA
ATOM     25  H   UNL     1      14.146   6.916 -27.980  1.00  0.00     0.293 HD
ENDBRANCH   6  24
BRANCH   8  26
ATOM     26  O   UNL     1      16.806  10.386 -24.886  1.00  0.00    -0.508 OA
ATOM     27  H   UNL     1      17.327  10.859 -25.616  1.00  0.00     0.293 HD
ENDBRANCH   8  26
TORSDOF 6
ENDMDL
MODEL 7
REMARK VINA RESULT:    -2.600      1.520      6.865
REMARK INTER + INTRA:          -3.272
REMARK INTER:                  -3.258
REMARK INTRA:                  -0.014
REMARK UNBOUND:                -0.140
REMARK SMILES O=c1c(O)c(-c2ccc(O)c(O)c2)oc2cc(O)cc(O)c12
REMARK SMILES IDX 5 1 3 2 2 3 1 4 22 5 20 6 19 7 17 8 16 9 15 10 14 11 6 12
REMARK SMILES IDX 7 13 8 14 9 15 13 16 11 17 10 18 12 20 4 22 21 24 18 26
REMARK H PARENT 10 19 12 21 4 23 21 25 18 27
REMARK Flexibility Score: inf
ROOT
ATOM      1  C   UNL     1       9.143  10.505 -24.341  1.00  0.00     0.180 A 
ATOM      2  C   UNL     1       8.165  10.941 -25.251  1.00  0.00     0.208 A 
ATOM      3  C   UNL     1       7.125  11.765 -24.790  1.00  0.00     0.238 A 
ATOM      4  O   UNL     1       6.283  12.196 -25.621  1.00  0.00    -0.285 OA
ATOM      5  C   UNL     1       7.065  12.126 -23.423  1.00  0.00     0.111 A 
ATOM      6  C   UNL     1       6.034  12.922 -22.840  1.00  0.00     0.134 A 
ATOM      7  C   UNL     1       6.147  13.327 -21.504  1.00  0.00     0.093 A 
ATOM      8  C   UNL     1       7.217  12.912 -20.713  1.00  0.00     0.123 A 
ATOM      9  C   UNL     1       8.201  12.085 -21.257  1.00  0.00     0.094 A 
ATOM     10  C   UNL     1       8.136  11.694 -22.597  1.00  0.00     0.146 A 
ATOM     11  O   UNL     1       9.097  10.916 -23.079  1.00  0.00    -0.452 OA
ENDROOT
BRANCH   1  12
ATOM     12  C   UNL     1      10.256   9.616 -24.746  1.00  0.00     0.025 A 
ATOM     13  C   UNL     1       9.974   8.425 -25.435  1.00  0.00     0.016 A 
ATOM     14  C   UNL     1      11.010   7.583 -25.844  1.00  0.00     0.051 A 
ATOM     15  C   UNL     1      12.344   7.925 -25.586  1.00  0.00     0.157 A 
ATOM     16  C   UNL     1      11.597   9.966 -24.507  1.00  0.00     0.062 A 
ATOM     17  C   UNL     1      12.638   9.125 -24.918  1.00  0.00     0.158 A 
BRANCH  15  18
ATOM     18  O   UNL     1      13.376   7.081 -25.995  1.00  0.00    -0.504 OA
ATOM     19  H   UNL     1      13.754   7.121 -26.934  1.00  0.00     0.293 HD
ENDBRANCH  15  18
BRANCH  17  20
ATOM     20  O   UNL     1      13.955   9.502 -24.659  1.00  0.00    -0.504 OA
ATOM     21  H   UNL     1      14.743   9.044 -25.102  1.00  0.00     0.293 HD
ENDBRANCH  17  20
ENDBRANCH   1  12
BRANCH   2  22
ATOM     22  O   UNL     1       8.255  10.591 -26.601  1.00  0.00    -0.502 OA
ATOM     23  H   UNL     1       8.968  10.967 -27.215  1.00  0.00     0.293 HD
ENDBRANCH   2  22
BRANCH   6  24
ATOM     24  O   UNL     1       4.875  13.315 -23.515  1.00  0.00    -0.507 OA
ATOM     25  H   UNL     1       4.861  13.870 -24.358  1.00  0.00     0.293 HD
ENDBRANCH   6  24
BRANCH   8  26
ATOM     26  O   UNL     1       7.289  13.321 -19.384  1.00  0.00    -0.508 OA
ATOM     27  H   UNL     1       6.531  13.147 -18.734  1.00  0.00     0.293 HD
ENDBRANCH   8  26
TORSDOF 6
ENDMDL
MODEL 8
REMARK VINA RESULT:    -2.307      1.338      2.086
REMARK INTER + INTRA:          -2.919
REMARK INTER:                  -2.753
REMARK INTRA:                  -0.167
REMARK UNBOUND:                -0.140
REMARK SMILES O=c1c(O)c(-c2ccc(O)c(O)c2)oc2cc(O)cc(O)c12
REMARK SMILES IDX 5 1 3 2 2 3 1 4 22 5 20 6 19 7 17 8 16 9 15 10 14 11 6 12
REMARK SMILES IDX 7 13 8 14 9 15 13 16 11 17 10 18 12 20 4 22 21 24 18 26
REMARK H PARENT 10 19 12 21 4 23 21 25 18 27
REMARK Flexibility Score: inf
ROOT
ATOM      1  C   UNL     1       9.485  10.087 -24.359  1.00  0.00     0.180 A 
ATOM      2  C   UNL     1       9.249   8.829 -24.940  1.00  0.00     0.208 A 
ATOM      3  C   UNL     1      10.332   8.114 -25.477  1.00  0.00     0.238 A 
ATOM      4  O   UNL     1      10.123   6.965 -25.947  1.00  0.00    -0.285 OA
ATOM      5  C   UNL     1      11.633   8.672 -25.442  1.00  0.00     0.111 A 
ATOM      6  C   UNL     1      12.795   8.053 -25.992  1.00  0.00     0.134 A 
ATOM      7  C   UNL     1      14.051   8.636 -25.783  1.00  0.00     0.093 A 
ATOM      8  C   UNL     1      14.181   9.846 -25.103  1.00  0.00     0.123 A 
ATOM      9  C   UNL     1      13.044  10.490 -24.612  1.00  0.00     0.094 A 
ATOM     10  C   UNL     1      11.780   9.915 -24.772  1.00  0.00     0.146 A 
ATOM     11  O   UNL     1      10.726  10.554 -24.281  1.00  0.00    -0.452 OA
ENDROOT
BRANCH   1  12
ATOM     12  C   UNL     1       8.392  10.911 -23.794  1.00  0.00     0.025 A 
ATOM     13  C   UNL     1       8.431  11.277 -22.439  1.00  0.00     0.016 A 
ATOM     14  C   UNL     1       7.422  12.071 -21.891  1.00  0.00     0.051 A 
ATOM     15  C   UNL     1       6.366  12.525 -22.692  1.00  0.00     0.157 A 
ATOM     16  C   UNL     1       7.341  11.387 -24.600  1.00  0.00     0.062 A 
ATOM     17  C   UNL     1       6.329  12.184 -24.054  1.00  0.00     0.158 A 
BRANCH  15  18
ATOM     18  O   UNL     1       5.358  13.317 -22.142  1.00  0.00    -0.504 OA
ATOM     19  H   UNL     1       4.931  14.072 -22.665  1.00  0.00     0.293 HD
ENDBRANCH  15  18
BRANCH  17  20
ATOM     20  O   UNL     1       5.300  12.633 -24.882  1.00  0.00    -0.504 OA
ATOM     21  H   UNL     1       5.204  13.607 -25.141  1.00  0.00     0.293 HD
ENDBRANCH  17  20
ENDBRANCH   1  12
BRANCH   2  22
ATOM     22  O   UNL     1       7.961   8.287 -24.945  1.00  0.00    -0.502 OA
ATOM     23  H   UNL     1       7.288   8.490 -25.674  1.00  0.00     0.293 HD
ENDBRANCH   2  22
BRANCH   6  24
ATOM     24  O   UNL     1      12.767   6.891 -26.768  1.00  0.00    -0.507 OA
ATOM     25  H   UNL     1      13.572   6.481 -27.219  1.00  0.00     0.293 HD
ENDBRANCH   6  24
BRANCH   8  26
ATOM     26  O   UNL     1      15.445  10.404 -24.928  1.00  0.00    -0.508 OA
ATOM     27  H   UNL     1      16.288   9.883 -25.140  1.00  0.00     0.293 HD
ENDBRANCH   8  26
TORSDOF 6
ENDMDL
MODEL 9
REMARK VINA RESULT:    -2.280      1.732      6.727
REMARK INTER + INTRA:          -2.887
REMARK INTER:                  -3.361
REMARK INTRA:                   0.474
REMARK UNBOUND:                -0.140
REMARK SMILES O=c1c(O)c(-c2ccc(O)c(O)c2)oc2cc(O)cc(O)c12
REMARK SMILES IDX 5 1 3 2 2 3 1 4 22 5 20 6 19 7 17 8 16 9 15 10 14 11 6 12
REMARK SMILES IDX 7 13 8 14 9 15 13 16 11 17 10 18 12 20 4 22 21 24 18 26
REMARK H PARENT 10 19 12 21 4 23 21 25 18 27
REMARK Flexibility Score: inf
ROOT
ATOM      1  C   UNL     1      10.030   9.624 -24.860  1.00  0.00     0.180 A 
ATOM      2  C   UNL     1       9.201   8.543 -25.204  1.00  0.00     0.208 A 
ATOM      3  C   UNL     1       7.808   8.692 -25.096  1.00  0.00     0.238 A 
ATOM      4  O   UNL     1       7.070   7.738 -25.457  1.00  0.00    -0.285 OA
ATOM      5  C   UNL     1       7.264   9.912 -24.630  1.00  0.00     0.111 A 
ATOM      6  C   UNL     1       5.870  10.158 -24.444  1.00  0.00     0.134 A 
ATOM      7  C   UNL     1       5.437  11.446 -24.103  1.00  0.00     0.093 A 
ATOM      8  C   UNL     1       6.347  12.477 -23.877  1.00  0.00     0.123 A 
ATOM      9  C   UNL     1       7.716  12.232 -23.999  1.00  0.00     0.094 A 
ATOM     10  C   UNL     1       8.178  10.967 -24.374  1.00  0.00     0.146 A 
ATOM     11  O   UNL     1       9.486  10.778 -24.489  1.00  0.00    -0.452 OA
ENDROOT
BRANCH   1  12
ATOM     12  C   UNL     1      11.507   9.536 -24.923  1.00  0.00     0.025 A 
ATOM     13  C   UNL     1      12.283  10.628 -24.503  1.00  0.00     0.016 A 
ATOM     14  C   UNL     1      13.678  10.559 -24.536  1.00  0.00     0.051 A 
ATOM     15  C   UNL     1      14.318   9.392 -24.972  1.00  0.00     0.157 A 
ATOM     16  C   UNL     1      12.153   8.359 -25.342  1.00  0.00     0.062 A 
ATOM     17  C   UNL     1      13.551   8.285 -25.373  1.00  0.00     0.158 A 
BRANCH  15  18
ATOM     18  O   UNL     1      15.710   9.326 -25.005  1.00  0.00    -0.504 OA
ATOM     19  H   UNL     1      16.198   8.440 -25.062  1.00  0.00     0.293 HD
ENDBRANCH  15  18
BRANCH  17  20
ATOM     20  O   UNL     1      14.157   7.104 -25.799  1.00  0.00    -0.504 OA
ATOM     21  H   UNL     1      13.630   6.353 -26.229  1.00  0.00     0.293 HD
ENDBRANCH  17  20
ENDBRANCH   1  12
BRANCH   2  22
ATOM     22  O   UNL     1       9.758   7.354 -25.683  1.00  0.00    -0.502 OA
ATOM     23  H   UNL     1      10.279   6.719 -25.090  1.00  0.00     0.293 HD
ENDBRANCH   2  22
BRANCH   6  24
ATOM     24  O   UNL     1       4.882   9.176 -24.553  1.00  0.00    -0.507 OA
ATOM     25  H   UNL     1       3.894   9.337 -24.430  1.00  0.00     0.293 HD
ENDBRANCH   6  24
BRANCH   8  26
ATOM     26  O   UNL     1       5.881  13.741 -23.524  1.00  0.00    -0.508 OA
ATOM     27  H   UNL     1       4.952  14.054 -23.782  1.00  0.00     0.293 HD
ENDBRANCH   8  26
TORSDOF 6
ENDMDL
