MODEL 1
REMARK VINA RESULT:    -4.479      0.000      0.000
REMARK INTER + INTRA:         -15.644
REMARK INTER:                 -11.287
REMARK INTRA:                  -4.357
REMARK UNBOUND:                -4.357
REMARK SMILES CCCCCCCCCCCCCCCCCCCCCCCCCCCC(=O)[O-]
REMARK SMILES IDX 15 1 16 2 17 3 18 4 19 5 20 6 21 7 22 8 23 9 24 10 25 11
REMARK SMILES IDX 26 12 27 13 28 14 29 15 30 16 14 17 13 18 12 19 11 20 10 21
REMARK SMILES IDX 9 22 8 23 7 24 6 25 5 26 4 27 3 28 2 29 1 30
REMARK H PARENT
REMARK Flexibility Score: inf
ROOT
ATOM      1  C   UNL     1      61.528 -25.627  -3.491  1.00  0.00     0.000 C 
ENDROOT
BRANCH   1   2
ATOM      2  C   UNL     1      62.854 -25.865  -2.746  1.00  0.00     0.000 C 
BRANCH   2   3
ATOM      3  C   UNL     1      63.228 -27.355  -2.660  1.00  0.00     0.000 C 
BRANCH   3   4
ATOM      4  C   UNL     1      63.328 -27.882  -1.209  1.00  0.00     0.000 C 
BRANCH   4   5
ATOM      5  C   UNL     1      62.593 -29.218  -1.003  1.00  0.00     0.000 C 
BRANCH   5   6
ATOM      6  C   UNL     1      61.153 -29.008  -0.507  1.00  0.00     0.000 C 
BRANCH   6   7
ATOM      7  C   UNL     1      61.062 -29.150   1.019  1.00  0.00     0.000 C 
BRANCH   7   8
ATOM      8  C   UNL     1      59.693 -29.677   1.488  1.00  0.00     0.000 C 
BRANCH   8   9
ATOM      9  C   UNL     1      58.857 -30.382   0.399  1.00  0.00     0.000 C 
BRANCH   9  10
ATOM     10  C   UNL     1      57.343 -30.123   0.479  1.00  0.00     0.000 C 
BRANCH  10  11
ATOM     11  C   UNL     1      56.949 -29.277   1.700  1.00  0.00     0.000 C 
BRANCH  11  12
ATOM     12  C   UNL     1      55.440 -28.971   1.748  1.00  0.00     0.006 C 
BRANCH  12  13
ATOM     13  C   UNL     1      54.664 -29.475   0.523  1.00  0.00     0.053 C 
BRANCH  13  14
ATOM     14  C   UNL     1      53.549 -30.398   0.910  1.00  0.00     0.041 C 
ATOM     15  O   UNL     1      53.716 -31.246   1.829  1.00  0.00    -0.550 OA
ATOM     16  O   UNL     1      52.326 -30.321   0.256  1.00  0.00    -0.550 OA
ENDBRANCH  13  14
ENDBRANCH  12  13
ENDBRANCH  11  12
ENDBRANCH  10  11
ENDBRANCH   9  10
ENDBRANCH   8   9
ENDBRANCH   7   8
ENDBRANCH   6   7
ENDBRANCH   5   6
ENDBRANCH   4   5
ENDBRANCH   3   4
ENDBRANCH   2   3
ENDBRANCH   1   2
BRANCH   1  17
ATOM     17  C   UNL     1      60.289 -26.012  -2.657  1.00  0.00     0.000 C 
BRANCH  17  18
ATOM     18  C   UNL     1      59.446 -27.148  -3.266  1.00  0.00     0.000 C 
BRANCH  18  19
ATOM     19  C   UNL     1      58.267 -27.637  -2.404  1.00  0.00     0.000 C 
BRANCH  19  20
ATOM     20  C   UNL     1      58.182 -26.961  -1.015  1.00  0.00     0.000 C 
BRANCH  20  21
ATOM     21  C   UNL     1      56.776 -26.422  -0.706  1.00  0.00     0.000 C 
BRANCH  21  22
ATOM     22  C   UNL     1      56.630 -24.922  -1.008  1.00  0.00    -0.000 C 
BRANCH  22  23
ATOM     23  C   UNL     1      55.328 -24.588  -1.753  1.00  0.00    -0.000 C 
BRANCH  23  24
ATOM     24  C   UNL     1      55.629 -23.996  -3.139  1.00  0.00    -0.000 C 
BRANCH  24  25
ATOM     25  C   UNL     1      57.033 -24.360  -3.649  1.00  0.00    -0.000 C 
BRANCH  25  26
ATOM     26  C   UNL     1      57.381 -23.669  -4.980  1.00  0.00    -0.000 C 
BRANCH  26  27
ATOM     27  C   UNL     1      58.878 -23.797  -5.335  1.00  0.00    -0.000 C 
BRANCH  27  28
ATOM     28  C   UNL     1      59.153 -24.727  -6.532  1.00  0.00    -0.000 C 
BRANCH  28  29
ATOM     29  C   UNL     1      60.623 -24.775  -6.982  1.00  0.00    -0.003 C 
ATOM     30  C   UNL     1      60.882 -25.833  -8.053  1.00  0.00     0.004 C 
ENDBRANCH  28  29
ENDBRANCH  27  28
ENDBRANCH  26  27
ENDBRANCH  25  26
ENDBRANCH  24  25
ENDBRANCH  23  24
ENDBRANCH  22  23
ENDBRANCH  21  22
ENDBRANCH  20  21
ENDBRANCH  19  20
ENDBRANCH  18  19
ENDBRANCH  17  18
ENDBRANCH   1  17
TORSDOF 26
ENDMDL
MODEL 2
REMARK VINA RESULT:    -4.432      4.920      9.708
REMARK INTER + INTRA:         -15.525
REMARK INTER:                 -13.180
REMARK INTRA:                  -2.345
REMARK UNBOUND:                -4.357
REMARK SMILES CCCCCCCCCCCCCCCCCCCCCCCCCCCC(=O)[O-]
REMARK SMILES IDX 15 1 16 2 17 3 18 4 19 5 20 6 21 7 22 8 23 9 24 10 25 11
REMARK SMILES IDX 26 12 27 13 28 14 29 15 30 16 14 17 13 18 12 19 11 20 10 21
REMARK SMILES IDX 9 22 8 23 7 24 6 25 5 26 4 27 3 28 2 29 1 30
REMARK H PARENT
REMARK Flexibility Score: inf
ROOT
ATOM      1  C   UNL     1      60.684 -28.881  -0.755  1.00  0.00     0.000 C 
ENDROOT
BRANCH   1   2
ATOM      2  C   UNL     1      62.010 -29.154  -0.024  1.00  0.00     0.000 C 
BRANCH   2   3
ATOM      3  C   UNL     1      63.241 -28.743  -0.849  1.00  0.00     0.000 C 
BRANCH   3   4
ATOM      4  C   UNL     1      62.884 -28.054  -2.187  1.00  0.00     0.000 C 
BRANCH   4   5
ATOM      5  C   UNL     1      63.522 -26.663  -2.336  1.00  0.00     0.000 C 
BRANCH   5   6
ATOM      6  C   UNL     1      62.547 -25.648  -2.954  1.00  0.00     0.000 C 
BRANCH   6   7
ATOM      7  C   UNL     1      61.181 -26.291  -3.237  1.00  0.00     0.000 C 
BRANCH   7   8
ATOM      8  C   UNL     1      60.024 -25.566  -2.525  1.00  0.00     0.000 C 
BRANCH   8   9
ATOM      9  C   UNL     1      58.866 -26.477  -2.066  1.00  0.00     0.000 C 
BRANCH   9  10
ATOM     10  C   UNL     1      57.941 -26.965  -3.195  1.00  0.00     0.000 C 
BRANCH  10  11
ATOM     11  C   UNL     1      57.633 -25.867  -4.225  1.00  0.00     0.000 C 
BRANCH  11  12
ATOM     12  C   UNL     1      58.192 -26.192  -5.623  1.00  0.00     0.006 C 
BRANCH  12  13
ATOM     13  C   UNL     1      58.932 -25.021  -6.286  1.00  0.00     0.053 C 
BRANCH  13  14
ATOM     14  C   UNL     1      58.608 -23.714  -5.629  1.00  0.00     0.041 C 
ATOM     15  O   UNL     1      59.452 -23.156  -4.875  1.00  0.00    -0.550 OA
ATOM     16  O   UNL     1      57.374 -23.114  -5.848  1.00  0.00    -0.550 OA
ENDBRANCH  13  14
ENDBRANCH  12  13
ENDBRANCH  11  12
ENDBRANCH  10  11
ENDBRANCH   9  10
ENDBRANCH   8   9
ENDBRANCH   7   8
ENDBRANCH   6   7
ENDBRANCH   5   6
ENDBRANCH   4   5
ENDBRANCH   3   4
ENDBRANCH   2   3
ENDBRANCH   1   2
BRANCH   1  17
ATOM     17  C   UNL     1      59.501 -29.691  -0.186  1.00  0.00     0.000 C 
BRANCH  17  18
ATOM     18  C   UNL     1      59.550 -29.893   1.340  1.00  0.00     0.000 C 
BRANCH  18  19
ATOM     19  C   UNL     1      58.648 -28.956   2.165  1.00  0.00     0.000 C 
BRANCH  19  20
ATOM     20  C   UNL     1      59.255 -28.538   3.525  1.00  0.00     0.000 C 
BRANCH  20  21
ATOM     21  C   UNL     1      60.763 -28.824   3.610  1.00  0.00     0.000 C 
BRANCH  21  22
ATOM     22  C   UNL     1      61.337 -28.594   5.018  1.00  0.00    -0.000 C 
BRANCH  22  23
ATOM     23  C   UNL     1      60.619 -29.421   6.096  1.00  0.00    -0.000 C 
BRANCH  23  24
ATOM     24  C   UNL     1      61.091 -30.883   6.067  1.00  0.00    -0.000 C 
BRANCH  24  25
ATOM     25  C   UNL     1      61.854 -31.288   7.339  1.00  0.00    -0.000 C 
BRANCH  25  26
ATOM     26  C   UNL     1      63.247 -30.638   7.430  1.00  0.00    -0.000 C 
BRANCH  26  27
ATOM     27  C   UNL     1      64.291 -31.572   8.078  1.00  0.00    -0.000 C 
BRANCH  27  28
ATOM     28  C   UNL     1      65.124 -32.373   7.059  1.00  0.00    -0.000 C 
BRANCH  28  29
ATOM     29  C   UNL     1      66.557 -32.695   7.514  1.00  0.00    -0.003 C 
ATOM     30  C   UNL     1      67.551 -31.585   7.174  1.00  0.00     0.004 C 
ENDBRANCH  28  29
ENDBRANCH  27  28
ENDBRANCH  26  27
ENDBRANCH  25  26
ENDBRANCH  24  25
ENDBRANCH  23  24
ENDBRANCH  22  23
ENDBRANCH  21  22
ENDBRANCH  20  21
ENDBRANCH  19  20
ENDBRANCH  18  19
ENDBRANCH  17  18
ENDBRANCH   1  17
TORSDOF 26
ENDMDL
MODEL 3
REMARK VINA RESULT:    -4.422      2.042      4.689
REMARK INTER + INTRA:         -15.499
REMARK INTER:                 -11.174
REMARK INTRA:                  -4.325
REMARK UNBOUND:                -4.357
REMARK SMILES CCCCCCCCCCCCCCCCCCCCCCCCCCCC(=O)[O-]
REMARK SMILES IDX 15 1 16 2 17 3 18 4 19 5 20 6 21 7 22 8 23 9 24 10 25 11
REMARK SMILES IDX 26 12 27 13 28 14 29 15 30 16 14 17 13 18 12 19 11 20 10 21
REMARK SMILES IDX 9 22 8 23 7 24 6 25 5 26 4 27 3 28 2 29 1 30
REMARK H PARENT
REMARK Flexibility Score: inf
ROOT
ATOM      1  C   UNL     1      61.961 -28.873  -0.377  1.00  0.00     0.000 C 
ENDROOT
BRANCH   1   2
ATOM      2  C   UNL     1      60.580 -29.177  -0.985  1.00  0.00     0.000 C 
BRANCH   2   3
ATOM      3  C   UNL     1      59.530 -29.543   0.076  1.00  0.00     0.000 C 
BRANCH   3   4
ATOM      4  C   UNL     1      59.964 -29.195   1.520  1.00  0.00     0.000 C 
BRANCH   4   5
ATOM      5  C   UNL     1      58.777 -29.065   2.490  1.00  0.00     0.000 C 
BRANCH   5   6
ATOM      6  C   UNL     1      57.709 -28.093   1.961  1.00  0.00     0.000 C 
BRANCH   6   7
ATOM      7  C   UNL     1      56.297 -28.672   2.130  1.00  0.00     0.000 C 
BRANCH   7   8
ATOM      8  C   UNL     1      55.871 -29.560   0.946  1.00  0.00     0.000 C 
BRANCH   8   9
ATOM      9  C   UNL     1      55.405 -28.793  -0.310  1.00  0.00     0.000 C 
BRANCH   9  10
ATOM     10  C   UNL     1      56.406 -28.797  -1.478  1.00  0.00     0.000 C 
BRANCH  10  11
ATOM     11  C   UNL     1      56.624 -27.398  -2.077  1.00  0.00     0.000 C 
BRANCH  11  12
ATOM     12  C   UNL     1      57.697 -26.591  -1.322  1.00  0.00     0.006 C 
BRANCH  12  13
ATOM     13  C   UNL     1      57.270 -25.155  -0.982  1.00  0.00     0.053 C 
BRANCH  13  14
ATOM     14  C   UNL     1      55.799 -25.058  -0.720  1.00  0.00     0.041 C 
ATOM     15  O   UNL     1      55.026 -24.589  -1.600  1.00  0.00    -0.550 OA
ATOM     16  O   UNL     1      55.281 -25.484   0.498  1.00  0.00    -0.550 OA
ENDBRANCH  13  14
ENDBRANCH  12  13
ENDBRANCH  11  12
ENDBRANCH  10  11
ENDBRANCH   9  10
ENDBRANCH   8   9
ENDBRANCH   7   8
ENDBRANCH   6   7
ENDBRANCH   5   6
ENDBRANCH   4   5
ENDBRANCH   3   4
ENDBRANCH   2   3
ENDBRANCH   1   2
BRANCH   1  17
ATOM     17  C   UNL     1      63.085 -28.808  -1.430  1.00  0.00     0.000 C 
BRANCH  17  18
ATOM     18  C   UNL     1      63.648 -27.395  -1.669  1.00  0.00     0.000 C 
BRANCH  18  19
ATOM     19  C   UNL     1      63.422 -26.817  -3.079  1.00  0.00     0.000 C 
BRANCH  19  20
ATOM     20  C   UNL     1      62.478 -25.592  -3.111  1.00  0.00     0.000 C 
BRANCH  20  21
ATOM     21  C   UNL     1      61.026 -25.957  -2.762  1.00  0.00     0.000 C 
BRANCH  21  22
ATOM     22  C   UNL     1      60.118 -26.048  -3.999  1.00  0.00    -0.000 C 
BRANCH  22  23
ATOM     23  C   UNL     1      59.377 -24.733  -4.291  1.00  0.00    -0.000 C 
BRANCH  23  24
ATOM     24  C   UNL     1      60.019 -23.997  -5.478  1.00  0.00    -0.000 C 
BRANCH  24  25
ATOM     25  C   UNL     1      60.711 -24.952  -6.465  1.00  0.00    -0.000 C 
BRANCH  25  26
ATOM     26  C   UNL     1      59.932 -25.114  -7.783  1.00  0.00    -0.000 C 
BRANCH  26  27
ATOM     27  C   UNL     1      58.870 -26.232  -7.704  1.00  0.00    -0.000 C 
BRANCH  27  28
ATOM     28  C   UNL     1      57.437 -25.711  -7.481  1.00  0.00    -0.000 C 
BRANCH  28  29
ATOM     29  C   UNL     1      57.203 -24.263  -7.944  1.00  0.00    -0.003 C 
ATOM     30  C   UNL     1      56.630 -23.373  -6.842  1.00  0.00     0.004 C 
ENDBRANCH  28  29
ENDBRANCH  27  28
ENDBRANCH  26  27
ENDBRANCH  25  26
ENDBRANCH  24  25
ENDBRANCH  23  24
ENDBRANCH  22  23
ENDBRANCH  21  22
ENDBRANCH  20  21
ENDBRANCH  19  20
ENDBRANCH  18  19
ENDBRANCH  17  18
ENDBRANCH   1  17
TORSDOF 26
ENDMDL
MODEL 4
REMARK VINA RESULT:    -4.420      2.552      4.206
REMARK INTER + INTRA:         -15.495
REMARK INTER:                 -11.545
REMARK INTRA:                  -3.950
REMARK UNBOUND:                -4.357
REMARK SMILES CCCCCCCCCCCCCCCCCCCCCCCCCCCC(=O)[O-]
REMARK SMILES IDX 15 1 16 2 17 3 18 4 19 5 20 6 21 7 22 8 23 9 24 10 25 11
REMARK SMILES IDX 26 12 27 13 28 14 29 15 30 16 14 17 13 18 12 19 11 20 10 21
REMARK SMILES IDX 9 22 8 23 7 24 6 25 5 26 4 27 3 28 2 29 1 30
REMARK H PARENT
REMARK Flexibility Score: inf
ROOT
ATOM      1  C   UNL     1      63.533 -28.440  -1.647  1.00  0.00     0.000 C 
ENDROOT
BRANCH   1   2
ATOM      2  C   UNL     1      62.833 -29.194  -0.503  1.00  0.00     0.000 C 
BRANCH   2   3
ATOM      3  C   UNL     1      61.300 -29.098  -0.577  1.00  0.00     0.000 C 
BRANCH   3   4
ATOM      4  C   UNL     1      60.611 -29.141   0.808  1.00  0.00     0.000 C 
BRANCH   4   5
ATOM      5  C   UNL     1      59.421 -30.116   0.858  1.00  0.00     0.000 C 
BRANCH   5   6
ATOM      6  C   UNL     1      58.337 -29.748  -0.168  1.00  0.00     0.000 C 
BRANCH   6   7
ATOM      7  C   UNL     1      57.171 -29.003   0.498  1.00  0.00     0.000 C 
BRANCH   7   8
ATOM      8  C   UNL     1      57.191 -27.490   0.213  1.00  0.00     0.000 C 
BRANCH   8   9
ATOM      9  C   UNL     1      56.812 -26.594   1.411  1.00  0.00     0.000 C 
BRANCH   9  10
ATOM     10  C   UNL     1      57.021 -27.239   2.792  1.00  0.00     0.000 C 
BRANCH  10  11
ATOM     11  C   UNL     1      57.934 -26.404   3.704  1.00  0.00     0.000 C 
BRANCH  11  12
ATOM     12  C   UNL     1      58.972 -27.263   4.450  1.00  0.00     0.006 C 
BRANCH  12  13
ATOM     13  C   UNL     1      58.879 -28.764   4.137  1.00  0.00     0.053 C 
BRANCH  13  14
ATOM     14  C   UNL     1      60.012 -29.531   4.747  1.00  0.00     0.041 C 
ATOM     15  O   UNL     1      60.359 -30.644   4.264  1.00  0.00    -0.550 OA
ATOM     16  O   UNL     1      60.683 -29.019   5.850  1.00  0.00    -0.550 OA
ENDBRANCH  13  14
ENDBRANCH  12  13
ENDBRANCH  11  12
ENDBRANCH  10  11
ENDBRANCH   9  10
ENDBRANCH   8   9
ENDBRANCH   7   8
ENDBRANCH   6   7
ENDBRANCH   5   6
ENDBRANCH   4   5
ENDBRANCH   3   4
ENDBRANCH   2   3
ENDBRANCH   1   2
BRANCH   1  17
ATOM     17  C   UNL     1      63.167 -26.943  -1.697  1.00  0.00     0.000 C 
BRANCH  17  18
ATOM     18  C   UNL     1      63.157 -26.341  -3.115  1.00  0.00     0.000 C 
BRANCH  18  19
ATOM     19  C   UNL     1      61.815 -25.737  -3.571  1.00  0.00     0.000 C 
BRANCH  19  20
ATOM     20  C   UNL     1      60.639 -26.020  -2.608  1.00  0.00     0.000 C 
BRANCH  20  21
ATOM     21  C   UNL     1      59.766 -27.198  -3.073  1.00  0.00     0.000 C 
BRANCH  21  22
ATOM     22  C   UNL     1      58.274 -26.837  -3.165  1.00  0.00    -0.000 C 
BRANCH  22  23
ATOM     23  C   UNL     1      57.993 -25.369  -2.810  1.00  0.00    -0.000 C 
BRANCH  23  24
ATOM     24  C   UNL     1      57.431 -24.612  -4.024  1.00  0.00    -0.000 C 
BRANCH  24  25
ATOM     25  C   UNL     1      58.515 -23.843  -4.799  1.00  0.00    -0.000 C 
BRANCH  25  26
ATOM     26  C   UNL     1      58.622 -24.286  -6.269  1.00  0.00    -0.000 C 
BRANCH  26  27
ATOM     27  C   UNL     1      59.408 -25.605  -6.431  1.00  0.00    -0.000 C 
BRANCH  27  28
ATOM     28  C   UNL     1      60.760 -25.436  -7.149  1.00  0.00    -0.000 C 
BRANCH  28  29
ATOM     29  C   UNL     1      60.711 -25.658  -8.670  1.00  0.00    -0.003 C 
ATOM     30  C   UNL     1      61.918 -26.433  -9.196  1.00  0.00     0.004 C 
ENDBRANCH  28  29
ENDBRANCH  27  28
ENDBRANCH  26  27
ENDBRANCH  25  26
ENDBRANCH  24  25
ENDBRANCH  23  24
ENDBRANCH  22  23
ENDBRANCH  21  22
ENDBRANCH  20  21
ENDBRANCH  19  20
ENDBRANCH  18  19
ENDBRANCH  17  18
ENDBRANCH   1  17
TORSDOF 26
ENDMDL
MODEL 5
REMARK VINA RESULT:    -4.393      4.113      8.932
REMARK INTER + INTRA:         -15.427
REMARK INTER:                 -12.868
REMARK INTRA:                  -2.559
REMARK UNBOUND:                -4.357
REMARK SMILES CCCCCCCCCCCCCCCCCCCCCCCCCCCC(=O)[O-]
REMARK SMILES IDX 15 1 16 2 17 3 18 4 19 5 20 6 21 7 22 8 23 9 24 10 25 11
REMARK SMILES IDX 26 12 27 13 28 14 29 15 30 16 14 17 13 18 12 19 11 20 10 21
REMARK SMILES IDX 9 22 8 23 7 24 6 25 5 26 4 27 3 28 2 29 1 30
REMARK H PARENT
REMARK Flexibility Score: inf
ROOT
ATOM      1  C   UNL     1      60.615 -28.914  -0.738  1.00  0.00     0.000 C 
ENDROOT
BRANCH   1   2
ATOM      2  C   UNL     1      61.901 -29.239   0.044  1.00  0.00     0.000 C 
BRANCH   2   3
ATOM      3  C   UNL     1      63.177 -28.838  -0.716  1.00  0.00     0.000 C 
BRANCH   3   4
ATOM      4  C   UNL     1      62.897 -28.076  -2.032  1.00  0.00     0.000 C 
BRANCH   4   5
ATOM      5  C   UNL     1      63.684 -26.758  -2.143  1.00  0.00     0.000 C 
BRANCH   5   6
ATOM      6  C   UNL     1      62.998 -25.759  -3.089  1.00  0.00     0.000 C 
BRANCH   6   7
ATOM      7  C   UNL     1      61.533 -26.146  -3.339  1.00  0.00     0.000 C 
BRANCH   7   8
ATOM      8  C   UNL     1      60.588 -24.930  -3.341  1.00  0.00     0.000 C 
BRANCH   8   9
ATOM      9  C   UNL     1      59.224 -25.162  -2.657  1.00  0.00     0.000 C 
BRANCH   9  10
ATOM     10  C   UNL     1      58.934 -26.623  -2.273  1.00  0.00     0.000 C 
BRANCH  10  11
ATOM     11  C   UNL     1      57.430 -26.939  -2.234  1.00  0.00     0.000 C 
BRANCH  11  12
ATOM     12  C   UNL     1      56.652 -26.004  -1.289  1.00  0.00     0.006 C 
BRANCH  12  13
ATOM     13  C   UNL     1      56.780 -26.374   0.196  1.00  0.00     0.053 C 
BRANCH  13  14
ATOM     14  C   UNL     1      55.442 -26.574   0.838  1.00  0.00     0.041 C 
ATOM     15  O   UNL     1      54.593 -25.641   0.842  1.00  0.00    -0.550 OA
ATOM     16  O   UNL     1      55.133 -27.792   1.433  1.00  0.00    -0.550 OA
ENDBRANCH  13  14
ENDBRANCH  12  13
ENDBRANCH  11  12
ENDBRANCH  10  11
ENDBRANCH   9  10
ENDBRANCH   8   9
ENDBRANCH   7   8
ENDBRANCH   6   7
ENDBRANCH   5   6
ENDBRANCH   4   5
ENDBRANCH   3   4
ENDBRANCH   2   3
ENDBRANCH   1   2
BRANCH   1  17
ATOM     17  C   UNL     1      59.388 -29.704  -0.239  1.00  0.00     0.000 C 
BRANCH  17  18
ATOM     18  C   UNL     1      59.367 -29.944   1.282  1.00  0.00     0.000 C 
BRANCH  18  19
ATOM     19  C   UNL     1      58.486 -28.979   2.097  1.00  0.00     0.000 C 
BRANCH  19  20
ATOM     20  C   UNL     1      59.113 -28.540   3.441  1.00  0.00     0.000 C 
BRANCH  20  21
ATOM     21  C   UNL     1      60.597 -28.923   3.553  1.00  0.00     0.000 C 
BRANCH  21  22
ATOM     22  C   UNL     1      61.199 -28.594   4.929  1.00  0.00    -0.000 C 
BRANCH  22  23
ATOM     23  C   UNL     1      60.503 -29.341   6.078  1.00  0.00    -0.000 C 
BRANCH  23  24
ATOM     24  C   UNL     1      61.000 -30.792   6.166  1.00  0.00    -0.000 C 
BRANCH  24  25
ATOM     25  C   UNL     1      61.844 -31.056   7.424  1.00  0.00    -0.000 C 
BRANCH  25  26
ATOM     26  C   UNL     1      63.165 -30.264   7.432  1.00  0.00    -0.000 C 
BRANCH  26  27
ATOM     27  C   UNL     1      64.368 -31.132   7.859  1.00  0.00    -0.000 C 
BRANCH  27  28
ATOM     28  C   UNL     1      64.156 -32.641   7.629  1.00  0.00    -0.000 C 
BRANCH  28  29
ATOM     29  C   UNL     1      65.354 -33.366   6.994  1.00  0.00    -0.003 C 
ATOM     30  C   UNL     1      65.211 -34.887   7.025  1.00  0.00     0.004 C 
ENDBRANCH  28  29
ENDBRANCH  27  28
ENDBRANCH  26  27
ENDBRANCH  25  26
ENDBRANCH  24  25
ENDBRANCH  23  24
ENDBRANCH  22  23
ENDBRANCH  21  22
ENDBRANCH  20  21
ENDBRANCH  19  20
ENDBRANCH  18  19
ENDBRANCH  17  18
ENDBRANCH   1  17
TORSDOF 26
ENDMDL
MODEL 6
REMARK VINA RESULT:    -4.387      1.985      6.357
REMARK INTER + INTRA:         -15.413
REMARK INTER:                 -10.997
REMARK INTRA:                  -4.416
REMARK UNBOUND:                -4.357
REMARK SMILES CCCCCCCCCCCCCCCCCCCCCCCCCCCC(=O)[O-]
REMARK SMILES IDX 15 1 16 2 17 3 18 4 19 5 20 6 21 7 22 8 23 9 24 10 25 11
REMARK SMILES IDX 26 12 27 13 28 14 29 15 30 16 14 17 13 18 12 19 11 20 10 21
REMARK SMILES IDX 9 22 8 23 7 24 6 25 5 26 4 27 3 28 2 29 1 30
REMARK H PARENT
REMARK Flexibility Score: inf
ROOT
ATOM      1  C   UNL     1      63.622 -26.855  -2.082  1.00  0.00     0.000 C 
ENDROOT
BRANCH   1   2
ATOM      2  C   UNL     1      62.791 -26.080  -3.121  1.00  0.00     0.000 C 
BRANCH   2   3
ATOM      3  C   UNL     1      61.337 -25.858  -2.673  1.00  0.00     0.000 C 
BRANCH   3   4
ATOM      4  C   UNL     1      60.298 -26.550  -3.588  1.00  0.00     0.000 C 
BRANCH   4   5
ATOM      5  C   UNL     1      58.866 -26.028  -3.373  1.00  0.00     0.000 C 
BRANCH   5   6
ATOM      6  C   UNL     1      58.606 -25.660  -1.904  1.00  0.00     0.000 C 
BRANCH   6   7
ATOM      7  C   UNL     1      57.126 -25.846  -1.536  1.00  0.00     0.000 C 
BRANCH   7   8
ATOM      8  C   UNL     1      56.469 -27.016  -2.292  1.00  0.00     0.000 C 
BRANCH   8   9
ATOM      9  C   UNL     1      55.398 -27.789  -1.494  1.00  0.00     0.000 C 
BRANCH   9  10
ATOM     10  C   UNL     1      54.748 -26.996  -0.348  1.00  0.00     0.000 C 
BRANCH  10  11
ATOM     11  C   UNL     1      53.758 -27.840   0.471  1.00  0.00     0.000 C 
BRANCH  11  12
ATOM     12  C   UNL     1      54.039 -29.351   0.365  1.00  0.00     0.006 C 
BRANCH  12  13
ATOM     13  C   UNL     1      53.661 -30.145   1.624  1.00  0.00     0.053 C 
BRANCH  13  14
ATOM     14  C   UNL     1      53.539 -31.611   1.342  1.00  0.00     0.041 C 
ATOM     15  O   UNL     1      52.480 -32.075   0.838  1.00  0.00    -0.550 OA
ATOM     16  O   UNL     1      54.594 -32.465   1.639  1.00  0.00    -0.550 OA
ENDBRANCH  13  14
ENDBRANCH  12  13
ENDBRANCH  11  12
ENDBRANCH  10  11
ENDBRANCH   9  10
ENDBRANCH   8   9
ENDBRANCH   7   8
ENDBRANCH   6   7
ENDBRANCH   5   6
ENDBRANCH   4   5
ENDBRANCH   3   4
ENDBRANCH   2   3
ENDBRANCH   1   2
BRANCH   1  17
ATOM     17  C   UNL     1      63.219 -28.339  -1.970  1.00  0.00     0.000 C 
BRANCH  17  18
ATOM     18  C   UNL     1      63.090 -28.852  -0.524  1.00  0.00     0.000 C 
BRANCH  18  19
ATOM     19  C   UNL     1      61.652 -28.988   0.009  1.00  0.00     0.000 C 
BRANCH  19  20
ATOM     20  C   UNL     1      60.589 -29.186  -1.098  1.00  0.00     0.000 C 
BRANCH  20  21
ATOM     21  C   UNL     1      59.159 -28.928  -0.595  1.00  0.00     0.000 C 
BRANCH  21  22
ATOM     22  C   UNL     1      58.500 -30.182   0.005  1.00  0.00    -0.000 C 
BRANCH  22  23
ATOM     23  C   UNL     1      57.383 -29.847   1.005  1.00  0.00    -0.000 C 
BRANCH  23  24
ATOM     24  C   UNL     1      57.577 -28.438   1.588  1.00  0.00    -0.000 C 
BRANCH  24  25
ATOM     25  C   UNL     1      57.136 -28.337   3.058  1.00  0.00    -0.000 C 
BRANCH  25  26
ATOM     26  C   UNL     1      58.325 -28.264   4.033  1.00  0.00    -0.000 C 
BRANCH  26  27
ATOM     27  C   UNL     1      59.685 -28.386   3.312  1.00  0.00    -0.000 C 
BRANCH  27  28
ATOM     28  C   UNL     1      60.697 -29.287   4.046  1.00  0.00    -0.000 C 
BRANCH  28  29
ATOM     29  C   UNL     1      60.065 -30.309   5.006  1.00  0.00    -0.003 C 
ATOM     30  C   UNL     1      61.061 -30.858   6.027  1.00  0.00     0.004 C 
ENDBRANCH  28  29
ENDBRANCH  27  28
ENDBRANCH  26  27
ENDBRANCH  25  26
ENDBRANCH  24  25
ENDBRANCH  23  24
ENDBRANCH  22  23
ENDBRANCH  21  22
ENDBRANCH  20  21
ENDBRANCH  19  20
ENDBRANCH  18  19
ENDBRANCH  17  18
ENDBRANCH   1  17
TORSDOF 26
ENDMDL
MODEL 7
REMARK VINA RESULT:    -4.361      2.443      3.513
REMARK INTER + INTRA:         -15.347
REMARK INTER:                 -11.295
REMARK INTRA:                  -4.052
REMARK UNBOUND:                -4.357
REMARK SMILES CCCCCCCCCCCCCCCCCCCCCCCCCCCC(=O)[O-]
REMARK SMILES IDX 15 1 16 2 17 3 18 4 19 5 20 6 21 7 22 8 23 9 24 10 25 11
REMARK SMILES IDX 26 12 27 13 28 14 29 15 30 16 14 17 13 18 12 19 11 20 10 21
REMARK SMILES IDX 9 22 8 23 7 24 6 25 5 26 4 27 3 28 2 29 1 30
REMARK H PARENT
REMARK Flexibility Score: inf
ROOT
ATOM      1  C   UNL     1      62.984 -26.196  -2.530  1.00  0.00     0.000 C 
ENDROOT
BRANCH   1   2
ATOM      2  C   UNL     1      63.114 -27.726  -2.407  1.00  0.00     0.000 C 
BRANCH   2   3
ATOM      3  C   UNL     1      63.588 -28.172  -1.014  1.00  0.00     0.000 C 
BRANCH   3   4
ATOM      4  C   UNL     1      62.611 -29.144  -0.312  1.00  0.00     0.000 C 
BRANCH   4   5
ATOM      5  C   UNL     1      61.238 -29.221  -1.003  1.00  0.00     0.000 C 
BRANCH   5   6
ATOM      6  C   UNL     1      60.094 -28.851  -0.046  1.00  0.00     0.000 C 
BRANCH   6   7
ATOM      7  C   UNL     1      59.080 -29.998   0.078  1.00  0.00     0.000 C 
BRANCH   7   8
ATOM      8  C   UNL     1      57.627 -29.500   0.186  1.00  0.00     0.000 C 
BRANCH   8   9
ATOM      9  C   UNL     1      57.110 -29.299   1.626  1.00  0.00     0.000 C 
BRANCH   9  10
ATOM     10  C   UNL     1      57.705 -28.087   2.363  1.00  0.00     0.000 C 
BRANCH  10  11
ATOM     11  C   UNL     1      58.336 -28.465   3.713  1.00  0.00     0.000 C 
BRANCH  11  12
ATOM     12  C   UNL     1      59.871 -28.566   3.642  1.00  0.00     0.006 C 
BRANCH  12  13
ATOM     13  C   UNL     1      60.536 -28.898   4.986  1.00  0.00     0.053 C 
BRANCH  13  14
ATOM     14  C   UNL     1      60.568 -30.374   5.242  1.00  0.00     0.041 C 
ATOM     15  O   UNL     1      60.708 -30.812   6.416  1.00  0.00    -0.550 OA
ATOM     16  O   UNL     1      60.445 -31.265   4.183  1.00  0.00    -0.550 OA
ENDBRANCH  13  14
ENDBRANCH  12  13
ENDBRANCH  11  12
ENDBRANCH  10  11
ENDBRANCH   9  10
ENDBRANCH   8   9
ENDBRANCH   7   8
ENDBRANCH   6   7
ENDBRANCH   5   6
ENDBRANCH   4   5
ENDBRANCH   3   4
ENDBRANCH   2   3
ENDBRANCH   1   2
BRANCH   1  17
ATOM     17  C   UNL     1      61.742 -25.758  -3.332  1.00  0.00     0.000 C 
BRANCH  17  18
ATOM     18  C   UNL     1      60.401 -26.079  -2.647  1.00  0.00     0.000 C 
BRANCH  18  19
ATOM     19  C   UNL     1      59.486 -27.062  -3.402  1.00  0.00     0.000 C 
BRANCH  19  20
ATOM     20  C   UNL     1      58.130 -27.320  -2.703  1.00  0.00     0.000 C 
BRANCH  20  21
ATOM     21  C   UNL     1      57.800 -26.255  -1.644  1.00  0.00     0.000 C 
BRANCH  21  22
ATOM     22  C   UNL     1      56.396 -25.654  -1.817  1.00  0.00    -0.000 C 
BRANCH  22  23
ATOM     23  C   UNL     1      56.411 -24.305  -2.551  1.00  0.00    -0.000 C 
BRANCH  23  24
ATOM     24  C   UNL     1      55.824 -24.446  -3.964  1.00  0.00    -0.000 C 
BRANCH  24  25
ATOM     25  C   UNL     1      56.861 -24.922  -4.995  1.00  0.00    -0.000 C 
BRANCH  25  26
ATOM     26  C   UNL     1      57.661 -23.762  -5.615  1.00  0.00    -0.000 C 
BRANCH  26  27
ATOM     27  C   UNL     1      59.081 -23.643  -5.021  1.00  0.00    -0.000 C 
BRANCH  27  28
ATOM     28  C   UNL     1      60.196 -24.081  -5.990  1.00  0.00    -0.000 C 
BRANCH  28  29
ATOM     29  C   UNL     1      59.973 -25.455  -6.644  1.00  0.00    -0.003 C 
ATOM     30  C   UNL     1      60.062 -25.408  -8.168  1.00  0.00     0.004 C 
ENDBRANCH  28  29
ENDBRANCH  27  28
ENDBRANCH  26  27
ENDBRANCH  25  26
ENDBRANCH  24  25
ENDBRANCH  23  24
ENDBRANCH  22  23
ENDBRANCH  21  22
ENDBRANCH  20  21
ENDBRANCH  19  20
ENDBRANCH  18  19
ENDBRANCH  17  18
ENDBRANCH   1  17
TORSDOF 26
ENDMDL
MODEL 8
REMARK VINA RESULT:    -4.336      3.874      7.733
REMARK INTER + INTRA:         -15.283
REMARK INTER:                 -11.122
REMARK INTRA:                  -4.160
REMARK UNBOUND:                -4.357
REMARK SMILES CCCCCCCCCCCCCCCCCCCCCCCCCCCC(=O)[O-]
REMARK SMILES IDX 15 1 16 2 17 3 18 4 19 5 20 6 21 7 22 8 23 9 24 10 25 11
REMARK SMILES IDX 26 12 27 13 28 14 29 15 30 16 14 17 13 18 12 19 11 20 10 21
REMARK SMILES IDX 9 22 8 23 7 24 6 25 5 26 4 27 3 28 2 29 1 30
REMARK H PARENT
REMARK Flexibility Score: inf
ROOT
ATOM      1  C   UNL     1      63.318 -26.268  -2.487  1.00  0.00     0.000 C 
ENDROOT
BRANCH   1   2
ATOM      2  C   UNL     1      62.205 -25.515  -3.239  1.00  0.00     0.000 C 
BRANCH   2   3
ATOM      3  C   UNL     1      60.797 -25.887  -2.744  1.00  0.00     0.000 C 
BRANCH   3   4
ATOM      4  C   UNL     1      59.772 -26.077  -3.887  1.00  0.00     0.000 C 
BRANCH   4   5
ATOM      5  C   UNL     1      60.272 -25.537  -5.239  1.00  0.00     0.000 C 
BRANCH   5   6
ATOM      6  C   UNL     1      59.757 -24.115  -5.512  1.00  0.00     0.000 C 
BRANCH   6   7
ATOM      7  C   UNL     1      58.426 -23.856  -4.790  1.00  0.00     0.000 C 
BRANCH   7   8
ATOM      8  C   UNL     1      57.212 -23.931  -5.734  1.00  0.00     0.000 C 
BRANCH   8   9
ATOM      9  C   UNL     1      56.534 -25.315  -5.817  1.00  0.00     0.000 C 
BRANCH   9  10
ATOM     10  C   UNL     1      56.503 -25.936  -7.224  1.00  0.00     0.000 C 
BRANCH  10  11
ATOM     11  C   UNL     1      57.784 -26.720  -7.554  1.00  0.00     0.000 C 
BRANCH  11  12
ATOM     12  C   UNL     1      58.598 -26.074  -8.691  1.00  0.00     0.006 C 
BRANCH  12  13
ATOM     13  C   UNL     1      59.448 -27.071  -9.492  1.00  0.00     0.053 C 
BRANCH  13  14
ATOM     14  C   UNL     1      60.907 -26.938  -9.176  1.00  0.00     0.041 C 
ATOM     15  O   UNL     1      61.711 -27.859  -9.489  1.00  0.00    -0.550 OA
ATOM     16  O   UNL     1      61.377 -25.799  -8.534  1.00  0.00    -0.550 OA
ENDBRANCH  13  14
ENDBRANCH  12  13
ENDBRANCH  11  12
ENDBRANCH  10  11
ENDBRANCH   9  10
ENDBRANCH   8   9
ENDBRANCH   7   8
ENDBRANCH   6   7
ENDBRANCH   5   6
ENDBRANCH   4   5
ENDBRANCH   3   4
ENDBRANCH   2   3
ENDBRANCH   1   2
BRANCH   1  17
ATOM     17  C   UNL     1      63.050 -27.781  -2.366  1.00  0.00     0.000 C 
BRANCH  17  18
ATOM     18  C   UNL     1      63.336 -28.365  -0.970  1.00  0.00     0.000 C 
BRANCH  18  19
ATOM     19  C   UNL     1      62.212 -29.226  -0.365  1.00  0.00     0.000 C 
BRANCH  19  20
ATOM     20  C   UNL     1      60.844 -29.057  -1.068  1.00  0.00     0.000 C 
BRANCH  20  21
ATOM     21  C   UNL     1      59.660 -29.349  -0.132  1.00  0.00     0.000 C 
BRANCH  21  22
ATOM     22  C   UNL     1      60.039 -29.273   1.356  1.00  0.00    -0.000 C 
BRANCH  22  23
ATOM     23  C   UNL     1      58.819 -29.104   2.274  1.00  0.00    -0.000 C 
BRANCH  23  24
ATOM     24  C   UNL     1      57.607 -28.588   1.482  1.00  0.00    -0.000 C 
BRANCH  24  25
ATOM     25  C   UNL     1      57.027 -27.288   2.064  1.00  0.00    -0.000 C 
BRANCH  25  26
ATOM     26  C   UNL     1      56.438 -26.364   0.983  1.00  0.00    -0.000 C 
BRANCH  26  27
ATOM     27  C   UNL     1      57.318 -26.304  -0.284  1.00  0.00    -0.000 C 
BRANCH  27  28
ATOM     28  C   UNL     1      56.560 -25.842  -1.543  1.00  0.00    -0.000 C 
BRANCH  28  29
ATOM     29  C   UNL     1      56.331 -26.943  -2.592  1.00  0.00    -0.003 C 
ATOM     30  C   UNL     1      57.122 -28.217  -2.297  1.00  0.00     0.004 C 
ENDBRANCH  28  29
ENDBRANCH  27  28
ENDBRANCH  26  27
ENDBRANCH  25  26
ENDBRANCH  24  25
ENDBRANCH  23  24
ENDBRANCH  22  23
ENDBRANCH  21  22
ENDBRANCH  20  21
ENDBRANCH  19  20
ENDBRANCH  18  19
ENDBRANCH  17  18
ENDBRANCH   1  17
TORSDOF 26
ENDMDL
MODEL 9
REMARK VINA RESULT:    -4.239      2.003      6.528
REMARK INTER + INTRA:         -15.039
REMARK INTER:                 -10.491
REMARK INTRA:                  -4.548
REMARK UNBOUND:                -4.357
REMARK SMILES CCCCCCCCCCCCCCCCCCCCCCCCCCCC(=O)[O-]
REMARK SMILES IDX 15 1 16 2 17 3 18 4 19 5 20 6 21 7 22 8 23 9 24 10 25 11
REMARK SMILES IDX 26 12 27 13 28 14 29 15 30 16 14 17 13 18 12 19 11 20 10 21
REMARK SMILES IDX 9 22 8 23 7 24 6 25 5 26 4 27 3 28 2 29 1 30
REMARK H PARENT
REMARK Flexibility Score: inf
ROOT
ATOM      1  C   UNL     1      63.260 -27.006  -1.788  1.00  0.00     0.000 C 
ENDROOT
BRANCH   1   2
ATOM      2  C   UNL     1      63.274 -26.218  -3.111  1.00  0.00     0.000 C 
BRANCH   2   3
ATOM      3  C   UNL     1      61.865 -25.813  -3.577  1.00  0.00     0.000 C 
BRANCH   3   4
ATOM      4  C   UNL     1      60.752 -26.181  -2.567  1.00  0.00     0.000 C 
BRANCH   4   5
ATOM      5  C   UNL     1      59.363 -25.675  -2.993  1.00  0.00     0.000 C 
BRANCH   5   6
ATOM      6  C   UNL     1      58.444 -26.826  -3.431  1.00  0.00     0.000 C 
BRANCH   6   7
ATOM      7  C   UNL     1      57.549 -27.295  -2.274  1.00  0.00     0.000 C 
BRANCH   7   8
ATOM      8  C   UNL     1      57.356 -26.213  -1.195  1.00  0.00     0.000 C 
BRANCH   8   9
ATOM      9  C   UNL     1      56.926 -26.741   0.190  1.00  0.00     0.000 C 
BRANCH   9  10
ATOM     10  C   UNL     1      55.442 -26.524   0.532  1.00  0.00     0.000 C 
BRANCH  10  11
ATOM     11  C   UNL     1      54.737 -27.820   0.963  1.00  0.00     0.000 C 
BRANCH  11  12
ATOM     12  C   UNL     1      55.628 -29.065   0.789  1.00  0.00     0.006 C 
BRANCH  12  13
ATOM     13  C   UNL     1      55.009 -30.356   1.344  1.00  0.00     0.053 C 
BRANCH  13  14
ATOM     14  C   UNL     1      53.551 -30.461   1.014  1.00  0.00     0.041 C 
ATOM     15  O   UNL     1      53.183 -30.701  -0.168  1.00  0.00    -0.550 OA
ATOM     16  O   UNL     1      52.600 -30.292   2.013  1.00  0.00    -0.550 OA
ENDBRANCH  13  14
ENDBRANCH  12  13
ENDBRANCH  11  12
ENDBRANCH  10  11
ENDBRANCH   9  10
ENDBRANCH   8   9
ENDBRANCH   7   8
ENDBRANCH   6   7
ENDBRANCH   5   6
ENDBRANCH   4   5
ENDBRANCH   3   4
ENDBRANCH   2   3
ENDBRANCH   1   2
BRANCH   1  17
ATOM     17  C   UNL     1      63.596 -28.499  -1.971  1.00  0.00     0.000 C 
BRANCH  17  18
ATOM     18  C   UNL     1      62.971 -29.422  -0.908  1.00  0.00     0.000 C 
BRANCH  18  19
ATOM     19  C   UNL     1      61.696 -28.888  -0.229  1.00  0.00     0.000 C 
BRANCH  19  20
ATOM     20  C   UNL     1      60.386 -29.299  -0.943  1.00  0.00     0.000 C 
BRANCH  20  21
ATOM     21  C   UNL     1      59.289 -29.735   0.041  1.00  0.00     0.000 C 
BRANCH  21  22
ATOM     22  C   UNL     1      59.745 -29.679   1.509  1.00  0.00    -0.000 C 
BRANCH  22  23
ATOM     23  C   UNL     1      58.764 -28.910   2.408  1.00  0.00    -0.000 C 
BRANCH  23  24
ATOM     24  C   UNL     1      59.433 -28.519   3.735  1.00  0.00    -0.000 C 
BRANCH  24  25
ATOM     25  C   UNL     1      59.023 -27.117   4.217  1.00  0.00    -0.000 C 
BRANCH  25  26
ATOM     26  C   UNL     1      57.589 -26.741   3.802  1.00  0.00    -0.000 C 
BRANCH  26  27
ATOM     27  C   UNL     1      56.547 -27.123   4.876  1.00  0.00    -0.000 C 
BRANCH  27  28
ATOM     28  C   UNL     1      55.604 -28.262   4.446  1.00  0.00    -0.000 C 
BRANCH  28  29
ATOM     29  C   UNL     1      56.075 -29.670   4.848  1.00  0.00    -0.003 C 
ATOM     30  C   UNL     1      56.711 -29.709   6.237  1.00  0.00     0.004 C 
ENDBRANCH  28  29
ENDBRANCH  27  28
ENDBRANCH  26  27
ENDBRANCH  25  26
ENDBRANCH  24  25
ENDBRANCH  23  24
ENDBRANCH  22  23
ENDBRANCH  21  22
ENDBRANCH  20  21
ENDBRANCH  19  20
ENDBRANCH  18  19
ENDBRANCH  17  18
ENDBRANCH   1  17
TORSDOF 26
ENDMDL
