MODEL 1
REMARK VINA RESULT:    -3.192      0.000      0.000
REMARK INTER + INTRA:         -10.630
REMARK INTER:                  -8.045
REMARK INTRA:                  -2.585
REMARK UNBOUND:                -2.585
REMARK SMILES CCCCCCCCCCCCCCCCCCCCCCCCCCCC(=O)[O-]
REMARK SMILES IDX 15 1 16 2 17 3 18 4 19 5 20 6 21 7 22 8 23 9 24 10 25 11
REMARK SMILES IDX 26 12 27 13 28 14 29 15 30 16 14 17 13 18 12 19 11 20 10 21
REMARK SMILES IDX 9 22 8 23 7 24 6 25 5 26 4 27 3 28 2 29 1 30
REMARK H PARENT
REMARK Flexibility Score: inf
ROOT
ATOM      1  C   UNL     1      41.225  10.483  11.613  1.00  0.00     0.000 C 
ENDROOT
BRANCH   1   2
ATOM      2  C   UNL     1      40.414   9.177  11.560  1.00  0.00     0.000 C 
BRANCH   2   3
ATOM      3  C   UNL     1      38.894   9.420  11.507  1.00  0.00     0.000 C 
BRANCH   3   4
ATOM      4  C   UNL     1      38.089   8.775  12.650  1.00  0.00     0.000 C 
BRANCH   4   5
ATOM      5  C   UNL     1      38.172   9.568  13.961  1.00  0.00     0.000 C 
BRANCH   5   6
ATOM      6  C   UNL     1      38.331   8.627  15.164  1.00  0.00     0.000 C 
BRANCH   6   7
ATOM      7  C   UNL     1      38.354   9.382  16.510  1.00  0.00     0.000 C 
BRANCH   7   8
ATOM      8  C   UNL     1      38.206   8.466  17.739  1.00  0.00     0.000 C 
BRANCH   8   9
ATOM      9  C   UNL     1      39.053   8.869  18.962  1.00  0.00     0.000 C 
BRANCH   9  10
ATOM     10  C   UNL     1      40.577   8.763  18.763  1.00  0.00     0.000 C 
BRANCH  10  11
ATOM     11  C   UNL     1      41.268  10.133  18.702  1.00  0.00     0.000 C 
BRANCH  11  12
ATOM     12  C   UNL     1      40.246  11.273  18.830  1.00  0.00     0.006 C 
BRANCH  12  13
ATOM     13  C   UNL     1      40.650  12.509  18.016  1.00  0.00     0.053 C 
BRANCH  13  14
ATOM     14  C   UNL     1      42.130  12.736  18.046  1.00  0.00     0.041 C 
ATOM     15  O   UNL     1      42.860  12.283  17.126  1.00  0.00    -0.550 OA
ATOM     16  O   UNL     1      42.700  13.472  19.079  1.00  0.00    -0.550 OA
ENDBRANCH  13  14
ENDBRANCH  12  13
ENDBRANCH  11  12
ENDBRANCH  10  11
ENDBRANCH   9  10
ENDBRANCH   8   9
ENDBRANCH   7   8
ENDBRANCH   6   7
ENDBRANCH   5   6
ENDBRANCH   4   5
ENDBRANCH   3   4
ENDBRANCH   2   3
ENDBRANCH   1   2
BRANCH   1  17
ATOM     17  C   UNL     1      41.005  11.278  12.915  1.00  0.00     0.000 C 
BRANCH  17  18
ATOM     18  C   UNL     1      40.389  12.682  12.741  1.00  0.00     0.000 C 
BRANCH  18  19
ATOM     19  C   UNL     1      38.851  12.730  12.772  1.00  0.00     0.000 C 
BRANCH  19  20
ATOM     20  C   UNL     1      38.284  12.812  14.199  1.00  0.00     0.000 C 
BRANCH  20  21
ATOM     21  C   UNL     1      37.876  14.242  14.588  1.00  0.00     0.000 C 
BRANCH  21  22
ATOM     22  C   UNL     1      38.686  14.782  15.779  1.00  0.00    -0.000 C 
BRANCH  22  23
ATOM     23  C   UNL     1      38.743  16.317  15.818  1.00  0.00    -0.000 C 
BRANCH  23  24
ATOM     24  C   UNL     1      40.139  16.875  16.167  1.00  0.00    -0.000 C 
BRANCH  24  25
ATOM     25  C   UNL     1      40.562  16.525  17.604  1.00  0.00    -0.000 C 
BRANCH  25  26
ATOM     26  C   UNL     1      41.434  17.615  18.246  1.00  0.00    -0.000 C 
BRANCH  26  27
ATOM     27  C   UNL     1      40.614  18.611  19.085  1.00  0.00    -0.000 C 
BRANCH  27  28
ATOM     28  C   UNL     1      39.115  18.266  19.125  1.00  0.00    -0.000 C 
BRANCH  28  29
ATOM     29  C   UNL     1      38.178  19.426  18.746  1.00  0.00    -0.003 C 
ATOM     30  C   UNL     1      38.016  19.597  17.236  1.00  0.00     0.004 C 
ENDBRANCH  28  29
ENDBRANCH  27  28
ENDBRANCH  26  27
ENDBRANCH  25  26
ENDBRANCH  24  25
ENDBRANCH  23  24
ENDBRANCH  22  23
ENDBRANCH  21  22
ENDBRANCH  20  21
ENDBRANCH  19  20
ENDBRANCH  18  19
ENDBRANCH  17  18
ENDBRANCH   1  17
TORSDOF 26
ENDMDL
MODEL 2
REMARK VINA RESULT:    -2.598      1.881      5.881
REMARK INTER + INTRA:          -9.132
REMARK INTER:                  -6.263
REMARK INTRA:                  -2.869
REMARK UNBOUND:                -2.585
REMARK SMILES CCCCCCCCCCCCCCCCCCCCCCCCCCCC(=O)[O-]
REMARK SMILES IDX 15 1 16 2 17 3 18 4 19 5 20 6 21 7 22 8 23 9 24 10 25 11
REMARK SMILES IDX 26 12 27 13 28 14 29 15 30 16 14 17 13 18 12 19 11 20 10 21
REMARK SMILES IDX 9 22 8 23 7 24 6 25 5 26 4 27 3 28 2 29 1 30
REMARK H PARENT
REMARK Flexibility Score: inf
ROOT
ATOM      1  C   UNL     1      41.403  10.439  12.788  1.00  0.00     0.000 C 
ENDROOT
BRANCH   1   2
ATOM      2  C   UNL     1      41.579  11.938  13.083  1.00  0.00     0.000 C 
BRANCH   2   3
ATOM      3  C   UNL     1      40.694  12.427  14.245  1.00  0.00     0.000 C 
BRANCH   3   4
ATOM      4  C   UNL     1      39.884  13.704  13.958  1.00  0.00     0.000 C 
BRANCH   4   5
ATOM      5  C   UNL     1      38.368  13.472  13.997  1.00  0.00     0.000 C 
BRANCH   5   6
ATOM      6  C   UNL     1      37.980  12.566  15.174  1.00  0.00     0.000 C 
BRANCH   6   7
ATOM      7  C   UNL     1      37.893  13.333  16.510  1.00  0.00     0.000 C 
BRANCH   7   8
ATOM      8  C   UNL     1      37.972  12.427  17.754  1.00  0.00     0.000 C 
BRANCH   8   9
ATOM      9  C   UNL     1      38.069  13.171  19.100  1.00  0.00     0.000 C 
BRANCH   9  10
ATOM     10  C   UNL     1      39.040  14.366  19.117  1.00  0.00     0.000 C 
BRANCH  10  11
ATOM     11  C   UNL     1      38.884  15.281  17.894  1.00  0.00     0.000 C 
BRANCH  11  12
ATOM     12  C   UNL     1      38.318  16.651  18.298  1.00  0.00     0.006 C 
BRANCH  12  13
ATOM     13  C   UNL     1      38.900  17.792  17.453  1.00  0.00     0.053 C 
BRANCH  13  14
ATOM     14  C   UNL     1      40.396  17.818  17.506  1.00  0.00     0.041 C 
ATOM     15  O   UNL     1      40.986  18.229  18.539  1.00  0.00    -0.550 OA
ATOM     16  O   UNL     1      41.138  17.363  16.423  1.00  0.00    -0.550 OA
ENDBRANCH  13  14
ENDBRANCH  12  13
ENDBRANCH  11  12
ENDBRANCH  10  11
ENDBRANCH   9  10
ENDBRANCH   8   9
ENDBRANCH   7   8
ENDBRANCH   6   7
ENDBRANCH   5   6
ENDBRANCH   4   5
ENDBRANCH   3   4
ENDBRANCH   2   3
ENDBRANCH   1   2
BRANCH   1  17
ATOM     17  C   UNL     1      40.842  10.162  11.380  1.00  0.00     0.000 C 
BRANCH  17  18
ATOM     18  C   UNL     1      39.957   8.904  11.252  1.00  0.00     0.000 C 
BRANCH  18  19
ATOM     19  C   UNL     1      38.592   8.990  11.957  1.00  0.00     0.000 C 
BRANCH  19  20
ATOM     20  C   UNL     1      38.586   8.304  13.334  1.00  0.00     0.000 C 
BRANCH  20  21
ATOM     21  C   UNL     1      37.959   9.184  14.427  1.00  0.00     0.000 C 
BRANCH  21  22
ATOM     22  C   UNL     1      38.804   9.219  15.712  1.00  0.00    -0.000 C 
BRANCH  22  23
ATOM     23  C   UNL     1      37.972   8.983  16.983  1.00  0.00    -0.000 C 
BRANCH  23  24
ATOM     24  C   UNL     1      38.689   8.116  18.039  1.00  0.00    -0.000 C 
BRANCH  24  25
ATOM     25  C   UNL     1      39.538   8.960  19.004  1.00  0.00    -0.000 C 
BRANCH  25  26
ATOM     26  C   UNL     1      41.035   8.619  18.929  1.00  0.00    -0.000 C 
BRANCH  26  27
ATOM     27  C   UNL     1      41.894   9.818  18.492  1.00  0.00    -0.000 C 
BRANCH  27  28
ATOM     28  C   UNL     1      41.053  11.058  18.136  1.00  0.00    -0.000 C 
BRANCH  28  29
ATOM     29  C   UNL     1      41.867  12.266  17.642  1.00  0.00    -0.003 C 
ATOM     30  C   UNL     1      42.939  12.714  18.634  1.00  0.00     0.004 C 
ENDBRANCH  28  29
ENDBRANCH  27  28
ENDBRANCH  26  27
ENDBRANCH  25  26
ENDBRANCH  24  25
ENDBRANCH  23  24
ENDBRANCH  22  23
ENDBRANCH  21  22
ENDBRANCH  20  21
ENDBRANCH  19  20
ENDBRANCH  18  19
ENDBRANCH  17  18
ENDBRANCH   1  17
TORSDOF 26
ENDMDL
MODEL 3
REMARK VINA RESULT:    -2.477      1.276      2.207
REMARK INTER + INTRA:          -8.827
REMARK INTER:                  -6.411
REMARK INTRA:                  -2.416
REMARK UNBOUND:                -2.585
REMARK SMILES CCCCCCCCCCCCCCCCCCCCCCCCCCCC(=O)[O-]
REMARK SMILES IDX 15 1 16 2 17 3 18 4 19 5 20 6 21 7 22 8 23 9 24 10 25 11
REMARK SMILES IDX 26 12 27 13 28 14 29 15 30 16 14 17 13 18 12 19 11 20 10 21
REMARK SMILES IDX 9 22 8 23 7 24 6 25 5 26 4 27 3 28 2 29 1 30
REMARK H PARENT
REMARK Flexibility Score: inf
ROOT
ATOM      1  C   UNL     1      40.840  10.299  11.633  1.00  0.00     0.000 C 
ENDROOT
BRANCH   1   2
ATOM      2  C   UNL     1      40.217   8.903  11.803  1.00  0.00     0.000 C 
BRANCH   2   3
ATOM      3  C   UNL     1      38.677   8.939  11.854  1.00  0.00     0.000 C 
BRANCH   3   4
ATOM      4  C   UNL     1      38.052   8.354  13.133  1.00  0.00     0.000 C 
BRANCH   4   5
ATOM      5  C   UNL     1      38.085   9.332  14.316  1.00  0.00     0.000 C 
BRANCH   5   6
ATOM      6  C   UNL     1      38.831   8.723  15.512  1.00  0.00     0.000 C 
BRANCH   6   7
ATOM      7  C   UNL     1      38.234   9.158  16.867  1.00  0.00     0.000 C 
BRANCH   7   8
ATOM      8  C   UNL     1      38.251   8.050  17.938  1.00  0.00     0.000 C 
BRANCH   8   9
ATOM      9  C   UNL     1      39.236   8.277  19.099  1.00  0.00     0.000 C 
BRANCH   9  10
ATOM     10  C   UNL     1      40.696   7.885  18.803  1.00  0.00     0.000 C 
BRANCH  10  11
ATOM     11  C   UNL     1      41.652   9.086  18.809  1.00  0.00     0.000 C 
BRANCH  11  12
ATOM     12  C   UNL     1      41.383  10.011  17.611  1.00  0.00     0.006 C 
BRANCH  12  13
ATOM     13  C   UNL     1      41.898  11.436  17.850  1.00  0.00     0.053 C 
BRANCH  13  14
ATOM     14  C   UNL     1      41.807  12.275  16.613  1.00  0.00     0.041 C 
ATOM     15  O   UNL     1      41.109  11.893  15.638  1.00  0.00    -0.550 OA
ATOM     16  O   UNL     1      42.474  13.493  16.548  1.00  0.00    -0.550 OA
ENDBRANCH  13  14
ENDBRANCH  12  13
ENDBRANCH  11  12
ENDBRANCH  10  11
ENDBRANCH   9  10
ENDBRANCH   8   9
ENDBRANCH   7   8
ENDBRANCH   6   7
ENDBRANCH   5   6
ENDBRANCH   4   5
ENDBRANCH   3   4
ENDBRANCH   2   3
ENDBRANCH   1   2
BRANCH   1  17
ATOM     17  C   UNL     1      40.425  11.286  12.742  1.00  0.00     0.000 C 
BRANCH  17  18
ATOM     18  C   UNL     1      39.406  12.366  12.324  1.00  0.00     0.000 C 
BRANCH  18  19
ATOM     19  C   UNL     1      38.048  12.299  13.045  1.00  0.00     0.000 C 
BRANCH  19  20
ATOM     20  C   UNL     1      38.070  12.982  14.424  1.00  0.00     0.000 C 
BRANCH  20  21
ATOM     21  C   UNL     1      37.991  14.513  14.322  1.00  0.00     0.000 C 
BRANCH  21  22
ATOM     22  C   UNL     1      38.845  15.219  15.389  1.00  0.00    -0.000 C 
BRANCH  22  23
ATOM     23  C   UNL     1      38.062  16.280  16.178  1.00  0.00    -0.000 C 
BRANCH  23  24
ATOM     24  C   UNL     1      38.934  17.458  16.664  1.00  0.00    -0.000 C 
BRANCH  24  25
ATOM     25  C   UNL     1      40.369  17.017  16.999  1.00  0.00    -0.000 C 
BRANCH  25  26
ATOM     26  C   UNL     1      40.650  17.016  18.511  1.00  0.00    -0.000 C 
BRANCH  26  27
ATOM     27  C   UNL     1      40.601  15.604  19.120  1.00  0.00    -0.000 C 
BRANCH  27  28
ATOM     28  C   UNL     1      39.442  14.754  18.568  1.00  0.00    -0.000 C 
BRANCH  28  29
ATOM     29  C   UNL     1      39.391  13.312  19.103  1.00  0.00    -0.003 C 
ATOM     30  C   UNL     1      38.208  12.513  18.560  1.00  0.00     0.004 C 
ENDBRANCH  28  29
ENDBRANCH  27  28
ENDBRANCH  26  27
ENDBRANCH  25  26
ENDBRANCH  24  25
ENDBRANCH  23  24
ENDBRANCH  22  23
ENDBRANCH  21  22
ENDBRANCH  20  21
ENDBRANCH  19  20
ENDBRANCH  18  19
ENDBRANCH  17  18
ENDBRANCH   1  17
TORSDOF 26
ENDMDL
MODEL 4
REMARK VINA RESULT:    -2.425      1.465      2.131
REMARK INTER + INTRA:          -8.697
REMARK INTER:                  -6.541
REMARK INTRA:                  -2.155
REMARK UNBOUND:                -2.585
REMARK SMILES CCCCCCCCCCCCCCCCCCCCCCCCCCCC(=O)[O-]
REMARK SMILES IDX 15 1 16 2 17 3 18 4 19 5 20 6 21 7 22 8 23 9 24 10 25 11
REMARK SMILES IDX 26 12 27 13 28 14 29 15 30 16 14 17 13 18 12 19 11 20 10 21
REMARK SMILES IDX 9 22 8 23 7 24 6 25 5 26 4 27 3 28 2 29 1 30
REMARK H PARENT
REMARK Flexibility Score: inf
ROOT
ATOM      1  C   UNL     1      40.908  10.529  11.275  1.00  0.00     0.000 C 
ENDROOT
BRANCH   1   2
ATOM      2  C   UNL     1      40.840   9.078  11.780  1.00  0.00     0.000 C 
BRANCH   2   3
ATOM      3  C   UNL     1      39.395   8.566  11.931  1.00  0.00     0.000 C 
BRANCH   3   4
ATOM      4  C   UNL     1      39.014   8.090  13.345  1.00  0.00     0.000 C 
BRANCH   4   5
ATOM      5  C   UNL     1      38.174   9.117  14.116  1.00  0.00     0.000 C 
BRANCH   5   6
ATOM      6  C   UNL     1      39.014   9.817  15.194  1.00  0.00     0.000 C 
BRANCH   6   7
ATOM      7  C   UNL     1      38.440   9.622  16.613  1.00  0.00     0.000 C 
BRANCH   7   8
ATOM      8  C   UNL     1      39.324   8.752  17.527  1.00  0.00     0.000 C 
BRANCH   8   9
ATOM      9  C   UNL     1      39.734   9.408  18.859  1.00  0.00     0.000 C 
BRANCH   9  10
ATOM     10  C   UNL     1      41.251   9.458  19.122  1.00  0.00     0.000 C 
BRANCH  10  11
ATOM     11  C   UNL     1      41.824  10.880  19.045  1.00  0.00     0.000 C 
BRANCH  11  12
ATOM     12  C   UNL     1      42.282  11.213  17.616  1.00  0.00     0.006 C 
BRANCH  12  13
ATOM     13  C   UNL     1      41.205  11.960  16.819  1.00  0.00     0.053 C 
BRANCH  13  14
ATOM     14  C   UNL     1      41.731  12.467  15.512  1.00  0.00     0.041 C 
ATOM     15  O   UNL     1      41.435  13.624  15.116  1.00  0.00    -0.550 OA
ATOM     16  O   UNL     1      42.571  11.669  14.744  1.00  0.00    -0.550 OA
ENDBRANCH  13  14
ENDBRANCH  12  13
ENDBRANCH  11  12
ENDBRANCH  10  11
ENDBRANCH   9  10
ENDBRANCH   8   9
ENDBRANCH   7   8
ENDBRANCH   6   7
ENDBRANCH   5   6
ENDBRANCH   4   5
ENDBRANCH   3   4
ENDBRANCH   2   3
ENDBRANCH   1   2
BRANCH   1  17
ATOM     17  C   UNL     1      40.284  11.540  12.257  1.00  0.00     0.000 C 
BRANCH  17  18
ATOM     18  C   UNL     1      38.905  12.101  11.848  1.00  0.00     0.000 C 
BRANCH  18  19
ATOM     19  C   UNL     1      37.925  12.339  13.010  1.00  0.00     0.000 C 
BRANCH  19  20
ATOM     20  C   UNL     1      38.474  13.317  14.063  1.00  0.00     0.000 C 
BRANCH  20  21
ATOM     21  C   UNL     1      37.881  13.071  15.459  1.00  0.00     0.000 C 
BRANCH  21  22
ATOM     22  C   UNL     1      38.549  13.935  16.543  1.00  0.00    -0.000 C 
BRANCH  22  23
ATOM     23  C   UNL     1      38.760  13.180  17.865  1.00  0.00    -0.000 C 
BRANCH  23  24
ATOM     24  C   UNL     1      38.304  13.972  19.109  1.00  0.00    -0.000 C 
BRANCH  24  25
ATOM     25  C   UNL     1      38.869  15.403  19.124  1.00  0.00    -0.000 C 
BRANCH  25  26
ATOM     26  C   UNL     1      40.352  15.459  18.724  1.00  0.00    -0.000 C 
BRANCH  26  27
ATOM     27  C   UNL     1      40.597  16.336  17.483  1.00  0.00    -0.000 C 
BRANCH  27  28
ATOM     28  C   UNL     1      41.451  17.580  17.790  1.00  0.00    -0.000 C 
BRANCH  28  29
ATOM     29  C   UNL     1      40.704  18.705  18.528  1.00  0.00    -0.003 C 
ATOM     30  C   UNL     1      39.186  18.605  18.394  1.00  0.00     0.004 C 
ENDBRANCH  28  29
ENDBRANCH  27  28
ENDBRANCH  26  27
ENDBRANCH  25  26
ENDBRANCH  24  25
ENDBRANCH  23  24
ENDBRANCH  22  23
ENDBRANCH  21  22
ENDBRANCH  20  21
ENDBRANCH  19  20
ENDBRANCH  18  19
ENDBRANCH  17  18
ENDBRANCH   1  17
TORSDOF 26
ENDMDL
MODEL 5
REMARK VINA RESULT:    -2.346      2.418      8.374
REMARK INTER + INTRA:          -8.496
REMARK INTER:                  -4.987
REMARK INTRA:                  -3.509
REMARK UNBOUND:                -2.585
REMARK SMILES CCCCCCCCCCCCCCCCCCCCCCCCCCCC(=O)[O-]
REMARK SMILES IDX 15 1 16 2 17 3 18 4 19 5 20 6 21 7 22 8 23 9 24 10 25 11
REMARK SMILES IDX 26 12 27 13 28 14 29 15 30 16 14 17 13 18 12 19 11 20 10 21
REMARK SMILES IDX 9 22 8 23 7 24 6 25 5 26 4 27 3 28 2 29 1 30
REMARK H PARENT
REMARK Flexibility Score: inf
ROOT
ATOM      1  C   UNL     1      41.432  17.593  17.464  1.00  0.00     0.000 C 
ENDROOT
BRANCH   1   2
ATOM      2  C   UNL     1      41.399  18.688  18.543  1.00  0.00     0.000 C 
BRANCH   2   3
ATOM      3  C   UNL     1      39.967  19.066  18.967  1.00  0.00     0.000 C 
BRANCH   3   4
ATOM      4  C   UNL     1      38.848  18.488  18.081  1.00  0.00     0.000 C 
BRANCH   4   5
ATOM      5  C   UNL     1      37.875  17.591  18.857  1.00  0.00     0.000 C 
BRANCH   5   6
ATOM      6  C   UNL     1      38.106  16.110  18.521  1.00  0.00     0.000 C 
BRANCH   6   7
ATOM      7  C   UNL     1      38.296  15.867  17.009  1.00  0.00     0.000 C 
BRANCH   7   8
ATOM      8  C   UNL     1      38.480  14.384  16.636  1.00  0.00     0.000 C 
BRANCH   8   9
ATOM      9  C   UNL     1      39.729  14.071  15.790  1.00  0.00     0.000 C 
BRANCH   9  10
ATOM     10  C   UNL     1      39.467  13.230  14.527  1.00  0.00     0.000 C 
BRANCH  10  11
ATOM     11  C   UNL     1      40.757  12.839  13.791  1.00  0.00     0.000 C 
BRANCH  11  12
ATOM     12  C   UNL     1      40.679  11.396  13.269  1.00  0.00     0.006 C 
BRANCH  12  13
ATOM     13  C   UNL     1      40.051  11.317  11.871  1.00  0.00     0.053 C 
BRANCH  13  14
ATOM     14  C   UNL     1      40.712  10.275  11.023  1.00  0.00     0.041 C 
ATOM     15  O   UNL     1      40.761   9.078  11.411  1.00  0.00    -0.550 OA
ATOM     16  O   UNL     1      41.251  10.622   9.790  1.00  0.00    -0.550 OA
ENDBRANCH  13  14
ENDBRANCH  12  13
ENDBRANCH  11  12
ENDBRANCH  10  11
ENDBRANCH   9  10
ENDBRANCH   8   9
ENDBRANCH   7   8
ENDBRANCH   6   7
ENDBRANCH   5   6
ENDBRANCH   4   5
ENDBRANCH   3   4
ENDBRANCH   2   3
ENDBRANCH   1   2
BRANCH   1  17
ATOM     17  C   UNL     1      42.130  16.302  17.934  1.00  0.00     0.000 C 
BRANCH  17  18
ATOM     18  C   UNL     1      41.426  15.544  19.079  1.00  0.00     0.000 C 
BRANCH  18  19
ATOM     19  C   UNL     1      41.305  14.023  18.880  1.00  0.00     0.000 C 
BRANCH  19  20
ATOM     20  C   UNL     1      42.630  13.369  18.451  1.00  0.00     0.000 C 
BRANCH  20  21
ATOM     21  C   UNL     1      42.559  11.834  18.463  1.00  0.00     0.000 C 
BRANCH  21  22
ATOM     22  C   UNL     1      41.753  11.273  17.279  1.00  0.00    -0.000 C 
BRANCH  22  23
ATOM     23  C   UNL     1      40.540  10.438  17.721  1.00  0.00    -0.000 C 
BRANCH  23  24
ATOM     24  C   UNL     1      40.872   8.951  17.969  1.00  0.00    -0.000 C 
BRANCH  24  25
ATOM     25  C   UNL     1      39.644   8.154  18.442  1.00  0.00    -0.000 C 
BRANCH  25  26
ATOM     26  C   UNL     1      38.317   8.838  18.075  1.00  0.00    -0.000 C 
BRANCH  26  27
ATOM     27  C   UNL     1      37.876   8.536  16.632  1.00  0.00    -0.000 C 
BRANCH  27  28
ATOM     28  C   UNL     1      38.317   9.622  15.633  1.00  0.00    -0.000 C 
BRANCH  28  29
ATOM     29  C   UNL     1      37.921   9.349  14.171  1.00  0.00    -0.003 C 
ATOM     30  C   UNL     1      38.305   7.948  13.698  1.00  0.00     0.004 C 
ENDBRANCH  28  29
ENDBRANCH  27  28
ENDBRANCH  26  27
ENDBRANCH  25  26
ENDBRANCH  24  25
ENDBRANCH  23  24
ENDBRANCH  22  23
ENDBRANCH  21  22
ENDBRANCH  20  21
ENDBRANCH  19  20
ENDBRANCH  18  19
ENDBRANCH  17  18
ENDBRANCH   1  17
TORSDOF 26
ENDMDL
MODEL 6
REMARK VINA RESULT:    -1.889      1.973      6.985
REMARK INTER + INTRA:          -7.345
REMARK INTER:                  -3.837
REMARK INTRA:                  -3.508
REMARK UNBOUND:                -2.585
REMARK SMILES CCCCCCCCCCCCCCCCCCCCCCCCCCCC(=O)[O-]
REMARK SMILES IDX 15 1 16 2 17 3 18 4 19 5 20 6 21 7 22 8 23 9 24 10 25 11
REMARK SMILES IDX 26 12 27 13 28 14 29 15 30 16 14 17 13 18 12 19 11 20 10 21
REMARK SMILES IDX 9 22 8 23 7 24 6 25 5 26 4 27 3 28 2 29 1 30
REMARK H PARENT
REMARK Flexibility Score: inf
ROOT
ATOM      1  C   UNL     1      40.222  15.414  13.944  1.00  0.00     0.000 C 
ENDROOT
BRANCH   1   2
ATOM      2  C   UNL     1      40.075  16.537  14.985  1.00  0.00     0.000 C 
BRANCH   2   3
ATOM      3  C   UNL     1      41.133  16.458  16.102  1.00  0.00     0.000 C 
BRANCH   3   4
ATOM      4  C   UNL     1      40.729  17.118  17.433  1.00  0.00     0.000 C 
BRANCH   4   5
ATOM      5  C   UNL     1      39.350  17.787  17.374  1.00  0.00     0.000 C 
BRANCH   5   6
ATOM      6  C   UNL     1      38.401  17.183  18.419  1.00  0.00     0.000 C 
BRANCH   6   7
ATOM      7  C   UNL     1      38.273  15.650  18.290  1.00  0.00     0.000 C 
BRANCH   7   8
ATOM      8  C   UNL     1      39.305  14.868  19.124  1.00  0.00     0.000 C 
BRANCH   8   9
ATOM      9  C   UNL     1      39.937  13.656  18.414  1.00  0.00     0.000 C 
BRANCH   9  10
ATOM     10  C   UNL     1      41.478  13.655  18.374  1.00  0.00     0.000 C 
BRANCH  10  11
ATOM     11  C   UNL     1      42.087  12.338  18.878  1.00  0.00     0.000 C 
BRANCH  11  12
ATOM     12  C   UNL     1      41.018  11.239  18.982  1.00  0.00     0.006 C 
BRANCH  12  13
ATOM     13  C   UNL     1      40.993  10.334  17.743  1.00  0.00     0.053 C 
BRANCH  13  14
ATOM     14  C   UNL     1      40.497   8.959  18.069  1.00  0.00     0.041 C 
ATOM     15  O   UNL     1      41.313   8.027  18.294  1.00  0.00    -0.550 OA
ATOM     16  O   UNL     1      39.131   8.714  18.150  1.00  0.00    -0.550 OA
ENDBRANCH  13  14
ENDBRANCH  12  13
ENDBRANCH  11  12
ENDBRANCH  10  11
ENDBRANCH   9  10
ENDBRANCH   8   9
ENDBRANCH   7   8
ENDBRANCH   6   7
ENDBRANCH   5   6
ENDBRANCH   4   5
ENDBRANCH   3   4
ENDBRANCH   2   3
ENDBRANCH   1   2
BRANCH   1  17
ATOM     17  C   UNL     1      39.110  14.351  14.041  1.00  0.00     0.000 C 
BRANCH  17  18
ATOM     18  C   UNL     1      39.317  13.267  15.120  1.00  0.00     0.000 C 
BRANCH  18  19
ATOM     19  C   UNL     1      38.042  12.833  15.864  1.00  0.00     0.000 C 
BRANCH  19  20
ATOM     20  C   UNL     1      37.876  11.305  15.923  1.00  0.00     0.000 C 
BRANCH  20  21
ATOM     21  C   UNL     1      37.880  10.659  14.528  1.00  0.00     0.000 C 
BRANCH  21  22
ATOM     22  C   UNL     1      38.934   9.546  14.398  1.00  0.00    -0.000 C 
BRANCH  22  23
ATOM     23  C   UNL     1      38.405   8.302  13.666  1.00  0.00    -0.000 C 
BRANCH  23  24
ATOM     24  C   UNL     1      39.043   8.084  12.278  1.00  0.00    -0.000 C 
BRANCH  24  25
ATOM     25  C   UNL     1      40.433   8.734  12.169  1.00  0.00    -0.000 C 
BRANCH  25  26
ATOM     26  C   UNL     1      40.413  10.044  11.366  1.00  0.00    -0.000 C 
BRANCH  26  27
ATOM     27  C   UNL     1      40.550  11.288  12.260  1.00  0.00    -0.000 C 
BRANCH  27  28
ATOM     28  C   UNL     1      41.989  11.509  12.761  1.00  0.00    -0.000 C 
BRANCH  28  29
ATOM     29  C   UNL     1      42.186  11.284  14.270  1.00  0.00    -0.003 C 
ATOM     30  C   UNL     1      42.167  12.581  15.077  1.00  0.00     0.004 C 
ENDBRANCH  28  29
ENDBRANCH  27  28
ENDBRANCH  26  27
ENDBRANCH  25  26
ENDBRANCH  24  25
ENDBRANCH  23  24
ENDBRANCH  22  23
ENDBRANCH  21  22
ENDBRANCH  20  21
ENDBRANCH  19  20
ENDBRANCH  18  19
ENDBRANCH  17  18
ENDBRANCH   1  17
TORSDOF 26
ENDMDL
MODEL 7
REMARK VINA RESULT:    -1.812      2.034      5.835
REMARK INTER + INTRA:          -7.152
REMARK INTER:                  -5.795
REMARK INTRA:                  -1.357
REMARK UNBOUND:                -2.585
REMARK SMILES CCCCCCCCCCCCCCCCCCCCCCCCCCCC(=O)[O-]
REMARK SMILES IDX 15 1 16 2 17 3 18 4 19 5 20 6 21 7 22 8 23 9 24 10 25 11
REMARK SMILES IDX 26 12 27 13 28 14 29 15 30 16 14 17 13 18 12 19 11 20 10 21
REMARK SMILES IDX 9 22 8 23 7 24 6 25 5 26 4 27 3 28 2 29 1 30
REMARK H PARENT
REMARK Flexibility Score: inf
ROOT
ATOM      1  C   UNL     1      41.917  11.885  13.335  1.00  0.00     0.000 C 
ENDROOT
BRANCH   1   2
ATOM      2  C   UNL     1      41.667  11.269  14.722  1.00  0.00     0.000 C 
BRANCH   2   3
ATOM      3  C   UNL     1      42.122  12.186  15.874  1.00  0.00     0.000 C 
BRANCH   3   4
ATOM      4  C   UNL     1      41.589  11.800  17.266  1.00  0.00     0.000 C 
BRANCH   4   5
ATOM      5  C   UNL     1      42.613  12.035  18.384  1.00  0.00     0.000 C 
BRANCH   5   6
ATOM      6  C   UNL     1      42.331  13.353  19.120  1.00  0.00     0.000 C 
BRANCH   6   7
ATOM      7  C   UNL     1      40.870  13.821  18.960  1.00  0.00     0.000 C 
BRANCH   7   8
ATOM      8  C   UNL     1      39.985  12.838  18.170  1.00  0.00     0.000 C 
BRANCH   8   9
ATOM      9  C   UNL     1      38.469  13.088  18.280  1.00  0.00     0.000 C 
BRANCH   9  10
ATOM     10  C   UNL     1      38.001  14.479  17.811  1.00  0.00     0.000 C 
BRANCH  10  11
ATOM     11  C   UNL     1      38.425  15.605  18.765  1.00  0.00     0.000 C 
BRANCH  11  12
ATOM     12  C   UNL     1      39.167  16.718  18.010  1.00  0.00     0.006 C 
BRANCH  12  13
ATOM     13  C   UNL     1      39.980  17.616  18.951  1.00  0.00     0.053 C 
BRANCH  13  14
ATOM     14  C   UNL     1      41.387  17.798  18.469  1.00  0.00     0.041 C 
ATOM     15  O   UNL     1      41.634  18.578  17.513  1.00  0.00    -0.550 OA
ATOM     16  O   UNL     1      42.428  17.122  19.095  1.00  0.00    -0.550 OA
ENDBRANCH  13  14
ENDBRANCH  12  13
ENDBRANCH  11  12
ENDBRANCH  10  11
ENDBRANCH   9  10
ENDBRANCH   8   9
ENDBRANCH   7   8
ENDBRANCH   6   7
ENDBRANCH   5   6
ENDBRANCH   4   5
ENDBRANCH   3   4
ENDBRANCH   2   3
ENDBRANCH   1   2
BRANCH   1  17
ATOM     17  C   UNL     1      42.002  10.832  12.213  1.00  0.00     0.000 C 
BRANCH  17  18
ATOM     18  C   UNL     1      40.712  10.631  11.390  1.00  0.00     0.000 C 
BRANCH  18  19
ATOM     19  C   UNL     1      40.300   9.165  11.166  1.00  0.00     0.000 C 
BRANCH  19  20
ATOM     20  C   UNL     1      39.017   8.782  11.924  1.00  0.00     0.000 C 
BRANCH  20  21
ATOM     21  C   UNL     1      39.306   8.247  13.336  1.00  0.00     0.000 C 
BRANCH  21  22
ATOM     22  C   UNL     1      38.038   8.154  14.201  1.00  0.00    -0.000 C 
BRANCH  22  23
ATOM     23  C   UNL     1      38.259   8.636  15.643  1.00  0.00    -0.000 C 
BRANCH  23  24
ATOM     24  C   UNL     1      38.873  10.049  15.734  1.00  0.00    -0.000 C 
BRANCH  24  25
ATOM     25  C   UNL     1      37.875  11.144  15.320  1.00  0.00    -0.000 C 
BRANCH  25  26
ATOM     26  C   UNL     1      37.963  11.489  13.824  1.00  0.00    -0.000 C 
BRANCH  26  27
ATOM     27  C   UNL     1      38.297  12.971  13.578  1.00  0.00    -0.000 C 
BRANCH  27  28
ATOM     28  C   UNL     1      38.902  13.660  14.814  1.00  0.00    -0.000 C 
BRANCH  28  29
ATOM     29  C   UNL     1      39.425  15.085  14.563  1.00  0.00    -0.003 C 
ATOM     30  C   UNL     1      40.903  15.252  14.913  1.00  0.00     0.004 C 
ENDBRANCH  28  29
ENDBRANCH  27  28
ENDBRANCH  26  27
ENDBRANCH  25  26
ENDBRANCH  24  25
ENDBRANCH  23  24
ENDBRANCH  22  23
ENDBRANCH  21  22
ENDBRANCH  20  21
ENDBRANCH  19  20
ENDBRANCH  18  19
ENDBRANCH  17  18
ENDBRANCH   1  17
TORSDOF 26
ENDMDL
MODEL 8
REMARK VINA RESULT:    -1.705      1.584      4.580
REMARK INTER + INTRA:          -6.881
REMARK INTER:                  -3.049
REMARK INTRA:                  -3.833
REMARK UNBOUND:                -2.585
REMARK SMILES CCCCCCCCCCCCCCCCCCCCCCCCCCCC(=O)[O-]
REMARK SMILES IDX 15 1 16 2 17 3 18 4 19 5 20 6 21 7 22 8 23 9 24 10 25 11
REMARK SMILES IDX 26 12 27 13 28 14 29 15 30 16 14 17 13 18 12 19 11 20 10 21
REMARK SMILES IDX 9 22 8 23 7 24 6 25 5 26 4 27 3 28 2 29 1 30
REMARK H PARENT
REMARK Flexibility Score: inf
ROOT
ATOM      1  C   UNL     1      40.615  13.867  13.865  1.00  0.00     0.000 C 
ENDROOT
BRANCH   1   2
ATOM      2  C   UNL     1      40.244  13.329  12.473  1.00  0.00     0.000 C 
BRANCH   2   3
ATOM      3  C   UNL     1      40.903  11.972  12.162  1.00  0.00     0.000 C 
BRANCH   3   4
ATOM      4  C   UNL     1      39.934  10.862  11.716  1.00  0.00     0.000 C 
BRANCH   4   5
ATOM      5  C   UNL     1      40.595   9.478  11.662  1.00  0.00     0.000 C 
BRANCH   5   6
ATOM      6  C   UNL     1      39.539   8.363  11.687  1.00  0.00     0.000 C 
BRANCH   6   7
ATOM      7  C   UNL     1      38.192   8.834  12.277  1.00  0.00     0.000 C 
BRANCH   7   8
ATOM      8  C   UNL     1      37.885   8.252  13.669  1.00  0.00     0.000 C 
BRANCH   8   9
ATOM      9  C   UNL     1      38.082   9.228  14.845  1.00  0.00     0.000 C 
BRANCH   9  10
ATOM     10  C   UNL     1      39.538   9.393  15.319  1.00  0.00     0.000 C 
BRANCH  10  11
ATOM     11  C   UNL     1      39.994  10.859  15.350  1.00  0.00     0.000 C 
BRANCH  11  12
ATOM     12  C   UNL     1      41.370  10.995  16.021  1.00  0.00     0.006 C 
BRANCH  12  13
ATOM     13  C   UNL     1      41.627  12.416  16.537  1.00  0.00     0.053 C 
BRANCH  13  14
ATOM     14  C   UNL     1      41.995  12.423  17.989  1.00  0.00     0.041 C 
ATOM     15  O   UNL     1      41.889  11.372  18.674  1.00  0.00    -0.550 OA
ATOM     16  O   UNL     1      42.478  13.585  18.578  1.00  0.00    -0.550 OA
ENDBRANCH  13  14
ENDBRANCH  12  13
ENDBRANCH  11  12
ENDBRANCH  10  11
ENDBRANCH   9  10
ENDBRANCH   8   9
ENDBRANCH   7   8
ENDBRANCH   6   7
ENDBRANCH   5   6
ENDBRANCH   4   5
ENDBRANCH   3   4
ENDBRANCH   2   3
ENDBRANCH   1   2
BRANCH   1  17
ATOM     17  C   UNL     1      39.657  14.966  14.364  1.00  0.00     0.000 C 
BRANCH  17  18
ATOM     18  C   UNL     1      40.193  15.846  15.513  1.00  0.00     0.000 C 
BRANCH  18  19
ATOM     19  C   UNL     1      39.776  17.327  15.452  1.00  0.00     0.000 C 
BRANCH  19  20
ATOM     20  C   UNL     1      38.257  17.526  15.596  1.00  0.00     0.000 C 
BRANCH  20  21
ATOM     21  C   UNL     1      37.897  18.503  16.726  1.00  0.00     0.000 C 
BRANCH  21  22
ATOM     22  C   UNL     1      38.735  18.271  17.995  1.00  0.00    -0.000 C 
BRANCH  22  23
ATOM     23  C   UNL     1      37.989  17.459  19.066  1.00  0.00    -0.000 C 
BRANCH  23  24
ATOM     24  C   UNL     1      37.875  15.956  18.733  1.00  0.00    -0.000 C 
BRANCH  24  25
ATOM     25  C   UNL     1      39.218  15.223  18.890  1.00  0.00    -0.000 C 
BRANCH  25  26
ATOM     26  C   UNL     1      39.046  13.714  19.125  1.00  0.00    -0.000 C 
BRANCH  26  27
ATOM     27  C   UNL     1      38.611  12.964  17.853  1.00  0.00    -0.000 C 
BRANCH  27  28
ATOM     28  C   UNL     1      37.917  11.624  18.158  1.00  0.00    -0.000 C 
BRANCH  28  29
ATOM     29  C   UNL     1      38.805  10.588  18.870  1.00  0.00    -0.003 C 
ATOM     30  C   UNL     1      38.114   9.239  19.064  1.00  0.00     0.004 C 
ENDBRANCH  28  29
ENDBRANCH  27  28
ENDBRANCH  26  27
ENDBRANCH  25  26
ENDBRANCH  24  25
ENDBRANCH  23  24
ENDBRANCH  22  23
ENDBRANCH  21  22
ENDBRANCH  20  21
ENDBRANCH  19  20
ENDBRANCH  18  19
ENDBRANCH  17  18
ENDBRANCH   1  17
TORSDOF 26
ENDMDL
