MODEL 1
REMARK VINA RESULT:    -5.466      0.000      0.000
REMARK INTER + INTRA:          -6.728
REMARK INTER:                  -6.424
REMARK INTRA:                  -0.303
REMARK UNBOUND:                -0.303
REMARK SMILES O=c1cc(-c2ccc(O)c(O)c2)oc2cc(O)cc(O)c12
REMARK SMILES IDX 4 1 3 2 2 3 1 4 21 5 19 6 18 7 16 8 15 9 14 10 13 11 5 12
REMARK SMILES IDX 6 13 7 14 8 15 12 16 10 17 9 18 11 20 20 22 17 24
REMARK H PARENT 9 19 11 21 20 23 17 25
REMARK Flexibility Score: inf
ROOT
ATOM      1  C   UNL     1      -4.741  91.458 -14.860  1.00  0.00     0.138 A 
ATOM      2  C   UNL     1      -4.201  92.346 -13.913  1.00  0.00     0.100 A 
ATOM      3  C   UNL     1      -4.385  92.095 -12.554  1.00  0.00     0.197 A 
ATOM      4  O   UNL     1      -3.895  92.897 -11.713  1.00  0.00    -0.289 OA
ATOM      5  C   UNL     1      -5.106  90.954 -12.147  1.00  0.00     0.107 A 
ATOM      6  C   UNL     1      -5.339  90.627 -10.790  1.00  0.00     0.134 A 
ATOM      7  C   UNL     1      -6.062  89.469 -10.469  1.00  0.00     0.093 A 
ATOM      8  C   UNL     1      -6.555  88.634 -11.478  1.00  0.00     0.123 A 
ATOM      9  C   UNL     1      -6.328  88.953 -12.818  1.00  0.00     0.094 A 
ATOM     10  C   UNL     1      -5.611  90.103 -13.160  1.00  0.00     0.146 A 
ATOM     11  O   UNL     1      -5.408  90.385 -14.443  1.00  0.00    -0.456 OA
ENDROOT
BRANCH   1  12
ATOM     12  C   UNL     1      -4.577  91.674 -16.319  1.00  0.00     0.021 A 
ATOM     13  C   UNL     1      -3.393  92.256 -16.803  1.00  0.00     0.016 A 
ATOM     14  C   UNL     1      -3.210  92.464 -18.172  1.00  0.00     0.051 A 
ATOM     15  C   UNL     1      -4.203  92.082 -19.082  1.00  0.00     0.157 A 
ATOM     16  C   UNL     1      -5.566  91.280 -17.242  1.00  0.00     0.062 A 
ATOM     17  C   UNL     1      -5.382  91.487 -18.617  1.00  0.00     0.158 A 
BRANCH  15  18
ATOM     18  O   UNL     1      -4.025  92.288 -20.449  1.00  0.00    -0.504 OA
ATOM     19  H   UNL     1      -3.987  91.515 -21.102  1.00  0.00     0.293 HD
ENDBRANCH  15  18
BRANCH  17  20
ATOM     20  O   UNL     1      -6.364  91.099 -19.527  1.00  0.00    -0.504 OA
ATOM     21  H   UNL     1      -6.967  90.304 -19.349  1.00  0.00     0.293 HD
ENDBRANCH  17  20
ENDBRANCH   1  12
BRANCH   6  22
ATOM     22  O   UNL     1      -4.858  91.442  -9.763  1.00  0.00    -0.507 OA
ATOM     23  H   UNL     1      -5.428  92.173  -9.354  1.00  0.00     0.293 HD
ENDBRANCH   6  22
BRANCH   8  24
ATOM     24  O   UNL     1      -7.273  87.484 -11.159  1.00  0.00    -0.508 OA
ATOM     25  H   UNL     1      -7.804  86.979 -11.860  1.00  0.00     0.293 HD
ENDBRANCH   8  24
TORSDOF 5
ENDMDL
MODEL 2
REMARK VINA RESULT:    -5.371      1.356      2.984
REMARK INTER + INTRA:          -6.616
REMARK INTER:                  -6.336
REMARK INTRA:                  -0.280
REMARK UNBOUND:                -0.303
REMARK SMILES O=c1cc(-c2ccc(O)c(O)c2)oc2cc(O)cc(O)c12
REMARK SMILES IDX 4 1 3 2 2 3 1 4 21 5 19 6 18 7 16 8 15 9 14 10 13 11 5 12
REMARK SMILES IDX 6 13 7 14 8 15 12 16 10 17 9 18 11 20 20 22 17 24
REMARK H PARENT 9 19 11 21 20 23 17 25
REMARK Flexibility Score: inf
ROOT
ATOM      1  C   UNL     1      -4.614  91.625 -14.813  1.00  0.00     0.138 A 
ATOM      2  C   UNL     1      -5.180  90.478 -14.232  1.00  0.00     0.100 A 
ATOM      3  C   UNL     1      -5.305  90.400 -12.845  1.00  0.00     0.197 A 
ATOM      4  O   UNL     1      -5.816  89.367 -12.334  1.00  0.00    -0.289 OA
ATOM      5  C   UNL     1      -4.866  91.474 -12.045  1.00  0.00     0.107 A 
ATOM      6  C   UNL     1      -4.955  91.476 -10.633  1.00  0.00     0.134 A 
ATOM      7  C   UNL     1      -4.499  92.589  -9.910  1.00  0.00     0.093 A 
ATOM      8  C   UNL     1      -3.958  93.697 -10.572  1.00  0.00     0.123 A 
ATOM      9  C   UNL     1      -3.868  93.698 -11.965  1.00  0.00     0.094 A 
ATOM     10  C   UNL     1      -4.315  92.600 -12.705  1.00  0.00     0.146 A 
ATOM     11  O   UNL     1      -4.217  92.626 -14.030  1.00  0.00    -0.456 OA
ENDROOT
BRANCH   1  12
ATOM     12  C   UNL     1      -4.456  91.764 -16.282  1.00  0.00     0.021 A 
ATOM     13  C   UNL     1      -3.265  92.298 -16.803  1.00  0.00     0.016 A 
ATOM     14  C   UNL     1      -3.089  92.433 -18.182  1.00  0.00     0.051 A 
ATOM     15  C   UNL     1      -4.096  92.026 -19.065  1.00  0.00     0.157 A 
ATOM     16  C   UNL     1      -5.460  91.344 -17.178  1.00  0.00     0.062 A 
ATOM     17  C   UNL     1      -5.283  91.478 -18.562  1.00  0.00     0.158 A 
BRANCH  15  18
ATOM     18  O   UNL     1      -3.924  92.160 -20.442  1.00  0.00    -0.504 OA
ATOM     19  H   UNL     1      -3.172  92.716 -20.831  1.00  0.00     0.293 HD
ENDBRANCH  15  18
BRANCH  17  20
ATOM     20  O   UNL     1      -6.279  91.064 -19.446  1.00  0.00    -0.504 OA
ATOM     21  H   UNL     1      -6.165  90.239 -20.023  1.00  0.00     0.293 HD
ENDBRANCH  17  20
ENDBRANCH   1  12
BRANCH   6  22
ATOM     22  O   UNL     1      -5.490  90.385  -9.947  1.00  0.00    -0.507 OA
ATOM     23  H   UNL     1      -5.052  89.472  -9.975  1.00  0.00     0.293 HD
ENDBRANCH   6  22
BRANCH   8  24
ATOM     24  O   UNL     1      -3.506  94.801  -9.854  1.00  0.00    -0.508 OA
ATOM     25  H   UNL     1      -3.627  94.866  -8.850  1.00  0.00     0.293 HD
ENDBRANCH   8  24
TORSDOF 5
ENDMDL
MODEL 3
REMARK VINA RESULT:    -5.331      9.973     11.222
REMARK INTER + INTRA:          -6.569
REMARK INTER:                  -6.274
REMARK INTRA:                  -0.295
REMARK UNBOUND:                -0.303
REMARK SMILES O=c1cc(-c2ccc(O)c(O)c2)oc2cc(O)cc(O)c12
REMARK SMILES IDX 4 1 3 2 2 3 1 4 21 5 19 6 18 7 16 8 15 9 14 10 13 11 5 12
REMARK SMILES IDX 6 13 7 14 8 15 12 16 10 17 9 18 11 20 20 22 17 24
REMARK H PARENT 9 19 11 21 20 23 17 25
REMARK Flexibility Score: inf
ROOT
ATOM      1  C   UNL     1      -8.711  83.660  -8.581  1.00  0.00     0.138 A 
ATOM      2  C   UNL     1      -8.359  84.426  -7.457  1.00  0.00     0.100 A 
ATOM      3  C   UNL     1      -7.012  84.612  -7.146  1.00  0.00     0.197 A 
ATOM      4  O   UNL     1      -6.707  85.303  -6.137  1.00  0.00    -0.289 OA
ATOM      5  C   UNL     1      -6.022  84.033  -7.966  1.00  0.00     0.107 A 
ATOM      6  C   UNL     1      -4.635  84.172  -7.722  1.00  0.00     0.134 A 
ATOM      7  C   UNL     1      -3.714  83.568  -8.591  1.00  0.00     0.093 A 
ATOM      8  C   UNL     1      -4.153  82.829  -9.695  1.00  0.00     0.123 A 
ATOM      9  C   UNL     1      -5.521  82.690  -9.939  1.00  0.00     0.094 A 
ATOM     10  C   UNL     1      -6.456  83.283  -9.086  1.00  0.00     0.146 A 
ATOM     11  O   UNL     1      -7.752  83.134  -9.339  1.00  0.00    -0.456 OA
ENDROOT
BRANCH   1  12
ATOM     12  C   UNL     1     -10.127  83.428  -8.960  1.00  0.00     0.021 A 
ATOM     13  C   UNL     1     -11.037  84.499  -8.923  1.00  0.00     0.016 A 
ATOM     14  C   UNL     1     -12.373  84.310  -9.281  1.00  0.00     0.051 A 
ATOM     15  C   UNL     1     -12.822  83.049  -9.692  1.00  0.00     0.157 A 
ATOM     16  C   UNL     1     -10.583  82.165  -9.387  1.00  0.00     0.062 A 
ATOM     17  C   UNL     1     -11.925  81.975  -9.748  1.00  0.00     0.158 A 
BRANCH  15  18
ATOM     18  O   UNL     1     -14.156  82.856 -10.049  1.00  0.00    -0.504 OA
ATOM     19  H   UNL     1     -14.499  83.099 -10.971  1.00  0.00     0.293 HD
ENDBRANCH  15  18
BRANCH  17  20
ATOM     20  O   UNL     1     -12.373  80.724 -10.168  1.00  0.00    -0.504 OA
ATOM     21  H   UNL     1     -13.025  80.182  -9.614  1.00  0.00     0.293 HD
ENDBRANCH  17  20
ENDBRANCH   1  12
BRANCH   6  22
ATOM     22  O   UNL     1      -4.169  84.903  -6.629  1.00  0.00    -0.507 OA
ATOM     23  H   UNL     1      -3.910  84.451  -5.759  1.00  0.00     0.293 HD
ENDBRANCH   6  22
BRANCH   8  24
ATOM     24  O   UNL     1      -3.238  82.230 -10.557  1.00  0.00    -0.508 OA
ATOM     25  H   UNL     1      -3.378  82.228 -11.561  1.00  0.00     0.293 HD
ENDBRANCH   8  24
TORSDOF 5
ENDMDL
MODEL 4
REMARK VINA RESULT:    -5.314      7.935     11.322
REMARK INTER + INTRA:          -6.549
REMARK INTER:                  -6.268
REMARK INTRA:                  -0.282
REMARK UNBOUND:                -0.303
REMARK SMILES O=c1cc(-c2ccc(O)c(O)c2)oc2cc(O)cc(O)c12
REMARK SMILES IDX 4 1 3 2 2 3 1 4 21 5 19 6 18 7 16 8 15 9 14 10 13 11 5 12
REMARK SMILES IDX 6 13 7 14 8 15 12 16 10 17 9 18 11 20 20 22 17 24
REMARK H PARENT 9 19 11 21 20 23 17 25
REMARK Flexibility Score: inf
ROOT
ATOM      1  C   UNL     1      -9.742  84.018  -9.046  1.00  0.00     0.138 A 
ATOM      2  C   UNL     1      -9.722  85.421  -8.986  1.00  0.00     0.100 A 
ATOM      3  C   UNL     1      -8.508  86.097  -9.112  1.00  0.00     0.197 A 
ATOM      4  O   UNL     1      -8.501  87.357  -9.059  1.00  0.00    -0.289 OA
ATOM      5  C   UNL     1      -7.319  85.363  -9.302  1.00  0.00     0.107 A 
ATOM      6  C   UNL     1      -6.048  85.969  -9.437  1.00  0.00     0.134 A 
ATOM      7  C   UNL     1      -4.913  85.166  -9.629  1.00  0.00     0.093 A 
ATOM      8  C   UNL     1      -5.027  83.772  -9.687  1.00  0.00     0.123 A 
ATOM      9  C   UNL     1      -6.279  83.171  -9.553  1.00  0.00     0.094 A 
ATOM     10  C   UNL     1      -7.423  83.952  -9.361  1.00  0.00     0.146 A 
ATOM     11  O   UNL     1      -8.604  83.355  -9.235  1.00  0.00    -0.456 OA
ENDROOT
BRANCH   1  12
ATOM     12  C   UNL     1     -11.004  83.246  -8.919  1.00  0.00     0.021 A 
ATOM     13  C   UNL     1     -11.013  82.051  -8.179  1.00  0.00     0.016 A 
ATOM     14  C   UNL     1     -12.187  81.310  -8.039  1.00  0.00     0.051 A 
ATOM     15  C   UNL     1     -13.378  81.756  -8.626  1.00  0.00     0.157 A 
ATOM     16  C   UNL     1     -12.208  83.696  -9.497  1.00  0.00     0.062 A 
ATOM     17  C   UNL     1     -13.389  82.952  -9.354  1.00  0.00     0.158 A 
BRANCH  15  18
ATOM     18  O   UNL     1     -14.552  81.018  -8.489  1.00  0.00    -0.504 OA
ATOM     19  H   UNL     1     -15.342  81.371  -7.962  1.00  0.00     0.293 HD
ENDBRANCH  15  18
BRANCH  17  20
ATOM     20  O   UNL     1     -14.578  83.398  -9.929  1.00  0.00    -0.504 OA
ATOM     21  H   UNL     1     -15.473  83.246  -9.478  1.00  0.00     0.293 HD
ENDBRANCH  17  20
ENDBRANCH   1  12
BRANCH   6  22
ATOM     22  O   UNL     1      -5.904  87.356  -9.383  1.00  0.00    -0.507 OA
ATOM     23  H   UNL     1      -6.000  87.867  -8.514  1.00  0.00     0.293 HD
ENDBRANCH   6  22
BRANCH   8  24
ATOM     24  O   UNL     1      -3.900  82.976  -9.877  1.00  0.00    -0.508 OA
ATOM     25  H   UNL     1      -3.782  82.098  -9.384  1.00  0.00     0.293 HD
ENDBRANCH   8  24
TORSDOF 5
ENDMDL
MODEL 5
REMARK VINA RESULT:    -5.284      8.573     10.768
REMARK INTER + INTRA:          -6.514
REMARK INTER:                  -6.219
REMARK INTRA:                  -0.295
REMARK UNBOUND:                -0.303
REMARK SMILES O=c1cc(-c2ccc(O)c(O)c2)oc2cc(O)cc(O)c12
REMARK SMILES IDX 4 1 3 2 2 3 1 4 21 5 19 6 18 7 16 8 15 9 14 10 13 11 5 12
REMARK SMILES IDX 6 13 7 14 8 15 12 16 10 17 9 18 11 20 20 22 17 24
REMARK H PARENT 9 19 11 21 20 23 17 25
REMARK Flexibility Score: inf
ROOT
ATOM      1  C   UNL     1      -7.977  84.035  -8.970  1.00  0.00     0.138 A 
ATOM      2  C   UNL     1      -7.047  83.068  -9.387  1.00  0.00     0.100 A 
ATOM      3  C   UNL     1      -5.683  83.349  -9.312  1.00  0.00     0.197 A 
ATOM      4  O   UNL     1      -4.857  82.473  -9.687  1.00  0.00    -0.289 OA
ATOM      5  C   UNL     1      -5.255  84.597  -8.816  1.00  0.00     0.107 A 
ATOM      6  C   UNL     1      -3.893  84.963  -8.708  1.00  0.00     0.134 A 
ATOM      7  C   UNL     1      -3.551  86.225  -8.198  1.00  0.00     0.093 A 
ATOM      8  C   UNL     1      -4.544  87.124  -7.795  1.00  0.00     0.123 A 
ATOM      9  C   UNL     1      -5.889  86.767  -7.901  1.00  0.00     0.094 A 
ATOM     10  C   UNL     1      -6.252  85.516  -8.407  1.00  0.00     0.146 A 
ATOM     11  O   UNL     1      -7.540  85.201  -8.498  1.00  0.00    -0.456 OA
ENDROOT
BRANCH   1  12
ATOM     12  C   UNL     1      -9.440  83.792  -9.026  1.00  0.00     0.021 A 
ATOM     13  C   UNL     1     -10.327  84.875  -8.905  1.00  0.00     0.016 A 
ATOM     14  C   UNL     1     -11.708  84.674  -8.960  1.00  0.00     0.051 A 
ATOM     15  C   UNL     1     -12.226  83.387  -9.149  1.00  0.00     0.157 A 
ATOM     16  C   UNL     1      -9.969  82.501  -9.228  1.00  0.00     0.062 A 
ATOM     17  C   UNL     1     -11.356  82.299  -9.286  1.00  0.00     0.158 A 
BRANCH  15  18
ATOM     18  O   UNL     1     -13.604  83.182  -9.204  1.00  0.00    -0.504 OA
ATOM     19  H   UNL     1     -14.120  82.829  -8.407  1.00  0.00     0.293 HD
ENDBRANCH  15  18
BRANCH  17  20
ATOM     20  O   UNL     1     -11.876  81.021  -9.484  1.00  0.00    -0.504 OA
ATOM     21  H   UNL     1     -12.733  80.873 -10.003  1.00  0.00     0.293 HD
ENDBRANCH  17  20
ENDBRANCH   1  12
BRANCH   6  22
ATOM     22  O   UNL     1      -2.881  84.086  -9.102  1.00  0.00    -0.507 OA
ATOM     23  H   UNL     1      -1.954  84.127  -8.696  1.00  0.00     0.293 HD
ENDBRANCH   6  22
BRANCH   8  24
ATOM     24  O   UNL     1      -4.204  88.376  -7.289  1.00  0.00    -0.508 OA
ATOM     25  H   UNL     1      -3.986  89.154  -7.901  1.00  0.00     0.293 HD
ENDBRANCH   8  24
TORSDOF 5
ENDMDL
MODEL 6
REMARK VINA RESULT:    -5.159      3.357      6.731
REMARK INTER + INTRA:          -6.366
REMARK INTER:                  -6.061
REMARK INTRA:                  -0.306
REMARK UNBOUND:                -0.303
REMARK SMILES O=c1cc(-c2ccc(O)c(O)c2)oc2cc(O)cc(O)c12
REMARK SMILES IDX 4 1 3 2 2 3 1 4 21 5 19 6 18 7 16 8 15 9 14 10 13 11 5 12
REMARK SMILES IDX 6 13 7 14 8 15 12 16 10 17 9 18 11 20 20 22 17 24
REMARK H PARENT 9 19 11 21 20 23 17 25
REMARK Flexibility Score: inf
ROOT
ATOM      1  C   UNL     1      -8.086  90.168 -12.596  1.00  0.00     0.138 A 
ATOM      2  C   UNL     1      -7.333  90.889 -11.654  1.00  0.00     0.100 A 
ATOM      3  C   UNL     1      -6.047  91.318 -11.984  1.00  0.00     0.197 A 
ATOM      4  O   UNL     1      -5.381  91.965 -11.132  1.00  0.00    -0.289 OA
ATOM      5  C   UNL     1      -5.522  91.026 -13.259  1.00  0.00     0.107 A 
ATOM      6  C   UNL     1      -4.229  91.421 -13.674  1.00  0.00     0.134 A 
ATOM      7  C   UNL     1      -3.783  91.096 -14.964  1.00  0.00     0.093 A 
ATOM      8  C   UNL     1      -4.606  90.383 -15.844  1.00  0.00     0.123 A 
ATOM      9  C   UNL     1      -5.882  89.990 -15.438  1.00  0.00     0.094 A 
ATOM     10  C   UNL     1      -6.346  90.304 -14.157  1.00  0.00     0.146 A 
ATOM     11  O   UNL     1      -7.565  89.917 -13.794  1.00  0.00    -0.456 OA
ENDROOT
BRANCH   1  12
ATOM     12  C   UNL     1      -9.459  89.688 -12.300  1.00  0.00     0.021 A 
ATOM     13  C   UNL     1      -9.811  89.372 -10.977  1.00  0.00     0.016 A 
ATOM     14  C   UNL     1     -11.098  88.924 -10.670  1.00  0.00     0.051 A 
ATOM     15  C   UNL     1     -12.059  88.794 -11.681  1.00  0.00     0.157 A 
ATOM     16  C   UNL     1     -10.435  89.567 -13.309  1.00  0.00     0.062 A 
ATOM     17  C   UNL     1     -11.728  89.119 -13.002  1.00  0.00     0.158 A 
BRANCH  15  18
ATOM     18  O   UNL     1     -13.344  88.347 -11.379  1.00  0.00    -0.504 OA
ATOM     19  H   UNL     1     -14.159  88.925 -11.543  1.00  0.00     0.293 HD
ENDBRANCH  15  18
BRANCH  17  20
ATOM     20  O   UNL     1     -12.691  88.999 -14.003  1.00  0.00    -0.504 OA
ATOM     21  H   UNL     1     -13.635  89.341 -13.873  1.00  0.00     0.293 HD
ENDBRANCH  17  20
ENDBRANCH   1  12
BRANCH   6  22
ATOM     22  O   UNL     1      -3.388  92.134 -12.818  1.00  0.00    -0.507 OA
ATOM     23  H   UNL     1      -3.749  92.823 -12.169  1.00  0.00     0.293 HD
ENDBRANCH   6  22
BRANCH   8  24
ATOM     24  O   UNL     1      -4.163  90.060 -17.124  1.00  0.00    -0.508 OA
ATOM     25  H   UNL     1      -3.627  90.716 -17.681  1.00  0.00     0.293 HD
ENDBRANCH   8  24
TORSDOF 5
ENDMDL
MODEL 7
REMARK VINA RESULT:    -5.128      9.496     11.109
REMARK INTER + INTRA:          -6.330
REMARK INTER:                  -6.047
REMARK INTRA:                  -0.283
REMARK UNBOUND:                -0.303
REMARK SMILES O=c1cc(-c2ccc(O)c(O)c2)oc2cc(O)cc(O)c12
REMARK SMILES IDX 4 1 3 2 2 3 1 4 21 5 19 6 18 7 16 8 15 9 14 10 13 11 5 12
REMARK SMILES IDX 6 13 7 14 8 15 12 16 10 17 9 18 11 20 20 22 17 24
REMARK H PARENT 9 19 11 21 20 23 17 25
REMARK Flexibility Score: inf
ROOT
ATOM      1  C   UNL     1      -8.560  83.994  -8.802  1.00  0.00     0.138 A 
ATOM      2  C   UNL     1      -9.370  85.122  -9.018  1.00  0.00     0.100 A 
ATOM      3  C   UNL     1     -10.758  84.991  -8.968  1.00  0.00     0.197 A 
ATOM      4  O   UNL     1     -11.476  86.010  -9.161  1.00  0.00    -0.289 OA
ATOM      5  C   UNL     1     -11.329  83.731  -8.700  1.00  0.00     0.107 A 
ATOM      6  C   UNL     1     -12.725  83.510  -8.634  1.00  0.00     0.134 A 
ATOM      7  C   UNL     1     -13.213  82.225  -8.355  1.00  0.00     0.093 A 
ATOM      8  C   UNL     1     -12.332  81.158  -8.143  1.00  0.00     0.123 A 
ATOM      9  C   UNL     1     -10.954  81.371  -8.208  1.00  0.00     0.094 A 
ATOM     10  C   UNL     1     -10.447  82.644  -8.485  1.00  0.00     0.146 A 
ATOM     11  O   UNL     1      -9.131  82.820  -8.542  1.00  0.00    -0.456 OA
ENDROOT
BRANCH   1  12
ATOM     12  C   UNL     1      -7.079  84.074  -8.842  1.00  0.00     0.021 A 
ATOM     13  C   UNL     1      -6.413  84.992  -8.012  1.00  0.00     0.016 A 
ATOM     14  C   UNL     1      -5.020  85.083  -8.024  1.00  0.00     0.051 A 
ATOM     15  C   UNL     1      -4.266  84.250  -8.860  1.00  0.00     0.157 A 
ATOM     16  C   UNL     1      -6.313  83.230  -9.671  1.00  0.00     0.062 A 
ATOM     17  C   UNL     1      -4.914  83.319  -9.683  1.00  0.00     0.158 A 
BRANCH  15  18
ATOM     18  O   UNL     1      -2.875  84.338  -8.877  1.00  0.00    -0.504 OA
ATOM     19  H   UNL     1      -2.291  83.580  -8.544  1.00  0.00     0.293 HD
ENDBRANCH  15  18
BRANCH  17  20
ATOM     20  O   UNL     1      -4.159  82.484 -10.505  1.00  0.00    -0.504 OA
ATOM     21  H   UNL     1      -3.845  82.785 -11.420  1.00  0.00     0.293 HD
ENDBRANCH  17  20
ENDBRANCH   1  12
BRANCH   6  22
ATOM     22  O   UNL     1     -13.627  84.555  -8.841  1.00  0.00    -0.507 OA
ATOM     23  H   UNL     1     -14.075  85.032  -8.067  1.00  0.00     0.293 HD
ENDBRANCH   6  22
BRANCH   8  24
ATOM     24  O   UNL     1     -12.817  79.882  -7.866  1.00  0.00    -0.508 OA
ATOM     25  H   UNL     1     -13.105  79.615  -6.932  1.00  0.00     0.293 HD
ENDBRANCH   8  24
TORSDOF 5
ENDMDL
MODEL 8
REMARK VINA RESULT:    -5.123      9.929     11.619
REMARK INTER + INTRA:          -6.325
REMARK INTER:                  -6.060
REMARK INTRA:                  -0.265
REMARK UNBOUND:                -0.303
REMARK SMILES O=c1cc(-c2ccc(O)c(O)c2)oc2cc(O)cc(O)c12
REMARK SMILES IDX 4 1 3 2 2 3 1 4 21 5 19 6 18 7 16 8 15 9 14 10 13 11 5 12
REMARK SMILES IDX 6 13 7 14 8 15 12 16 10 17 9 18 11 20 20 22 17 24
REMARK H PARENT 9 19 11 21 20 23 17 25
REMARK Flexibility Score: inf
ROOT
ATOM      1  C   UNL     1      -9.497  83.476  -8.898  1.00  0.00     0.138 A 
ATOM      2  C   UNL     1     -10.314  82.338  -9.006  1.00  0.00     0.100 A 
ATOM      3  C   UNL     1     -11.679  82.493  -9.249  1.00  0.00     0.197 A 
ATOM      4  O   UNL     1     -12.403  81.466  -9.346  1.00  0.00    -0.289 OA
ATOM      5  C   UNL     1     -12.219  83.788  -9.388  1.00  0.00     0.107 A 
ATOM      6  C   UNL     1     -13.591  84.033  -9.634  1.00  0.00     0.134 A 
ATOM      7  C   UNL     1     -14.047  85.353  -9.765  1.00  0.00     0.093 A 
ATOM      8  C   UNL     1     -13.159  86.429  -9.654  1.00  0.00     0.123 A 
ATOM      9  C   UNL     1     -11.806  86.191  -9.411  1.00  0.00     0.094 A 
ATOM     10  C   UNL     1     -11.330  84.884  -9.276  1.00  0.00     0.146 A 
ATOM     11  O   UNL     1     -10.036  84.684  -9.044  1.00  0.00    -0.456 OA
ENDROOT
BRANCH   1  12
ATOM     12  C   UNL     1      -8.039  83.372  -8.641  1.00  0.00     0.021 A 
ATOM     13  C   UNL     1      -7.571  83.334  -7.317  1.00  0.00     0.016 A 
ATOM     14  C   UNL     1      -6.205  83.230  -7.047  1.00  0.00     0.051 A 
ATOM     15  C   UNL     1      -5.282  83.151  -8.098  1.00  0.00     0.157 A 
ATOM     16  C   UNL     1      -7.106  83.280  -9.693  1.00  0.00     0.062 A 
ATOM     17  C   UNL     1      -5.734  83.174  -9.423  1.00  0.00     0.158 A 
BRANCH  15  18
ATOM     18  O   UNL     1      -3.918  83.049  -7.833  1.00  0.00    -0.504 OA
ATOM     19  H   UNL     1      -3.511  83.430  -6.987  1.00  0.00     0.293 HD
ENDBRANCH  15  18
BRANCH  17  20
ATOM     20  O   UNL     1      -4.813  83.085 -10.466  1.00  0.00    -0.504 OA
ATOM     21  H   UNL     1      -4.086  83.779 -10.591  1.00  0.00     0.293 HD
ENDBRANCH  17  20
ENDBRANCH   1  12
BRANCH   6  22
ATOM     22  O   UNL     1     -14.498  82.979  -9.750  1.00  0.00    -0.507 OA
ATOM     23  H   UNL     1     -15.267  83.009 -10.409  1.00  0.00     0.293 HD
ENDBRANCH   6  22
BRANCH   8  24
ATOM     24  O   UNL     1     -13.613  87.739  -9.785  1.00  0.00    -0.508 OA
ATOM     25  H   UNL     1     -12.985  88.530  -9.693  1.00  0.00     0.293 HD
ENDBRANCH   8  24
TORSDOF 5
ENDMDL
