MODEL 1
REMARK VINA RESULT:    -4.724      0.000      0.000
REMARK INTER + INTRA:          -5.935
REMARK INTER:                  -5.690
REMARK INTRA:                  -0.245
REMARK UNBOUND:                -0.245
REMARK SMILES O=c1c(O)c(-c2ccc(O)c(O)c2)oc2cc(O)cc(O)c12
REMARK SMILES IDX 5 1 3 2 2 3 1 4 22 5 20 6 19 7 17 8 16 9 15 10 14 11 6 12
REMARK SMILES IDX 7 13 8 14 9 15 13 16 11 17 10 18 12 20 4 22 21 24 18 26
REMARK H PARENT 10 19 12 21 4 23 21 25 18 27
REMARK Flexibility Score: inf
ROOT
ATOM      1  C   UNL     1      21.138   1.987 -18.928  1.00  0.00     0.180 A 
ATOM      2  C   UNL     1      20.789   3.193 -19.561  1.00  0.00     0.208 A 
ATOM      3  C   UNL     1      21.124   3.376 -20.912  1.00  0.00     0.238 A 
ATOM      4  O   UNL     1      20.857   4.478 -21.457  1.00  0.00    -0.285 OA
ATOM      5  C   UNL     1      21.790   2.345 -21.618  1.00  0.00     0.111 A 
ATOM      6  C   UNL     1      22.143   2.405 -23.000  1.00  0.00     0.134 A 
ATOM      7  C   UNL     1      22.915   1.382 -23.561  1.00  0.00     0.093 A 
ATOM      8  C   UNL     1      23.292   0.267 -22.807  1.00  0.00     0.123 A 
ATOM      9  C   UNL     1      22.902   0.171 -21.474  1.00  0.00     0.094 A 
ATOM     10  C   UNL     1      22.162   1.194 -20.876  1.00  0.00     0.146 A 
ATOM     11  O   UNL     1      21.821   1.066 -19.599  1.00  0.00    -0.452 OA
ENDROOT
BRANCH   1  12
ATOM     12  C   UNL     1      20.797   1.712 -17.514  1.00  0.00     0.025 A 
ATOM     13  C   UNL     1      21.772   1.763 -16.503  1.00  0.00     0.016 A 
ATOM     14  C   UNL     1      21.423   1.523 -15.172  1.00  0.00     0.051 A 
ATOM     15  C   UNL     1      20.094   1.243 -14.828  1.00  0.00     0.157 A 
ATOM     16  C   UNL     1      19.463   1.452 -17.162  1.00  0.00     0.062 A 
ATOM     17  C   UNL     1      19.109   1.211 -15.830  1.00  0.00     0.158 A 
BRANCH  15  18
ATOM     18  O   UNL     1      19.749   1.003 -13.499  1.00  0.00    -0.504 OA
ATOM     19  H   UNL     1      19.006   0.360 -13.252  1.00  0.00     0.293 HD
ENDBRANCH  15  18
BRANCH  17  20
ATOM     20  O   UNL     1      17.776   0.942 -15.521  1.00  0.00    -0.504 OA
ATOM     21  H   UNL     1      17.346   0.048 -15.724  1.00  0.00     0.293 HD
ENDBRANCH  17  20
ENDBRANCH   1  12
BRANCH   2  22
ATOM     22  O   UNL     1      20.152   4.206 -18.839  1.00  0.00    -0.502 OA
ATOM     23  H   UNL     1      20.025   5.141 -19.210  1.00  0.00     0.293 HD
ENDBRANCH   2  22
BRANCH   6  24
ATOM     24  O   UNL     1      21.738   3.428 -23.863  1.00  0.00    -0.507 OA
ATOM     25  H   UNL     1      21.885   4.411 -23.700  1.00  0.00     0.293 HD
ENDBRANCH   6  24
BRANCH   8  26
ATOM     26  O   UNL     1      24.048  -0.754 -23.378  1.00  0.00    -0.508 OA
ATOM     27  H   UNL     1      24.221  -1.623 -22.888  1.00  0.00     0.293 HD
ENDBRANCH   8  26
TORSDOF 6
ENDMDL
MODEL 2
REMARK VINA RESULT:    -4.543     20.622     21.459
REMARK INTER + INTRA:          -5.718
REMARK INTER:                  -5.422
REMARK INTRA:                  -0.295
REMARK UNBOUND:                -0.245
REMARK SMILES O=c1c(O)c(-c2ccc(O)c(O)c2)oc2cc(O)cc(O)c12
REMARK SMILES IDX 5 1 3 2 2 3 1 4 22 5 20 6 19 7 17 8 16 9 15 10 14 11 6 12
REMARK SMILES IDX 7 13 8 14 9 15 13 16 11 17 10 18 12 20 4 22 21 24 18 26
REMARK H PARENT 10 19 12 21 4 23 21 25 18 27
REMARK Flexibility Score: inf
ROOT
ATOM      1  C   UNL     1       6.172 -11.816 -26.051  1.00  0.00     0.180 A 
ATOM      2  C   UNL     1       6.245 -12.780 -27.071  1.00  0.00     0.208 A 
ATOM      3  C   UNL     1       6.290 -12.356 -28.408  1.00  0.00     0.238 A 
ATOM      4  O   UNL     1       6.300 -13.225 -29.318  1.00  0.00    -0.285 OA
ATOM      5  C   UNL     1       6.279 -10.972 -28.709  1.00  0.00     0.111 A 
ATOM      6  C   UNL     1       6.361 -10.428 -30.026  1.00  0.00     0.134 A 
ATOM      7  C   UNL     1       6.209  -9.050 -30.214  1.00  0.00     0.093 A 
ATOM      8  C   UNL     1       6.043  -8.187 -29.127  1.00  0.00     0.123 A 
ATOM      9  C   UNL     1       6.020  -8.703 -27.833  1.00  0.00     0.094 A 
ATOM     10  C   UNL     1       6.133 -10.078 -27.616  1.00  0.00     0.146 A 
ATOM     11  O   UNL     1       6.096 -10.528 -26.367  1.00  0.00    -0.452 OA
ENDROOT
BRANCH   1  12
ATOM     12  C   UNL     1       6.145 -12.185 -24.617  1.00  0.00     0.025 A 
ATOM     13  C   UNL     1       4.937 -12.255 -23.902  1.00  0.00     0.016 A 
ATOM     14  C   UNL     1       4.934 -12.629 -22.556  1.00  0.00     0.051 A 
ATOM     15  C   UNL     1       6.133 -12.953 -21.909  1.00  0.00     0.157 A 
ATOM     16  C   UNL     1       7.342 -12.532 -23.969  1.00  0.00     0.062 A 
ATOM     17  C   UNL     1       7.343 -12.907 -22.621  1.00  0.00     0.158 A 
BRANCH  15  18
ATOM     18  O   UNL     1       6.127 -13.325 -20.565  1.00  0.00    -0.504 OA
ATOM     19  H   UNL     1       6.828 -12.985 -19.917  1.00  0.00     0.293 HD
ENDBRANCH  15  18
BRANCH  17  20
ATOM     20  O   UNL     1       8.554 -13.231 -22.009  1.00  0.00    -0.504 OA
ATOM     21  H   UNL     1       9.446 -13.006 -22.430  1.00  0.00     0.293 HD
ENDBRANCH  17  20
ENDBRANCH   1  12
BRANCH   2  22
ATOM     22  O   UNL     1       6.232 -14.142 -26.752  1.00  0.00    -0.502 OA
ATOM     23  H   UNL     1       5.985 -14.482 -25.830  1.00  0.00     0.293 HD
ENDBRANCH   2  22
BRANCH   6  24
ATOM     24  O   UNL     1       6.617 -11.190 -31.169  1.00  0.00    -0.507 OA
ATOM     25  H   UNL     1       6.342 -12.152 -31.294  1.00  0.00     0.293 HD
ENDBRANCH   6  24
BRANCH   8  26
ATOM     26  O   UNL     1       5.908  -6.815 -29.323  1.00  0.00    -0.508 OA
ATOM     27  H   UNL     1       5.956  -6.404 -30.247  1.00  0.00     0.293 HD
ENDBRANCH   8  26
TORSDOF 6
ENDMDL
MODEL 3
REMARK VINA RESULT:    -4.502      1.966      7.386
REMARK INTER + INTRA:          -5.668
REMARK INTER:                  -5.340
REMARK INTRA:                  -0.328
REMARK UNBOUND:                -0.245
REMARK SMILES O=c1c(O)c(-c2ccc(O)c(O)c2)oc2cc(O)cc(O)c12
REMARK SMILES IDX 5 1 3 2 2 3 1 4 22 5 20 6 19 7 17 8 16 9 15 10 14 11 6 12
REMARK SMILES IDX 7 13 8 14 9 15 13 16 11 17 10 18 12 20 4 22 21 24 18 26
REMARK H PARENT 10 19 12 21 4 23 21 25 18 27
REMARK Flexibility Score: inf
ROOT
ATOM      1  C   UNL     1      20.287   1.485 -17.969  1.00  0.00     0.180 A 
ATOM      2  C   UNL     1      21.168   1.565 -16.876  1.00  0.00     0.208 A 
ATOM      3  C   UNL     1      20.652   1.864 -15.605  1.00  0.00     0.238 A 
ATOM      4  O   UNL     1      21.452   1.987 -14.642  1.00  0.00    -0.285 OA
ATOM      5  C   UNL     1      19.260   2.062 -15.439  1.00  0.00     0.111 A 
ATOM      6  C   UNL     1      18.622   2.330 -14.190  1.00  0.00     0.134 A 
ATOM      7  C   UNL     1      17.257   2.637 -14.164  1.00  0.00     0.093 A 
ATOM      8  C   UNL     1      16.492   2.624 -15.333  1.00  0.00     0.123 A 
ATOM      9  C   UNL     1      17.093   2.306 -16.548  1.00  0.00     0.094 A 
ATOM     10  C   UNL     1      18.461   2.029 -16.612  1.00  0.00     0.146 A 
ATOM     11  O   UNL     1      18.995   1.741 -17.793  1.00  0.00    -0.452 OA
ENDROOT
BRANCH   1  12
ATOM     12  C   UNL     1      20.753   1.152 -19.334  1.00  0.00     0.025 A 
ATOM     13  C   UNL     1      20.761  -0.174 -19.801  1.00  0.00     0.016 A 
ATOM     14  C   UNL     1      21.183  -0.463 -21.101  1.00  0.00     0.051 A 
ATOM     15  C   UNL     1      21.588   0.568 -21.959  1.00  0.00     0.157 A 
ATOM     16  C   UNL     1      21.140   2.184 -20.205  1.00  0.00     0.062 A 
ATOM     17  C   UNL     1      21.563   1.899 -21.508  1.00  0.00     0.158 A 
BRANCH  15  18
ATOM     18  O   UNL     1      22.009   0.277 -23.255  1.00  0.00    -0.504 OA
ATOM     19  H   UNL     1      21.403  -0.193 -23.918  1.00  0.00     0.293 HD
ENDBRANCH  15  18
BRANCH  17  20
ATOM     20  O   UNL     1      21.953   2.949 -22.339  1.00  0.00    -0.504 OA
ATOM     21  H   UNL     1      21.831   2.913 -23.343  1.00  0.00     0.293 HD
ENDBRANCH  17  20
ENDBRANCH   1  12
BRANCH   2  22
ATOM     22  O   UNL     1      22.542   1.388 -17.067  1.00  0.00    -0.502 OA
ATOM     23  H   UNL     1      22.976   1.452 -17.980  1.00  0.00     0.293 HD
ENDBRANCH   2  22
BRANCH   6  24
ATOM     24  O   UNL     1      19.275   2.277 -12.955  1.00  0.00    -0.507 OA
ATOM     25  H   UNL     1      19.080   1.606 -12.229  1.00  0.00     0.293 HD
ENDBRANCH   6  24
BRANCH   8  26
ATOM     26  O   UNL     1      15.131   2.917 -15.295  1.00  0.00    -0.508 OA
ATOM     27  H   UNL     1      14.573   2.959 -16.139  1.00  0.00     0.293 HD
ENDBRANCH   8  26
TORSDOF 6
ENDMDL
MODEL 4
REMARK VINA RESULT:    -4.495     20.376     22.036
REMARK INTER + INTRA:          -5.659
REMARK INTER:                  -5.348
REMARK INTRA:                  -0.312
REMARK UNBOUND:                -0.245
REMARK SMILES O=c1c(O)c(-c2ccc(O)c(O)c2)oc2cc(O)cc(O)c12
REMARK SMILES IDX 5 1 3 2 2 3 1 4 22 5 20 6 19 7 17 8 16 9 15 10 14 11 6 12
REMARK SMILES IDX 7 13 8 14 9 15 13 16 11 17 10 18 12 20 4 22 21 24 18 26
REMARK H PARENT 10 19 12 21 4 23 21 25 18 27
REMARK Flexibility Score: inf
ROOT
ATOM      1  C   UNL     1       6.118 -11.931 -25.353  1.00  0.00     0.180 A 
ATOM      2  C   UNL     1       5.031 -11.701 -24.491  1.00  0.00     0.208 A 
ATOM      3  C   UNL     1       5.111 -12.141 -23.161  1.00  0.00     0.238 A 
ATOM      4  O   UNL     1       4.114 -11.980 -22.410  1.00  0.00    -0.285 OA
ATOM      5  C   UNL     1       6.283 -12.790 -22.702  1.00  0.00     0.111 A 
ATOM      6  C   UNL     1       6.490 -13.242 -21.364  1.00  0.00     0.134 A 
ATOM      7  C   UNL     1       7.633 -13.987 -21.056  1.00  0.00     0.093 A 
ATOM      8  C   UNL     1       8.610 -14.242 -22.022  1.00  0.00     0.123 A 
ATOM      9  C   UNL     1       8.446 -13.755 -23.316  1.00  0.00     0.094 A 
ATOM     10  C   UNL     1       7.298 -13.039 -23.663  1.00  0.00     0.146 A 
ATOM     11  O   UNL     1       7.177 -12.602 -24.911  1.00  0.00    -0.452 OA
ENDROOT
BRANCH   1  12
ATOM     12  C   UNL     1       6.117 -11.476 -26.762  1.00  0.00     0.025 A 
ATOM     13  C   UNL     1       5.722 -12.330 -27.806  1.00  0.00     0.016 A 
ATOM     14  C   UNL     1       5.707 -11.872 -29.126  1.00  0.00     0.051 A 
ATOM     15  C   UNL     1       6.070 -10.551 -29.420  1.00  0.00     0.157 A 
ATOM     16  C   UNL     1       6.461 -10.147 -27.060  1.00  0.00     0.062 A 
ATOM     17  C   UNL     1       6.446  -9.685 -28.380  1.00  0.00     0.158 A 
BRANCH  15  18
ATOM     18  O   UNL     1       6.055 -10.097 -30.738  1.00  0.00    -0.504 OA
ATOM     19  H   UNL     1       6.554  -9.260 -31.017  1.00  0.00     0.293 HD
ENDBRANCH  15  18
BRANCH  17  20
ATOM     20  O   UNL     1       6.807  -8.362 -28.639  1.00  0.00    -0.504 OA
ATOM     21  H   UNL     1       7.622  -7.935 -28.216  1.00  0.00     0.293 HD
ENDBRANCH  17  20
ENDBRANCH   1  12
BRANCH   2  22
ATOM     22  O   UNL     1       3.875 -11.078 -24.971  1.00  0.00    -0.502 OA
ATOM     23  H   UNL     1       2.948 -11.331 -24.648  1.00  0.00     0.293 HD
ENDBRANCH   2  22
BRANCH   6  24
ATOM     24  O   UNL     1       5.622 -12.962 -20.305  1.00  0.00    -0.507 OA
ATOM     25  H   UNL     1       5.907 -12.603 -19.407  1.00  0.00     0.293 HD
ENDBRANCH   6  24
BRANCH   8  26
ATOM     26  O   UNL     1       9.752 -14.972 -21.702  1.00  0.00    -0.508 OA
ATOM     27  H   UNL     1      10.606 -14.886 -22.241  1.00  0.00     0.293 HD
ENDBRANCH   8  26
TORSDOF 6
ENDMDL
MODEL 5
REMARK VINA RESULT:    -4.427     20.903     22.402
REMARK INTER + INTRA:          -5.577
REMARK INTER:                  -5.361
REMARK INTRA:                  -0.216
REMARK UNBOUND:                -0.245
REMARK SMILES O=c1c(O)c(-c2ccc(O)c(O)c2)oc2cc(O)cc(O)c12
REMARK SMILES IDX 5 1 3 2 2 3 1 4 22 5 20 6 19 7 17 8 16 9 15 10 14 11 6 12
REMARK SMILES IDX 7 13 8 14 9 15 13 16 11 17 10 18 12 20 4 22 21 24 18 26
REMARK H PARENT 10 19 12 21 4 23 21 25 18 27
REMARK Flexibility Score: inf
ROOT
ATOM      1  C   UNL     1       6.272 -11.163 -27.881  1.00  0.00     0.180 A 
ATOM      2  C   UNL     1       7.160 -12.203 -28.204  1.00  0.00     0.208 A 
ATOM      3  C   UNL     1       7.512 -13.132 -27.212  1.00  0.00     0.238 A 
ATOM      4  O   UNL     1       8.349 -14.029 -27.493  1.00  0.00    -0.285 OA
ATOM      5  C   UNL     1       6.959 -13.019 -25.914  1.00  0.00     0.111 A 
ATOM      6  C   UNL     1       7.214 -13.927 -24.842  1.00  0.00     0.134 A 
ATOM      7  C   UNL     1       6.717 -13.645 -23.565  1.00  0.00     0.093 A 
ATOM      8  C   UNL     1       5.919 -12.520 -23.334  1.00  0.00     0.123 A 
ATOM      9  C   UNL     1       5.616 -11.660 -24.386  1.00  0.00     0.094 A 
ATOM     10  C   UNL     1       6.127 -11.897 -25.665  1.00  0.00     0.146 A 
ATOM     11  O   UNL     1       5.822 -11.045 -26.636  1.00  0.00    -0.452 OA
ENDROOT
BRANCH   1  12
ATOM     12  C   UNL     1       5.836 -10.160 -28.879  1.00  0.00     0.025 A 
ATOM     13  C   UNL     1       5.031 -10.520 -29.974  1.00  0.00     0.016 A 
ATOM     14  C   UNL     1       4.611  -9.553 -30.890  1.00  0.00     0.051 A 
ATOM     15  C   UNL     1       4.976  -8.211 -30.720  1.00  0.00     0.157 A 
ATOM     16  C   UNL     1       6.181  -8.810 -28.701  1.00  0.00     0.062 A 
ATOM     17  C   UNL     1       5.763  -7.839 -29.617  1.00  0.00     0.158 A 
BRANCH  15  18
ATOM     18  O   UNL     1       4.557  -7.248 -31.637  1.00  0.00    -0.504 OA
ATOM     19  H   UNL     1       4.741  -7.344 -32.629  1.00  0.00     0.293 HD
ENDBRANCH  15  18
BRANCH  17  20
ATOM     20  O   UNL     1       6.137  -6.511 -29.414  1.00  0.00    -0.504 OA
ATOM     21  H   UNL     1       6.598  -6.206 -28.565  1.00  0.00     0.293 HD
ENDBRANCH  17  20
ENDBRANCH   1  12
BRANCH   2  22
ATOM     22  O   UNL     1       7.712 -12.283 -29.486  1.00  0.00    -0.502 OA
ATOM     23  H   UNL     1       8.338 -11.576 -29.853  1.00  0.00     0.293 HD
ENDBRANCH   2  22
BRANCH   6  24
ATOM     24  O   UNL     1       7.920 -15.125 -24.987  1.00  0.00    -0.507 OA
ATOM     25  H   UNL     1       7.746 -15.813 -25.703  1.00  0.00     0.293 HD
ENDBRANCH   6  24
BRANCH   8  26
ATOM     26  O   UNL     1       5.416 -12.256 -22.062  1.00  0.00    -0.508 OA
ATOM     27  H   UNL     1       6.028 -12.059 -21.279  1.00  0.00     0.293 HD
ENDBRANCH   8  26
TORSDOF 6
ENDMDL
MODEL 6
REMARK VINA RESULT:    -4.412     16.202     17.154
REMARK INTER + INTRA:          -5.560
REMARK INTER:                  -5.252
REMARK INTRA:                  -0.308
REMARK UNBOUND:                -0.245
REMARK SMILES O=c1c(O)c(-c2ccc(O)c(O)c2)oc2cc(O)cc(O)c12
REMARK SMILES IDX 5 1 3 2 2 3 1 4 22 5 20 6 19 7 17 8 16 9 15 10 14 11 6 12
REMARK SMILES IDX 7 13 8 14 9 15 13 16 11 17 10 18 12 20 4 22 21 24 18 26
REMARK H PARENT 10 19 12 21 4 23 21 25 18 27
REMARK Flexibility Score: inf
ROOT
ATOM      1  C   UNL     1       6.407   2.154 -27.054  1.00  0.00     0.180 A 
ATOM      2  C   UNL     1       7.764   2.344 -27.366  1.00  0.00     0.208 A 
ATOM      3  C   UNL     1       8.235   1.950 -28.628  1.00  0.00     0.238 A 
ATOM      4  O   UNL     1       9.462   2.072 -28.881  1.00  0.00    -0.285 OA
ATOM      5  C   UNL     1       7.340   1.387 -29.570  1.00  0.00     0.111 A 
ATOM      6  C   UNL     1       7.700   0.988 -30.893  1.00  0.00     0.134 A 
ATOM      7  C   UNL     1       6.763   0.323 -31.692  1.00  0.00     0.093 A 
ATOM      8  C   UNL     1       5.460   0.099 -31.240  1.00  0.00     0.123 A 
ATOM      9  C   UNL     1       5.083   0.536 -29.973  1.00  0.00     0.094 A 
ATOM     10  C   UNL     1       6.006   1.171 -29.139  1.00  0.00     0.146 A 
ATOM     11  O   UNL     1       5.606   1.562 -27.934  1.00  0.00    -0.452 OA
ENDROOT
BRANCH   1  12
ATOM     12  C   UNL     1       5.831   2.566 -25.753  1.00  0.00     0.025 A 
ATOM     13  C   UNL     1       5.144   3.783 -25.611  1.00  0.00     0.016 A 
ATOM     14  C   UNL     1       4.588   4.140 -24.379  1.00  0.00     0.051 A 
ATOM     15  C   UNL     1       4.698   3.282 -23.278  1.00  0.00     0.157 A 
ATOM     16  C   UNL     1       5.920   1.699 -24.652  1.00  0.00     0.062 A 
ATOM     17  C   UNL     1       5.366   2.054 -23.417  1.00  0.00     0.158 A 
BRANCH  15  18
ATOM     18  O   UNL     1       4.144   3.642 -22.050  1.00  0.00    -0.504 OA
ATOM     19  H   UNL     1       4.206   4.589 -21.697  1.00  0.00     0.293 HD
ENDBRANCH  15  18
BRANCH  17  20
ATOM     20  O   UNL     1       5.486   1.173 -22.342  1.00  0.00    -0.504 OA
ATOM     21  H   UNL     1       6.343   0.667 -22.156  1.00  0.00     0.293 HD
ENDBRANCH  17  20
ENDBRANCH   1  12
BRANCH   2  22
ATOM     22  O   UNL     1       8.635   2.881 -26.413  1.00  0.00    -0.502 OA
ATOM     23  H   UNL     1       8.687   3.875 -26.224  1.00  0.00     0.293 HD
ENDBRANCH   2  22
BRANCH   6  24
ATOM     24  O   UNL     1       8.945   1.248 -31.473  1.00  0.00    -0.507 OA
ATOM     25  H   UNL     1       9.093   1.458 -32.448  1.00  0.00     0.293 HD
ENDBRANCH   6  24
BRANCH   8  26
ATOM     26  O   UNL     1       4.530  -0.551 -32.049  1.00  0.00    -0.508 OA
ATOM     27  H   UNL     1       4.478  -0.375 -33.045  1.00  0.00     0.293 HD
ENDBRANCH   8  26
TORSDOF 6
ENDMDL
MODEL 7
REMARK VINA RESULT:    -4.360      1.233      1.392
REMARK INTER + INTRA:          -5.497
REMARK INTER:                  -5.175
REMARK INTRA:                  -0.322
REMARK UNBOUND:                -0.245
REMARK SMILES O=c1c(O)c(-c2ccc(O)c(O)c2)oc2cc(O)cc(O)c12
REMARK SMILES IDX 5 1 3 2 2 3 1 4 22 5 20 6 19 7 17 8 16 9 15 10 14 11 6 12
REMARK SMILES IDX 7 13 8 14 9 15 13 16 11 17 10 18 12 20 4 22 21 24 18 26
REMARK H PARENT 10 19 12 21 4 23 21 25 18 27
REMARK Flexibility Score: inf
ROOT
ATOM      1  C   UNL     1      20.978   1.800 -18.802  1.00  0.00     0.180 A 
ATOM      2  C   UNL     1      20.936   2.785 -19.803  1.00  0.00     0.208 A 
ATOM      3  C   UNL     1      21.498   2.506 -21.058  1.00  0.00     0.238 A 
ATOM      4  O   UNL     1      21.505   3.411 -21.933  1.00  0.00    -0.285 OA
ATOM      5  C   UNL     1      22.081   1.239 -21.303  1.00  0.00     0.111 A 
ATOM      6  C   UNL     1      22.645   0.833 -22.550  1.00  0.00     0.134 A 
ATOM      7  C   UNL     1      23.311  -0.395 -22.639  1.00  0.00     0.093 A 
ATOM      8  C   UNL     1      23.378  -1.261 -21.544  1.00  0.00     0.123 A 
ATOM      9  C   UNL     1      22.779  -0.898 -20.340  1.00  0.00     0.094 A 
ATOM     10  C   UNL     1      22.139   0.336 -20.209  1.00  0.00     0.146 A 
ATOM     11  O   UNL     1      21.591   0.645 -19.040  1.00  0.00    -0.452 OA
ENDROOT
BRANCH   1  12
ATOM     12  C   UNL     1      20.385   2.012 -17.461  1.00  0.00     0.025 A 
ATOM     13  C   UNL     1      21.142   2.541 -16.402  1.00  0.00     0.016 A 
ATOM     14  C   UNL     1      20.555   2.755 -15.153  1.00  0.00     0.051 A 
ATOM     15  C   UNL     1      19.201   2.458 -14.947  1.00  0.00     0.157 A 
ATOM     16  C   UNL     1      19.023   1.736 -17.256  1.00  0.00     0.062 A 
ATOM     17  C   UNL     1      18.432   1.948 -16.006  1.00  0.00     0.158 A 
BRANCH  15  18
ATOM     18  O   UNL     1      18.619   2.671 -13.698  1.00  0.00    -0.504 OA
ATOM     19  H   UNL     1      17.990   3.449 -13.531  1.00  0.00     0.293 HD
ENDBRANCH  15  18
BRANCH  17  20
ATOM     20  O   UNL     1      17.080   1.649 -15.836  1.00  0.00    -0.504 OA
ATOM     21  H   UNL     1      16.437   1.605 -16.617  1.00  0.00     0.293 HD
ENDBRANCH  17  20
ENDBRANCH   1  12
BRANCH   2  22
ATOM     22  O   UNL     1      20.375   4.037 -19.533  1.00  0.00    -0.502 OA
ATOM     23  H   UNL     1      20.500   4.509 -18.645  1.00  0.00     0.293 HD
ENDBRANCH   2  22
BRANCH   6  24
ATOM     24  O   UNL     1      22.553   1.581 -23.727  1.00  0.00    -0.507 OA
ATOM     25  H   UNL     1      21.823   2.246 -23.931  1.00  0.00     0.293 HD
ENDBRANCH   6  24
BRANCH   8  26
ATOM     26  O   UNL     1      24.029  -2.487 -21.646  1.00  0.00    -0.508 OA
ATOM     27  H   UNL     1      24.001  -3.033 -22.499  1.00  0.00     0.293 HD
ENDBRANCH   8  26
TORSDOF 6
ENDMDL
MODEL 8
REMARK VINA RESULT:    -4.297      1.951      2.803
REMARK INTER + INTRA:          -5.420
REMARK INTER:                  -5.179
REMARK INTRA:                  -0.242
REMARK UNBOUND:                -0.245
REMARK SMILES O=c1c(O)c(-c2ccc(O)c(O)c2)oc2cc(O)cc(O)c12
REMARK SMILES IDX 5 1 3 2 2 3 1 4 22 5 20 6 19 7 17 8 16 9 15 10 14 11 6 12
REMARK SMILES IDX 7 13 8 14 9 15 13 16 11 17 10 18 12 20 4 22 21 24 18 26
REMARK H PARENT 10 19 12 21 4 23 21 25 18 27
REMARK Flexibility Score: inf
ROOT
ATOM      1  C   UNL     1      19.275   1.856 -17.256  1.00  0.00     0.180 A 
ATOM      2  C   UNL     1      19.670   3.198 -17.389  1.00  0.00     0.208 A 
ATOM      3  C   UNL     1      20.437   3.575 -18.502  1.00  0.00     0.238 A 
ATOM      4  O   UNL     1      20.833   4.767 -18.588  1.00  0.00    -0.285 OA
ATOM      5  C   UNL     1      20.786   2.610 -19.478  1.00  0.00     0.111 A 
ATOM      6  C   UNL     1      21.526   2.888 -20.666  1.00  0.00     0.134 A 
ATOM      7  C   UNL     1      21.925   1.833 -21.494  1.00  0.00     0.093 A 
ATOM      8  C   UNL     1      21.556   0.515 -21.211  1.00  0.00     0.123 A 
ATOM      9  C   UNL     1      20.784   0.240 -20.085  1.00  0.00     0.094 A 
ATOM     10  C   UNL     1      20.401   1.268 -19.220  1.00  0.00     0.146 A 
ATOM     11  O   UNL     1      19.673   0.960 -18.153  1.00  0.00    -0.452 OA
ENDROOT
BRANCH   1  12
ATOM     12  C   UNL     1      18.445   1.387 -16.123  1.00  0.00     0.025 A 
ATOM     13  C   UNL     1      18.999   0.636 -15.072  1.00  0.00     0.016 A 
ATOM     14  C   UNL     1      18.202   0.225 -14.000  1.00  0.00     0.051 A 
ATOM     15  C   UNL     1      16.845   0.569 -13.955  1.00  0.00     0.157 A 
ATOM     16  C   UNL     1      17.089   1.747 -16.063  1.00  0.00     0.062 A 
ATOM     17  C   UNL     1      16.287   1.337 -14.992  1.00  0.00     0.158 A 
BRANCH  15  18
ATOM     18  O   UNL     1      16.052   0.156 -12.886  1.00  0.00    -0.504 OA
ATOM     19  H   UNL     1      16.306   0.359 -11.926  1.00  0.00     0.293 HD
ENDBRANCH  15  18
BRANCH  17  20
ATOM     20  O   UNL     1      14.941   1.703 -14.973  1.00  0.00    -0.504 OA
ATOM     21  H   UNL     1      14.626   2.574 -14.565  1.00  0.00     0.293 HD
ENDBRANCH  17  20
ENDBRANCH   1  12
BRANCH   2  22
ATOM     22  O   UNL     1      19.333   4.130 -16.403  1.00  0.00    -0.502 OA
ATOM     23  H   UNL     1      18.426   4.579 -16.366  1.00  0.00     0.293 HD
ENDBRANCH   2  22
BRANCH   6  24
ATOM     24  O   UNL     1      21.865   4.177 -21.089  1.00  0.00    -0.507 OA
ATOM     25  H   UNL     1      22.132   4.932 -20.476  1.00  0.00     0.293 HD
ENDBRANCH   6  24
BRANCH   8  26
ATOM     26  O   UNL     1      21.946  -0.527 -22.049  1.00  0.00    -0.508 OA
ATOM     27  H   UNL     1      21.367  -1.348 -22.179  1.00  0.00     0.293 HD
ENDBRANCH   8  26
TORSDOF 6
ENDMDL
MODEL 9
REMARK VINA RESULT:    -4.272     14.799     15.810
REMARK INTER + INTRA:          -5.390
REMARK INTER:                  -5.069
REMARK INTRA:                  -0.321
REMARK UNBOUND:                -0.245
REMARK SMILES O=c1c(O)c(-c2ccc(O)c(O)c2)oc2cc(O)cc(O)c12
REMARK SMILES IDX 5 1 3 2 2 3 1 4 22 5 20 6 19 7 17 8 16 9 15 10 14 11 6 12
REMARK SMILES IDX 7 13 8 14 9 15 13 16 11 17 10 18 12 20 4 22 21 24 18 26
REMARK H PARENT 10 19 12 21 4 23 21 25 18 27
REMARK Flexibility Score: inf
ROOT
ATOM      1  C   UNL     1       8.043   3.035 -27.617  1.00  0.00     0.180 A 
ATOM      2  C   UNL     1       9.113   3.944 -27.547  1.00  0.00     0.208 A 
ATOM      3  C   UNL     1       9.993   4.046 -28.636  1.00  0.00     0.238 A 
ATOM      4  O   UNL     1      10.980   4.821 -28.544  1.00  0.00    -0.285 OA
ATOM      5  C   UNL     1       9.783   3.251 -29.789  1.00  0.00     0.111 A 
ATOM      6  C   UNL     1      10.588   3.301 -30.966  1.00  0.00     0.134 A 
ATOM      7  C   UNL     1      10.366   2.378 -31.994  1.00  0.00     0.093 A 
ATOM      8  C   UNL     1       9.327   1.447 -31.915  1.00  0.00     0.123 A 
ATOM      9  C   UNL     1       8.499   1.429 -30.796  1.00  0.00     0.094 A 
ATOM     10  C   UNL     1       8.717   2.315 -29.738  1.00  0.00     0.146 A 
ATOM     11  O   UNL     1       7.910   2.256 -28.685  1.00  0.00    -0.452 OA
ENDROOT
BRANCH   1  12
ATOM     12  C   UNL     1       7.059   2.889 -26.520  1.00  0.00     0.025 A 
ATOM     13  C   UNL     1       5.970   3.767 -26.391  1.00  0.00     0.016 A 
ATOM     14  C   UNL     1       5.042   3.596 -25.362  1.00  0.00     0.051 A 
ATOM     15  C   UNL     1       5.178   2.536 -24.455  1.00  0.00     0.157 A 
ATOM     16  C   UNL     1       7.180   1.816 -25.621  1.00  0.00     0.062 A 
ATOM     17  C   UNL     1       6.253   1.641 -24.589  1.00  0.00     0.158 A 
BRANCH  15  18
ATOM     18  O   UNL     1       4.251   2.368 -23.428  1.00  0.00    -0.504 OA
ATOM     19  H   UNL     1       3.475   1.721 -23.513  1.00  0.00     0.293 HD
ENDBRANCH  15  18
BRANCH  17  20
ATOM     20  O   UNL     1       6.414   0.571 -23.708  1.00  0.00    -0.504 OA
ATOM     21  H   UNL     1       5.939  -0.313 -23.844  1.00  0.00     0.293 HD
ENDBRANCH  17  20
ENDBRANCH   1  12
BRANCH   2  22
ATOM     22  O   UNL     1       9.315   4.703 -26.390  1.00  0.00    -0.502 OA
ATOM     23  H   UNL     1       8.571   5.231 -25.950  1.00  0.00     0.293 HD
ENDBRANCH   2  22
BRANCH   6  24
ATOM     24  O   UNL     1      11.590   4.251 -31.185  1.00  0.00    -0.507 OA
ATOM     25  H   UNL     1      11.454   5.249 -31.155  1.00  0.00     0.293 HD
ENDBRANCH   6  24
BRANCH   8  26
ATOM     26  O   UNL     1       9.105   0.541 -32.950  1.00  0.00    -0.508 OA
ATOM     27  H   UNL     1       9.545   0.651 -33.855  1.00  0.00     0.293 HD
ENDBRANCH   8  26
TORSDOF 6
ENDMDL
