MODEL 1
REMARK VINA RESULT:    -5.951      0.000      0.000
REMARK INTER + INTRA:         -12.507
REMARK INTER:                 -10.822
REMARK INTRA:                  -1.685
REMARK UNBOUND:                -1.685
REMARK SMILES CCCCCCCCCCCCCCCC(=O)[O-]
REMARK SMILES IDX 9 1 10 2 11 3 12 4 13 5 14 6 15 7 16 8 17 9 18 10 8 11 7 12
REMARK SMILES IDX 6 13 5 14 4 15 3 16 2 17 1 18
REMARK H PARENT
REMARK Flexibility Score: inf
ROOT
ATOM      1  C   UNL     1       8.991 -11.826  33.977  1.00  0.00     0.000 C 
ENDROOT
BRANCH   1   2
ATOM      2  C   UNL     1      10.089 -12.019  35.035  1.00  0.00     0.000 C 
BRANCH   2   3
ATOM      3  C   UNL     1      11.333 -11.153  34.763  1.00  0.00     0.000 C 
BRANCH   3   4
ATOM      4  C   UNL     1      12.641 -11.874  35.126  1.00  0.00     0.000 C 
BRANCH   4   5
ATOM      5  C   UNL     1      13.776 -10.895  35.476  1.00  0.00     0.000 C 
BRANCH   5   6
ATOM      6  C   UNL     1      13.612 -10.268  36.872  1.00  0.00     0.006 C 
BRANCH   6   7
ATOM      7  C   UNL     1      13.135 -11.252  37.952  1.00  0.00     0.053 C 
BRANCH   7   8
ATOM      8  C   UNL     1      12.641 -10.546  39.177  1.00  0.00     0.041 C 
ATOM      9  O   UNL     1      13.454 -10.164  40.059  1.00  0.00    -0.550 OA
ATOM     10  O   UNL     1      11.287 -10.279  39.328  1.00  0.00    -0.550 OA
ENDBRANCH   7   8
ENDBRANCH   6   7
ENDBRANCH   5   6
ENDBRANCH   4   5
ENDBRANCH   3   4
ENDBRANCH   2   3
ENDBRANCH   1   2
BRANCH   1  11
ATOM     11  C   UNL     1       7.975 -12.982  33.966  1.00  0.00     0.000 C 
BRANCH  11  12
ATOM     12  C   UNL     1       8.078 -13.868  35.219  1.00  0.00    -0.000 C 
BRANCH  12  13
ATOM     13  C   UNL     1       7.111 -13.429  36.331  1.00  0.00    -0.000 C 
BRANCH  13  14
ATOM     14  C   UNL     1       7.594 -13.826  37.739  1.00  0.00    -0.000 C 
BRANCH  14  15
ATOM     15  C   UNL     1       8.635 -12.879  38.366  1.00  0.00    -0.000 C 
BRANCH  15  16
ATOM     16  C   UNL     1      10.081 -13.358  38.161  1.00  0.00    -0.000 C 
BRANCH  16  17
ATOM     17  C   UNL     1      10.182 -14.886  38.029  1.00  0.00    -0.003 C 
ATOM     18  C   UNL     1      10.995 -15.325  36.812  1.00  0.00     0.004 C 
ENDBRANCH  16  17
ENDBRANCH  15  16
ENDBRANCH  14  15
ENDBRANCH  13  14
ENDBRANCH  12  13
ENDBRANCH  11  12
ENDBRANCH   1  11
TORSDOF 14
ENDMDL
MODEL 2
REMARK VINA RESULT:    -5.926      2.649      5.873
REMARK INTER + INTRA:         -12.460
REMARK INTER:                 -10.327
REMARK INTRA:                  -2.133
REMARK UNBOUND:                -1.685
REMARK SMILES CCCCCCCCCCCCCCCC(=O)[O-]
REMARK SMILES IDX 9 1 10 2 11 3 12 4 13 5 14 6 15 7 16 8 17 9 18 10 8 11 7 12
REMARK SMILES IDX 6 13 5 14 4 15 3 16 2 17 1 18
REMARK H PARENT
REMARK Flexibility Score: inf
ROOT
ATOM      1  C   UNL     1      12.285 -14.618  37.299  1.00  0.00     0.000 C 
ENDROOT
BRANCH   1   2
ATOM      2  C   UNL     1      10.790 -14.812  37.001  1.00  0.00     0.000 C 
BRANCH   2   3
ATOM      3  C   UNL     1       9.909 -14.645  38.252  1.00  0.00     0.000 C 
BRANCH   3   4
ATOM      4  C   UNL     1       8.579 -13.938  37.945  1.00  0.00     0.000 C 
BRANCH   4   5
ATOM      5  C   UNL     1       8.743 -12.416  37.792  1.00  0.00     0.000 C 
BRANCH   5   6
ATOM      6  C   UNL     1       8.387 -11.919  36.379  1.00  0.00     0.006 C 
BRANCH   6   7
ATOM      7  C   UNL     1       7.601 -12.935  35.534  1.00  0.00     0.053 C 
BRANCH   7   8
ATOM      8  C   UNL     1       8.020 -12.913  34.096  1.00  0.00     0.041 C 
ATOM      9  O   UNL     1       8.902 -12.104  33.705  1.00  0.00    -0.550 OA
ATOM     10  O   UNL     1       7.462 -13.810  33.194  1.00  0.00    -0.550 OA
ENDBRANCH   7   8
ENDBRANCH   6   7
ENDBRANCH   5   6
ENDBRANCH   4   5
ENDBRANCH   3   4
ENDBRANCH   2   3
ENDBRANCH   1   2
BRANCH   1  11
ATOM     11  C   UNL     1      12.903 -13.464  36.488  1.00  0.00     0.000 C 
BRANCH  11  12
ATOM     12  C   UNL     1      11.901 -12.832  35.508  1.00  0.00    -0.000 C 
BRANCH  12  13
ATOM     13  C   UNL     1      12.286 -11.395  35.118  1.00  0.00    -0.000 C 
BRANCH  13  14
ATOM     14  C   UNL     1      13.582 -10.915  35.796  1.00  0.00    -0.000 C 
BRANCH  14  15
ATOM     15  C   UNL     1      13.395  -9.835  36.879  1.00  0.00    -0.000 C 
BRANCH  15  16
ATOM     16  C   UNL     1      11.950  -9.750  37.398  1.00  0.00    -0.000 C 
BRANCH  16  17
ATOM     17  C   UNL     1      11.801 -10.320  38.818  1.00  0.00    -0.003 C 
ATOM     18  C   UNL     1      13.130 -10.400  39.568  1.00  0.00     0.004 C 
ENDBRANCH  16  17
ENDBRANCH  15  16
ENDBRANCH  14  15
ENDBRANCH  13  14
ENDBRANCH  12  13
ENDBRANCH  11  12
ENDBRANCH   1  11
TORSDOF 14
ENDMDL
MODEL 3
REMARK VINA RESULT:    -5.917      2.546      5.547
REMARK INTER + INTRA:         -12.445
REMARK INTER:                  -9.879
REMARK INTRA:                  -2.565
REMARK UNBOUND:                -1.685
REMARK SMILES CCCCCCCCCCCCCCCC(=O)[O-]
REMARK SMILES IDX 9 1 10 2 11 3 12 4 13 5 14 6 15 7 16 8 17 9 18 10 8 11 7 12
REMARK SMILES IDX 6 13 5 14 4 15 3 16 2 17 1 18
REMARK H PARENT
REMARK Flexibility Score: inf
ROOT
ATOM      1  C   UNL     1      13.526 -13.817  36.721  1.00  0.00     0.000 C 
ENDROOT
BRANCH   1   2
ATOM      2  C   UNL     1      12.231 -14.219  37.445  1.00  0.00     0.000 C 
BRANCH   2   3
ATOM      3  C   UNL     1      11.317 -15.103  36.577  1.00  0.00     0.000 C 
BRANCH   3   4
ATOM      4  C   UNL     1       9.864 -14.602  36.555  1.00  0.00     0.000 C 
BRANCH   4   5
ATOM      5  C   UNL     1       9.355 -14.207  37.953  1.00  0.00     0.000 C 
BRANCH   5   6
ATOM      6  C   UNL     1       8.151 -13.250  37.898  1.00  0.00     0.006 C 
BRANCH   6   7
ATOM      7  C   UNL     1       7.262 -13.426  36.656  1.00  0.00     0.053 C 
BRANCH   7   8
ATOM      8  C   UNL     1       7.223 -12.189  35.813  1.00  0.00     0.041 C 
ATOM      9  O   UNL     1       6.830 -11.099  36.304  1.00  0.00    -0.550 OA
ATOM     10  O   UNL     1       7.656 -12.233  34.494  1.00  0.00    -0.550 OA
ENDBRANCH   7   8
ENDBRANCH   6   7
ENDBRANCH   5   6
ENDBRANCH   4   5
ENDBRANCH   3   4
ENDBRANCH   2   3
ENDBRANCH   1   2
BRANCH   1  11
ATOM     11  C   UNL     1      13.264 -13.266  35.308  1.00  0.00     0.000 C 
BRANCH  11  12
ATOM     12  C   UNL     1      13.722 -11.806  35.152  1.00  0.00    -0.000 C 
BRANCH  12  13
ATOM     13  C   UNL     1      12.572 -10.869  34.746  1.00  0.00    -0.000 C 
BRANCH  13  14
ATOM     14  C   UNL     1      11.187 -11.405  35.154  1.00  0.00    -0.000 C 
BRANCH  14  15
ATOM     15  C   UNL     1      10.486 -10.622  36.280  1.00  0.00    -0.000 C 
BRANCH  15  16
ATOM     16  C   UNL     1      11.029 -10.965  37.677  1.00  0.00    -0.000 C 
BRANCH  16  17
ATOM     17  C   UNL     1      12.039  -9.926  38.188  1.00  0.00    -0.003 C 
ATOM     18  C   UNL     1      13.155 -10.546  39.028  1.00  0.00     0.004 C 
ENDBRANCH  16  17
ENDBRANCH  15  16
ENDBRANCH  14  15
ENDBRANCH  13  14
ENDBRANCH  12  13
ENDBRANCH  11  12
ENDBRANCH   1  11
TORSDOF 14
ENDMDL
MODEL 4
REMARK VINA RESULT:    -5.885      1.052      2.910
REMARK INTER + INTRA:         -12.386
REMARK INTER:                 -10.398
REMARK INTRA:                  -1.988
REMARK UNBOUND:                -1.685
REMARK SMILES CCCCCCCCCCCCCCCC(=O)[O-]
REMARK SMILES IDX 9 1 10 2 11 3 12 4 13 5 14 6 15 7 16 8 17 9 18 10 8 11 7 12
REMARK SMILES IDX 6 13 5 14 4 15 3 16 2 17 1 18
REMARK H PARENT
REMARK Flexibility Score: inf
ROOT
ATOM      1  C   UNL     1      12.168 -14.684  37.293  1.00  0.00     0.000 C 
ENDROOT
BRANCH   1   2
ATOM      2  C   UNL     1      12.611 -13.311  36.762  1.00  0.00     0.000 C 
BRANCH   2   3
ATOM      3  C   UNL     1      11.593 -12.697  35.784  1.00  0.00     0.000 C 
BRANCH   3   4
ATOM      4  C   UNL     1      12.093 -11.383  35.164  1.00  0.00     0.000 C 
BRANCH   4   5
ATOM      5  C   UNL     1      13.498 -10.995  35.658  1.00  0.00     0.000 C 
BRANCH   5   6
ATOM      6  C   UNL     1      13.485  -9.763  36.580  1.00  0.00     0.006 C 
BRANCH   6   7
ATOM      7  C   UNL     1      12.176  -9.576  37.364  1.00  0.00     0.053 C 
BRANCH   7   8
ATOM      8  C   UNL     1      12.250 -10.181  38.732  1.00  0.00     0.041 C 
ATOM      9  O   UNL     1      13.335 -10.175  39.371  1.00  0.00    -0.550 OA
ATOM     10  O   UNL     1      11.111 -10.721  39.317  1.00  0.00    -0.550 OA
ENDBRANCH   7   8
ENDBRANCH   6   7
ENDBRANCH   5   6
ENDBRANCH   4   5
ENDBRANCH   3   4
ENDBRANCH   2   3
ENDBRANCH   1   2
BRANCH   1  11
ATOM     11  C   UNL     1      10.657 -14.921  37.124  1.00  0.00     0.000 C 
BRANCH  11  12
ATOM     12  C   UNL     1       9.901 -14.875  38.463  1.00  0.00    -0.000 C 
BRANCH  12  13
ATOM     13  C   UNL     1       8.502 -14.252  38.328  1.00  0.00    -0.000 C 
BRANCH  13  14
ATOM     14  C   UNL     1       8.538 -12.721  38.168  1.00  0.00    -0.000 C 
BRANCH  14  15
ATOM     15  C   UNL     1       8.100 -12.195  36.787  1.00  0.00    -0.000 C 
BRANCH  15  16
ATOM     16  C   UNL     1       7.302 -13.230  35.977  1.00  0.00    -0.000 C 
BRANCH  16  17
ATOM     17  C   UNL     1       7.966 -13.563  34.632  1.00  0.00    -0.003 C 
ATOM     18  C   UNL     1       8.485 -12.325  33.904  1.00  0.00     0.004 C 
ENDBRANCH  16  17
ENDBRANCH  15  16
ENDBRANCH  14  15
ENDBRANCH  13  14
ENDBRANCH  12  13
ENDBRANCH  11  12
ENDBRANCH   1  11
TORSDOF 14
ENDMDL
MODEL 5
REMARK VINA RESULT:    -5.684      1.978      5.494
REMARK INTER + INTRA:         -12.020
REMARK INTER:                  -9.851
REMARK INTRA:                  -2.169
REMARK UNBOUND:                -1.685
REMARK SMILES CCCCCCCCCCCCCCCC(=O)[O-]
REMARK SMILES IDX 9 1 10 2 11 3 12 4 13 5 14 6 15 7 16 8 17 9 18 10 8 11 7 12
REMARK SMILES IDX 6 13 5 14 4 15 3 16 2 17 1 18
REMARK H PARENT
REMARK Flexibility Score: inf
ROOT
ATOM      1  C   UNL     1      11.547 -13.376  37.135  1.00  0.00     0.000 C 
ENDROOT
BRANCH   1   2
ATOM      2  C   UNL     1      10.696 -13.447  35.857  1.00  0.00     0.000 C 
BRANCH   2   3
ATOM      3  C   UNL     1       9.994 -12.115  35.537  1.00  0.00     0.000 C 
BRANCH   3   4
ATOM      4  C   UNL     1       9.089 -12.210  34.299  1.00  0.00     0.000 C 
BRANCH   4   5
ATOM      5  C   UNL     1       7.685 -12.743  34.634  1.00  0.00     0.000 C 
BRANCH   5   6
ATOM      6  C   UNL     1       7.271 -12.454  36.088  1.00  0.00     0.006 C 
BRANCH   6   7
ATOM      7  C   UNL     1       7.176 -13.704  36.978  1.00  0.00     0.053 C 
BRANCH   7   8
ATOM      8  C   UNL     1       7.931 -13.539  38.261  1.00  0.00     0.041 C 
ATOM      9  O   UNL     1       8.195 -14.542  38.974  1.00  0.00    -0.550 OA
ATOM     10  O   UNL     1       8.374 -12.282  38.651  1.00  0.00    -0.550 OA
ENDBRANCH   7   8
ENDBRANCH   6   7
ENDBRANCH   5   6
ENDBRANCH   4   5
ENDBRANCH   3   4
ENDBRANCH   2   3
ENDBRANCH   1   2
BRANCH   1  11
ATOM     11  C   UNL     1      13.054 -13.503  36.848  1.00  0.00     0.000 C 
BRANCH  11  12
ATOM     12  C   UNL     1      13.394 -13.249  35.370  1.00  0.00    -0.000 C 
BRANCH  12  13
ATOM     13  C   UNL     1      14.215 -11.965  35.166  1.00  0.00    -0.000 C 
BRANCH  13  14
ATOM     14  C   UNL     1      13.349 -10.692  35.161  1.00  0.00    -0.000 C 
BRANCH  14  15
ATOM     15  C   UNL     1      13.421  -9.844  36.445  1.00  0.00    -0.000 C 
BRANCH  15  16
ATOM     16  C   UNL     1      12.035  -9.484  37.005  1.00  0.00    -0.000 C 
BRANCH  16  17
ATOM     17  C   UNL     1      11.831  -9.989  38.441  1.00  0.00    -0.003 C 
ATOM     18  C   UNL     1      13.122 -10.500  39.080  1.00  0.00     0.004 C 
ENDBRANCH  16  17
ENDBRANCH  15  16
ENDBRANCH  14  15
ENDBRANCH  13  14
ENDBRANCH  12  13
ENDBRANCH  11  12
ENDBRANCH   1  11
TORSDOF 14
ENDMDL
MODEL 6
REMARK VINA RESULT:    -5.646      2.677      5.817
REMARK INTER + INTRA:         -11.951
REMARK INTER:                  -9.885
REMARK INTRA:                  -2.067
REMARK UNBOUND:                -1.685
REMARK SMILES CCCCCCCCCCCCCCCC(=O)[O-]
REMARK SMILES IDX 9 1 10 2 11 3 12 4 13 5 14 6 15 7 16 8 17 9 18 10 8 11 7 12
REMARK SMILES IDX 6 13 5 14 4 15 3 16 2 17 1 18
REMARK H PARENT
REMARK Flexibility Score: inf
ROOT
ATOM      1  C   UNL     1      10.057 -14.739  38.494  1.00  0.00     0.000 C 
ENDROOT
BRANCH   1   2
ATOM      2  C   UNL     1       8.568 -14.836  38.862  1.00  0.00     0.000 C 
BRANCH   2   3
ATOM      3  C   UNL     1       7.867 -13.465  38.862  1.00  0.00     0.000 C 
BRANCH   3   4
ATOM      4  C   UNL     1       8.761 -12.347  38.304  1.00  0.00     0.000 C 
BRANCH   4   5
ATOM      5  C   UNL     1       8.135 -11.643  37.087  1.00  0.00     0.000 C 
BRANCH   5   6
ATOM      6  C   UNL     1       7.243 -12.580  36.252  1.00  0.00     0.006 C 
BRANCH   6   7
ATOM      7  C   UNL     1       8.021 -13.555  35.353  1.00  0.00     0.053 C 
BRANCH   7   8
ATOM      8  C   UNL     1       8.118 -13.062  33.943  1.00  0.00     0.041 C 
ATOM      9  O   UNL     1       8.687 -11.968  33.691  1.00  0.00    -0.550 OA
ATOM     10  O   UNL     1       7.612 -13.830  32.901  1.00  0.00    -0.550 OA
ENDBRANCH   7   8
ENDBRANCH   6   7
ENDBRANCH   5   6
ENDBRANCH   4   5
ENDBRANCH   3   4
ENDBRANCH   2   3
ENDBRANCH   1   2
BRANCH   1  11
ATOM     11  C   UNL     1      10.392 -15.485  37.190  1.00  0.00     0.000 C 
BRANCH  11  12
ATOM     12  C   UNL     1      11.719 -15.018  36.570  1.00  0.00    -0.000 C 
BRANCH  12  13
ATOM     13  C   UNL     1      12.003 -13.531  36.836  1.00  0.00    -0.000 C 
BRANCH  13  14
ATOM     14  C   UNL     1      11.657 -12.628  35.637  1.00  0.00    -0.000 C 
BRANCH  14  15
ATOM     15  C   UNL     1      11.522 -11.128  35.962  1.00  0.00    -0.000 C 
BRANCH  15  16
ATOM     16  C   UNL     1      12.874 -10.395  35.981  1.00  0.00    -0.000 C 
BRANCH  16  17
ATOM     17  C   UNL     1      13.549 -10.440  37.360  1.00  0.00    -0.003 C 
ATOM     18  C   UNL     1      12.567 -10.221  38.510  1.00  0.00     0.004 C 
ENDBRANCH  16  17
ENDBRANCH  15  16
ENDBRANCH  14  15
ENDBRANCH  13  14
ENDBRANCH  12  13
ENDBRANCH  11  12
ENDBRANCH   1  11
TORSDOF 14
ENDMDL
MODEL 7
REMARK VINA RESULT:    -5.622      2.722      5.716
REMARK INTER + INTRA:         -11.908
REMARK INTER:                  -9.984
REMARK INTRA:                  -1.924
REMARK UNBOUND:                -1.685
REMARK SMILES CCCCCCCCCCCCCCCC(=O)[O-]
REMARK SMILES IDX 9 1 10 2 11 3 12 4 13 5 14 6 15 7 16 8 17 9 18 10 8 11 7 12
REMARK SMILES IDX 6 13 5 14 4 15 3 16 2 17 1 18
REMARK H PARENT
REMARK Flexibility Score: inf
ROOT
ATOM      1  C   UNL     1      13.171 -10.634  38.122  1.00  0.00     0.000 C 
ENDROOT
BRANCH   1   2
ATOM      2  C   UNL     1      11.781 -10.111  38.520  1.00  0.00     0.000 C 
BRANCH   2   3
ATOM      3  C   UNL     1      10.772 -11.244  38.778  1.00  0.00     0.000 C 
BRANCH   3   4
ATOM      4  C   UNL     1       9.944 -11.589  37.531  1.00  0.00     0.000 C 
BRANCH   4   5
ATOM      5  C   UNL     1       8.537 -12.105  37.881  1.00  0.00     0.000 C 
BRANCH   5   6
ATOM      6  C   UNL     1       8.158 -13.376  37.100  1.00  0.00     0.006 C 
BRANCH   6   7
ATOM      7  C   UNL     1       8.773 -13.457  35.693  1.00  0.00     0.053 C 
BRANCH   7   8
ATOM      8  C   UNL     1       7.866 -12.883  34.649  1.00  0.00     0.041 C 
ATOM      9  O   UNL     1       7.250 -11.807  34.867  1.00  0.00    -0.550 OA
ATOM     10  O   UNL     1       7.728 -13.517  33.421  1.00  0.00    -0.550 OA
ENDBRANCH   7   8
ENDBRANCH   6   7
ENDBRANCH   5   6
ENDBRANCH   4   5
ENDBRANCH   3   4
ENDBRANCH   2   3
ENDBRANCH   1   2
BRANCH   1  11
ATOM     11  C   UNL     1      13.690  -9.995  36.822  1.00  0.00     0.000 C 
BRANCH  11  12
ATOM     12  C   UNL     1      12.889 -10.441  35.587  1.00  0.00    -0.000 C 
BRANCH  12  13
ATOM     13  C   UNL     1      13.756 -11.197  34.565  1.00  0.00    -0.000 C 
BRANCH  13  14
ATOM     14  C   UNL     1      13.968 -12.677  34.934  1.00  0.00    -0.000 C 
BRANCH  14  15
ATOM     15  C   UNL     1      12.749 -13.377  35.564  1.00  0.00    -0.000 C 
BRANCH  15  16
ATOM     16  C   UNL     1      13.056 -13.994  36.938  1.00  0.00    -0.000 C 
BRANCH  16  17
ATOM     17  C   UNL     1      11.794 -14.517  37.643  1.00  0.00    -0.003 C 
ATOM     18  C   UNL     1      11.097 -15.631  36.864  1.00  0.00     0.004 C 
ENDBRANCH  16  17
ENDBRANCH  15  16
ENDBRANCH  14  15
ENDBRANCH  13  14
ENDBRANCH  12  13
ENDBRANCH  11  12
ENDBRANCH   1  11
TORSDOF 14
ENDMDL
MODEL 8
REMARK VINA RESULT:    -5.588      1.853      4.614
REMARK INTER + INTRA:         -11.847
REMARK INTER:                 -10.048
REMARK INTRA:                  -1.799
REMARK UNBOUND:                -1.685
REMARK SMILES CCCCCCCCCCCCCCCC(=O)[O-]
REMARK SMILES IDX 9 1 10 2 11 3 12 4 13 5 14 6 15 7 16 8 17 9 18 10 8 11 7 12
REMARK SMILES IDX 6 13 5 14 4 15 3 16 2 17 1 18
REMARK H PARENT
REMARK Flexibility Score: inf
ROOT
ATOM      1  C   UNL     1       7.638 -13.135  34.304  1.00  0.00     0.000 C 
ENDROOT
BRANCH   1   2
ATOM      2  C   UNL     1       8.028 -13.891  35.584  1.00  0.00     0.000 C 
BRANCH   2   3
ATOM      3  C   UNL     1       7.415 -13.269  36.852  1.00  0.00     0.000 C 
BRANCH   3   4
ATOM      4  C   UNL     1       8.112 -13.743  38.136  1.00  0.00     0.000 C 
BRANCH   4   5
ATOM      5  C   UNL     1       9.635 -13.526  38.095  1.00  0.00     0.000 C 
BRANCH   5   6
ATOM      6  C   UNL     1      10.422 -14.845  37.996  1.00  0.00     0.006 C 
BRANCH   6   7
ATOM      7  C   UNL     1      11.197 -15.019  36.680  1.00  0.00     0.053 C 
BRANCH   7   8
ATOM      8  C   UNL     1      12.469 -14.230  36.668  1.00  0.00     0.041 C 
ATOM      9  O   UNL     1      13.267 -14.299  37.640  1.00  0.00    -0.550 OA
ATOM     10  O   UNL     1      12.792 -13.446  35.568  1.00  0.00    -0.550 OA
ENDBRANCH   7   8
ENDBRANCH   6   7
ENDBRANCH   5   6
ENDBRANCH   4   5
ENDBRANCH   3   4
ENDBRANCH   2   3
ENDBRANCH   1   2
BRANCH   1  11
ATOM     11  C   UNL     1       8.503 -11.883  34.074  1.00  0.00     0.000 C 
BRANCH  11  12
ATOM     12  C   UNL     1       9.939 -12.056  34.596  1.00  0.00    -0.000 C 
BRANCH  12  13
ATOM     13  C   UNL     1      10.286 -11.051  35.707  1.00  0.00    -0.000 C 
BRANCH  13  14
ATOM     14  C   UNL     1      11.494 -10.162  35.358  1.00  0.00    -0.000 C 
BRANCH  14  15
ATOM     15  C   UNL     1      12.175  -9.479  36.559  1.00  0.00    -0.000 C 
BRANCH  15  16
ATOM     16  C   UNL     1      13.348 -10.296  37.127  1.00  0.00    -0.000 C 
BRANCH  16  17
ATOM     17  C   UNL     1      13.012 -10.945  38.478  1.00  0.00    -0.003 C 
ATOM     18  C   UNL     1      11.765 -10.350  39.130  1.00  0.00     0.004 C 
ENDBRANCH  16  17
ENDBRANCH  15  16
ENDBRANCH  14  15
ENDBRANCH  13  14
ENDBRANCH  12  13
ENDBRANCH  11  12
ENDBRANCH   1  11
TORSDOF 14
ENDMDL
MODEL 9
REMARK VINA RESULT:    -5.578      2.062      3.893
REMARK INTER + INTRA:         -11.828
REMARK INTER:                 -10.099
REMARK INTRA:                  -1.729
REMARK UNBOUND:                -1.685
REMARK SMILES CCCCCCCCCCCCCCCC(=O)[O-]
REMARK SMILES IDX 9 1 10 2 11 3 12 4 13 5 14 6 15 7 16 8 17 9 18 10 8 11 7 12
REMARK SMILES IDX 6 13 5 14 4 15 3 16 2 17 1 18
REMARK H PARENT
REMARK Flexibility Score: inf
ROOT
ATOM      1  C   UNL     1      12.622 -11.067  38.491  1.00  0.00     0.000 C 
ENDROOT
BRANCH   1   2
ATOM      2  C   UNL     1      13.287 -10.153  37.449  1.00  0.00     0.000 C 
BRANCH   2   3
ATOM      3  C   UNL     1      12.319  -9.727  36.330  1.00  0.00     0.000 C 
BRANCH   3   4
ATOM      4  C   UNL     1      12.356 -10.682  35.126  1.00  0.00     0.000 C 
BRANCH   4   5
ATOM      5  C   UNL     1      13.724 -11.367  34.959  1.00  0.00     0.000 C 
BRANCH   5   6
ATOM      6  C   UNL     1      13.655 -12.890  35.168  1.00  0.00     0.006 C 
BRANCH   6   7
ATOM      7  C   UNL     1      12.268 -13.408  35.582  1.00  0.00     0.053 C 
BRANCH   7   8
ATOM      8  C   UNL     1      12.353 -14.431  36.673  1.00  0.00     0.041 C 
ATOM      9  O   UNL     1      13.298 -14.394  37.504  1.00  0.00    -0.550 OA
ATOM     10  O   UNL     1      11.369 -15.403  36.794  1.00  0.00    -0.550 OA
ENDBRANCH   7   8
ENDBRANCH   6   7
ENDBRANCH   5   6
ENDBRANCH   4   5
ENDBRANCH   3   4
ENDBRANCH   2   3
ENDBRANCH   1   2
BRANCH   1  11
ATOM     11  C   UNL     1      11.112 -10.803  38.627  1.00  0.00     0.000 C 
BRANCH  11  12
ATOM     12  C   UNL     1      10.265 -12.034  38.263  1.00  0.00    -0.000 C 
BRANCH  12  13
ATOM     13  C   UNL     1       8.761 -11.801  38.484  1.00  0.00    -0.000 C 
BRANCH  13  14
ATOM     14  C   UNL     1       8.013 -13.075  38.918  1.00  0.00    -0.000 C 
BRANCH  14  15
ATOM     15  C   UNL     1       7.850 -14.145  37.822  1.00  0.00    -0.000 C 
BRANCH  15  16
ATOM     16  C   UNL     1       7.357 -13.565  36.486  1.00  0.00    -0.000 C 
BRANCH  16  17
ATOM     17  C   UNL     1       8.383 -13.739  35.355  1.00  0.00    -0.003 C 
ATOM     18  C   UNL     1       7.882 -13.207  34.012  1.00  0.00     0.004 C 
ENDBRANCH  16  17
ENDBRANCH  15  16
ENDBRANCH  14  15
ENDBRANCH  13  14
ENDBRANCH  12  13
ENDBRANCH  11  12
ENDBRANCH   1  11
TORSDOF 14
ENDMDL
