MODEL 1
REMARK VINA RESULT:    22.654      0.000      0.000
REMARK INTER + INTRA:          47.970
REMARK INTER:                  49.141
REMARK INTRA:                  -1.171
REMARK UNBOUND:                -1.171
REMARK SMILES CCCCCCCCCCCCCCCCCCCCCC(=O)[O-]
REMARK SMILES IDX 12 1 11 2 10 3 9 4 8 5 7 6 6 7 5 8 4 9 3 10 2 11 1 12 13 13
REMARK SMILES IDX 14 14 15 15 16 16 17 17 18 18 19 19 20 20 21 21 22 22 23 23
REMARK SMILES IDX 24 24
REMARK H PARENT
REMARK Flexibility Score: inf
ROOT
ATOM      1  C   UNL     1      55.481  52.914  18.405  1.00  0.00     0.000 C 
ENDROOT
BRANCH   1   2
ATOM      2  C   UNL     1      54.533  53.338  19.543  1.00  0.00     0.000 C 
BRANCH   2   3
ATOM      3  C   UNL     1      54.952  52.867  20.948  1.00  0.00     0.000 C 
BRANCH   3   4
ATOM      4  C   UNL     1      53.766  52.354  21.784  1.00  0.00    -0.000 C 
BRANCH   4   5
ATOM      5  C   UNL     1      53.047  53.486  22.536  1.00  0.00    -0.000 C 
BRANCH   5   6
ATOM      6  C   UNL     1      53.985  54.664  22.860  1.00  0.00    -0.000 C 
BRANCH   6   7
ATOM      7  C   UNL     1      53.363  55.670  23.844  1.00  0.00    -0.000 C 
BRANCH   7   8
ATOM      8  C   UNL     1      54.202  56.936  24.100  1.00  0.00    -0.000 C 
BRANCH   8   9
ATOM      9  C   UNL     1      54.915  56.919  25.460  1.00  0.00    -0.000 C 
BRANCH   9  10
ATOM     10  C   UNL     1      56.100  55.943  25.446  1.00  0.00    -0.000 C 
BRANCH  10  11
ATOM     11  C   UNL     1      57.442  56.647  25.187  1.00  0.00    -0.003 C 
ATOM     12  C   UNL     1      58.116  57.125  26.474  1.00  0.00     0.004 C 
ENDBRANCH  10  11
ENDBRANCH   9  10
ENDBRANCH   8   9
ENDBRANCH   7   8
ENDBRANCH   6   7
ENDBRANCH   5   6
ENDBRANCH   4   5
ENDBRANCH   3   4
ENDBRANCH   2   3
ENDBRANCH   1   2
BRANCH   1  13
ATOM     13  C   UNL     1      54.972  51.752  17.530  1.00  0.00     0.000 C 
BRANCH  13  14
ATOM     14  C   UNL     1      55.828  51.501  16.271  1.00  0.00     0.000 C 
BRANCH  14  15
ATOM     15  C   UNL     1      55.358  50.269  15.478  1.00  0.00     0.000 C 
BRANCH  15  16
ATOM     16  C   UNL     1      55.572  48.955  16.246  1.00  0.00     0.000 C 
BRANCH  16  17
ATOM     17  C   UNL     1      57.003  48.822  16.797  1.00  0.00     0.000 C 
BRANCH  17  18
ATOM     18  C   UNL     1      57.092  47.832  17.969  1.00  0.00     0.000 C 
BRANCH  18  19
ATOM     19  C   UNL     1      55.992  48.061  19.019  1.00  0.00     0.000 C 
BRANCH  19  20
ATOM     20  C   UNL     1      56.187  47.194  20.273  1.00  0.00     0.006 C 
BRANCH  20  21
ATOM     21  C   UNL     1      56.638  48.013  21.488  1.00  0.00     0.053 C 
BRANCH  21  22
ATOM     22  C   UNL     1      56.889  47.116  22.659  1.00  0.00     0.041 C 
ATOM     23  O   UNL     1      57.654  46.123  22.543  1.00  0.00    -0.550 OA
ATOM     24  O   UNL     1      56.245  47.353  23.866  1.00  0.00    -0.550 OA
ENDBRANCH  21  22
ENDBRANCH  20  21
ENDBRANCH  19  20
ENDBRANCH  18  19
ENDBRANCH  17  18
ENDBRANCH  16  17
ENDBRANCH  15  16
ENDBRANCH  14  15
ENDBRANCH  13  14
ENDBRANCH   1  13
TORSDOF 20
ENDMDL
MODEL 2
REMARK VINA RESULT:    24.296      2.927      8.485
REMARK INTER + INTRA:          51.533
REMARK INTER:                  52.631
REMARK INTRA:                  -1.098
REMARK UNBOUND:                -1.171
REMARK SMILES CCCCCCCCCCCCCCCCCCCCCC(=O)[O-]
REMARK SMILES IDX 12 1 11 2 10 3 9 4 8 5 7 6 6 7 5 8 4 9 3 10 2 11 1 12 13 13
REMARK SMILES IDX 14 14 15 15 16 16 17 17 18 18 19 19 20 20 21 21 22 22 23 23
REMARK SMILES IDX 24 24
REMARK H PARENT
REMARK Flexibility Score: inf
ROOT
ATOM      1  C   UNL     1      56.087  52.033  17.221  1.00  0.00     0.000 C 
ENDROOT
BRANCH   1   2
ATOM      2  C   UNL     1      55.374  51.567  15.938  1.00  0.00     0.000 C 
BRANCH   2   3
ATOM      3  C   UNL     1      55.280  50.039  15.765  1.00  0.00     0.000 C 
BRANCH   3   4
ATOM      4  C   UNL     1      55.592  49.270  17.062  1.00  0.00    -0.000 C 
BRANCH   4   5
ATOM      5  C   UNL     1      56.926  48.510  16.984  1.00  0.00    -0.000 C 
BRANCH   5   6
ATOM      6  C   UNL     1      57.196  47.669  18.245  1.00  0.00    -0.000 C 
BRANCH   6   7
ATOM      7  C   UNL     1      56.076  47.786  19.294  1.00  0.00    -0.000 C 
BRANCH   7   8
ATOM      8  C   UNL     1      56.391  47.145  20.658  1.00  0.00    -0.000 C 
BRANCH   8   9
ATOM      9  C   UNL     1      57.054  48.120  21.641  1.00  0.00    -0.000 C 
BRANCH   9  10
ATOM     10  C   UNL     1      56.682  47.776  23.091  1.00  0.00    -0.000 C 
BRANCH  10  11
ATOM     11  C   UNL     1      57.020  46.322  23.457  1.00  0.00    -0.003 C 
ATOM     12  C   UNL     1      56.156  45.784  24.598  1.00  0.00     0.004 C 
ENDBRANCH  10  11
ENDBRANCH   9  10
ENDBRANCH   8   9
ENDBRANCH   7   8
ENDBRANCH   6   7
ENDBRANCH   5   6
ENDBRANCH   4   5
ENDBRANCH   3   4
ENDBRANCH   2   3
ENDBRANCH   1   2
BRANCH   1  13
ATOM     13  C   UNL     1      55.236  52.910  18.159  1.00  0.00     0.000 C 
BRANCH  13  14
ATOM     14  C   UNL     1      55.694  52.871  19.633  1.00  0.00     0.000 C 
BRANCH  14  15
ATOM     15  C   UNL     1      54.514  52.754  20.613  1.00  0.00     0.000 C 
BRANCH  15  16
ATOM     16  C   UNL     1      54.769  53.491  21.936  1.00  0.00     0.000 C 
BRANCH  16  17
ATOM     17  C   UNL     1      53.476  53.735  22.734  1.00  0.00     0.000 C 
BRANCH  17  18
ATOM     18  C   UNL     1      53.216  55.227  22.991  1.00  0.00     0.000 C 
BRANCH  18  19
ATOM     19  C   UNL     1      53.422  55.615  24.465  1.00  0.00     0.000 C 
BRANCH  19  20
ATOM     20  C   UNL     1      54.439  56.755  24.636  1.00  0.00     0.006 C 
BRANCH  20  21
ATOM     21  C   UNL     1      55.434  56.489  25.772  1.00  0.00     0.053 C 
BRANCH  21  22
ATOM     22  C   UNL     1      56.838  56.527  25.257  1.00  0.00     0.041 C 
ATOM     23  O   UNL     1      57.798  56.717  26.049  1.00  0.00    -0.550 OA
ATOM     24  O   UNL     1      57.082  56.397  23.897  1.00  0.00    -0.550 OA
ENDBRANCH  21  22
ENDBRANCH  20  21
ENDBRANCH  19  20
ENDBRANCH  18  19
ENDBRANCH  17  18
ENDBRANCH  16  17
ENDBRANCH  15  16
ENDBRANCH  14  15
ENDBRANCH  13  14
ENDBRANCH   1  13
TORSDOF 20
ENDMDL
MODEL 3
REMARK VINA RESULT:    24.429      4.095     10.585
REMARK INTER + INTRA:          51.821
REMARK INTER:                  50.296
REMARK INTRA:                   1.525
REMARK UNBOUND:                -1.171
REMARK SMILES CCCCCCCCCCCCCCCCCCCCCC(=O)[O-]
REMARK SMILES IDX 12 1 11 2 10 3 9 4 8 5 7 6 6 7 5 8 4 9 3 10 2 11 1 12 13 13
REMARK SMILES IDX 14 14 15 15 16 16 17 17 18 18 19 19 20 20 21 21 22 22 23 23
REMARK SMILES IDX 24 24
REMARK H PARENT
REMARK Flexibility Score: inf
ROOT
ATOM      1  C   UNL     1      54.978  49.277  19.705  1.00  0.00     0.000 C 
ENDROOT
BRANCH   1   2
ATOM      2  C   UNL     1      56.059  48.207  19.465  1.00  0.00     0.000 C 
BRANCH   2   3
ATOM      3  C   UNL     1      56.053  47.039  20.468  1.00  0.00     0.000 C 
BRANCH   3   4
ATOM      4  C   UNL     1      56.784  47.373  21.780  1.00  0.00    -0.000 C 
BRANCH   4   5
ATOM      5  C   UNL     1      56.813  46.184  22.754  1.00  0.00    -0.000 C 
BRANCH   5   6
ATOM      6  C   UNL     1      57.086  44.848  22.041  1.00  0.00    -0.000 C 
BRANCH   6   7
ATOM      7  C   UNL     1      56.215  44.649  20.787  1.00  0.00    -0.000 C 
BRANCH   7   8
ATOM      8  C   UNL     1      55.930  43.182  20.417  1.00  0.00    -0.000 C 
BRANCH   8   9
ATOM      9  C   UNL     1      55.935  42.244  21.632  1.00  0.00    -0.000 C 
BRANCH   9  10
ATOM     10  C   UNL     1      55.106  40.982  21.355  1.00  0.00    -0.000 C 
BRANCH  10  11
ATOM     11  C   UNL     1      55.820  40.001  20.411  1.00  0.00    -0.003 C 
ATOM     12  C   UNL     1      56.488  38.844  21.155  1.00  0.00     0.004 C 
ENDBRANCH  10  11
ENDBRANCH   9  10
ENDBRANCH   8   9
ENDBRANCH   7   8
ENDBRANCH   6   7
ENDBRANCH   5   6
ENDBRANCH   4   5
ENDBRANCH   3   4
ENDBRANCH   2   3
ENDBRANCH   1   2
BRANCH   1  13
ATOM     13  C   UNL     1      55.313  50.312  20.796  1.00  0.00     0.000 C 
BRANCH  13  14
ATOM     14  C   UNL     1      54.572  51.656  20.627  1.00  0.00     0.000 C 
BRANCH  14  15
ATOM     15  C   UNL     1      53.739  52.026  21.867  1.00  0.00     0.000 C 
BRANCH  15  16
ATOM     16  C   UNL     1      53.221  53.472  21.820  1.00  0.00     0.000 C 
BRANCH  16  17
ATOM     17  C   UNL     1      53.431  54.217  23.150  1.00  0.00     0.000 C 
BRANCH  17  18
ATOM     18  C   UNL     1      54.393  55.407  23.013  1.00  0.00     0.000 C 
BRANCH  18  19
ATOM     19  C   UNL     1      54.005  56.586  23.922  1.00  0.00     0.000 C 
BRANCH  19  20
ATOM     20  C   UNL     1      54.332  56.319  25.400  1.00  0.00     0.006 C 
BRANCH  20  21
ATOM     21  C   UNL     1      55.543  57.125  25.887  1.00  0.00     0.053 C 
BRANCH  21  22
ATOM     22  C   UNL     1      56.809  56.555  25.330  1.00  0.00     0.041 C 
ATOM     23  O   UNL     1      56.921  56.352  24.092  1.00  0.00    -0.550 OA
ATOM     24  O   UNL     1      57.848  56.207  26.182  1.00  0.00    -0.550 OA
ENDBRANCH  21  22
ENDBRANCH  20  21
ENDBRANCH  19  20
ENDBRANCH  18  19
ENDBRANCH  17  18
ENDBRANCH  16  17
ENDBRANCH  15  16
ENDBRANCH  14  15
ENDBRANCH  13  14
ENDBRANCH   1  13
TORSDOF 20
ENDMDL
MODEL 4
REMARK VINA RESULT:    24.611      4.689     11.041
REMARK INTER + INTRA:          52.216
REMARK INTER:                  51.915
REMARK INTRA:                   0.301
REMARK UNBOUND:                -1.171
REMARK SMILES CCCCCCCCCCCCCCCCCCCCCC(=O)[O-]
REMARK SMILES IDX 12 1 11 2 10 3 9 4 8 5 7 6 6 7 5 8 4 9 3 10 2 11 1 12 13 13
REMARK SMILES IDX 14 14 15 15 16 16 17 17 18 18 19 19 20 20 21 21 22 22 23 23
REMARK SMILES IDX 24 24
REMARK H PARENT
REMARK Flexibility Score: inf
ROOT
ATOM      1  C   UNL     1      56.701  48.510  20.791  1.00  0.00     0.000 C 
ENDROOT
BRANCH   1   2
ATOM      2  C   UNL     1      56.728  47.444  21.902  1.00  0.00     0.000 C 
BRANCH   2   3
ATOM      3  C   UNL     1      56.645  45.987  21.407  1.00  0.00     0.000 C 
BRANCH   3   4
ATOM      4  C   UNL     1      55.409  45.724  20.528  1.00  0.00    -0.000 C 
BRANCH   4   5
ATOM      5  C   UNL     1      55.367  44.283  19.995  1.00  0.00    -0.000 C 
BRANCH   5   6
ATOM      6  C   UNL     1      56.669  43.513  20.278  1.00  0.00    -0.000 C 
BRANCH   6   7
ATOM      7  C   UNL     1      56.421  42.121  20.885  1.00  0.00    -0.000 C 
BRANCH   7   8
ATOM      8  C   UNL     1      54.943  41.774  21.141  1.00  0.00    -0.000 C 
BRANCH   8   9
ATOM      9  C   UNL     1      54.636  40.281  20.960  1.00  0.00    -0.000 C 
BRANCH   9  10
ATOM     10  C   UNL     1      55.742  39.588  20.151  1.00  0.00    -0.000 C 
BRANCH  10  11
ATOM     11  C   UNL     1      56.907  39.109  21.032  1.00  0.00    -0.003 C 
ATOM     12  C   UNL     1      56.658  37.729  21.641  1.00  0.00     0.004 C 
ENDBRANCH  10  11
ENDBRANCH   9  10
ENDBRANCH   8   9
ENDBRANCH   7   8
ENDBRANCH   6   7
ENDBRANCH   5   6
ENDBRANCH   4   5
ENDBRANCH   3   4
ENDBRANCH   2   3
ENDBRANCH   1   2
BRANCH   1  13
ATOM     13  C   UNL     1      55.395  48.569  19.975  1.00  0.00     0.000 C 
BRANCH  13  14
ATOM     14  C   UNL     1      54.681  49.936  20.042  1.00  0.00     0.000 C 
BRANCH  14  15
ATOM     15  C   UNL     1      55.331  50.888  21.061  1.00  0.00     0.000 C 
BRANCH  15  16
ATOM     16  C   UNL     1      54.873  52.344  20.884  1.00  0.00     0.000 C 
BRANCH  16  17
ATOM     17  C   UNL     1      53.739  52.727  21.851  1.00  0.00     0.000 C 
BRANCH  17  18
ATOM     18  C   UNL     1      53.762  54.216  22.227  1.00  0.00     0.000 C 
BRANCH  18  19
ATOM     19  C   UNL     1      53.810  54.440  23.748  1.00  0.00     0.000 C 
BRANCH  19  20
ATOM     20  C   UNL     1      53.496  55.893  24.138  1.00  0.00     0.006 C 
BRANCH  20  21
ATOM     21  C   UNL     1      54.700  56.825  23.951  1.00  0.00     0.053 C 
BRANCH  21  22
ATOM     22  C   UNL     1      55.843  56.379  24.808  1.00  0.00     0.041 C 
ATOM     23  O   UNL     1      56.245  57.104  25.756  1.00  0.00    -0.550 OA
ATOM     24  O   UNL     1      56.492  55.184  24.532  1.00  0.00    -0.550 OA
ENDBRANCH  21  22
ENDBRANCH  20  21
ENDBRANCH  19  20
ENDBRANCH  18  19
ENDBRANCH  17  18
ENDBRANCH  16  17
ENDBRANCH  15  16
ENDBRANCH  14  15
ENDBRANCH  13  14
ENDBRANCH   1  13
TORSDOF 20
ENDMDL
MODEL 5
REMARK VINA RESULT:    24.927      3.860      5.260
REMARK INTER + INTRA:          52.902
REMARK INTER:                  53.366
REMARK INTRA:                  -0.464
REMARK UNBOUND:                -1.171
REMARK SMILES CCCCCCCCCCCCCCCCCCCCCC(=O)[O-]
REMARK SMILES IDX 12 1 11 2 10 3 9 4 8 5 7 6 6 7 5 8 4 9 3 10 2 11 1 12 13 13
REMARK SMILES IDX 14 14 15 15 16 16 17 17 18 18 19 19 20 20 21 21 22 22 23 23
REMARK SMILES IDX 24 24
REMARK H PARENT
REMARK Flexibility Score: inf
ROOT
ATOM      1  C   UNL     1      55.113  49.034  20.129  1.00  0.00     0.000 C 
ENDROOT
BRANCH   1   2
ATOM      2  C   UNL     1      55.433  50.498  20.485  1.00  0.00     0.000 C 
BRANCH   2   3
ATOM      3  C   UNL     1      54.282  51.269  21.157  1.00  0.00     0.000 C 
BRANCH   3   4
ATOM      4  C   UNL     1      54.383  52.792  20.953  1.00  0.00    -0.000 C 
BRANCH   4   5
ATOM      5  C   UNL     1      54.650  53.542  22.268  1.00  0.00    -0.000 C 
BRANCH   5   6
ATOM      6  C   UNL     1      53.378  54.193  22.841  1.00  0.00    -0.000 C 
BRANCH   6   7
ATOM      7  C   UNL     1      53.682  55.280  23.887  1.00  0.00    -0.000 C 
BRANCH   7   8
ATOM      8  C   UNL     1      54.622  56.402  23.408  1.00  0.00    -0.000 C 
BRANCH   8   9
ATOM      9  C   UNL     1      56.016  56.331  24.047  1.00  0.00    -0.000 C 
BRANCH   9  10
ATOM     10  C   UNL     1      55.998  56.910  25.469  1.00  0.00    -0.000 C 
BRANCH  10  11
ATOM     11  C   UNL     1      57.393  56.937  26.114  1.00  0.00    -0.003 C 
ATOM     12  C   UNL     1      58.084  55.573  26.087  1.00  0.00     0.004 C 
ENDBRANCH  10  11
ENDBRANCH   9  10
ENDBRANCH   8   9
ENDBRANCH   7   8
ENDBRANCH   6   7
ENDBRANCH   5   6
ENDBRANCH   4   5
ENDBRANCH   3   4
ENDBRANCH   2   3
ENDBRANCH   1   2
BRANCH   1  13
ATOM     13  C   UNL     1      56.275  48.043  20.335  1.00  0.00     0.000 C 
BRANCH  13  14
ATOM     14  C   UNL     1      56.678  47.856  21.813  1.00  0.00     0.000 C 
BRANCH  14  15
ATOM     15  C   UNL     1      57.536  46.598  22.033  1.00  0.00     0.000 C 
BRANCH  15  16
ATOM     16  C   UNL     1      56.692  45.362  22.384  1.00  0.00     0.000 C 
BRANCH  16  17
ATOM     17  C   UNL     1      57.263  44.068  21.778  1.00  0.00     0.000 C 
BRANCH  17  18
ATOM     18  C   UNL     1      56.229  43.309  20.932  1.00  0.00     0.000 C 
BRANCH  18  19
ATOM     19  C   UNL     1      55.794  41.985  21.583  1.00  0.00     0.000 C 
BRANCH  19  20
ATOM     20  C   UNL     1      54.973  41.103  20.628  1.00  0.00     0.006 C 
BRANCH  20  21
ATOM     21  C   UNL     1      55.036  39.617  21.001  1.00  0.00     0.053 C 
BRANCH  21  22
ATOM     22  C   UNL     1      56.452  39.136  20.992  1.00  0.00     0.041 C 
ATOM     23  O   UNL     1      57.333  39.769  20.352  1.00  0.00    -0.550 OA
ATOM     24  O   UNL     1      56.792  37.964  21.654  1.00  0.00    -0.550 OA
ENDBRANCH  21  22
ENDBRANCH  20  21
ENDBRANCH  19  20
ENDBRANCH  18  19
ENDBRANCH  17  18
ENDBRANCH  16  17
ENDBRANCH  15  16
ENDBRANCH  14  15
ENDBRANCH  13  14
ENDBRANCH   1  13
TORSDOF 20
ENDMDL
MODEL 6
REMARK VINA RESULT:    24.994      4.136      5.891
REMARK INTER + INTRA:          53.045
REMARK INTER:                  53.514
REMARK INTRA:                  -0.469
REMARK UNBOUND:                -1.171
REMARK SMILES CCCCCCCCCCCCCCCCCCCCCC(=O)[O-]
REMARK SMILES IDX 12 1 11 2 10 3 9 4 8 5 7 6 6 7 5 8 4 9 3 10 2 11 1 12 13 13
REMARK SMILES IDX 14 14 15 15 16 16 17 17 18 18 19 19 20 20 21 21 22 22 23 23
REMARK SMILES IDX 24 24
REMARK H PARENT
REMARK Flexibility Score: inf
ROOT
ATOM      1  C   UNL     1      56.307  47.431  20.709  1.00  0.00     0.000 C 
ENDROOT
BRANCH   1   2
ATOM      2  C   UNL     1      55.542  48.565  20.002  1.00  0.00     0.000 C 
BRANCH   2   3
ATOM      3  C   UNL     1      55.826  49.978  20.545  1.00  0.00     0.000 C 
BRANCH   3   4
ATOM      4  C   UNL     1      54.545  50.802  20.768  1.00  0.00    -0.000 C 
BRANCH   4   5
ATOM      5  C   UNL     1      54.822  52.313  20.816  1.00  0.00    -0.000 C 
BRANCH   5   6
ATOM      6  C   UNL     1      53.781  53.074  21.657  1.00  0.00    -0.000 C 
BRANCH   6   7
ATOM      7  C   UNL     1      54.411  54.150  22.559  1.00  0.00    -0.000 C 
BRANCH   7   8
ATOM      8  C   UNL     1      53.406  55.022  23.334  1.00  0.00    -0.000 C 
BRANCH   8   9
ATOM      9  C   UNL     1      53.987  55.598  24.633  1.00  0.00    -0.000 C 
BRANCH   9  10
ATOM     10  C   UNL     1      55.063  56.652  24.333  1.00  0.00    -0.000 C 
BRANCH  10  11
ATOM     11  C   UNL     1      56.485  56.142  24.618  1.00  0.00    -0.003 C 
ATOM     12  C   UNL     1      57.134  56.838  25.815  1.00  0.00     0.004 C 
ENDBRANCH  10  11
ENDBRANCH   9  10
ENDBRANCH   8   9
ENDBRANCH   7   8
ENDBRANCH   6   7
ENDBRANCH   5   6
ENDBRANCH   4   5
ENDBRANCH   3   4
ENDBRANCH   2   3
ENDBRANCH   1   2
BRANCH   1  13
ATOM     13  C   UNL     1      56.875  47.791  22.095  1.00  0.00     0.000 C 
BRANCH  13  14
ATOM     14  C   UNL     1      57.647  46.636  22.770  1.00  0.00     0.000 C 
BRANCH  14  15
ATOM     15  C   UNL     1      56.768  45.393  22.993  1.00  0.00     0.000 C 
BRANCH  15  16
ATOM     16  C   UNL     1      57.064  44.272  21.985  1.00  0.00     0.000 C 
BRANCH  16  17
ATOM     17  C   UNL     1      56.149  44.335  20.749  1.00  0.00     0.000 C 
BRANCH  17  18
ATOM     18  C   UNL     1      55.422  43.007  20.487  1.00  0.00     0.000 C 
BRANCH  18  19
ATOM     19  C   UNL     1      56.080  41.822  21.213  1.00  0.00     0.000 C 
BRANCH  19  20
ATOM     20  C   UNL     1      56.028  40.525  20.388  1.00  0.00     0.006 C 
BRANCH  20  21
ATOM     21  C   UNL     1      55.608  39.312  21.227  1.00  0.00     0.053 C 
BRANCH  21  22
ATOM     22  C   UNL     1      56.747  38.352  21.364  1.00  0.00     0.041 C 
ATOM     23  O   UNL     1      56.619  37.314  22.065  1.00  0.00    -0.550 OA
ATOM     24  O   UNL     1      57.963  38.626  20.753  1.00  0.00    -0.550 OA
ENDBRANCH  21  22
ENDBRANCH  20  21
ENDBRANCH  19  20
ENDBRANCH  18  19
ENDBRANCH  17  18
ENDBRANCH  16  17
ENDBRANCH  15  16
ENDBRANCH  14  15
ENDBRANCH  13  14
ENDBRANCH   1  13
TORSDOF 20
ENDMDL
MODEL 7
REMARK VINA RESULT:    25.465      2.158      3.232
REMARK INTER + INTRA:          54.068
REMARK INTER:                  55.093
REMARK INTRA:                  -1.025
REMARK UNBOUND:                -1.171
REMARK SMILES CCCCCCCCCCCCCCCCCCCCCC(=O)[O-]
REMARK SMILES IDX 12 1 11 2 10 3 9 4 8 5 7 6 6 7 5 8 4 9 3 10 2 11 1 12 13 13
REMARK SMILES IDX 14 14 15 15 16 16 17 17 18 18 19 19 20 20 21 21 22 22 23 23
REMARK SMILES IDX 24 24
REMARK H PARENT
REMARK Flexibility Score: inf
ROOT
ATOM      1  C   UNL     1      54.910  52.858  20.546  1.00  0.00     0.000 C 
ENDROOT
BRANCH   1   2
ATOM      2  C   UNL     1      53.811  53.294  21.533  1.00  0.00     0.000 C 
BRANCH   2   3
ATOM      3  C   UNL     1      54.298  54.164  22.707  1.00  0.00     0.000 C 
BRANCH   3   4
ATOM      4  C   UNL     1      53.323  55.304  23.050  1.00  0.00    -0.000 C 
BRANCH   4   5
ATOM      5  C   UNL     1      54.050  56.579  23.507  1.00  0.00    -0.000 C 
BRANCH   5   6
ATOM      6  C   UNL     1      55.419  56.277  24.143  1.00  0.00    -0.000 C 
BRANCH   6   7
ATOM      7  C   UNL     1      55.335  56.038  25.661  1.00  0.00    -0.000 C 
BRANCH   7   8
ATOM      8  C   UNL     1      53.906  55.951  26.230  1.00  0.00    -0.000 C 
BRANCH   8   9
ATOM      9  C   UNL     1      53.472  54.513  26.545  1.00  0.00    -0.000 C 
BRANCH   9  10
ATOM     10  C   UNL     1      52.823  54.428  27.935  1.00  0.00    -0.000 C 
BRANCH  10  11
ATOM     11  C   UNL     1      52.353  53.006  28.281  1.00  0.00    -0.003 C 
ATOM     12  C   UNL     1      50.976  52.985  28.947  1.00  0.00     0.004 C 
ENDBRANCH  10  11
ENDBRANCH   9  10
ENDBRANCH   8   9
ENDBRANCH   7   8
ENDBRANCH   6   7
ENDBRANCH   5   6
ENDBRANCH   4   5
ENDBRANCH   3   4
ENDBRANCH   2   3
ENDBRANCH   1   2
BRANCH   1  13
ATOM     13  C   UNL     1      54.754  53.403  19.113  1.00  0.00     0.000 C 
BRANCH  13  14
ATOM     14  C   UNL     1      55.581  52.632  18.062  1.00  0.00     0.000 C 
BRANCH  14  15
ATOM     15  C   UNL     1      54.794  51.468  17.435  1.00  0.00     0.000 C 
BRANCH  15  16
ATOM     16  C   UNL     1      55.601  50.719  16.363  1.00  0.00     0.000 C 
BRANCH  16  17
ATOM     17  C   UNL     1      55.667  49.205  16.627  1.00  0.00     0.000 C 
BRANCH  17  18
ATOM     18  C   UNL     1      57.104  48.707  16.845  1.00  0.00     0.000 C 
BRANCH  18  19
ATOM     19  C   UNL     1      57.204  47.676  17.981  1.00  0.00     0.000 C 
BRANCH  19  20
ATOM     20  C   UNL     1      56.163  47.916  19.086  1.00  0.00     0.006 C 
BRANCH  20  21
ATOM     21  C   UNL     1      56.336  46.962  20.274  1.00  0.00     0.053 C 
BRANCH  21  22
ATOM     22  C   UNL     1      56.579  47.734  21.532  1.00  0.00     0.041 C 
ATOM     23  O   UNL     1      56.637  48.992  21.503  1.00  0.00    -0.550 OA
ATOM     24  O   UNL     1      56.786  47.063  22.730  1.00  0.00    -0.550 OA
ENDBRANCH  21  22
ENDBRANCH  20  21
ENDBRANCH  19  20
ENDBRANCH  18  19
ENDBRANCH  17  18
ENDBRANCH  16  17
ENDBRANCH  15  16
ENDBRANCH  14  15
ENDBRANCH  13  14
ENDBRANCH   1  13
TORSDOF 20
ENDMDL
