MODEL 1
REMARK VINA RESULT:     7.208      0.000      0.000
REMARK INTER + INTRA:          14.663
REMARK INTER:                  11.843
REMARK INTRA:                   2.820
REMARK UNBOUND:                 2.820
REMARK SMILES C[C@H]1O[C@H](OC[C@@H]2O[C@H](Oc3c(-c4ccc(O)c(O)c4)oc4cc(O)cc(O)c4c3=O)[C@@H](O)[C@@H](O)[C@H]2O)[C@@H](O)[C@@H](O)[C@H]1O
REMARK SMILES IDX 7 1 36 2 34 3 32 4 9 5 8 6 6 7 5 8 4 9 1 10 2 11 42 12 3 13
REMARK SMILES IDX 40 14 38 15 43 16 41 18 39 20 37 22 35 24 10 26 11 27 12 28
REMARK SMILES IDX 30 29 21 30 29 31 31 32 22 33 27 34 23 35 26 36 24 37 13 38
REMARK SMILES IDX 20 39 14 40 18 41 15 42 16 43 19 44 17 46 28 48 25 50 33 52
REMARK H PARENT 43 17 41 19 39 21 37 23 35 25 19 45 17 47 28 49 25 51 33 53
REMARK Flexibility Score: inf
ROOT
ATOM      1  C   UNL     1     155.118 146.732 131.982  1.00  0.00     0.180 C 
ATOM      2  C   UNL     1     156.456 146.845 131.283  1.00  0.00     0.177 C 
ATOM      3  C   UNL     1     156.278 146.675 129.733  1.00  0.00     0.180 C 
ATOM      4  C   UNL     1     154.816 146.745 129.152  1.00  0.00     0.214 C 
ATOM      5  C   UNL     1     153.759 147.425 130.101  1.00  0.00     0.339 C 
ATOM      6  O   UNL     1     154.252 147.708 131.390  1.00  0.00    -0.332 OA
ENDROOT
BRANCH   1   7
ATOM      7  C   UNL     1     154.554 145.310 131.909  1.00  0.00     0.198 C 
BRANCH   7   8
ATOM      8  O   UNL     1     153.534 145.094 132.881  1.00  0.00    -0.347 OA
BRANCH   8   9
ATOM      9  C   UNL     1     154.003 145.081 134.228  1.00  0.00     0.281 C 
ATOM     10  C   UNL     1     157.121 147.195 134.586  1.00  0.00     0.041 C 
ATOM     11  C   UNL     1     155.611 146.813 134.612  1.00  0.00     0.150 C 
ATOM     12  C   UNL     1     154.932 147.300 135.958  1.00  0.00     0.174 C 
ATOM     13  O   UNL     1     155.381 145.442 134.327  1.00  0.00    -0.344 OA
ATOM     14  C   UNL     1     153.427 147.053 135.865  1.00  0.00     0.179 C 
ATOM     15  C   UNL     1     153.105 145.559 135.395  1.00  0.00     0.202 C 
BRANCH  12  16
ATOM     16  O   UNL     1     155.443 146.724 137.123  1.00  0.00    -0.388 OA
ATOM     17  H   UNL     1     154.682 146.627 137.777  1.00  0.00     0.211 HD
ENDBRANCH  12  16
BRANCH  14  18
ATOM     18  O   UNL     1     152.821 147.366 137.089  1.00  0.00    -0.387 OA
ATOM     19  H   UNL     1     153.280 148.161 137.439  1.00  0.00     0.211 HD
ENDBRANCH  14  18
BRANCH  15  20
ATOM     20  O   UNL     1     153.240 144.620 136.440  1.00  0.00    -0.385 OA
ATOM     21  H   UNL     1     153.665 143.774 136.003  1.00  0.00     0.211 HD
ENDBRANCH  15  20
ENDBRANCH   8   9
ENDBRANCH   7   8
ENDBRANCH   1   7
BRANCH   2  22
ATOM     22  O   UNL     1     156.987 148.135 131.571  1.00  0.00    -0.387 OA
ATOM     23  H   UNL     1     156.685 148.353 132.501  1.00  0.00     0.211 HD
ENDBRANCH   2  22
BRANCH   3  24
ATOM     24  O   UNL     1     157.082 147.633 129.100  1.00  0.00    -0.387 OA
ATOM     25  H   UNL     1     156.609 148.523 129.233  1.00  0.00     0.211 HD
ENDBRANCH   3  24
BRANCH   5  26
ATOM     26  O   UNL     1     152.537 146.675 130.248  1.00  0.00    -0.454 OA
BRANCH  26  27
ATOM     27  C   UNL     1     151.635 146.704 131.342  1.00  0.00     0.214 A 
ATOM     28  C   UNL     1     150.875 145.578 131.696  1.00  0.00     0.180 A 
ATOM     29  C   UNL     1     151.435 147.847 132.141  1.00  0.00     0.239 A 
ATOM     30  O   UNL     1     149.953 145.673 132.712  1.00  0.00    -0.452 OA
ATOM     31  C   UNL     1     150.654 147.862 133.268  1.00  0.00     0.111 A 
ATOM     32  O   UNL     1     151.932 148.922 131.775  1.00  0.00    -0.285 OA
ATOM     33  C   UNL     1     149.831 146.727 133.479  1.00  0.00     0.146 A 
ATOM     34  C   UNL     1     150.912 148.771 134.321  1.00  0.00     0.134 A 
ATOM     35  C   UNL     1     148.935 146.750 134.568  1.00  0.00     0.094 A 
ATOM     36  C   UNL     1     150.011 148.795 135.397  1.00  0.00     0.093 A 
ATOM     37  C   UNL     1     149.024 147.796 135.529  1.00  0.00     0.123 A 
BRANCH  28  38
ATOM     38  C   UNL     1     151.125 144.201 131.162  1.00  0.00     0.025 A 
ATOM     39  C   UNL     1     151.226 143.959 129.765  1.00  0.00     0.062 A 
ATOM     40  C   UNL     1     151.542 143.182 132.058  1.00  0.00     0.016 A 
ATOM     41  C   UNL     1     152.037 142.940 129.267  1.00  0.00     0.158 A 
ATOM     42  C   UNL     1     152.152 141.993 131.537  1.00  0.00     0.051 A 
ATOM     43  C   UNL     1     152.419 141.926 130.144  1.00  0.00     0.157 A 
BRANCH  41  44
ATOM     44  O   UNL     1     152.334 142.803 127.902  1.00  0.00    -0.504 OA
ATOM     45  H   UNL     1     153.334 142.977 127.617  1.00  0.00     0.293 HD
ENDBRANCH  41  44
BRANCH  43  46
ATOM     46  O   UNL     1     153.039 140.781 129.648  1.00  0.00    -0.504 OA
ATOM     47  H   UNL     1     154.010 140.777 129.579  1.00  0.00     0.293 HD
ENDBRANCH  43  46
ENDBRANCH  28  38
BRANCH  34  48
ATOM     48  O   UNL     1     152.234 149.195 134.527  1.00  0.00    -0.507 OA
ATOM     49  H   UNL     1     152.720 149.953 134.017  1.00  0.00     0.293 HD
ENDBRANCH  34  48
BRANCH  37  50
ATOM     50  O   UNL     1     148.151 147.827 136.632  1.00  0.00    -0.508 OA
ATOM     51  H   UNL     1     147.208 147.439 136.575  1.00  0.00     0.293 HD
ENDBRANCH  37  50
ENDBRANCH  26  27
ENDBRANCH   5  26
BRANCH   4  52
ATOM     52  O   UNL     1     154.811 147.383 127.908  1.00  0.00    -0.384 OA
ATOM     53  H   UNL     1     155.260 148.267 128.082  1.00  0.00     0.211 HD
ENDBRANCH   4  52
TORSDOF 16
ENDMDL
MODEL 2
REMARK VINA RESULT:     8.130      1.268      1.478
REMARK INTER + INTRA:          16.177
REMARK INTER:                  16.020
REMARK INTRA:                   0.157
REMARK UNBOUND:                 2.820
REMARK SMILES C[C@H]1O[C@H](OC[C@@H]2O[C@H](Oc3c(-c4ccc(O)c(O)c4)oc4cc(O)cc(O)c4c3=O)[C@@H](O)[C@@H](O)[C@H]2O)[C@@H](O)[C@@H](O)[C@H]1O
REMARK SMILES IDX 7 1 36 2 34 3 32 4 9 5 8 6 6 7 5 8 4 9 1 10 2 11 42 12 3 13
REMARK SMILES IDX 40 14 38 15 43 16 41 18 39 20 37 22 35 24 10 26 11 27 12 28
REMARK SMILES IDX 30 29 21 30 29 31 31 32 22 33 27 34 23 35 26 36 24 37 13 38
REMARK SMILES IDX 20 39 14 40 18 41 15 42 16 43 19 44 17 46 28 48 25 50 33 52
REMARK H PARENT 43 17 41 19 39 21 37 23 35 25 19 45 17 47 28 49 25 51 33 53
REMARK Flexibility Score: inf
ROOT
ATOM      1  C   UNL     1     155.638 147.096 132.075  1.00  0.00     0.180 C 
ATOM      2  C   UNL     1     156.833 147.412 131.199  1.00  0.00     0.177 C 
ATOM      3  C   UNL     1     156.508 147.094 129.698  1.00  0.00     0.180 C 
ATOM      4  C   UNL     1     155.003 146.837 129.312  1.00  0.00     0.214 C 
ATOM      5  C   UNL     1     153.953 147.369 130.358  1.00  0.00     0.339 C 
ATOM      6  O   UNL     1     154.529 147.839 131.554  1.00  0.00    -0.332 OA
ENDROOT
BRANCH   1   7
ATOM      7  C   UNL     1     155.368 145.590 132.148  1.00  0.00     0.198 C 
BRANCH   7   8
ATOM      8  O   UNL     1     156.157 144.959 133.153  1.00  0.00    -0.347 OA
BRANCH   8   9
ATOM      9  C   UNL     1     155.636 145.088 134.474  1.00  0.00     0.281 C 
ATOM     10  C   UNL     1     156.587 148.428 135.975  1.00  0.00     0.041 C 
ATOM     11  C   UNL     1     155.733 147.355 135.236  1.00  0.00     0.150 C 
ATOM     12  C   UNL     1     154.243 147.357 135.774  1.00  0.00     0.174 C 
ATOM     13  O   UNL     1     156.334 146.070 135.240  1.00  0.00    -0.344 OA
ATOM     14  C   UNL     1     153.408 146.411 134.911  1.00  0.00     0.179 C 
ATOM     15  C   UNL     1     154.115 144.986 134.750  1.00  0.00     0.202 C 
BRANCH  12  16
ATOM     16  O   UNL     1     154.098 147.028 137.124  1.00  0.00    -0.388 OA
ATOM     17  H   UNL     1     154.577 146.156 137.281  1.00  0.00     0.211 HD
ENDBRANCH  12  16
BRANCH  14  18
ATOM     18  O   UNL     1     152.116 146.306 135.440  1.00  0.00    -0.387 OA
ATOM     19  H   UNL     1     151.520 146.808 134.842  1.00  0.00     0.211 HD
ENDBRANCH  14  18
BRANCH  15  20
ATOM     20  O   UNL     1     153.949 144.166 135.886  1.00  0.00    -0.385 OA
ATOM     21  H   UNL     1     154.641 144.513 136.585  1.00  0.00     0.211 HD
ENDBRANCH  15  20
ENDBRANCH   8   9
ENDBRANCH   7   8
ENDBRANCH   1   7
BRANCH   2  22
ATOM     22  O   UNL     1     157.124 148.799 131.350  1.00  0.00    -0.387 OA
ATOM     23  H   UNL     1     157.392 149.122 130.440  1.00  0.00     0.211 HD
ENDBRANCH   2  22
BRANCH   3  24
ATOM     24  O   UNL     1     157.021 148.140 128.916  1.00  0.00    -0.387 OA
ATOM     25  H   UNL     1     158.033 148.068 128.988  1.00  0.00     0.211 HD
ENDBRANCH   3  24
BRANCH   5  26
ATOM     26  O   UNL     1     152.933 146.411 130.703  1.00  0.00    -0.454 OA
BRANCH  26  27
ATOM     27  C   UNL     1     151.900 146.560 131.663  1.00  0.00     0.214 A 
ATOM     28  C   UNL     1     151.066 145.487 132.016  1.00  0.00     0.180 A 
ATOM     29  C   UNL     1     151.636 147.777 132.322  1.00  0.00     0.239 A 
ATOM     30  O   UNL     1     150.025 145.696 132.891  1.00  0.00    -0.452 OA
ATOM     31  C   UNL     1     150.719 147.914 133.332  1.00  0.00     0.111 A 
ATOM     32  O   UNL     1     152.209 148.803 131.927  1.00  0.00    -0.285 OA
ATOM     33  C   UNL     1     149.840 146.819 133.537  1.00  0.00     0.146 A 
ATOM     34  C   UNL     1     150.869 148.912 134.323  1.00  0.00     0.134 A 
ATOM     35  C   UNL     1     148.814 146.962 134.493  1.00  0.00     0.094 A 
ATOM     36  C   UNL     1     149.839 149.056 135.265  1.00  0.00     0.093 A 
ATOM     37  C   UNL     1     148.813 148.092 135.359  1.00  0.00     0.123 A 
BRANCH  28  38
ATOM     38  C   UNL     1     151.338 144.061 131.647  1.00  0.00     0.025 A 
ATOM     39  C   UNL     1     152.567 143.433 131.991  1.00  0.00     0.062 A 
ATOM     40  C   UNL     1     150.263 143.248 131.203  1.00  0.00     0.016 A 
ATOM     41  C   UNL     1     152.627 142.065 132.253  1.00  0.00     0.158 A 
ATOM     42  C   UNL     1     150.405 141.822 131.219  1.00  0.00     0.051 A 
ATOM     43  C   UNL     1     151.583 141.268 131.788  1.00  0.00     0.157 A 
BRANCH  41  44
ATOM     44  O   UNL     1     153.762 141.445 132.800  1.00  0.00    -0.504 OA
ATOM     45  H   UNL     1     153.624 140.477 133.196  1.00  0.00     0.293 HD
ENDBRANCH  41  44
BRANCH  43  46
ATOM     46  O   UNL     1     151.702 139.879 131.828  1.00  0.00    -0.504 OA
ATOM     47  H   UNL     1     152.127 139.433 131.075  1.00  0.00     0.293 HD
ENDBRANCH  43  46
ENDBRANCH  28  38
BRANCH  34  48
ATOM     48  O   UNL     1     152.166 149.329 134.658  1.00  0.00    -0.507 OA
ATOM     49  H   UNL     1     153.011 149.234 134.069  1.00  0.00     0.293 HD
ENDBRANCH  34  48
BRANCH  37  50
ATOM     50  O   UNL     1     147.808 148.245 136.332  1.00  0.00    -0.508 OA
ATOM     51  H   UNL     1     147.571 147.487 136.976  1.00  0.00     0.293 HD
ENDBRANCH  37  50
ENDBRANCH  26  27
ENDBRANCH   5  26
BRANCH   4  52
ATOM     52  O   UNL     1     154.721 147.366 128.050  1.00  0.00    -0.384 OA
ATOM     53  H   UNL     1     154.027 148.073 128.227  1.00  0.00     0.211 HD
ENDBRANCH   4  52
TORSDOF 16
ENDMDL
MODEL 3
REMARK VINA RESULT:     9.598      2.058      6.332
REMARK INTER + INTRA:          18.590
REMARK INTER:                  18.897
REMARK INTRA:                  -0.307
REMARK UNBOUND:                 2.820
REMARK SMILES C[C@H]1O[C@H](OC[C@@H]2O[C@H](Oc3c(-c4ccc(O)c(O)c4)oc4cc(O)cc(O)c4c3=O)[C@@H](O)[C@@H](O)[C@H]2O)[C@@H](O)[C@@H](O)[C@H]1O
REMARK SMILES IDX 7 1 36 2 34 3 32 4 9 5 8 6 6 7 5 8 4 9 1 10 2 11 42 12 3 13
REMARK SMILES IDX 40 14 38 15 43 16 41 18 39 20 37 22 35 24 10 26 11 27 12 28
REMARK SMILES IDX 30 29 21 30 29 31 31 32 22 33 27 34 23 35 26 36 24 37 13 38
REMARK SMILES IDX 20 39 14 40 18 41 15 42 16 43 19 44 17 46 28 48 25 50 33 52
REMARK H PARENT 43 17 41 19 39 21 37 23 35 25 19 45 17 47 28 49 25 51 33 53
REMARK Flexibility Score: inf
ROOT
ATOM      1  C   UNL     1     153.938 146.527 130.527  1.00  0.00     0.180 C 
ATOM      2  C   UNL     1     154.896 147.299 129.643  1.00  0.00     0.177 C 
ATOM      3  C   UNL     1     155.818 148.222 130.515  1.00  0.00     0.180 C 
ATOM      4  C   UNL     1     155.841 147.977 132.070  1.00  0.00     0.214 C 
ATOM      5  C   UNL     1     155.306 146.567 132.524  1.00  0.00     0.339 C 
ATOM      6  O   UNL     1     154.733 145.813 131.482  1.00  0.00    -0.332 OA
ENDROOT
BRANCH   1   7
ATOM      7  C   UNL     1     152.899 147.443 131.179  1.00  0.00     0.198 C 
BRANCH   7   8
ATOM      8  O   UNL     1     151.686 147.484 130.433  1.00  0.00    -0.347 OA
BRANCH   8   9
ATOM      9  C   UNL     1     150.783 146.419 130.725  1.00  0.00     0.281 C 
ATOM     10  C   UNL     1     151.059 143.672 128.138  1.00  0.00     0.041 C 
ATOM     11  C   UNL     1     151.308 144.455 129.463  1.00  0.00     0.150 C 
ATOM     12  C   UNL     1     151.206 143.486 130.713  1.00  0.00     0.174 C 
ATOM     13  O   UNL     1     150.501 145.616 129.579  1.00  0.00    -0.344 OA
ATOM     14  C   UNL     1     151.618 144.259 131.965  1.00  0.00     0.179 C 
ATOM     15  C   UNL     1     150.851 145.658 132.072  1.00  0.00     0.202 C 
BRANCH  12  16
ATOM     16  O   UNL     1     149.956 142.893 130.904  1.00  0.00    -0.388 OA
ATOM     17  H   UNL     1     149.987 141.973 130.495  1.00  0.00     0.211 HD
ENDBRANCH  12  16
BRANCH  14  18
ATOM     18  O   UNL     1     151.422 143.458 133.099  1.00  0.00    -0.387 OA
ATOM     19  H   UNL     1     152.113 142.761 133.078  1.00  0.00     0.211 HD
ENDBRANCH  14  18
BRANCH  15  20
ATOM     20  O   UNL     1     149.527 145.516 132.541  1.00  0.00    -0.385 OA
ATOM     21  H   UNL     1     149.575 145.674 133.570  1.00  0.00     0.211 HD
ENDBRANCH  15  20
ENDBRANCH   8   9
ENDBRANCH   7   8
ENDBRANCH   1   7
BRANCH   2  22
ATOM     22  O   UNL     1     155.689 146.352 128.933  1.00  0.00    -0.387 OA
ATOM     23  H   UNL     1     156.072 145.742 129.629  1.00  0.00     0.211 HD
ENDBRANCH   2  22
BRANCH   3  24
ATOM     24  O   UNL     1     157.122 148.132 130.005  1.00  0.00    -0.387 OA
ATOM     25  H   UNL     1     157.572 149.012 130.241  1.00  0.00     0.211 HD
ENDBRANCH   3  24
BRANCH   5  26
ATOM     26  O   UNL     1     154.357 146.622 133.607  1.00  0.00    -0.454 OA
BRANCH  26  27
ATOM     27  C   UNL     1     153.820 145.532 134.338  1.00  0.00     0.214 A 
ATOM     28  C   UNL     1     152.820 145.719 135.305  1.00  0.00     0.180 A 
ATOM     29  C   UNL     1     154.246 144.202 134.155  1.00  0.00     0.239 A 
ATOM     30  O   UNL     1     152.385 144.646 136.049  1.00  0.00    -0.452 OA
ATOM     31  C   UNL     1     153.664 143.123 134.769  1.00  0.00     0.111 A 
ATOM     32  O   UNL     1     155.247 143.990 133.455  1.00  0.00    -0.285 OA
ATOM     33  C   UNL     1     152.752 143.411 135.816  1.00  0.00     0.146 A 
ATOM     34  C   UNL     1     153.695 141.841 134.173  1.00  0.00     0.134 A 
ATOM     35  C   UNL     1     152.213 142.330 136.544  1.00  0.00     0.094 A 
ATOM     36  C   UNL     1     153.166 140.768 134.907  1.00  0.00     0.093 A 
ATOM     37  C   UNL     1     152.428 140.999 136.086  1.00  0.00     0.123 A 
BRANCH  28  38
ATOM     38  C   UNL     1     152.042 146.989 135.467  1.00  0.00     0.025 A 
ATOM     39  C   UNL     1     150.624 147.002 135.361  1.00  0.00     0.062 A 
ATOM     40  C   UNL     1     152.691 148.129 136.007  1.00  0.00     0.016 A 
ATOM     41  C   UNL     1     149.856 147.913 136.085  1.00  0.00     0.158 A 
ATOM     42  C   UNL     1     151.904 149.209 136.528  1.00  0.00     0.051 A 
ATOM     43  C   UNL     1     150.494 149.047 136.587  1.00  0.00     0.157 A 
BRANCH  41  44
ATOM     44  O   UNL     1     148.458 147.825 136.177  1.00  0.00    -0.504 OA
ATOM     45  H   UNL     1     147.916 148.005 135.290  1.00  0.00     0.293 HD
ENDBRANCH  41  44
BRANCH  43  46
ATOM     46  O   UNL     1     149.735 150.087 137.122  1.00  0.00    -0.504 OA
ATOM     47  H   UNL     1     149.204 149.907 137.917  1.00  0.00     0.293 HD
ENDBRANCH  43  46
ENDBRANCH  28  38
BRANCH  34  48
ATOM     48  O   UNL     1     153.735 141.757 132.772  1.00  0.00    -0.507 OA
ATOM     49  H   UNL     1     153.618 142.542 132.109  1.00  0.00     0.293 HD
ENDBRANCH  34  48
BRANCH  37  50
ATOM     50  O   UNL     1     151.885 139.907 136.788  1.00  0.00    -0.508 OA
ATOM     51  H   UNL     1     151.966 138.953 136.432  1.00  0.00     0.293 HD
ENDBRANCH  37  50
ENDBRANCH  26  27
ENDBRANCH   5  26
BRANCH   4  52
ATOM     52  O   UNL     1     157.125 148.182 132.582  1.00  0.00    -0.384 OA
ATOM     53  H   UNL     1     157.395 149.081 132.218  1.00  0.00     0.211 HD
ENDBRANCH   4  52
TORSDOF 16
ENDMDL
MODEL 4
REMARK VINA RESULT:     9.976      2.317      5.949
REMARK INTER + INTRA:          19.210
REMARK INTER:                  18.862
REMARK INTRA:                   0.349
REMARK UNBOUND:                 2.820
REMARK SMILES C[C@H]1O[C@H](OC[C@@H]2O[C@H](Oc3c(-c4ccc(O)c(O)c4)oc4cc(O)cc(O)c4c3=O)[C@@H](O)[C@@H](O)[C@H]2O)[C@@H](O)[C@@H](O)[C@H]1O
REMARK SMILES IDX 7 1 36 2 34 3 32 4 9 5 8 6 6 7 5 8 4 9 1 10 2 11 42 12 3 13
REMARK SMILES IDX 40 14 38 15 43 16 41 18 39 20 37 22 35 24 10 26 11 27 12 28
REMARK SMILES IDX 30 29 21 30 29 31 31 32 22 33 27 34 23 35 26 36 24 37 13 38
REMARK SMILES IDX 20 39 14 40 18 41 15 42 16 43 19 44 17 46 28 48 25 50 33 52
REMARK H PARENT 43 17 41 19 39 21 37 23 35 25 19 45 17 47 28 49 25 51 33 53
REMARK Flexibility Score: inf
ROOT
ATOM      1  C   UNL     1     150.570 146.298 136.395  1.00  0.00     0.180 C 
ATOM      2  C   UNL     1     150.201 147.748 136.631  1.00  0.00     0.177 C 
ATOM      3  C   UNL     1     150.768 148.650 135.480  1.00  0.00     0.180 C 
ATOM      4  C   UNL     1     151.302 147.934 134.182  1.00  0.00     0.214 C 
ATOM      5  C   UNL     1     150.795 146.455 133.989  1.00  0.00     0.339 C 
ATOM      6  O   UNL     1     150.083 145.949 135.093  1.00  0.00    -0.332 OA
ENDROOT
BRANCH   1   7
ATOM      7  C   UNL     1     152.075 146.060 136.554  1.00  0.00     0.198 C 
BRANCH   7   8
ATOM      8  O   UNL     1     152.785 147.279 136.756  1.00  0.00    -0.347 OA
BRANCH   8   9
ATOM      9  C   UNL     1     153.726 147.584 135.728  1.00  0.00     0.281 C 
ATOM     10  C   UNL     1     156.663 149.518 137.125  1.00  0.00     0.041 C 
ATOM     11  C   UNL     1     155.819 148.300 136.642  1.00  0.00     0.150 C 
ATOM     12  C   UNL     1     156.680 147.360 135.702  1.00  0.00     0.174 C 
ATOM     13  O   UNL     1     154.574 148.679 136.076  1.00  0.00    -0.344 OA
ATOM     14  C   UNL     1     155.869 146.103 135.390  1.00  0.00     0.179 C 
ATOM     15  C   UNL     1     154.393 146.464 134.892  1.00  0.00     0.202 C 
BRANCH  12  16
ATOM     16  O   UNL     1     157.124 147.950 134.516  1.00  0.00    -0.388 OA
ATOM     17  H   UNL     1     157.132 148.948 134.654  1.00  0.00     0.211 HD
ENDBRANCH  12  16
BRANCH  14  18
ATOM     18  O   UNL     1     156.562 145.311 134.466  1.00  0.00    -0.387 OA
ATOM     19  H   UNL     1     156.961 144.568 134.969  1.00  0.00     0.211 HD
ENDBRANCH  14  18
BRANCH  15  20
ATOM     20  O   UNL     1     154.361 146.873 133.542  1.00  0.00    -0.385 OA
ATOM     21  H   UNL     1     153.412 146.615 133.193  1.00  0.00     0.211 HD
ENDBRANCH  15  20
ENDBRANCH   8   9
ENDBRANCH   7   8
ENDBRANCH   1   7
BRANCH   2  22
ATOM     22  O   UNL     1     148.779 147.833 136.658  1.00  0.00    -0.387 OA
ATOM     23  H   UNL     1     148.513 147.670 137.609  1.00  0.00     0.211 HD
ENDBRANCH   2  22
BRANCH   3  24
ATOM     24  O   UNL     1     149.776 149.577 135.130  1.00  0.00    -0.387 OA
ATOM     25  H   UNL     1     149.536 150.063 135.990  1.00  0.00     0.211 HD
ENDBRANCH   3  24
BRANCH   5  26
ATOM     26  O   UNL     1     151.840 145.516 133.666  1.00  0.00    -0.454 OA
BRANCH  26  27
ATOM     27  C   UNL     1     152.010 144.801 132.453  1.00  0.00     0.214 A 
ATOM     28  C   UNL     1     152.642 143.548 132.423  1.00  0.00     0.180 A 
ATOM     29  C   UNL     1     151.568 145.287 131.208  1.00  0.00     0.239 A 
ATOM     30  O   UNL     1     152.859 142.926 131.216  1.00  0.00    -0.452 OA
ATOM     31  C   UNL     1     151.621 144.565 130.043  1.00  0.00     0.111 A 
ATOM     32  O   UNL     1     151.170 146.459 131.135  1.00  0.00    -0.285 OA
ATOM     33  C   UNL     1     152.383 143.369 130.080  1.00  0.00     0.146 A 
ATOM     34  C   UNL     1     150.702 144.801 128.995  1.00  0.00     0.134 A 
ATOM     35  C   UNL     1     152.552 142.653 128.877  1.00  0.00     0.094 A 
ATOM     36  C   UNL     1     150.882 144.093 127.797  1.00  0.00     0.093 A 
ATOM     37  C   UNL     1     151.799 143.023 127.727  1.00  0.00     0.123 A 
BRANCH  28  38
ATOM     38  C   UNL     1     152.942 142.734 133.645  1.00  0.00     0.025 A 
ATOM     39  C   UNL     1     152.507 143.151 134.932  1.00  0.00     0.062 A 
ATOM     40  C   UNL     1     153.413 141.405 133.487  1.00  0.00     0.016 A 
ATOM     41  C   UNL     1     152.191 142.222 135.923  1.00  0.00     0.158 A 
ATOM     42  C   UNL     1     153.336 140.494 134.592  1.00  0.00     0.051 A 
ATOM     43  C   UNL     1     152.683 140.925 135.777  1.00  0.00     0.157 A 
BRANCH  41  44
ATOM     44  O   UNL     1     151.560 142.576 137.125  1.00  0.00    -0.504 OA
ATOM     45  H   UNL     1     151.122 141.791 137.676  1.00  0.00     0.293 HD
ENDBRANCH  41  44
BRANCH  43  46
ATOM     46  O   UNL     1     152.584 140.026 136.837  1.00  0.00    -0.504 OA
ATOM     47  H   UNL     1     152.694 139.078 136.647  1.00  0.00     0.293 HD
ENDBRANCH  43  46
ENDBRANCH  28  38
BRANCH  34  48
ATOM     48  O   UNL     1     149.422 145.273 129.325  1.00  0.00    -0.507 OA
ATOM     49  H   UNL     1     148.708 145.620 128.662  1.00  0.00     0.293 HD
ENDBRANCH  34  48
BRANCH  37  50
ATOM     50  O   UNL     1     151.939 142.310 126.522  1.00  0.00    -0.508 OA
ATOM     51  H   UNL     1     152.840 142.249 126.043  1.00  0.00     0.293 HD
ENDBRANCH  37  50
ENDBRANCH  26  27
ENDBRANCH   5  26
BRANCH   4  52
ATOM     52  O   UNL     1     151.001 148.688 133.045  1.00  0.00    -0.384 OA
ATOM     53  H   UNL     1     150.294 149.334 133.357  1.00  0.00     0.211 HD
ENDBRANCH   4  52
TORSDOF 16
ENDMDL
