MODEL 1
REMARK VINA RESULT:    -8.413      0.000      0.000
REMARK INTER + INTRA:         -10.418
REMARK INTER:                 -10.134
REMARK INTRA:                  -0.284
REMARK UNBOUND:                -0.284
REMARK SMILES O=c1c(O)c(-c2ccc(O)c(O)c2)oc2cc(O)cc(O)c12
REMARK SMILES IDX 5 1 3 2 2 3 1 4 22 5 20 6 19 7 17 8 16 9 15 10 14 11 6 12
REMARK SMILES IDX 7 13 8 14 9 15 13 16 11 17 10 18 12 20 4 22 21 24 18 26
REMARK H PARENT 10 19 12 21 4 23 21 25 18 27
REMARK Flexibility Score: inf
ROOT
ATOM      1  C   UNL     1     -31.397  16.973  57.209  1.00  0.00     0.180 A 
ATOM      2  C   UNL     1     -30.133  16.385  57.024  1.00  0.00     0.208 A 
ATOM      3  C   UNL     1     -28.991  17.200  57.054  1.00  0.00     0.238 A 
ATOM      4  O   UNL     1     -27.860  16.660  56.943  1.00  0.00    -0.285 OA
ATOM      5  C   UNL     1     -29.127  18.595  57.253  1.00  0.00     0.111 A 
ATOM      6  C   UNL     1     -28.041  19.522  57.261  1.00  0.00     0.134 A 
ATOM      7  C   UNL     1     -28.278  20.861  57.596  1.00  0.00     0.093 A 
ATOM      8  C   UNL     1     -29.569  21.320  57.858  1.00  0.00     0.123 A 
ATOM      9  C   UNL     1     -30.646  20.435  57.794  1.00  0.00     0.094 A 
ATOM     10  C   UNL     1     -30.436  19.085  57.498  1.00  0.00     0.146 A 
ATOM     11  O   UNL     1     -31.486  18.274  57.458  1.00  0.00    -0.452 OA
ENDROOT
BRANCH   1  12
ATOM     12  C   UNL     1     -32.648  16.182  57.166  1.00  0.00     0.025 A 
ATOM     13  C   UNL     1     -33.052  15.393  58.257  1.00  0.00     0.016 A 
ATOM     14  C   UNL     1     -34.223  14.635  58.185  1.00  0.00     0.051 A 
ATOM     15  C   UNL     1     -35.001  14.644  57.023  1.00  0.00     0.157 A 
ATOM     16  C   UNL     1     -33.420  16.172  55.993  1.00  0.00     0.062 A 
ATOM     17  C   UNL     1     -34.597  15.412  55.919  1.00  0.00     0.158 A 
BRANCH  15  18
ATOM     18  O   UNL     1     -36.168  13.879  56.982  1.00  0.00    -0.504 OA
ATOM     19  H   UNL     1     -36.979  14.105  57.546  1.00  0.00     0.293 HD
ENDBRANCH  15  18
BRANCH  17  20
ATOM     20  O   UNL     1     -35.364  15.420  54.755  1.00  0.00    -0.504 OA
ATOM     21  H   UNL     1     -35.691  16.284  54.341  1.00  0.00     0.293 HD
ENDBRANCH  17  20
ENDBRANCH   1  12
BRANCH   2  22
ATOM     22  O   UNL     1     -30.021  15.002  56.853  1.00  0.00    -0.502 OA
ATOM     23  H   UNL     1     -29.128  14.522  56.870  1.00  0.00     0.293 HD
ENDBRANCH   2  22
BRANCH   6  24
ATOM     24  O   UNL     1     -26.726  19.186  56.923  1.00  0.00    -0.507 OA
ATOM     25  H   UNL     1     -26.410  18.971  55.991  1.00  0.00     0.293 HD
ENDBRANCH   6  24
BRANCH   8  26
ATOM     26  O   UNL     1     -29.770  22.661  58.172  1.00  0.00    -0.508 OA
ATOM     27  H   UNL     1     -30.069  23.332  57.473  1.00  0.00     0.293 HD
ENDBRANCH   8  26
TORSDOF 6
ENDMDL
MODEL 2
REMARK VINA RESULT:    -8.361      1.923      2.643
REMARK INTER + INTRA:         -10.355
REMARK INTER:                 -10.049
REMARK INTRA:                  -0.306
REMARK UNBOUND:                -0.284
REMARK SMILES O=c1c(O)c(-c2ccc(O)c(O)c2)oc2cc(O)cc(O)c12
REMARK SMILES IDX 5 1 3 2 2 3 1 4 22 5 20 6 19 7 17 8 16 9 15 10 14 11 6 12
REMARK SMILES IDX 7 13 8 14 9 15 13 16 11 17 10 18 12 20 4 22 21 24 18 26
REMARK H PARENT 10 19 12 21 4 23 21 25 18 27
REMARK Flexibility Score: inf
ROOT
ATOM      1  C   UNL     1     -31.296  16.827  56.515  1.00  0.00     0.180 A 
ATOM      2  C   UNL     1     -31.264  17.479  57.761  1.00  0.00     0.208 A 
ATOM      3  C   UNL     1     -30.370  18.545  57.950  1.00  0.00     0.238 A 
ATOM      4  O   UNL     1     -30.385  19.159  59.048  1.00  0.00    -0.285 OA
ATOM      5  C   UNL     1     -29.507  18.935  56.897  1.00  0.00     0.111 A 
ATOM      6  C   UNL     1     -28.533  19.974  56.991  1.00  0.00     0.134 A 
ATOM      7  C   UNL     1     -27.824  20.362  55.848  1.00  0.00     0.093 A 
ATOM      8  C   UNL     1     -28.006  19.706  54.630  1.00  0.00     0.123 A 
ATOM      9  C   UNL     1     -28.913  18.648  54.541  1.00  0.00     0.094 A 
ATOM     10  C   UNL     1     -29.660  18.262  55.657  1.00  0.00     0.146 A 
ATOM     11  O   UNL     1     -30.520  17.259  55.527  1.00  0.00    -0.452 OA
ENDROOT
BRANCH   1  12
ATOM     12  C   UNL     1     -32.194  15.680  56.248  1.00  0.00     0.025 A 
ATOM     13  C   UNL     1     -31.730  14.355  56.324  1.00  0.00     0.016 A 
ATOM     14  C   UNL     1     -32.588  13.290  56.043  1.00  0.00     0.051 A 
ATOM     15  C   UNL     1     -33.915  13.529  55.671  1.00  0.00     0.157 A 
ATOM     16  C   UNL     1     -33.521  15.918  55.854  1.00  0.00     0.062 A 
ATOM     17  C   UNL     1     -34.384  14.849  55.572  1.00  0.00     0.158 A 
BRANCH  15  18
ATOM     18  O   UNL     1     -34.749  12.444  55.399  1.00  0.00    -0.504 OA
ATOM     19  H   UNL     1     -35.577  12.534  54.822  1.00  0.00     0.293 HD
ENDBRANCH  15  18
BRANCH  17  20
ATOM     20  O   UNL     1     -35.703  15.095  55.196  1.00  0.00    -0.504 OA
ATOM     21  H   UNL     1     -35.990  15.079  54.224  1.00  0.00     0.293 HD
ENDBRANCH  17  20
ENDBRANCH   1  12
BRANCH   2  22
ATOM     22  O   UNL     1     -32.140  17.092  58.778  1.00  0.00    -0.502 OA
ATOM     23  H   UNL     1     -32.930  16.478  58.612  1.00  0.00     0.293 HD
ENDBRANCH   2  22
BRANCH   6  24
ATOM     24  O   UNL     1     -28.207  20.633  58.181  1.00  0.00    -0.507 OA
ATOM     25  H   UNL     1     -27.985  20.173  59.050  1.00  0.00     0.293 HD
ENDBRANCH   6  24
BRANCH   8  26
ATOM     26  O   UNL     1     -27.273  20.107  53.517  1.00  0.00    -0.508 OA
ATOM     27  H   UNL     1     -27.660  20.740  52.826  1.00  0.00     0.293 HD
ENDBRANCH   8  26
TORSDOF 6
ENDMDL
MODEL 3
REMARK VINA RESULT:    -8.188      2.048      2.984
REMARK INTER + INTRA:         -10.147
REMARK INTER:                  -9.911
REMARK INTRA:                  -0.236
REMARK UNBOUND:                -0.284
REMARK SMILES O=c1c(O)c(-c2ccc(O)c(O)c2)oc2cc(O)cc(O)c12
REMARK SMILES IDX 5 1 3 2 2 3 1 4 22 5 20 6 19 7 17 8 16 9 15 10 14 11 6 12
REMARK SMILES IDX 7 13 8 14 9 15 13 16 11 17 10 18 12 20 4 22 21 24 18 26
REMARK H PARENT 10 19 12 21 4 23 21 25 18 27
REMARK Flexibility Score: inf
ROOT
ATOM      1  C   UNL     1     -30.867  16.494  57.040  1.00  0.00     0.180 A 
ATOM      2  C   UNL     1     -31.126  17.442  56.035  1.00  0.00     0.208 A 
ATOM      3  C   UNL     1     -30.249  18.526  55.878  1.00  0.00     0.238 A 
ATOM      4  O   UNL     1     -30.456  19.341  54.942  1.00  0.00    -0.285 OA
ATOM      5  C   UNL     1     -29.132  18.658  56.737  1.00  0.00     0.111 A 
ATOM      6  C   UNL     1     -28.199  19.738  56.694  1.00  0.00     0.134 A 
ATOM      7  C   UNL     1     -27.059  19.699  57.506  1.00  0.00     0.093 A 
ATOM      8  C   UNL     1     -26.850  18.654  58.405  1.00  0.00     0.123 A 
ATOM      9  C   UNL     1     -27.785  17.622  58.498  1.00  0.00     0.094 A 
ATOM     10  C   UNL     1     -28.915  17.615  57.675  1.00  0.00     0.146 A 
ATOM     11  O   UNL     1     -29.775  16.610  57.788  1.00  0.00    -0.452 OA
ENDROOT
BRANCH   1  12
ATOM     12  C   UNL     1     -31.759  15.338  57.283  1.00  0.00     0.025 A 
ATOM     13  C   UNL     1     -31.814  14.255  56.388  1.00  0.00     0.016 A 
ATOM     14  C   UNL     1     -32.682  13.186  56.623  1.00  0.00     0.051 A 
ATOM     15  C   UNL     1     -33.516  13.186  57.746  1.00  0.00     0.157 A 
ATOM     16  C   UNL     1     -32.613  15.345  58.398  1.00  0.00     0.062 A 
ATOM     17  C   UNL     1     -33.485  14.272  58.637  1.00  0.00     0.158 A 
BRANCH  15  18
ATOM     18  O   UNL     1     -34.370  12.104  57.956  1.00  0.00    -0.504 OA
ATOM     19  H   UNL     1     -34.040  11.224  58.334  1.00  0.00     0.293 HD
ENDBRANCH  15  18
BRANCH  17  20
ATOM     20  O   UNL     1     -34.319  14.282  59.754  1.00  0.00    -0.504 OA
ATOM     21  H   UNL     1     -35.080  13.621  59.855  1.00  0.00     0.293 HD
ENDBRANCH  17  20
ENDBRANCH   1  12
BRANCH   2  22
ATOM     22  O   UNL     1     -32.222  17.280  55.184  1.00  0.00    -0.502 OA
ATOM     23  H   UNL     1     -33.016  16.697  55.423  1.00  0.00     0.293 HD
ENDBRANCH   2  22
BRANCH   6  24
ATOM     24  O   UNL     1     -28.360  20.876  55.898  1.00  0.00    -0.507 OA
ATOM     25  H   UNL     1     -29.219  21.142  55.442  1.00  0.00     0.293 HD
ENDBRANCH   6  24
BRANCH   8  26
ATOM     26  O   UNL     1     -25.713  18.655  59.208  1.00  0.00    -0.508 OA
ATOM     27  H   UNL     1     -25.439  17.838  59.743  1.00  0.00     0.293 HD
ENDBRANCH   8  26
TORSDOF 6
ENDMDL
MODEL 4
REMARK VINA RESULT:    -8.018      1.650      7.435
REMARK INTER + INTRA:          -9.943
REMARK INTER:                  -9.625
REMARK INTRA:                  -0.318
REMARK UNBOUND:                -0.284
REMARK SMILES O=c1c(O)c(-c2ccc(O)c(O)c2)oc2cc(O)cc(O)c12
REMARK SMILES IDX 5 1 3 2 2 3 1 4 22 5 20 6 19 7 17 8 16 9 15 10 14 11 6 12
REMARK SMILES IDX 7 13 8 14 9 15 13 16 11 17 10 18 12 20 4 22 21 24 18 26
REMARK H PARENT 10 19 12 21 4 23 21 25 18 27
REMARK Flexibility Score: inf
ROOT
ATOM      1  C   UNL     1     -32.718  16.065  57.283  1.00  0.00     0.180 A 
ATOM      2  C   UNL     1     -33.406  16.056  56.057  1.00  0.00     0.208 A 
ATOM      3  C   UNL     1     -34.567  15.276  55.932  1.00  0.00     0.238 A 
ATOM      4  O   UNL     1     -35.208  15.315  54.851  1.00  0.00    -0.285 OA
ATOM      5  C   UNL     1     -35.016  14.502  57.030  1.00  0.00     0.111 A 
ATOM      6  C   UNL     1     -36.157  13.644  57.003  1.00  0.00     0.134 A 
ATOM      7  C   UNL     1     -36.585  13.027  58.184  1.00  0.00     0.093 A 
ATOM      8  C   UNL     1     -35.878  13.184  59.376  1.00  0.00     0.123 A 
ATOM      9  C   UNL     1     -34.727  13.973  59.401  1.00  0.00     0.094 A 
ATOM     10  C   UNL     1     -34.296  14.630  58.245  1.00  0.00     0.146 A 
ATOM     11  O   UNL     1     -33.202  15.380  58.314  1.00  0.00    -0.452 OA
ENDROOT
BRANCH   1  12
ATOM     12  C   UNL     1     -31.475  16.843  57.484  1.00  0.00     0.025 A 
ATOM     13  C   UNL     1     -31.512  18.198  57.856  1.00  0.00     0.016 A 
ATOM     14  C   UNL     1     -30.326  18.920  58.015  1.00  0.00     0.051 A 
ATOM     15  C   UNL     1     -29.089  18.306  57.794  1.00  0.00     0.157 A 
ATOM     16  C   UNL     1     -30.232  16.235  57.241  1.00  0.00     0.062 A 
ATOM     17  C   UNL     1     -29.040  16.958  57.402  1.00  0.00     0.158 A 
BRANCH  15  18
ATOM     18  O   UNL     1     -27.922  19.052  57.963  1.00  0.00    -0.504 OA
ATOM     19  H   UNL     1     -27.471  19.146  58.865  1.00  0.00     0.293 HD
ENDBRANCH  15  18
BRANCH  17  20
ATOM     20  O   UNL     1     -27.811  16.342  57.172  1.00  0.00    -0.504 OA
ATOM     21  H   UNL     1     -27.747  15.360  56.930  1.00  0.00     0.293 HD
ENDBRANCH  17  20
ENDBRANCH   1  12
BRANCH   2  22
ATOM     22  O   UNL     1     -32.957  16.844  54.995  1.00  0.00    -0.502 OA
ATOM     23  H   UNL     1     -32.592  16.446  54.137  1.00  0.00     0.293 HD
ENDBRANCH   2  22
BRANCH   6  24
ATOM     24  O   UNL     1     -36.881  13.346  55.845  1.00  0.00    -0.507 OA
ATOM     25  H   UNL     1     -37.260  14.032  55.211  1.00  0.00     0.293 HD
ENDBRANCH   6  24
BRANCH   8  26
ATOM     26  O   UNL     1     -36.323  12.543  60.529  1.00  0.00    -0.508 OA
ATOM     27  H   UNL     1     -35.824  11.755  60.926  1.00  0.00     0.293 HD
ENDBRANCH   8  26
TORSDOF 6
ENDMDL
MODEL 5
REMARK VINA RESULT:    -7.917      1.752      7.500
REMARK INTER + INTRA:          -9.821
REMARK INTER:                  -9.488
REMARK INTRA:                  -0.333
REMARK UNBOUND:                -0.284
REMARK SMILES O=c1c(O)c(-c2ccc(O)c(O)c2)oc2cc(O)cc(O)c12
REMARK SMILES IDX 5 1 3 2 2 3 1 4 22 5 20 6 19 7 17 8 16 9 15 10 14 11 6 12
REMARK SMILES IDX 7 13 8 14 9 15 13 16 11 17 10 18 12 20 4 22 21 24 18 26
REMARK H PARENT 10 19 12 21 4 23 21 25 18 27
REMARK Flexibility Score: inf
ROOT
ATOM      1  C   UNL     1     -32.898  15.885  57.196  1.00  0.00     0.180 A 
ATOM      2  C   UNL     1     -33.614  15.843  55.987  1.00  0.00     0.208 A 
ATOM      3  C   UNL     1     -34.777  15.062  55.910  1.00  0.00     0.238 A 
ATOM      4  O   UNL     1     -35.442  15.071  54.842  1.00  0.00    -0.285 OA
ATOM      5  C   UNL     1     -35.203  14.320  57.038  1.00  0.00     0.111 A 
ATOM      6  C   UNL     1     -36.344  13.463  57.060  1.00  0.00     0.134 A 
ATOM      7  C   UNL     1     -36.747  12.880  58.268  1.00  0.00     0.093 A 
ATOM      8  C   UNL     1     -36.013  13.068  59.439  1.00  0.00     0.123 A 
ATOM      9  C   UNL     1     -34.861  13.856  59.416  1.00  0.00     0.094 A 
ATOM     10  C   UNL     1     -34.455  14.481  58.233  1.00  0.00     0.146 A 
ATOM     11  O   UNL     1     -33.359  15.230  58.256  1.00  0.00    -0.452 OA
ENDROOT
BRANCH   1  12
ATOM     12  C   UNL     1     -31.650  16.667  57.347  1.00  0.00     0.025 A 
ATOM     13  C   UNL     1     -30.396  16.106  57.047  1.00  0.00     0.016 A 
ATOM     14  C   UNL     1     -29.228  16.853  57.221  1.00  0.00     0.051 A 
ATOM     15  C   UNL     1     -29.292  18.163  57.707  1.00  0.00     0.157 A 
ATOM     16  C   UNL     1     -31.709  17.975  57.856  1.00  0.00     0.062 A 
ATOM     17  C   UNL     1     -30.537  18.727  58.030  1.00  0.00     0.158 A 
BRANCH  15  18
ATOM     18  O   UNL     1     -28.109  18.885  57.868  1.00  0.00    -0.504 OA
ATOM     19  H   UNL     1     -27.404  18.618  58.545  1.00  0.00     0.293 HD
ENDBRANCH  15  18
BRANCH  17  20
ATOM     20  O   UNL     1     -30.609  20.029  58.522  1.00  0.00    -0.504 OA
ATOM     21  H   UNL     1     -30.821  20.219  59.494  1.00  0.00     0.293 HD
ENDBRANCH  17  20
ENDBRANCH   1  12
BRANCH   2  22
ATOM     22  O   UNL     1     -33.187  16.601  54.893  1.00  0.00    -0.502 OA
ATOM     23  H   UNL     1     -33.340  16.308  53.935  1.00  0.00     0.293 HD
ENDBRANCH   2  22
BRANCH   6  24
ATOM     24  O   UNL     1     -37.095  13.134  55.928  1.00  0.00    -0.507 OA
ATOM     25  H   UNL     1     -37.699  12.330  55.852  1.00  0.00     0.293 HD
ENDBRANCH   6  24
BRANCH   8  26
ATOM     26  O   UNL     1     -36.433  12.461  60.619  1.00  0.00    -0.508 OA
ATOM     27  H   UNL     1     -37.164  11.759  60.624  1.00  0.00     0.293 HD
ENDBRANCH   8  26
TORSDOF 6
ENDMDL
MODEL 6
REMARK VINA RESULT:    -7.709      1.731      7.071
REMARK INTER + INTRA:          -9.570
REMARK INTER:                  -9.312
REMARK INTRA:                  -0.257
REMARK UNBOUND:                -0.284
REMARK SMILES O=c1c(O)c(-c2ccc(O)c(O)c2)oc2cc(O)cc(O)c12
REMARK SMILES IDX 5 1 3 2 2 3 1 4 22 5 20 6 19 7 17 8 16 9 15 10 14 11 6 12
REMARK SMILES IDX 7 13 8 14 9 15 13 16 11 17 10 18 12 20 4 22 21 24 18 26
REMARK H PARENT 10 19 12 21 4 23 21 25 18 27
REMARK Flexibility Score: inf
ROOT
ATOM      1  C   UNL     1     -31.558  16.599  57.574  1.00  0.00     0.180 A 
ATOM      2  C   UNL     1     -31.775  16.110  56.273  1.00  0.00     0.208 A 
ATOM      3  C   UNL     1     -32.759  15.130  56.069  1.00  0.00     0.238 A 
ATOM      4  O   UNL     1     -32.986  14.736  54.896  1.00  0.00    -0.285 OA
ATOM      5  C   UNL     1     -33.503  14.640  57.169  1.00  0.00     0.111 A 
ATOM      6  C   UNL     1     -34.497  13.619  57.084  1.00  0.00     0.134 A 
ATOM      7  C   UNL     1     -35.262  13.303  58.214  1.00  0.00     0.093 A 
ATOM      8  C   UNL     1     -35.026  13.925  59.440  1.00  0.00     0.123 A 
ATOM      9  C   UNL     1     -34.016  14.883  59.549  1.00  0.00     0.094 A 
ATOM     10  C   UNL     1     -33.261  15.243  58.430  1.00  0.00     0.146 A 
ATOM     11  O   UNL     1     -32.317  16.167  58.574  1.00  0.00    -0.452 OA
ENDROOT
BRANCH   1  12
ATOM     12  C   UNL     1     -30.522  17.614  57.872  1.00  0.00     0.025 A 
ATOM     13  C   UNL     1     -30.861  18.958  58.105  1.00  0.00     0.016 A 
ATOM     14  C   UNL     1     -29.865  19.904  58.359  1.00  0.00     0.051 A 
ATOM     15  C   UNL     1     -28.518  19.527  58.372  1.00  0.00     0.157 A 
ATOM     16  C   UNL     1     -29.167  17.243  57.864  1.00  0.00     0.062 A 
ATOM     17  C   UNL     1     -28.166  18.192  58.120  1.00  0.00     0.158 A 
BRANCH  15  18
ATOM     18  O   UNL     1     -27.546  20.494  58.631  1.00  0.00    -0.504 OA
ATOM     19  H   UNL     1     -26.624  20.251  58.976  1.00  0.00     0.293 HD
ENDBRANCH  15  18
BRANCH  17  20
ATOM     20  O   UNL     1     -26.825  17.810  58.124  1.00  0.00    -0.504 OA
ATOM     21  H   UNL     1     -26.537  16.886  58.423  1.00  0.00     0.293 HD
ENDBRANCH  17  20
ENDBRANCH   1  12
BRANCH   2  22
ATOM     22  O   UNL     1     -31.044  16.624  55.199  1.00  0.00    -0.502 OA
ATOM     23  H   UNL     1     -31.343  17.441  54.678  1.00  0.00     0.293 HD
ENDBRANCH   2  22
BRANCH   6  24
ATOM     24  O   UNL     1     -34.750  12.871  55.931  1.00  0.00    -0.507 OA
ATOM     25  H   UNL     1     -35.541  13.007  55.320  1.00  0.00     0.293 HD
ENDBRANCH   6  24
BRANCH   8  26
ATOM     26  O   UNL     1     -35.795  13.576  60.547  1.00  0.00    -0.508 OA
ATOM     27  H   UNL     1     -36.428  14.237  60.984  1.00  0.00     0.293 HD
ENDBRANCH   8  26
TORSDOF 6
ENDMDL
MODEL 7
REMARK VINA RESULT:    -7.644      2.336      7.316
REMARK INTER + INTRA:          -9.492
REMARK INTER:                  -9.253
REMARK INTRA:                  -0.239
REMARK UNBOUND:                -0.284
REMARK SMILES O=c1c(O)c(-c2ccc(O)c(O)c2)oc2cc(O)cc(O)c12
REMARK SMILES IDX 5 1 3 2 2 3 1 4 22 5 20 6 19 7 17 8 16 9 15 10 14 11 6 12
REMARK SMILES IDX 7 13 8 14 9 15 13 16 11 17 10 18 12 20 4 22 21 24 18 26
REMARK H PARENT 10 19 12 21 4 23 21 25 18 27
REMARK Flexibility Score: inf
ROOT
ATOM      1  C   UNL     1     -31.542  15.936  56.962  1.00  0.00     0.180 A 
ATOM      2  C   UNL     1     -32.287  16.122  58.140  1.00  0.00     0.208 A 
ATOM      3  C   UNL     1     -33.329  15.229  58.436  1.00  0.00     0.238 A 
ATOM      4  O   UNL     1     -33.956  15.369  59.518  1.00  0.00    -0.285 OA
ATOM      5  C   UNL     1     -33.623  14.171  57.544  1.00  0.00     0.111 A 
ATOM      6  C   UNL     1     -34.682  13.231  57.723  1.00  0.00     0.134 A 
ATOM      7  C   UNL     1     -34.801  12.147  56.845  1.00  0.00     0.093 A 
ATOM      8  C   UNL     1     -33.940  12.004  55.756  1.00  0.00     0.123 A 
ATOM      9  C   UNL     1     -32.938  12.951  55.537  1.00  0.00     0.094 A 
ATOM     10  C   UNL     1     -32.773  14.023  56.417  1.00  0.00     0.146 A 
ATOM     11  O   UNL     1     -31.800  14.895  56.179  1.00  0.00    -0.452 OA
ENDROOT
BRANCH   1  12
ATOM     12  C   UNL     1     -30.445  16.850  56.570  1.00  0.00     0.025 A 
ATOM     13  C   UNL     1     -29.213  16.846  57.247  1.00  0.00     0.016 A 
ATOM     14  C   UNL     1     -28.201  17.735  56.877  1.00  0.00     0.051 A 
ATOM     15  C   UNL     1     -28.406  18.647  55.836  1.00  0.00     0.157 A 
ATOM     16  C   UNL     1     -30.655  17.782  55.541  1.00  0.00     0.062 A 
ATOM     17  C   UNL     1     -29.639  18.674  55.167  1.00  0.00     0.158 A 
BRANCH  15  18
ATOM     18  O   UNL     1     -27.375  19.520  55.488  1.00  0.00    -0.504 OA
ATOM     19  H   UNL     1     -27.503  20.258  54.805  1.00  0.00     0.293 HD
ENDBRANCH  15  18
BRANCH  17  20
ATOM     20  O   UNL     1     -29.854  19.585  54.134  1.00  0.00    -0.504 OA
ATOM     21  H   UNL     1     -30.431  20.408  54.263  1.00  0.00     0.293 HD
ENDBRANCH  17  20
ENDBRANCH   1  12
BRANCH   2  22
ATOM     22  O   UNL     1     -31.964  17.161  59.018  1.00  0.00    -0.502 OA
ATOM     23  H   UNL     1     -31.045  17.256  59.434  1.00  0.00     0.293 HD
ENDBRANCH   2  22
BRANCH   6  24
ATOM     24  O   UNL     1     -35.654  13.331  58.724  1.00  0.00    -0.507 OA
ATOM     25  H   UNL     1     -35.846  12.620  59.412  1.00  0.00     0.293 HD
ENDBRANCH   6  24
BRANCH   8  26
ATOM     26  O   UNL     1     -34.096  10.923  54.893  1.00  0.00    -0.508 OA
ATOM     27  H   UNL     1     -34.358  11.051  53.923  1.00  0.00     0.293 HD
ENDBRANCH   8  26
TORSDOF 6
ENDMDL
MODEL 8
REMARK VINA RESULT:    -7.628      1.974      6.993
REMARK INTER + INTRA:          -9.472
REMARK INTER:                  -9.149
REMARK INTRA:                  -0.323
REMARK UNBOUND:                -0.284
REMARK SMILES O=c1c(O)c(-c2ccc(O)c(O)c2)oc2cc(O)cc(O)c12
REMARK SMILES IDX 5 1 3 2 2 3 1 4 22 5 20 6 19 7 17 8 16 9 15 10 14 11 6 12
REMARK SMILES IDX 7 13 8 14 9 15 13 16 11 17 10 18 12 20 4 22 21 24 18 26
REMARK H PARENT 10 19 12 21 4 23 21 25 18 27
REMARK Flexibility Score: inf
ROOT
ATOM      1  C   UNL     1     -31.802  16.325  56.375  1.00  0.00     0.180 A 
ATOM      2  C   UNL     1     -31.153  15.101  56.614  1.00  0.00     0.208 A 
ATOM      3  C   UNL     1     -31.856  13.904  56.405  1.00  0.00     0.238 A 
ATOM      4  O   UNL     1     -31.253  12.812  56.569  1.00  0.00    -0.285 OA
ATOM      5  C   UNL     1     -33.204  13.946  55.974  1.00  0.00     0.111 A 
ATOM      6  C   UNL     1     -34.025  12.797  55.770  1.00  0.00     0.134 A 
ATOM      7  C   UNL     1     -35.303  12.949  55.218  1.00  0.00     0.093 A 
ATOM      8  C   UNL     1     -35.814  14.213  54.925  1.00  0.00     0.123 A 
ATOM      9  C   UNL     1     -35.043  15.349  55.176  1.00  0.00     0.094 A 
ATOM     10  C   UNL     1     -33.750  15.225  55.693  1.00  0.00     0.146 A 
ATOM     11  O   UNL     1     -33.045  16.330  55.908  1.00  0.00    -0.452 OA
ENDROOT
BRANCH   1  12
ATOM     12  C   UNL     1     -31.134  17.628  56.596  1.00  0.00     0.025 A 
ATOM     13  C   UNL     1     -30.400  18.256  55.574  1.00  0.00     0.016 A 
ATOM     14  C   UNL     1     -29.757  19.473  55.813  1.00  0.00     0.051 A 
ATOM     15  C   UNL     1     -29.826  20.075  57.074  1.00  0.00     0.157 A 
ATOM     16  C   UNL     1     -31.183  18.224  57.867  1.00  0.00     0.062 A 
ATOM     17  C   UNL     1     -30.538  19.447  58.108  1.00  0.00     0.158 A 
BRANCH  15  18
ATOM     18  O   UNL     1     -29.175  21.292  57.281  1.00  0.00    -0.504 OA
ATOM     19  H   UNL     1     -28.968  21.927  56.519  1.00  0.00     0.293 HD
ENDBRANCH  15  18
BRANCH  17  20
ATOM     20  O   UNL     1     -30.605  20.036  59.369  1.00  0.00    -0.504 OA
ATOM     21  H   UNL     1     -30.816  21.021  59.484  1.00  0.00     0.293 HD
ENDBRANCH  17  20
ENDBRANCH   1  12
BRANCH   2  22
ATOM     22  O   UNL     1     -29.815  15.083  57.018  1.00  0.00    -0.502 OA
ATOM     23  H   UNL     1     -29.070  15.474  56.452  1.00  0.00     0.293 HD
ENDBRANCH   2  22
BRANCH   6  24
ATOM     24  O   UNL     1     -33.646  11.496  56.115  1.00  0.00    -0.507 OA
ATOM     25  H   UNL     1     -33.461  10.757  55.454  1.00  0.00     0.293 HD
ENDBRANCH   6  24
BRANCH   8  26
ATOM     26  O   UNL     1     -37.095  14.330  54.391  1.00  0.00    -0.508 OA
ATOM     27  H   UNL     1     -37.717  13.532  54.324  1.00  0.00     0.293 HD
ENDBRANCH   8  26
TORSDOF 6
ENDMDL
MODEL 9
REMARK VINA RESULT:    -7.405      2.044      7.691
REMARK INTER + INTRA:          -9.203
REMARK INTER:                  -8.967
REMARK INTRA:                  -0.236
REMARK UNBOUND:                -0.284
REMARK SMILES O=c1c(O)c(-c2ccc(O)c(O)c2)oc2cc(O)cc(O)c12
REMARK SMILES IDX 5 1 3 2 2 3 1 4 22 5 20 6 19 7 17 8 16 9 15 10 14 11 6 12
REMARK SMILES IDX 7 13 8 14 9 15 13 16 11 17 10 18 12 20 4 22 21 24 18 26
REMARK H PARENT 10 19 12 21 4 23 21 25 18 27
REMARK Flexibility Score: inf
ROOT
ATOM      1  C   UNL     1     -32.869  15.336  57.410  1.00  0.00     0.180 A 
ATOM      2  C   UNL     1     -33.486  15.013  58.631  1.00  0.00     0.208 A 
ATOM      3  C   UNL     1     -34.590  14.146  58.630  1.00  0.00     0.238 A 
ATOM      4  O   UNL     1     -35.103  13.819  59.731  1.00  0.00    -0.285 OA
ATOM      5  C   UNL     1     -35.074  13.625  57.406  1.00  0.00     0.111 A 
ATOM      6  C   UNL     1     -36.210  12.770  57.282  1.00  0.00     0.134 A 
ATOM      7  C   UNL     1     -36.521  12.209  56.037  1.00  0.00     0.093 A 
ATOM      8  C   UNL     1     -35.777  12.523  54.900  1.00  0.00     0.123 A 
ATOM      9  C   UNL     1     -34.699  13.405  54.998  1.00  0.00     0.094 A 
ATOM     10  C   UNL     1     -34.344  13.952  56.234  1.00  0.00     0.146 A 
ATOM     11  O   UNL     1     -33.306  14.778  56.285  1.00  0.00    -0.452 OA
ENDROOT
BRANCH   1  12
ATOM     12  C   UNL     1     -31.717  16.261  57.328  1.00  0.00     0.025 A 
ATOM     13  C   UNL     1     -30.415  15.789  57.086  1.00  0.00     0.016 A 
ATOM     14  C   UNL     1     -29.338  16.678  57.039  1.00  0.00     0.051 A 
ATOM     15  C   UNL     1     -29.541  18.046  57.244  1.00  0.00     0.157 A 
ATOM     16  C   UNL     1     -31.914  17.633  57.556  1.00  0.00     0.062 A 
ATOM     17  C   UNL     1     -30.834  18.527  57.508  1.00  0.00     0.158 A 
BRANCH  15  18
ATOM     18  O   UNL     1     -28.446  18.910  57.188  1.00  0.00    -0.504 OA
ATOM     19  H   UNL     1     -28.557  19.916  57.147  1.00  0.00     0.293 HD
ENDBRANCH  15  18
BRANCH  17  20
ATOM     20  O   UNL     1     -31.042  19.889  57.720  1.00  0.00    -0.504 OA
ATOM     21  H   UNL     1     -31.640  20.436  57.112  1.00  0.00     0.293 HD
ENDBRANCH  17  20
ENDBRANCH   1  12
BRANCH   2  22
ATOM     22  O   UNL     1     -32.978  15.522  59.830  1.00  0.00    -0.502 OA
ATOM     23  H   UNL     1     -31.985  15.652  59.989  1.00  0.00     0.293 HD
ENDBRANCH   2  22
BRANCH   6  24
ATOM     24  O   UNL     1     -37.075  12.464  58.337  1.00  0.00    -0.507 OA
ATOM     25  H   UNL     1     -38.057  12.262  58.235  1.00  0.00     0.293 HD
ENDBRANCH   6  24
BRANCH   8  26
ATOM     26  O   UNL     1     -36.123  11.960  53.675  1.00  0.00    -0.508 OA
ATOM     27  H   UNL     1     -36.694  11.124  53.617  1.00  0.00     0.293 HD
ENDBRANCH   8  26
TORSDOF 6
ENDMDL
