MODEL 1
REMARK VINA RESULT:     1.095      0.000      0.000
REMARK INTER + INTRA:           1.079
REMARK INTER:                   1.318
REMARK INTRA:                  -0.239
REMARK UNBOUND:                -0.239
REMARK SMILES O=c1c(O)c(-c2ccc(O)c(O)c2)oc2cc(O)cc(O)c12
REMARK SMILES IDX 5 1 3 2 2 3 1 4 22 5 20 6 19 7 17 8 16 9 15 10 14 11 6 12
REMARK SMILES IDX 7 13 8 14 9 15 13 16 11 17 10 18 12 20 4 22 21 24 18 26
REMARK H PARENT 10 19 12 21 4 23 21 25 18 27
REMARK Flexibility Score: inf
ROOT
ATOM      1  C   UNL     1     -14.714  -9.108   5.189  1.00  0.00     0.180 A 
ATOM      2  C   UNL     1     -15.812  -9.406   4.362  1.00  0.00     0.208 A 
ATOM      3  C   UNL     1     -17.046  -9.720   4.954  1.00  0.00     0.238 A 
ATOM      4  O   UNL     1     -18.009 -10.039   4.210  1.00  0.00    -0.285 OA
ATOM      5  C   UNL     1     -17.171  -9.717   6.365  1.00  0.00     0.111 A 
ATOM      6  C   UNL     1     -18.384  -9.980   7.070  1.00  0.00     0.134 A 
ATOM      7  C   UNL     1     -18.362 -10.079   8.467  1.00  0.00     0.093 A 
ATOM      8  C   UNL     1     -17.185  -9.858   9.186  1.00  0.00     0.123 A 
ATOM      9  C   UNL     1     -16.010  -9.542   8.509  1.00  0.00     0.094 A 
ATOM     10  C   UNL     1     -15.992  -9.473   7.114  1.00  0.00     0.146 A 
ATOM     11  O   UNL     1     -14.847  -9.178   6.509  1.00  0.00    -0.452 OA
ENDROOT
BRANCH   1  12
ATOM     12  C   UNL     1     -13.388  -8.745   4.639  1.00  0.00     0.025 A 
ATOM     13  C   UNL     1     -12.311  -9.648   4.671  1.00  0.00     0.016 A 
ATOM     14  C   UNL     1     -11.075  -9.292   4.124  1.00  0.00     0.051 A 
ATOM     15  C   UNL     1     -10.900  -8.038   3.527  1.00  0.00     0.157 A 
ATOM     16  C   UNL     1     -13.215  -7.497   4.020  1.00  0.00     0.062 A 
ATOM     17  C   UNL     1     -11.978  -7.137   3.472  1.00  0.00     0.158 A 
BRANCH  15  18
ATOM     18  O   UNL     1      -9.667  -7.686   2.983  1.00  0.00    -0.504 OA
ATOM     19  H   UNL     1      -9.597  -7.168   2.114  1.00  0.00     0.293 HD
ENDBRANCH  15  18
BRANCH  17  20
ATOM     20  O   UNL     1     -11.839  -5.884   2.877  1.00  0.00    -0.504 OA
ATOM     21  H   UNL     1     -12.239  -5.047   3.285  1.00  0.00     0.293 HD
ENDBRANCH  17  20
ENDBRANCH   1  12
BRANCH   2  22
ATOM     22  O   UNL     1     -15.659  -9.426   2.973  1.00  0.00    -0.502 OA
ATOM     23  H   UNL     1     -14.773  -9.238   2.520  1.00  0.00     0.293 HD
ENDBRANCH   2  22
BRANCH   6  24
ATOM     24  O   UNL     1     -19.630 -10.125   6.453  1.00  0.00    -0.507 OA
ATOM     25  H   UNL     1     -19.860  -9.777   5.534  1.00  0.00     0.293 HD
ENDBRANCH   6  24
BRANCH   8  26
ATOM     26  O   UNL     1     -17.176  -9.942  10.577  1.00  0.00    -0.508 OA
ATOM     27  H   UNL     1     -17.269  -9.119  11.159  1.00  0.00     0.293 HD
ENDBRANCH   8  26
TORSDOF 6
ENDMDL
MODEL 2
REMARK VINA RESULT:     3.239      1.958      6.990
REMARK INTER + INTRA:           3.662
REMARK INTER:                   3.441
REMARK INTRA:                   0.222
REMARK UNBOUND:                -0.239
REMARK SMILES O=c1c(O)c(-c2ccc(O)c(O)c2)oc2cc(O)cc(O)c12
REMARK SMILES IDX 5 1 3 2 2 3 1 4 22 5 20 6 19 7 17 8 16 9 15 10 14 11 6 12
REMARK SMILES IDX 7 13 8 14 9 15 13 16 11 17 10 18 12 20 4 22 21 24 18 26
REMARK H PARENT 10 19 12 21 4 23 21 25 18 27
REMARK Flexibility Score: inf
ROOT
ATOM      1  C   UNL     1     -15.112  -8.130   6.644  1.00  0.00     0.180 A 
ATOM      2  C   UNL     1     -15.151  -6.780   6.256  1.00  0.00     0.208 A 
ATOM      3  C   UNL     1     -14.293  -6.338   5.237  1.00  0.00     0.238 A 
ATOM      4  O   UNL     1     -14.295  -5.117   4.932  1.00  0.00    -0.285 OA
ATOM      5  C   UNL     1     -13.417  -7.255   4.607  1.00  0.00     0.111 A 
ATOM      6  C   UNL     1     -12.533  -6.926   3.536  1.00  0.00     0.134 A 
ATOM      7  C   UNL     1     -11.618  -7.882   3.077  1.00  0.00     0.093 A 
ATOM      8  C   UNL     1     -11.602  -9.174   3.606  1.00  0.00     0.123 A 
ATOM      9  C   UNL     1     -12.501  -9.523   4.611  1.00  0.00     0.094 A 
ATOM     10  C   UNL     1     -13.400  -8.580   5.115  1.00  0.00     0.146 A 
ATOM     11  O   UNL     1     -14.233  -8.951   6.080  1.00  0.00    -0.452 OA
ENDROOT
BRANCH   1  12
ATOM     12  C   UNL     1     -16.002  -8.676   7.694  1.00  0.00     0.025 A 
ATOM     13  C   UNL     1     -15.545  -9.634   8.616  1.00  0.00     0.016 A 
ATOM     14  C   UNL     1     -16.396 -10.117   9.614  1.00  0.00     0.051 A 
ATOM     15  C   UNL     1     -17.710  -9.641   9.714  1.00  0.00     0.157 A 
ATOM     16  C   UNL     1     -17.313  -8.186   7.812  1.00  0.00     0.062 A 
ATOM     17  C   UNL     1     -18.169  -8.668   8.810  1.00  0.00     0.158 A 
BRANCH  15  18
ATOM     18  O   UNL     1     -18.556 -10.125  10.710  1.00  0.00    -0.504 OA
ATOM     19  H   UNL     1     -18.681 -11.119  10.864  1.00  0.00     0.293 HD
ENDBRANCH  15  18
BRANCH  17  20
ATOM     20  O   UNL     1     -19.468  -8.168   8.888  1.00  0.00    -0.504 OA
ATOM     21  H   UNL     1     -19.939  -7.765   8.087  1.00  0.00     0.293 HD
ENDBRANCH  17  20
ENDBRANCH   1  12
BRANCH   2  22
ATOM     22  O   UNL     1     -16.008  -5.886   6.907  1.00  0.00    -0.502 OA
ATOM     23  H   UNL     1     -16.987  -5.798   6.664  1.00  0.00     0.293 HD
ENDBRANCH   2  22
BRANCH   6  24
ATOM     24  O   UNL     1     -12.532  -5.694   2.875  1.00  0.00    -0.507 OA
ATOM     25  H   UNL     1     -13.232  -5.397   2.211  1.00  0.00     0.293 HD
ENDBRANCH   6  24
BRANCH   8  26
ATOM     26  O   UNL     1     -10.698 -10.124   3.133  1.00  0.00    -0.508 OA
ATOM     27  H   UNL     1     -10.955 -10.787   2.411  1.00  0.00     0.293 HD
ENDBRANCH   8  26
TORSDOF 6
ENDMDL
MODEL 3
REMARK VINA RESULT:     4.000      1.692      6.775
REMARK INTER + INTRA:           4.580
REMARK INTER:                   4.243
REMARK INTRA:                   0.337
REMARK UNBOUND:                -0.239
REMARK SMILES O=c1c(O)c(-c2ccc(O)c(O)c2)oc2cc(O)cc(O)c12
REMARK SMILES IDX 5 1 3 2 2 3 1 4 22 5 20 6 19 7 17 8 16 9 15 10 14 11 6 12
REMARK SMILES IDX 7 13 8 14 9 15 13 16 11 17 10 18 12 20 4 22 21 24 18 26
REMARK H PARENT 10 19 12 21 4 23 21 25 18 27
REMARK Flexibility Score: inf
ROOT
ATOM      1  C   UNL     1     -15.249  -9.341   6.637  1.00  0.00     0.180 A 
ATOM      2  C   UNL     1     -15.405  -8.783   5.357  1.00  0.00     0.208 A 
ATOM      3  C   UNL     1     -14.277  -8.636   4.535  1.00  0.00     0.238 A 
ATOM      4  O   UNL     1     -14.415  -8.086   3.412  1.00  0.00    -0.285 OA
ATOM      5  C   UNL     1     -13.008  -9.062   4.998  1.00  0.00     0.111 A 
ATOM      6  C   UNL     1     -11.804  -8.997   4.234  1.00  0.00     0.134 A 
ATOM      7  C   UNL     1     -10.584  -9.326   4.839  1.00  0.00     0.093 A 
ATOM      8  C   UNL     1     -10.535  -9.780   6.159  1.00  0.00     0.123 A 
ATOM      9  C   UNL     1     -11.712  -9.903   6.893  1.00  0.00     0.094 A 
ATOM     10  C   UNL     1     -12.940  -9.547   6.329  1.00  0.00     0.146 A 
ATOM     11  O   UNL     1     -14.036  -9.671   7.067  1.00  0.00    -0.452 OA
ENDROOT
BRANCH   1  12
ATOM     12  C   UNL     1     -16.394  -9.551   7.552  1.00  0.00     0.025 A 
ATOM     13  C   UNL     1     -16.234  -9.503   8.948  1.00  0.00     0.016 A 
ATOM     14  C   UNL     1     -17.334  -9.680   9.792  1.00  0.00     0.051 A 
ATOM     15  C   UNL     1     -18.610  -9.893   9.255  1.00  0.00     0.157 A 
ATOM     16  C   UNL     1     -17.679  -9.744   7.019  1.00  0.00     0.062 A 
ATOM     17  C   UNL     1     -18.783  -9.922   7.861  1.00  0.00     0.158 A 
BRANCH  15  18
ATOM     18  O   UNL     1     -19.705 -10.070  10.099  1.00  0.00    -0.504 OA
ATOM     19  H   UNL     1     -20.459  -9.394  10.139  1.00  0.00     0.293 HD
ENDBRANCH  15  18
BRANCH  17  20
ATOM     20  O   UNL     1     -20.041 -10.125   7.295  1.00  0.00    -0.504 OA
ATOM     21  H   UNL     1     -20.160 -10.347   6.313  1.00  0.00     0.293 HD
ENDBRANCH  17  20
ENDBRANCH   1  12
BRANCH   2  22
ATOM     22  O   UNL     1     -16.663  -8.348   4.929  1.00  0.00    -0.502 OA
ATOM     23  H   UNL     1     -17.504  -8.499   5.473  1.00  0.00     0.293 HD
ENDBRANCH   2  22
BRANCH   6  24
ATOM     24  O   UNL     1     -11.755  -8.646   2.881  1.00  0.00    -0.507 OA
ATOM     25  H   UNL     1     -11.172  -9.096   2.192  1.00  0.00     0.293 HD
ENDBRANCH   6  24
BRANCH   8  26
ATOM     26  O   UNL     1      -9.319 -10.120   6.748  1.00  0.00    -0.508 OA
ATOM     27  H   UNL     1      -8.492 -10.301   6.191  1.00  0.00     0.293 HD
ENDBRANCH   8  26
TORSDOF 6
ENDMDL
MODEL 4
REMARK VINA RESULT:     4.087      1.515      2.026
REMARK INTER + INTRA:           4.685
REMARK INTER:                   5.011
REMARK INTRA:                  -0.327
REMARK UNBOUND:                -0.239
REMARK SMILES O=c1c(O)c(-c2ccc(O)c(O)c2)oc2cc(O)cc(O)c12
REMARK SMILES IDX 5 1 3 2 2 3 1 4 22 5 20 6 19 7 17 8 16 9 15 10 14 11 6 12
REMARK SMILES IDX 7 13 8 14 9 15 13 16 11 17 10 18 12 20 4 22 21 24 18 26
REMARK H PARENT 10 19 12 21 4 23 21 25 18 27
REMARK Flexibility Score: inf
ROOT
ATOM      1  C   UNL     1     -14.573  -8.546   5.682  1.00  0.00     0.180 A 
ATOM      2  C   UNL     1     -15.647  -9.312   5.195  1.00  0.00     0.208 A 
ATOM      3  C   UNL     1     -16.825  -9.393   5.954  1.00  0.00     0.238 A 
ATOM      4  O   UNL     1     -17.762 -10.124   5.539  1.00  0.00    -0.285 OA
ATOM      5  C   UNL     1     -16.921  -8.695   7.182  1.00  0.00     0.111 A 
ATOM      6  C   UNL     1     -18.082  -8.674   8.013  1.00  0.00     0.134 A 
ATOM      7  C   UNL     1     -18.021  -8.057   9.269  1.00  0.00     0.093 A 
ATOM      8  C   UNL     1     -16.861  -7.405   9.694  1.00  0.00     0.123 A 
ATOM      9  C   UNL     1     -15.743  -7.369   8.866  1.00  0.00     0.094 A 
ATOM     10  C   UNL     1     -15.761  -8.007   7.622  1.00  0.00     0.146 A 
ATOM     11  O   UNL     1     -14.670  -7.957   6.868  1.00  0.00    -0.452 OA
ENDROOT
BRANCH   1  12
ATOM     12  C   UNL     1     -13.308  -8.393   4.928  1.00  0.00     0.025 A 
ATOM     13  C   UNL     1     -13.171  -7.424   3.917  1.00  0.00     0.016 A 
ATOM     14  C   UNL     1     -11.960  -7.282   3.235  1.00  0.00     0.051 A 
ATOM     15  C   UNL     1     -10.865  -8.093   3.560  1.00  0.00     0.157 A 
ATOM     16  C   UNL     1     -12.201  -9.189   5.264  1.00  0.00     0.062 A 
ATOM     17  C   UNL     1     -10.986  -9.049   4.583  1.00  0.00     0.158 A 
BRANCH  15  18
ATOM     18  O   UNL     1      -9.659  -7.948   2.878  1.00  0.00    -0.504 OA
ATOM     19  H   UNL     1      -9.610  -8.011   1.867  1.00  0.00     0.293 HD
ENDBRANCH  15  18
BRANCH  17  20
ATOM     20  O   UNL     1      -9.914  -9.867   4.936  1.00  0.00    -0.504 OA
ATOM     21  H   UNL     1      -9.142  -9.529   5.499  1.00  0.00     0.293 HD
ENDBRANCH  17  20
ENDBRANCH   1  12
BRANCH   2  22
ATOM     22  O   UNL     1     -15.522 -10.011   3.991  1.00  0.00    -0.502 OA
ATOM     23  H   UNL     1     -14.623 -10.257   3.596  1.00  0.00     0.293 HD
ENDBRANCH   2  22
BRANCH   6  24
ATOM     24  O   UNL     1     -19.317  -9.215   7.643  1.00  0.00    -0.507 OA
ATOM     25  H   UNL     1     -19.859  -8.917   6.846  1.00  0.00     0.293 HD
ENDBRANCH   6  24
BRANCH   8  26
ATOM     26  O   UNL     1     -16.814  -6.780  10.939  1.00  0.00    -0.508 OA
ATOM     27  H   UNL     1     -17.306  -7.157  11.741  1.00  0.00     0.293 HD
ENDBRANCH   8  26
TORSDOF 6
ENDMDL
