MODEL 1
REMARK VINA RESULT:    -6.678      0.000      0.000
REMARK INTER + INTRA:         -11.212
REMARK INTER:                  -9.802
REMARK INTRA:                  -1.411
REMARK UNBOUND:                -1.411
REMARK SMILES O=c1c(OC[C@H]2O[C@@H](O)[C@H](O)[C@@H](O)[C@@H]2O)c(-c2ccc(O)c(O)c2)oc2cc(O)cc(O)c12
REMARK SMILES IDX 4 1 3 2 16 3 25 4 2 5 26 6 1 7 33 8 27 9 31 10 28 11 30 12
REMARK SMILES IDX 17 13 18 14 19 15 20 16 24 17 22 18 21 19 23 21 32 23 29 25
REMARK SMILES IDX 5 27 6 28 14 29 7 30 12 31 8 32 10 33 15 34 13 36 9 38 11 40
REMARK H PARENT 21 20 23 22 32 24 29 26 15 35 13 37 9 39 11 41
REMARK Flexibility Score: inf
ROOT
ATOM      1  O   UNL     1      13.005   1.123   1.421  1.00  0.00    -0.483 OA
ENDROOT
BRANCH   1   2
ATOM      2  C   UNL     1      12.239   1.939   0.578  1.00  0.00     0.211 A 
ATOM      3  C   UNL     1      12.765   2.386  -0.653  1.00  0.00     0.180 A 
ATOM      4  O   UNL     1      12.089   3.274  -1.375  1.00  0.00    -0.452 OA
ATOM      5  C   UNL     1      10.955   2.360   0.959  1.00  0.00     0.239 A 
ATOM      6  C   UNL     1      10.895   3.742  -1.025  1.00  0.00     0.146 A 
ATOM      7  O   UNL     1      10.452   1.922   2.028  1.00  0.00    -0.285 OA
ATOM      8  C   UNL     1      10.251   3.274   0.147  1.00  0.00     0.111 A 
ATOM      9  C   UNL     1      10.284   4.713  -1.825  1.00  0.00     0.094 A 
ATOM     10  C   UNL     1       8.964   3.764   0.466  1.00  0.00     0.134 A 
ATOM     11  C   UNL     1       9.029   5.224  -1.481  1.00  0.00     0.123 A 
ATOM     12  C   UNL     1       8.361   4.728  -0.357  1.00  0.00     0.093 A 
BRANCH   3  13
ATOM     13  C   UNL     1      14.086   1.940  -1.153  1.00  0.00     0.025 A 
ATOM     14  C   UNL     1      15.226   2.698  -0.853  1.00  0.00     0.016 A 
ATOM     15  C   UNL     1      16.486   2.293  -1.300  1.00  0.00     0.051 A 
ATOM     16  C   UNL     1      16.628   1.141  -2.076  1.00  0.00     0.157 A 
ATOM     17  C   UNL     1      14.222   0.802  -1.966  1.00  0.00     0.062 A 
ATOM     18  C   UNL     1      15.479   0.395  -2.434  1.00  0.00     0.158 A 
BRANCH  16  19
ATOM     19  O   UNL     1      17.915   0.775  -2.469  1.00  0.00    -0.504 OA
ATOM     20  H   UNL     1      18.263   0.882  -3.411  1.00  0.00     0.293 HD
ENDBRANCH  16  19
BRANCH  18  21
ATOM     21  O   UNL     1      15.540  -0.738  -3.238  1.00  0.00    -0.504 OA
ATOM     22  H   UNL     1      15.081  -1.610  -3.015  1.00  0.00     0.293 HD
ENDBRANCH  18  21
ENDBRANCH   3  13
BRANCH  10  23
ATOM     23  O   UNL     1       8.282   3.304   1.597  1.00  0.00    -0.507 OA
ATOM     24  H   UNL     1       8.756   2.791   2.329  1.00  0.00     0.293 HD
ENDBRANCH  10  23
BRANCH  11  25
ATOM     25  O   UNL     1       8.444   6.243  -2.235  1.00  0.00    -0.508 OA
ATOM     26  H   UNL     1       7.475   6.511  -2.103  1.00  0.00     0.293 HD
ENDBRANCH  11  25
ENDBRANCH   1   2
BRANCH   1  27
ATOM     27  C   UNL     1      13.973   1.639   2.337  1.00  0.00     0.265 C 
BRANCH  27  28
ATOM     28  C   UNL     1      14.227   0.642   3.484  1.00  0.00     0.190 C 
ATOM     29  C   UNL     1      12.973   0.485   4.363  1.00  0.00     0.178 C 
ATOM     30  O   UNL     1      15.320   1.102   4.263  1.00  0.00    -0.340 OA
ATOM     31  C   UNL     1      13.271  -0.439   5.560  1.00  0.00     0.179 C 
ATOM     32  C   UNL     1      15.709   0.111   5.192  1.00  0.00     0.279 C 
ATOM     33  C   UNL     1      14.607  -0.085   6.243  1.00  0.00     0.201 C 
BRANCH  29  34
ATOM     34  O   UNL     1      11.939  -0.075   3.597  1.00  0.00    -0.387 OA
ATOM     35  H   UNL     1      11.432   0.680   3.200  1.00  0.00     0.211 HD
ENDBRANCH  29  34
BRANCH  31  36
ATOM     36  O   UNL     1      12.228  -0.326   6.496  1.00  0.00    -0.387 OA
ATOM     37  H   UNL     1      12.578   0.219   7.247  1.00  0.00     0.211 HD
ENDBRANCH  31  36
BRANCH  32  38
ATOM     38  O   UNL     1      16.901   0.504   5.823  1.00  0.00    -0.366 OA
ATOM     39  H   UNL     1      17.188   1.354   5.401  1.00  0.00     0.213 HD
ENDBRANCH  32  38
BRANCH  33  40
ATOM     40  O   UNL     1      14.972  -1.125   7.119  1.00  0.00    -0.385 OA
ATOM     41  H   UNL     1      14.202  -1.750   7.161  1.00  0.00     0.211 HD
ENDBRANCH  33  40
ENDBRANCH  27  28
ENDBRANCH   1  27
TORSDOF 12
ENDMDL
MODEL 2
REMARK VINA RESULT:    -6.548      1.897      7.098
REMARK INTER + INTRA:         -11.022
REMARK INTER:                  -9.758
REMARK INTRA:                  -1.264
REMARK UNBOUND:                -1.411
REMARK SMILES O=c1c(OC[C@H]2O[C@@H](O)[C@H](O)[C@@H](O)[C@@H]2O)c(-c2ccc(O)c(O)c2)oc2cc(O)cc(O)c12
REMARK SMILES IDX 4 1 3 2 16 3 25 4 2 5 26 6 1 7 33 8 27 9 31 10 28 11 30 12
REMARK SMILES IDX 17 13 18 14 19 15 20 16 24 17 22 18 21 19 23 21 32 23 29 25
REMARK SMILES IDX 5 27 6 28 14 29 7 30 12 31 8 32 10 33 15 34 13 36 9 38 11 40
REMARK H PARENT 21 20 23 22 32 24 29 26 15 35 13 37 9 39 11 41
REMARK Flexibility Score: inf
ROOT
ATOM      1  O   UNL     1      12.827   0.240   2.167  1.00  0.00    -0.483 OA
ENDROOT
BRANCH   1   2
ATOM      2  C   UNL     1      13.764   0.678   3.113  1.00  0.00     0.211 A 
ATOM      3  C   UNL     1      14.707   1.670   2.774  1.00  0.00     0.180 A 
ATOM      4  O   UNL     1      15.680   1.974   3.628  1.00  0.00    -0.452 OA
ATOM      5  C   UNL     1      13.807   0.110   4.396  1.00  0.00     0.239 A 
ATOM      6  C   UNL     1      15.793   1.421   4.832  1.00  0.00     0.146 A 
ATOM      7  O   UNL     1      12.934  -0.735   4.730  1.00  0.00    -0.285 OA
ATOM      8  C   UNL     1      14.832   0.486   5.290  1.00  0.00     0.111 A 
ATOM      9  C   UNL     1      16.880   1.768   5.640  1.00  0.00     0.094 A 
ATOM     10  C   UNL     1      14.962  -0.050   6.592  1.00  0.00     0.134 A 
ATOM     11  C   UNL     1      17.025   1.201   6.911  1.00  0.00     0.123 A 
ATOM     12  C   UNL     1      16.053   0.320   7.393  1.00  0.00     0.093 A 
BRANCH   3  13
ATOM     13  C   UNL     1      14.691   2.360   1.463  1.00  0.00     0.025 A 
ATOM     14  C   UNL     1      14.719   3.760   1.423  1.00  0.00     0.016 A 
ATOM     15  C   UNL     1      14.718   4.435   0.200  1.00  0.00     0.051 A 
ATOM     16  C   UNL     1      14.662   3.728  -1.002  1.00  0.00     0.157 A 
ATOM     17  C   UNL     1      14.595   1.648   0.256  1.00  0.00     0.062 A 
ATOM     18  C   UNL     1      14.578   2.315  -0.977  1.00  0.00     0.158 A 
BRANCH  16  19
ATOM     19  O   UNL     1      14.692   4.459  -2.190  1.00  0.00    -0.504 OA
ATOM     20  H   UNL     1      15.358   4.295  -2.931  1.00  0.00     0.293 HD
ENDBRANCH  16  19
BRANCH  18  21
ATOM     21  O   UNL     1      14.476   1.547  -2.132  1.00  0.00    -0.504 OA
ATOM     22  H   UNL     1      15.137   0.827  -2.387  1.00  0.00     0.293 HD
ENDBRANCH  18  21
ENDBRANCH   3  13
BRANCH  10  23
ATOM     23  O   UNL     1      14.018  -0.953   7.092  1.00  0.00    -0.507 OA
ATOM     24  H   UNL     1      14.105  -1.353   8.018  1.00  0.00     0.293 HD
ENDBRANCH  10  23
BRANCH  11  25
ATOM     25  O   UNL     1      18.143   1.489   7.695  1.00  0.00    -0.508 OA
ATOM     26  H   UNL     1      18.678   0.755   8.146  1.00  0.00     0.293 HD
ENDBRANCH  11  25
ENDBRANCH   1   2
BRANCH   1  27
ATOM     27  C   UNL     1      11.420   0.437   2.313  1.00  0.00     0.265 C 
BRANCH  27  28
ATOM     28  C   UNL     1      10.884   1.386   1.224  1.00  0.00     0.190 C 
ATOM     29  C   UNL     1      11.233   0.862  -0.180  1.00  0.00     0.178 C 
ATOM     30  O   UNL     1      11.439   2.677   1.420  1.00  0.00    -0.340 OA
ATOM     31  C   UNL     1      10.777   1.868  -1.256  1.00  0.00     0.179 C 
ATOM     32  C   UNL     1      10.811   3.613   0.569  1.00  0.00     0.279 C 
ATOM     33  C   UNL     1      11.166   3.315  -0.895  1.00  0.00     0.201 C 
BRANCH  29  34
ATOM     34  O   UNL     1      10.582  -0.363  -0.392  1.00  0.00    -0.387 OA
ATOM     35  H   UNL     1       9.893  -0.208  -1.089  1.00  0.00     0.211 HD
ENDBRANCH  29  34
BRANCH  31  36
ATOM     36  O   UNL     1      11.366   1.523  -2.485  1.00  0.00    -0.387 OA
ATOM     37  H   UNL     1      11.137   2.248  -3.122  1.00  0.00     0.211 HD
ENDBRANCH  31  36
BRANCH  32  38
ATOM     38  O   UNL     1      11.237   4.909   0.905  1.00  0.00    -0.366 OA
ATOM     39  H   UNL     1      11.968   5.147   0.281  1.00  0.00     0.213 HD
ENDBRANCH  32  38
BRANCH  33  40
ATOM     40  O   UNL     1      10.477   4.207  -1.737  1.00  0.00    -0.385 OA
ATOM     41  H   UNL     1       9.694   4.540  -1.225  1.00  0.00     0.211 HD
ENDBRANCH  33  40
ENDBRANCH  27  28
ENDBRANCH   1  27
TORSDOF 12
ENDMDL
MODEL 3
REMARK VINA RESULT:    -6.402      0.916      2.151
REMARK INTER + INTRA:         -10.807
REMARK INTER:                  -9.849
REMARK INTRA:                  -0.958
REMARK UNBOUND:                -1.411
REMARK SMILES O=c1c(OC[C@H]2O[C@@H](O)[C@H](O)[C@@H](O)[C@@H]2O)c(-c2ccc(O)c(O)c2)oc2cc(O)cc(O)c12
REMARK SMILES IDX 4 1 3 2 16 3 25 4 2 5 26 6 1 7 33 8 27 9 31 10 28 11 30 12
REMARK SMILES IDX 17 13 18 14 19 15 20 16 24 17 22 18 21 19 23 21 32 23 29 25
REMARK SMILES IDX 5 27 6 28 14 29 7 30 12 31 8 32 10 33 15 34 13 36 9 38 11 40
REMARK H PARENT 21 20 23 22 32 24 29 26 15 35 13 37 9 39 11 41
REMARK Flexibility Score: inf
ROOT
ATOM      1  O   UNL     1      12.941   0.508   1.439  1.00  0.00    -0.483 OA
ENDROOT
BRANCH   1   2
ATOM      2  C   UNL     1      12.139   1.400   0.716  1.00  0.00     0.211 A 
ATOM      3  C   UNL     1      12.622   1.989  -0.472  1.00  0.00     0.180 A 
ATOM      4  O   UNL     1      11.914   2.942  -1.070  1.00  0.00    -0.452 OA
ATOM      5  C   UNL     1      10.863   1.756   1.180  1.00  0.00     0.239 A 
ATOM      6  C   UNL     1      10.725   3.350  -0.635  1.00  0.00     0.146 A 
ATOM      7  O   UNL     1      10.398   1.194   2.207  1.00  0.00    -0.285 OA
ATOM      8  C   UNL     1      10.124   2.744   0.496  1.00  0.00     0.111 A 
ATOM      9  C   UNL     1      10.078   4.395  -1.303  1.00  0.00     0.094 A 
ATOM     10  C   UNL     1       8.840   3.176   0.905  1.00  0.00     0.134 A 
ATOM     11  C   UNL     1       8.828   4.845  -0.867  1.00  0.00     0.123 A 
ATOM     12  C   UNL     1       8.202   4.216   0.214  1.00  0.00     0.093 A 
BRANCH   3  13
ATOM     13  C   UNL     1      13.932   1.622  -1.058  1.00  0.00     0.025 A 
ATOM     14  C   UNL     1      14.017   0.514  -1.911  1.00  0.00     0.016 A 
ATOM     15  C   UNL     1      15.237   0.154  -2.488  1.00  0.00     0.051 A 
ATOM     16  C   UNL     1      16.397   0.876  -2.205  1.00  0.00     0.157 A 
ATOM     17  C   UNL     1      15.106   2.326  -0.741  1.00  0.00     0.062 A 
ATOM     18  C   UNL     1      16.338   1.965  -1.302  1.00  0.00     0.158 A 
BRANCH  16  19
ATOM     19  O   UNL     1      17.579   0.483  -2.834  1.00  0.00    -0.504 OA
ATOM     20  H   UNL     1      17.894   0.860  -3.716  1.00  0.00     0.293 HD
ENDBRANCH  16  19
BRANCH  18  21
ATOM     21  O   UNL     1      17.460   2.702  -0.940  1.00  0.00    -0.504 OA
ATOM     22  H   UNL     1      17.417   3.604  -0.485  1.00  0.00     0.293 HD
ENDBRANCH  18  21
ENDBRANCH   3  13
BRANCH  10  23
ATOM     23  O   UNL     1       8.200   2.582   1.997  1.00  0.00    -0.507 OA
ATOM     24  H   UNL     1       8.027   1.586   2.033  1.00  0.00     0.293 HD
ENDBRANCH  10  23
BRANCH  11  25
ATOM     25  O   UNL     1       8.208   5.932  -1.485  1.00  0.00    -0.508 OA
ATOM     26  H   UNL     1       7.323   6.298  -1.151  1.00  0.00     0.293 HD
ENDBRANCH  11  25
ENDBRANCH   1   2
BRANCH   1  27
ATOM     27  C   UNL     1      14.049   0.926   2.239  1.00  0.00     0.265 C 
BRANCH  27  28
ATOM     28  C   UNL     1      13.671   0.944   3.733  1.00  0.00     0.190 C 
ATOM     29  C   UNL     1      14.929   0.872   4.618  1.00  0.00     0.178 C 
ATOM     30  O   UNL     1      12.814  -0.152   4.006  1.00  0.00    -0.340 OA
ATOM     31  C   UNL     1      14.532   0.792   6.105  1.00  0.00     0.179 C 
ATOM     32  C   UNL     1      12.286  -0.046   5.312  1.00  0.00     0.279 C 
ATOM     33  C   UNL     1      13.405  -0.230   6.348  1.00  0.00     0.201 C 
BRANCH  29  34
ATOM     34  O   UNL     1      15.706   2.022   4.411  1.00  0.00    -0.387 OA
ATOM     35  H   UNL     1      16.116   1.936   3.512  1.00  0.00     0.211 HD
ENDBRANCH  29  34
BRANCH  31  36
ATOM     36  O   UNL     1      15.660   0.427   6.861  1.00  0.00    -0.387 OA
ATOM     37  H   UNL     1      15.862  -0.516   6.629  1.00  0.00     0.211 HD
ENDBRANCH  31  36
BRANCH  32  38
ATOM     38  O   UNL     1      11.301  -1.030   5.499  1.00  0.00    -0.366 OA
ATOM     39  H   UNL     1      11.494  -1.476   6.363  1.00  0.00     0.213 HD
ENDBRANCH  32  38
BRANCH  33  40
ATOM     40  O   UNL     1      12.881  -0.049   7.642  1.00  0.00    -0.385 OA
ATOM     41  H   UNL     1      12.044   0.475   7.544  1.00  0.00     0.211 HD
ENDBRANCH  33  40
ENDBRANCH  27  28
ENDBRANCH   1  27
TORSDOF 12
ENDMDL
MODEL 4
REMARK VINA RESULT:    -6.277      2.421      7.356
REMARK INTER + INTRA:         -10.623
REMARK INTER:                  -9.456
REMARK INTRA:                  -1.167
REMARK UNBOUND:                -1.411
REMARK SMILES O=c1c(OC[C@H]2O[C@@H](O)[C@H](O)[C@@H](O)[C@@H]2O)c(-c2ccc(O)c(O)c2)oc2cc(O)cc(O)c12
REMARK SMILES IDX 4 1 3 2 16 3 25 4 2 5 26 6 1 7 33 8 27 9 31 10 28 11 30 12
REMARK SMILES IDX 17 13 18 14 19 15 20 16 24 17 22 18 21 19 23 21 32 23 29 25
REMARK SMILES IDX 5 27 6 28 14 29 7 30 12 31 8 32 10 33 15 34 13 36 9 38 11 40
REMARK H PARENT 21 20 23 22 32 24 29 26 15 35 13 37 9 39 11 41
REMARK Flexibility Score: inf
ROOT
ATOM      1  O   UNL     1      12.681   0.314   2.196  1.00  0.00    -0.483 OA
ENDROOT
BRANCH   1   2
ATOM      2  C   UNL     1      13.633   0.752   3.126  1.00  0.00     0.211 A 
ATOM      3  C   UNL     1      14.507   1.812   2.806  1.00  0.00     0.180 A 
ATOM      4  O   UNL     1      15.499   2.121   3.635  1.00  0.00    -0.452 OA
ATOM      5  C   UNL     1      13.763   0.118   4.371  1.00  0.00     0.239 A 
ATOM      6  C   UNL     1      15.694   1.511   4.800  1.00  0.00     0.146 A 
ATOM      7  O   UNL     1      12.951  -0.791   4.692  1.00  0.00    -0.285 OA
ATOM      8  C   UNL     1      14.805   0.500   5.242  1.00  0.00     0.111 A 
ATOM      9  C   UNL     1      16.796   1.872   5.581  1.00  0.00     0.094 A 
ATOM     10  C   UNL     1      15.020  -0.099   6.506  1.00  0.00     0.134 A 
ATOM     11  C   UNL     1      17.026   1.245   6.811  1.00  0.00     0.123 A 
ATOM     12  C   UNL     1      16.124   0.287   7.281  1.00  0.00     0.093 A 
BRANCH   3  13
ATOM     13  C   UNL     1      14.396   2.570   1.537  1.00  0.00     0.025 A 
ATOM     14  C   UNL     1      15.561   2.913   0.838  1.00  0.00     0.016 A 
ATOM     15  C   UNL     1      15.484   3.615  -0.367  1.00  0.00     0.051 A 
ATOM     16  C   UNL     1      14.249   4.009  -0.882  1.00  0.00     0.157 A 
ATOM     17  C   UNL     1      13.154   3.000   1.041  1.00  0.00     0.062 A 
ATOM     18  C   UNL     1      13.067   3.718  -0.159  1.00  0.00     0.158 A 
BRANCH  16  19
ATOM     19  O   UNL     1      14.238   4.684  -2.103  1.00  0.00    -0.504 OA
ATOM     20  H   UNL     1      13.709   5.528  -2.270  1.00  0.00     0.293 HD
ENDBRANCH  16  19
BRANCH  18  21
ATOM     21  O   UNL     1      11.806   4.117  -0.589  1.00  0.00    -0.504 OA
ATOM     22  H   UNL     1      11.597   4.390  -1.539  1.00  0.00     0.293 HD
ENDBRANCH  18  21
ENDBRANCH   3  13
BRANCH  10  23
ATOM     23  O   UNL     1      14.148  -1.079   6.992  1.00  0.00    -0.507 OA
ATOM     24  H   UNL     1      14.002  -1.950   6.498  1.00  0.00     0.293 HD
ENDBRANCH  10  23
BRANCH  11  25
ATOM     25  O   UNL     1      18.161   1.552   7.564  1.00  0.00    -0.508 OA
ATOM     26  H   UNL     1      19.019   1.866   7.125  1.00  0.00     0.293 HD
ENDBRANCH  11  25
ENDBRANCH   1   2
BRANCH   1  27
ATOM     27  C   UNL     1      12.853  -0.856   1.394  1.00  0.00     0.265 C 
BRANCH  27  28
ATOM     28  C   UNL     1      12.711  -0.520  -0.103  1.00  0.00     0.190 C 
ATOM     29  C   UNL     1      14.058  -0.064  -0.693  1.00  0.00     0.178 C 
ATOM     30  O   UNL     1      11.736   0.497  -0.260  1.00  0.00    -0.340 OA
ATOM     31  C   UNL     1      13.882   0.361  -2.164  1.00  0.00     0.179 C 
ATOM     32  C   UNL     1      11.435   0.680  -1.628  1.00  0.00     0.279 C 
ATOM     33  C   UNL     1      12.651   1.267  -2.359  1.00  0.00     0.201 C 
BRANCH  29  34
ATOM     34  O   UNL     1      14.975  -1.125  -0.628  1.00  0.00    -0.387 OA
ATOM     35  H   UNL     1      15.878  -0.722  -0.549  1.00  0.00     0.211 HD
ENDBRANCH  29  34
BRANCH  31  36
ATOM     36  O   UNL     1      15.035   1.048  -2.583  1.00  0.00    -0.387 OA
ATOM     37  H   UNL     1      15.547   0.419  -3.154  1.00  0.00     0.211 HD
ENDBRANCH  31  36
BRANCH  32  38
ATOM     38  O   UNL     1      10.341   1.552  -1.753  1.00  0.00    -0.366 OA
ATOM     39  H   UNL     1      10.229   1.744  -2.718  1.00  0.00     0.213 HD
ENDBRANCH  32  38
BRANCH  33  40
ATOM     40  O   UNL     1      12.365   1.376  -3.734  1.00  0.00    -0.385 OA
ATOM     41  H   UNL     1      11.913   2.249  -3.865  1.00  0.00     0.211 HD
ENDBRANCH  33  40
ENDBRANCH  27  28
ENDBRANCH   1  27
TORSDOF 12
ENDMDL
MODEL 5
REMARK VINA RESULT:    -6.151      1.278      2.023
REMARK INTER + INTRA:         -10.438
REMARK INTER:                  -9.830
REMARK INTRA:                  -0.608
REMARK UNBOUND:                -1.411
REMARK SMILES O=c1c(OC[C@H]2O[C@@H](O)[C@H](O)[C@@H](O)[C@@H]2O)c(-c2ccc(O)c(O)c2)oc2cc(O)cc(O)c12
REMARK SMILES IDX 4 1 3 2 16 3 25 4 2 5 26 6 1 7 33 8 27 9 31 10 28 11 30 12
REMARK SMILES IDX 17 13 18 14 19 15 20 16 24 17 22 18 21 19 23 21 32 23 29 25
REMARK SMILES IDX 5 27 6 28 14 29 7 30 12 31 8 32 10 33 15 34 13 36 9 38 11 40
REMARK H PARENT 21 20 23 22 32 24 29 26 15 35 13 37 9 39 11 41
REMARK Flexibility Score: inf
ROOT
ATOM      1  O   UNL     1      12.484   0.218   1.042  1.00  0.00    -0.483 OA
ENDROOT
BRANCH   1   2
ATOM      2  C   UNL     1      11.815   1.282   0.422  1.00  0.00     0.211 A 
ATOM      3  C   UNL     1      12.440   2.011  -0.611  1.00  0.00     0.180 A 
ATOM      4  O   UNL     1      11.857   3.106  -1.090  1.00  0.00    -0.452 OA
ATOM      5  C   UNL     1      10.533   1.667   0.844  1.00  0.00     0.239 A 
ATOM      6  C   UNL     1      10.668   3.538  -0.682  1.00  0.00     0.146 A 
ATOM      7  O   UNL     1       9.941   0.988   1.726  1.00  0.00    -0.285 OA
ATOM      8  C   UNL     1       9.929   2.812   0.284  1.00  0.00     0.111 A 
ATOM      9  C   UNL     1      10.159   4.729  -1.210  1.00  0.00     0.094 A 
ATOM     10  C   UNL     1       8.650   3.281   0.665  1.00  0.00     0.134 A 
ATOM     11  C   UNL     1       8.912   5.209  -0.797  1.00  0.00     0.123 A 
ATOM     12  C   UNL     1       8.150   4.470   0.113  1.00  0.00     0.093 A 
BRANCH   3  13
ATOM     13  C   UNL     1      13.766   1.633  -1.153  1.00  0.00     0.025 A 
ATOM     14  C   UNL     1      13.867   0.531  -2.013  1.00  0.00     0.016 A 
ATOM     15  C   UNL     1      15.102   0.161  -2.549  1.00  0.00     0.051 A 
ATOM     16  C   UNL     1      16.261   0.865  -2.217  1.00  0.00     0.157 A 
ATOM     17  C   UNL     1      14.936   2.318  -0.786  1.00  0.00     0.062 A 
ATOM     18  C   UNL     1      16.183   1.945  -1.306  1.00  0.00     0.158 A 
BRANCH  16  19
ATOM     19  O   UNL     1      17.459   0.462  -2.806  1.00  0.00    -0.504 OA
ATOM     20  H   UNL     1      18.182   1.104  -3.099  1.00  0.00     0.293 HD
ENDBRANCH  16  19
BRANCH  18  21
ATOM     21  O   UNL     1      17.301   2.665  -0.896  1.00  0.00    -0.504 OA
ATOM     22  H   UNL     1      17.819   3.288  -1.499  1.00  0.00     0.293 HD
ENDBRANCH  18  21
ENDBRANCH   3  13
BRANCH  10  23
ATOM     23  O   UNL     1       7.875   2.575   1.592  1.00  0.00    -0.507 OA
ATOM     24  H   UNL     1       7.283   3.052   2.260  1.00  0.00     0.293 HD
ENDBRANCH  10  23
BRANCH  11  25
ATOM     25  O   UNL     1       8.428   6.431  -1.268  1.00  0.00    -0.508 OA
ATOM     26  H   UNL     1       8.884   7.306  -1.035  1.00  0.00     0.293 HD
ENDBRANCH  11  25
ENDBRANCH   1   2
BRANCH   1  27
ATOM     27  C   UNL     1      12.420  -0.030   2.449  1.00  0.00     0.265 C 
BRANCH  27  28
ATOM     28  C   UNL     1      13.721   0.417   3.143  1.00  0.00     0.190 C 
ATOM     29  C   UNL     1      13.617   0.242   4.668  1.00  0.00     0.178 C 
ATOM     30  O   UNL     1      13.977   1.774   2.819  1.00  0.00    -0.340 OA
ATOM     31  C   UNL     1      14.886   0.782   5.357  1.00  0.00     0.179 C 
ATOM     32  C   UNL     1      15.262   2.150   3.268  1.00  0.00     0.279 C 
ATOM     33  C   UNL     1      15.302   2.159   4.803  1.00  0.00     0.201 C 
BRANCH  29  34
ATOM     34  O   UNL     1      13.477  -1.122   4.969  1.00  0.00    -0.387 OA
ATOM     35  H   UNL     1      13.237  -1.581   4.124  1.00  0.00     0.211 HD
ENDBRANCH  29  34
BRANCH  31  36
ATOM     36  O   UNL     1      14.647   0.891   6.738  1.00  0.00    -0.387 OA
ATOM     37  H   UNL     1      15.079   0.106   7.163  1.00  0.00     0.211 HD
ENDBRANCH  31  36
BRANCH  32  38
ATOM     38  O   UNL     1      15.572   3.430   2.779  1.00  0.00    -0.366 OA
ATOM     39  H   UNL     1      15.975   3.310   1.881  1.00  0.00     0.213 HD
ENDBRANCH  32  38
BRANCH  33  40
ATOM     40  O   UNL     1      16.606   2.462   5.238  1.00  0.00    -0.385 OA
ATOM     41  H   UNL     1      16.593   2.431   6.230  1.00  0.00     0.211 HD
ENDBRANCH  33  40
ENDBRANCH  27  28
ENDBRANCH   1  27
TORSDOF 12
ENDMDL
MODEL 6
REMARK VINA RESULT:    -6.146      2.179      6.858
REMARK INTER + INTRA:         -10.430
REMARK INTER:                  -9.069
REMARK INTRA:                  -1.362
REMARK UNBOUND:                -1.411
REMARK SMILES O=c1c(OC[C@H]2O[C@@H](O)[C@H](O)[C@@H](O)[C@@H]2O)c(-c2ccc(O)c(O)c2)oc2cc(O)cc(O)c12
REMARK SMILES IDX 4 1 3 2 16 3 25 4 2 5 26 6 1 7 33 8 27 9 31 10 28 11 30 12
REMARK SMILES IDX 17 13 18 14 19 15 20 16 24 17 22 18 21 19 23 21 32 23 29 25
REMARK SMILES IDX 5 27 6 28 14 29 7 30 12 31 8 32 10 33 15 34 13 36 9 38 11 40
REMARK H PARENT 21 20 23 22 32 24 29 26 15 35 13 37 9 39 11 41
REMARK Flexibility Score: inf
ROOT
ATOM      1  O   UNL     1      11.562  -0.491   2.093  1.00  0.00    -0.483 OA
ENDROOT
BRANCH   1   2
ATOM      2  C   UNL     1      12.555   0.253   2.745  1.00  0.00     0.211 A 
ATOM      3  C   UNL     1      13.403   1.107   2.010  1.00  0.00     0.180 A 
ATOM      4  O   UNL     1      14.432   1.694   2.614  1.00  0.00    -0.452 OA
ATOM      5  C   UNL     1      12.752   0.128   4.129  1.00  0.00     0.239 A 
ATOM      6  C   UNL     1      14.688   1.562   3.911  1.00  0.00     0.146 A 
ATOM      7  O   UNL     1      11.965  -0.587   4.805  1.00  0.00    -0.285 OA
ATOM      8  C   UNL     1      13.832   0.798   4.743  1.00  0.00     0.111 A 
ATOM      9  C   UNL     1      15.824   2.178   4.446  1.00  0.00     0.094 A 
ATOM     10  C   UNL     1      14.114   0.713   6.126  1.00  0.00     0.134 A 
ATOM     11  C   UNL     1      16.120   2.054   5.808  1.00  0.00     0.123 A 
ATOM     12  C   UNL     1      15.251   1.349   6.646  1.00  0.00     0.093 A 
BRANCH   3  13
ATOM     13  C   UNL     1      13.223   1.338   0.557  1.00  0.00     0.025 A 
ATOM     14  C   UNL     1      13.640   0.355  -0.350  1.00  0.00     0.016 A 
ATOM     15  C   UNL     1      13.469   0.540  -1.724  1.00  0.00     0.051 A 
ATOM     16  C   UNL     1      12.905   1.717  -2.218  1.00  0.00     0.157 A 
ATOM     17  C   UNL     1      12.691   2.539   0.061  1.00  0.00     0.062 A 
ATOM     18  C   UNL     1      12.530   2.742  -1.317  1.00  0.00     0.158 A 
BRANCH  16  19
ATOM     19  O   UNL     1      12.737   1.830  -3.598  1.00  0.00    -0.504 OA
ATOM     20  H   UNL     1      13.504   1.837  -4.256  1.00  0.00     0.293 HD
ENDBRANCH  16  19
BRANCH  18  21
ATOM     21  O   UNL     1      12.002   3.958  -1.739  1.00  0.00    -0.504 OA
ATOM     22  H   UNL     1      11.987   4.792  -1.168  1.00  0.00     0.293 HD
ENDBRANCH  18  21
ENDBRANCH   3  13
BRANCH  10  23
ATOM     23  O   UNL     1      13.275  -0.006   6.985  1.00  0.00    -0.507 OA
ATOM     24  H   UNL     1      13.607  -0.813   7.497  1.00  0.00     0.293 HD
ENDBRANCH  10  23
BRANCH  11  25
ATOM     25  O   UNL     1      17.288   2.608   6.336  1.00  0.00    -0.508 OA
ATOM     26  H   UNL     1      17.688   2.271   7.205  1.00  0.00     0.293 HD
ENDBRANCH  11  25
ENDBRANCH   1   2
BRANCH   1  27
ATOM     27  C   UNL     1      10.187  -0.466   2.482  1.00  0.00     0.265 C 
BRANCH  27  28
ATOM     28  C   UNL     1       9.369   0.440   1.541  1.00  0.00     0.190 C 
ATOM     29  C   UNL     1       9.769   0.208   0.073  1.00  0.00     0.178 C 
ATOM     30  O   UNL     1       9.581   1.795   1.902  1.00  0.00    -0.340 OA
ATOM     31  C   UNL     1       9.013   1.187  -0.848  1.00  0.00     0.179 C 
ATOM     32  C   UNL     1       8.689   2.634   1.197  1.00  0.00     0.279 C 
ATOM     33  C   UNL     1       9.034   2.627  -0.300  1.00  0.00     0.201 C 
BRANCH  29  34
ATOM     34  O   UNL     1       9.446  -1.108  -0.294  1.00  0.00    -0.387 OA
ATOM     35  H   UNL     1      10.295  -1.554  -0.545  1.00  0.00     0.211 HD
ENDBRANCH  29  34
BRANCH  31  36
ATOM     36  O   UNL     1       9.607   1.168  -2.122  1.00  0.00    -0.387 OA
ATOM     37  H   UNL     1       9.070   1.776  -2.694  1.00  0.00     0.211 HD
ENDBRANCH  31  36
BRANCH  32  38
ATOM     38  O   UNL     1       8.783   3.942   1.699  1.00  0.00    -0.366 OA
ATOM     39  H   UNL     1       9.731   4.094   1.944  1.00  0.00     0.213 HD
ENDBRANCH  32  38
BRANCH  33  40
ATOM     40  O   UNL     1       8.094   3.407  -1.002  1.00  0.00    -0.385 OA
ATOM     41  H   UNL     1       7.378   3.645  -0.356  1.00  0.00     0.211 HD
ENDBRANCH  33  40
ENDBRANCH  27  28
ENDBRANCH   1  27
TORSDOF 12
ENDMDL
MODEL 7
REMARK VINA RESULT:    -6.082      2.600      7.301
REMARK INTER + INTRA:         -10.337
REMARK INTER:                  -9.084
REMARK INTRA:                  -1.252
REMARK UNBOUND:                -1.411
REMARK SMILES O=c1c(OC[C@H]2O[C@@H](O)[C@H](O)[C@@H](O)[C@@H]2O)c(-c2ccc(O)c(O)c2)oc2cc(O)cc(O)c12
REMARK SMILES IDX 4 1 3 2 16 3 25 4 2 5 26 6 1 7 33 8 27 9 31 10 28 11 30 12
REMARK SMILES IDX 17 13 18 14 19 15 20 16 24 17 22 18 21 19 23 21 32 23 29 25
REMARK SMILES IDX 5 27 6 28 14 29 7 30 12 31 8 32 10 33 15 34 13 36 9 38 11 40
REMARK H PARENT 21 20 23 22 32 24 29 26 15 35 13 37 9 39 11 41
REMARK Flexibility Score: inf
ROOT
ATOM      1  O   UNL     1      12.595   0.114   2.319  1.00  0.00    -0.483 OA
ENDROOT
BRANCH   1   2
ATOM      2  C   UNL     1      13.564   0.600   3.207  1.00  0.00     0.211 A 
ATOM      3  C   UNL     1      14.447   1.624   2.806  1.00  0.00     0.180 A 
ATOM      4  O   UNL     1      15.453   1.976   3.601  1.00  0.00    -0.452 OA
ATOM      5  C   UNL     1      13.700   0.051   4.492  1.00  0.00     0.239 A 
ATOM      6  C   UNL     1      15.653   1.444   4.803  1.00  0.00     0.146 A 
ATOM      7  O   UNL     1      12.880  -0.823   4.882  1.00  0.00    -0.285 OA
ATOM      8  C   UNL     1      14.757   0.478   5.323  1.00  0.00     0.111 A 
ATOM      9  C   UNL     1      16.768   1.843   5.546  1.00  0.00     0.094 A 
ATOM     10  C   UNL     1      14.979  -0.036   6.622  1.00  0.00     0.134 A 
ATOM     11  C   UNL     1      17.005   1.299   6.813  1.00  0.00     0.123 A 
ATOM     12  C   UNL     1      16.096   0.387   7.358  1.00  0.00     0.093 A 
BRANCH   3  13
ATOM     13  C   UNL     1      14.331   2.295   1.490  1.00  0.00     0.025 A 
ATOM     14  C   UNL     1      13.162   3.003   1.181  1.00  0.00     0.016 A 
ATOM     15  C   UNL     1      13.031   3.657  -0.046  1.00  0.00     0.051 A 
ATOM     16  C   UNL     1      14.052   3.594  -0.996  1.00  0.00     0.157 A 
ATOM     17  C   UNL     1      15.343   2.199   0.520  1.00  0.00     0.062 A 
ATOM     18  C   UNL     1      15.216   2.838  -0.720  1.00  0.00     0.158 A 
BRANCH  16  19
ATOM     19  O   UNL     1      13.873   4.291  -2.192  1.00  0.00    -0.504 OA
ATOM     20  H   UNL     1      12.966   4.533  -2.566  1.00  0.00     0.293 HD
ENDBRANCH  16  19
BRANCH  18  21
ATOM     21  O   UNL     1      16.254   2.696  -1.635  1.00  0.00    -0.504 OA
ATOM     22  H   UNL     1      17.205   2.472  -1.375  1.00  0.00     0.293 HD
ENDBRANCH  18  21
ENDBRANCH   3  13
BRANCH  10  23
ATOM     23  O   UNL     1      14.100  -0.968   7.184  1.00  0.00    -0.507 OA
ATOM     24  H   UNL     1      14.215  -1.962   7.033  1.00  0.00     0.293 HD
ENDBRANCH  10  23
BRANCH  11  25
ATOM     25  O   UNL     1      18.152   1.641   7.532  1.00  0.00    -0.508 OA
ATOM     26  H   UNL     1      18.794   2.351   7.198  1.00  0.00     0.293 HD
ENDBRANCH  11  25
ENDBRANCH   1   2
BRANCH   1  27
ATOM     27  C   UNL     1      12.814  -1.012   1.466  1.00  0.00     0.265 C 
BRANCH  27  28
ATOM     28  C   UNL     1      11.801  -1.024   0.305  1.00  0.00     0.190 C 
ATOM     29  C   UNL     1      12.128   0.078  -0.720  1.00  0.00     0.178 C 
ATOM     30  O   UNL     1      10.496  -0.839   0.827  1.00  0.00    -0.340 OA
ATOM     31  C   UNL     1      11.053   0.118  -1.824  1.00  0.00     0.179 C 
ATOM     32  C   UNL     1       9.530  -1.051  -0.183  1.00  0.00     0.279 C 
ATOM     33  C   UNL     1       9.627   0.055  -1.243  1.00  0.00     0.201 C 
BRANCH  29  34
ATOM     34  O   UNL     1      13.376  -0.188  -1.304  1.00  0.00    -0.387 OA
ATOM     35  H   UNL     1      13.306  -1.074  -1.745  1.00  0.00     0.211 HD
ENDBRANCH  29  34
BRANCH  31  36
ATOM     36  O   UNL     1      11.200   1.304  -2.564  1.00  0.00    -0.387 OA
ATOM     37  H   UNL     1      11.151   1.048  -3.521  1.00  0.00     0.211 HD
ENDBRANCH  31  36
BRANCH  32  38
ATOM     38  O   UNL     1       8.248  -1.049   0.390  1.00  0.00    -0.366 OA
ATOM     39  H   UNL     1       8.315  -1.518   1.260  1.00  0.00     0.213 HD
ENDBRANCH  32  38
BRANCH  33  40
ATOM     40  O   UNL     1       8.712  -0.207  -2.281  1.00  0.00    -0.385 OA
ATOM     41  H   UNL     1       8.796   0.536  -2.933  1.00  0.00     0.211 HD
ENDBRANCH  33  40
ENDBRANCH  27  28
ENDBRANCH   1  27
TORSDOF 12
ENDMDL
MODEL 8
REMARK VINA RESULT:    -5.781      2.306      7.336
REMARK INTER + INTRA:          -9.896
REMARK INTER:                  -8.713
REMARK INTRA:                  -1.183
REMARK UNBOUND:                -1.411
REMARK SMILES O=c1c(OC[C@H]2O[C@@H](O)[C@H](O)[C@@H](O)[C@@H]2O)c(-c2ccc(O)c(O)c2)oc2cc(O)cc(O)c12
REMARK SMILES IDX 4 1 3 2 16 3 25 4 2 5 26 6 1 7 33 8 27 9 31 10 28 11 30 12
REMARK SMILES IDX 17 13 18 14 19 15 20 16 24 17 22 18 21 19 23 21 32 23 29 25
REMARK SMILES IDX 5 27 6 28 14 29 7 30 12 31 8 32 10 33 15 34 13 36 9 38 11 40
REMARK H PARENT 21 20 23 22 32 24 29 26 15 35 13 37 9 39 11 41
REMARK Flexibility Score: inf
ROOT
ATOM      1  O   UNL     1      13.745   1.944   0.500  1.00  0.00    -0.483 OA
ENDROOT
BRANCH   1   2
ATOM      2  C   UNL     1      13.533   1.342   1.747  1.00  0.00     0.211 A 
ATOM      3  C   UNL     1      12.437   0.476   1.944  1.00  0.00     0.180 A 
ATOM      4  O   UNL     1      12.162   0.027   3.164  1.00  0.00    -0.452 OA
ATOM      5  C   UNL     1      14.380   1.621   2.832  1.00  0.00     0.239 A 
ATOM      6  C   UNL     1      12.904   0.310   4.230  1.00  0.00     0.146 A 
ATOM      7  O   UNL     1      15.395   2.346   2.655  1.00  0.00    -0.285 OA
ATOM      8  C   UNL     1      14.077   1.094   4.105  1.00  0.00     0.111 A 
ATOM      9  C   UNL     1      12.505  -0.168   5.483  1.00  0.00     0.094 A 
ATOM     10  C   UNL     1      14.864   1.341   5.255  1.00  0.00     0.134 A 
ATOM     11  C   UNL     1      13.266   0.116   6.622  1.00  0.00     0.123 A 
ATOM     12  C   UNL     1      14.455   0.841   6.500  1.00  0.00     0.093 A 
BRANCH   3  13
ATOM     13  C   UNL     1      11.533   0.086   0.836  1.00  0.00     0.025 A 
ATOM     14  C   UNL     1      12.062  -0.569  -0.284  1.00  0.00     0.016 A 
ATOM     15  C   UNL     1      11.230  -0.961  -1.335  1.00  0.00     0.051 A 
ATOM     16  C   UNL     1       9.863  -0.684  -1.300  1.00  0.00     0.157 A 
ATOM     17  C   UNL     1      10.164   0.400   0.855  1.00  0.00     0.062 A 
ATOM     18  C   UNL     1       9.322   0.025  -0.201  1.00  0.00     0.158 A 
BRANCH  16  19
ATOM     19  O   UNL     1       9.082  -1.125  -2.369  1.00  0.00    -0.504 OA
ATOM     20  H   UNL     1       8.940  -2.100  -2.593  1.00  0.00     0.293 HD
ENDBRANCH  16  19
BRANCH  18  21
ATOM     21  O   UNL     1       7.979   0.373  -0.119  1.00  0.00    -0.504 OA
ATOM     22  H   UNL     1       7.378   0.115   0.652  1.00  0.00     0.293 HD
ENDBRANCH  18  21
ENDBRANCH   3  13
BRANCH  10  23
ATOM     23  O   UNL     1      16.046   2.084   5.167  1.00  0.00    -0.507 OA
ATOM     24  H   UNL     1      16.122   3.009   5.571  1.00  0.00     0.293 HD
ENDBRANCH  10  23
BRANCH  11  25
ATOM     25  O   UNL     1      12.838  -0.299   7.884  1.00  0.00    -0.508 OA
ATOM     26  H   UNL     1      13.278  -1.076   8.364  1.00  0.00     0.293 HD
ENDBRANCH  11  25
ENDBRANCH   1   2
BRANCH   1  27
ATOM     27  C   UNL     1      13.365   3.290   0.209  1.00  0.00     0.265 C 
BRANCH  27  28
ATOM     28  C   UNL     1      11.852   3.489   0.417  1.00  0.00     0.190 C 
ATOM     29  C   UNL     1      11.142   3.743  -0.925  1.00  0.00     0.178 C 
ATOM     30  O   UNL     1      11.645   4.581   1.298  1.00  0.00    -0.340 OA
ATOM     31  C   UNL     1       9.646   4.036  -0.691  1.00  0.00     0.179 C 
ATOM     32  C   UNL     1      10.284   4.658   1.671  1.00  0.00     0.279 C 
ATOM     33  C   UNL     1       9.427   5.041   0.456  1.00  0.00     0.201 C 
BRANCH  29  34
ATOM     34  O   UNL     1      11.265   2.605  -1.737  1.00  0.00    -0.387 OA
ATOM     35  H   UNL     1      12.070   2.115  -1.427  1.00  0.00     0.211 HD
ENDBRANCH  29  34
BRANCH  31  36
ATOM     36  O   UNL     1       9.092   4.556  -1.874  1.00  0.00    -0.387 OA
ATOM     37  H   UNL     1       8.769   3.779  -2.400  1.00  0.00     0.211 HD
ENDBRANCH  31  36
BRANCH  32  38
ATOM     38  O   UNL     1      10.131   5.621   2.682  1.00  0.00    -0.366 OA
ATOM     39  H   UNL     1       9.207   5.973   2.612  1.00  0.00     0.213 HD
ENDBRANCH  32  38
BRANCH  33  40
ATOM     40  O   UNL     1       8.067   5.042   0.822  1.00  0.00    -0.385 OA
ATOM     41  H   UNL     1       7.582   4.527   0.126  1.00  0.00     0.211 HD
ENDBRANCH  33  40
ENDBRANCH  27  28
ENDBRANCH   1  27
TORSDOF 12
ENDMDL
MODEL 9
REMARK VINA RESULT:    -5.770     17.301     20.314
REMARK INTER + INTRA:          -9.879
REMARK INTER:                  -8.771
REMARK INTRA:                  -1.108
REMARK UNBOUND:                -1.411
REMARK SMILES O=c1c(OC[C@H]2O[C@@H](O)[C@H](O)[C@@H](O)[C@@H]2O)c(-c2ccc(O)c(O)c2)oc2cc(O)cc(O)c12
REMARK SMILES IDX 4 1 3 2 16 3 25 4 2 5 26 6 1 7 33 8 27 9 31 10 28 11 30 12
REMARK SMILES IDX 17 13 18 14 19 15 20 16 24 17 22 18 21 19 23 21 32 23 29 25
REMARK SMILES IDX 5 27 6 28 14 29 7 30 12 31 8 32 10 33 15 34 13 36 9 38 11 40
REMARK H PARENT 21 20 23 22 32 24 29 26 15 35 13 37 9 39 11 41
REMARK Flexibility Score: inf
ROOT
ATOM      1  O   UNL     1      27.979  13.406   8.773  1.00  0.00    -0.483 OA
ENDROOT
BRANCH   1   2
ATOM      2  C   UNL     1      27.214  13.451   9.946  1.00  0.00     0.211 A 
ATOM      3  C   UNL     1      26.557  12.294  10.413  1.00  0.00     0.180 A 
ATOM      4  O   UNL     1      25.718  12.381  11.441  1.00  0.00    -0.452 OA
ATOM      5  C   UNL     1      27.052  14.654  10.651  1.00  0.00     0.239 A 
ATOM      6  C   UNL     1      25.493  13.510  12.105  1.00  0.00     0.146 A 
ATOM      7  O   UNL     1      27.680  15.681  10.278  1.00  0.00    -0.285 OA
ATOM      8  C   UNL     1      26.184  14.699  11.762  1.00  0.00     0.111 A 
ATOM      9  C   UNL     1      24.554  13.514  13.142  1.00  0.00     0.094 A 
ATOM     10  C   UNL     1      25.949  15.872  12.517  1.00  0.00     0.134 A 
ATOM     11  C   UNL     1      24.296  14.689  13.856  1.00  0.00     0.123 A 
ATOM     12  C   UNL     1      25.013  15.853  13.562  1.00  0.00     0.093 A 
BRANCH   3  13
ATOM     13  C   UNL     1      26.723  10.975   9.758  1.00  0.00     0.025 A 
ATOM     14  C   UNL     1      27.945  10.299   9.876  1.00  0.00     0.016 A 
ATOM     15  C   UNL     1      28.125   9.048   9.282  1.00  0.00     0.051 A 
ATOM     16  C   UNL     1      27.100   8.461   8.539  1.00  0.00     0.157 A 
ATOM     17  C   UNL     1      25.704  10.403   8.978  1.00  0.00     0.062 A 
ATOM     18  C   UNL     1      25.879   9.156   8.365  1.00  0.00     0.158 A 
BRANCH  16  19
ATOM     19  O   UNL     1      27.332   7.199   7.992  1.00  0.00    -0.504 OA
ATOM     20  H   UNL     1      27.142   6.963   7.029  1.00  0.00     0.293 HD
ENDBRANCH  16  19
BRANCH  18  21
ATOM     21  O   UNL     1      24.830   8.652   7.603  1.00  0.00    -0.504 OA
ATOM     22  H   UNL     1      23.863   8.910   7.739  1.00  0.00     0.293 HD
ENDBRANCH  18  21
ENDBRANCH   3  13
BRANCH  10  23
ATOM     23  O   UNL     1      26.634  17.057  12.230  1.00  0.00    -0.507 OA
ATOM     24  H   UNL     1      27.574  17.049  11.856  1.00  0.00     0.293 HD
ENDBRANCH  10  23
BRANCH  11  25
ATOM     25  O   UNL     1      23.312  14.718  14.846  1.00  0.00    -0.508 OA
ATOM     26  H   UNL     1      22.899  15.590  15.157  1.00  0.00     0.293 HD
ENDBRANCH  11  25
ENDBRANCH   1   2
BRANCH   1  27
ATOM     27  C   UNL     1      27.409  13.496   7.465  1.00  0.00     0.265 C 
BRANCH  27  28
ATOM     28  C   UNL     1      26.172  14.416   7.469  1.00  0.00     0.190 C 
ATOM     29  C   UNL     1      25.116  13.919   6.466  1.00  0.00     0.178 C 
ATOM     30  O   UNL     1      26.576  15.736   7.145  1.00  0.00    -0.340 OA
ATOM     31  C   UNL     1      23.928  14.900   6.410  1.00  0.00     0.179 C 
ATOM     32  C   UNL     1      25.506  16.637   7.343  1.00  0.00     0.279 C 
ATOM     33  C   UNL     1      24.395  16.366   6.319  1.00  0.00     0.201 C 
BRANCH  29  34
ATOM     34  O   UNL     1      24.651  12.658   6.870  1.00  0.00    -0.387 OA
ATOM     35  H   UNL     1      23.678  12.634   6.680  1.00  0.00     0.211 HD
ENDBRANCH  29  34
BRANCH  31  36
ATOM     36  O   UNL     1      23.135  14.595   5.290  1.00  0.00    -0.387 OA
ATOM     37  H   UNL     1      22.293  14.202   5.638  1.00  0.00     0.211 HD
ENDBRANCH  31  36
BRANCH  32  38
ATOM     38  O   UNL     1      25.972  17.954   7.199  1.00  0.00    -0.366 OA
ATOM     39  H   UNL     1      26.878  17.989   7.599  1.00  0.00     0.213 HD
ENDBRANCH  32  38
BRANCH  33  40
ATOM     40  O   UNL     1      23.303  17.219   6.572  1.00  0.00    -0.385 OA
ATOM     41  H   UNL     1      22.732  16.764   7.243  1.00  0.00     0.211 HD
ENDBRANCH  33  40
ENDBRANCH  27  28
ENDBRANCH   1  27
TORSDOF 12
ENDMDL
