MODEL 1
REMARK VINA RESULT:    -7.369      0.000      0.000
REMARK INTER + INTRA:          -8.744
REMARK INTER:                  -8.877
REMARK INTRA:                   0.133
REMARK UNBOUND:                 0.133
REMARK SMILES O=c1c(O)c(-c2ccc(O)c(O)c2)oc2cc(O)cc(O)c12
REMARK SMILES IDX 5 1 3 2 2 3 1 4 22 5 20 6 19 7 17 8 16 9 15 10 14 11 6 12
REMARK SMILES IDX 7 13 8 14 9 15 13 16 11 17 10 18 12 20 4 22 21 24 18 26
REMARK H PARENT 10 19 12 21 4 23 21 25 18 27
REMARK Flexibility Score: inf
ROOT
ATOM      1  C   UNL     1       3.940  36.738  27.993  1.00  0.00     0.180 A 
ATOM      2  C   UNL     1       3.956  37.112  29.351  1.00  0.00     0.208 A 
ATOM      3  C   UNL     1       3.352  36.266  30.294  1.00  0.00     0.238 A 
ATOM      4  O   UNL     1       3.370  36.585  31.514  1.00  0.00    -0.285 OA
ATOM      5  C   UNL     1       2.728  35.076  29.866  1.00  0.00     0.111 A 
ATOM      6  C   UNL     1       2.094  34.171  30.751  1.00  0.00     0.134 A 
ATOM      7  C   UNL     1       1.487  33.012  30.245  1.00  0.00     0.093 A 
ATOM      8  C   UNL     1       1.501  32.741  28.875  1.00  0.00     0.123 A 
ATOM      9  C   UNL     1       2.125  33.630  27.995  1.00  0.00     0.094 A 
ATOM     10  C   UNL     1       2.738  34.790  28.480  1.00  0.00     0.146 A 
ATOM     11  O   UNL     1       3.329  35.615  27.623  1.00  0.00    -0.452 OA
ENDROOT
BRANCH   1  12
ATOM     12  C   UNL     1       4.571  37.568  26.942  1.00  0.00     0.025 A 
ATOM     13  C   UNL     1       4.374  38.956  26.949  1.00  0.00     0.016 A 
ATOM     14  C   UNL     1       4.943  39.755  25.955  1.00  0.00     0.051 A 
ATOM     15  C   UNL     1       5.704  39.185  24.928  1.00  0.00     0.157 A 
ATOM     16  C   UNL     1       5.315  36.989  25.900  1.00  0.00     0.062 A 
ATOM     17  C   UNL     1       5.886  37.782  24.896  1.00  0.00     0.158 A 
BRANCH  15  18
ATOM     18  O   UNL     1       6.252  40.040  23.969  1.00  0.00    -0.504 OA
ATOM     19  H   UNL     1       5.982  40.042  22.996  1.00  0.00     0.293 HD
ENDBRANCH  15  18
BRANCH  17  20
ATOM     20  O   UNL     1       6.615  37.139  23.893  1.00  0.00    -0.504 OA
ATOM     21  H   UNL     1       6.282  37.010  22.949  1.00  0.00     0.293 HD
ENDBRANCH  17  20
ENDBRANCH   1  12
BRANCH   2  22
ATOM     22  O   UNL     1       4.538  38.319  29.744  1.00  0.00    -0.502 OA
ATOM     23  H   UNL     1       5.447  38.616  29.411  1.00  0.00     0.293 HD
ENDBRANCH   2  22
BRANCH   6  24
ATOM     24  O   UNL     1       2.063  34.414  32.125  1.00  0.00    -0.507 OA
ATOM     25  H   UNL     1       2.834  34.868  32.603  1.00  0.00     0.293 HD
ENDBRANCH   6  24
BRANCH   8  26
ATOM     26  O   UNL     1       0.890  31.583  28.398  1.00  0.00    -0.508 OA
ATOM     27  H   UNL     1       1.079  30.677  28.809  1.00  0.00     0.293 HD
ENDBRANCH   8  26
TORSDOF 6
ENDMDL
MODEL 2
REMARK VINA RESULT:    -7.083      3.013      8.342
REMARK INTER + INTRA:          -8.399
REMARK INTER:                  -8.071
REMARK INTRA:                  -0.328
REMARK UNBOUND:                 0.133
REMARK SMILES O=c1c(O)c(-c2ccc(O)c(O)c2)oc2cc(O)cc(O)c12
REMARK SMILES IDX 5 1 3 2 2 3 1 4 22 5 20 6 19 7 17 8 16 9 15 10 14 11 6 12
REMARK SMILES IDX 7 13 8 14 9 15 13 16 11 17 10 18 12 20 4 22 21 24 18 26
REMARK H PARENT 10 19 12 21 4 23 21 25 18 27
REMARK Flexibility Score: inf
ROOT
ATOM      1  C   UNL     1       6.570  38.431  25.806  1.00  0.00     0.180 A 
ATOM      2  C   UNL     1       7.719  37.630  25.654  1.00  0.00     0.208 A 
ATOM      3  C   UNL     1       8.618  37.925  24.619  1.00  0.00     0.238 A 
ATOM      4  O   UNL     1       9.657  37.222  24.480  1.00  0.00    -0.285 OA
ATOM      5  C   UNL     1       8.348  38.997  23.743  1.00  0.00     0.111 A 
ATOM      6  C   UNL     1       9.201  39.357  22.673  1.00  0.00     0.134 A 
ATOM      7  C   UNL     1       8.857  40.432  21.840  1.00  0.00     0.093 A 
ATOM      8  C   UNL     1       7.679  41.151  22.055  1.00  0.00     0.123 A 
ATOM      9  C   UNL     1       6.831  40.800  23.110  1.00  0.00     0.094 A 
ATOM     10  C   UNL     1       7.158  39.733  23.953  1.00  0.00     0.146 A 
ATOM     11  O   UNL     1       6.339  39.424  24.951  1.00  0.00    -0.452 OA
ENDROOT
BRANCH   1  12
ATOM     12  C   UNL     1       5.583  38.194  26.884  1.00  0.00     0.025 A 
ATOM     13  C   UNL     1       4.412  37.476  26.602  1.00  0.00     0.016 A 
ATOM     14  C   UNL     1       3.459  37.259  27.599  1.00  0.00     0.051 A 
ATOM     15  C   UNL     1       3.646  37.767  28.889  1.00  0.00     0.157 A 
ATOM     16  C   UNL     1       5.764  38.725  28.172  1.00  0.00     0.062 A 
ATOM     17  C   UNL     1       4.811  38.515  29.178  1.00  0.00     0.158 A 
BRANCH  15  18
ATOM     18  O   UNL     1       2.659  37.508  29.842  1.00  0.00    -0.504 OA
ATOM     19  H   UNL     1       2.021  36.727  29.797  1.00  0.00     0.293 HD
ENDBRANCH  15  18
BRANCH  17  20
ATOM     20  O   UNL     1       5.059  39.070  30.435  1.00  0.00    -0.504 OA
ATOM     21  H   UNL     1       4.451  38.955  31.233  1.00  0.00     0.293 HD
ENDBRANCH  17  20
ENDBRANCH   1  12
BRANCH   2  22
ATOM     22  O   UNL     1       7.938  36.544  26.505  1.00  0.00    -0.502 OA
ATOM     23  H   UNL     1       7.947  36.638  27.513  1.00  0.00     0.293 HD
ENDBRANCH   2  22
BRANCH   6  24
ATOM     24  O   UNL     1      10.385  38.658  22.432  1.00  0.00    -0.507 OA
ATOM     25  H   UNL     1      11.292  39.055  22.652  1.00  0.00     0.293 HD
ENDBRANCH   6  24
BRANCH   8  26
ATOM     26  O   UNL     1       7.360  42.213  21.212  1.00  0.00    -0.508 OA
ATOM     27  H   UNL     1       6.508  42.749  21.334  1.00  0.00     0.293 HD
ENDBRANCH   8  26
TORSDOF 6
ENDMDL
MODEL 3
REMARK VINA RESULT:    -7.029      2.740      6.998
REMARK INTER + INTRA:          -8.334
REMARK INTER:                  -8.001
REMARK INTRA:                  -0.333
REMARK UNBOUND:                 0.133
REMARK SMILES O=c1c(O)c(-c2ccc(O)c(O)c2)oc2cc(O)cc(O)c12
REMARK SMILES IDX 5 1 3 2 2 3 1 4 22 5 20 6 19 7 17 8 16 9 15 10 14 11 6 12
REMARK SMILES IDX 7 13 8 14 9 15 13 16 11 17 10 18 12 20 4 22 21 24 18 26
REMARK H PARENT 10 19 12 21 4 23 21 25 18 27
REMARK Flexibility Score: inf
ROOT
ATOM      1  C   UNL     1       4.177  35.799  29.674  1.00  0.00     0.180 A 
ATOM      2  C   UNL     1       3.835  36.940  28.922  1.00  0.00     0.208 A 
ATOM      3  C   UNL     1       4.862  37.762  28.434  1.00  0.00     0.238 A 
ATOM      4  O   UNL     1       4.569  38.781  27.749  1.00  0.00    -0.285 OA
ATOM      5  C   UNL     1       6.206  37.445  28.719  1.00  0.00     0.111 A 
ATOM      6  C   UNL     1       7.299  38.223  28.268  1.00  0.00     0.134 A 
ATOM      7  C   UNL     1       8.608  37.845  28.602  1.00  0.00     0.093 A 
ATOM      8  C   UNL     1       8.845  36.708  29.378  1.00  0.00     0.123 A 
ATOM      9  C   UNL     1       7.770  35.934  29.827  1.00  0.00     0.094 A 
ATOM     10  C   UNL     1       6.458  36.293  29.502  1.00  0.00     0.146 A 
ATOM     11  O   UNL     1       5.455  35.539  29.937  1.00  0.00    -0.452 OA
ENDROOT
BRANCH   1  12
ATOM     12  C   UNL     1       3.152  34.874  30.208  1.00  0.00     0.025 A 
ATOM     13  C   UNL     1       2.710  35.023  31.530  1.00  0.00     0.016 A 
ATOM     14  C   UNL     1       1.759  34.149  32.060  1.00  0.00     0.051 A 
ATOM     15  C   UNL     1       1.244  33.101  31.289  1.00  0.00     0.157 A 
ATOM     16  C   UNL     1       2.654  33.809  29.438  1.00  0.00     0.062 A 
ATOM     17  C   UNL     1       1.702  32.924  29.962  1.00  0.00     0.158 A 
BRANCH  15  18
ATOM     18  O   UNL     1       0.290  32.266  31.876  1.00  0.00    -0.504 OA
ATOM     19  H   UNL     1      -0.681  32.516  31.996  1.00  0.00     0.293 HD
ENDBRANCH  15  18
BRANCH  17  20
ATOM     20  O   UNL     1       1.250  31.892  29.139  1.00  0.00    -0.504 OA
ATOM     21  H   UNL     1       1.140  31.974  28.139  1.00  0.00     0.293 HD
ENDBRANCH  17  20
ENDBRANCH   1  12
BRANCH   2  22
ATOM     22  O   UNL     1       2.495  37.260  28.694  1.00  0.00    -0.502 OA
ATOM     23  H   UNL     1       2.214  38.094  28.193  1.00  0.00     0.293 HD
ENDBRANCH   2  22
BRANCH   6  24
ATOM     24  O   UNL     1       7.096  39.365  27.492  1.00  0.00    -0.507 OA
ATOM     25  H   UNL     1       7.652  39.553  26.665  1.00  0.00     0.293 HD
ENDBRANCH   6  24
BRANCH   8  26
ATOM     26  O   UNL     1      10.154  36.355  29.697  1.00  0.00    -0.508 OA
ATOM     27  H   UNL     1      10.611  35.563  29.260  1.00  0.00     0.293 HD
ENDBRANCH   8  26
TORSDOF 6
ENDMDL
MODEL 4
REMARK VINA RESULT:    -6.980      2.381      3.756
REMARK INTER + INTRA:          -8.275
REMARK INTER:                  -7.949
REMARK INTRA:                  -0.326
REMARK UNBOUND:                 0.133
REMARK SMILES O=c1c(O)c(-c2ccc(O)c(O)c2)oc2cc(O)cc(O)c12
REMARK SMILES IDX 5 1 3 2 2 3 1 4 22 5 20 6 19 7 17 8 16 9 15 10 14 11 6 12
REMARK SMILES IDX 7 13 8 14 9 15 13 16 11 17 10 18 12 20 4 22 21 24 18 26
REMARK H PARENT 10 19 12 21 4 23 21 25 18 27
REMARK Flexibility Score: inf
ROOT
ATOM      1  C   UNL     1       6.450  38.147  26.041  1.00  0.00     0.180 A 
ATOM      2  C   UNL     1       6.714  38.833  27.243  1.00  0.00     0.208 A 
ATOM      3  C   UNL     1       5.945  38.531  28.377  1.00  0.00     0.238 A 
ATOM      4  O   UNL     1       6.179  39.132  29.463  1.00  0.00    -0.285 OA
ATOM      5  C   UNL     1       4.918  37.569  28.290  1.00  0.00     0.111 A 
ATOM      6  C   UNL     1       4.096  37.210  29.385  1.00  0.00     0.134 A 
ATOM      7  C   UNL     1       3.089  36.249  29.214  1.00  0.00     0.093 A 
ATOM      8  C   UNL     1       2.888  35.642  27.973  1.00  0.00     0.123 A 
ATOM      9  C   UNL     1       3.695  35.992  26.887  1.00  0.00     0.094 A 
ATOM     10  C   UNL     1       4.707  36.946  27.037  1.00  0.00     0.146 A 
ATOM     11  O   UNL     1       5.463  37.256  25.991  1.00  0.00    -0.452 OA
ENDROOT
BRANCH   1  12
ATOM     12  C   UNL     1       7.229  38.396  24.807  1.00  0.00     0.025 A 
ATOM     13  C   UNL     1       6.703  39.241  23.819  1.00  0.00     0.016 A 
ATOM     14  C   UNL     1       7.411  39.473  22.638  1.00  0.00     0.051 A 
ATOM     15  C   UNL     1       8.647  38.857  22.413  1.00  0.00     0.157 A 
ATOM     16  C   UNL     1       8.459  37.757  24.575  1.00  0.00     0.062 A 
ATOM     17  C   UNL     1       9.175  37.982  23.391  1.00  0.00     0.158 A 
BRANCH  15  18
ATOM     18  O   UNL     1       9.309  39.137  21.216  1.00  0.00    -0.504 OA
ATOM     19  H   UNL     1      10.313  39.163  21.118  1.00  0.00     0.293 HD
ENDBRANCH  15  18
BRANCH  17  20
ATOM     20  O   UNL     1      10.391  37.315  23.230  1.00  0.00    -0.504 OA
ATOM     21  H   UNL     1      10.807  37.110  22.334  1.00  0.00     0.293 HD
ENDBRANCH  17  20
ENDBRANCH   1  12
BRANCH   2  22
ATOM     22  O   UNL     1       7.704  39.817  27.291  1.00  0.00    -0.502 OA
ATOM     23  H   UNL     1       8.509  39.807  26.676  1.00  0.00     0.293 HD
ENDBRANCH   2  22
BRANCH   6  24
ATOM     24  O   UNL     1       4.273  37.799  30.638  1.00  0.00    -0.507 OA
ATOM     25  H   UNL     1       4.974  38.515  30.797  1.00  0.00     0.293 HD
ENDBRANCH   6  24
BRANCH   8  26
ATOM     26  O   UNL     1       1.879  34.691  27.830  1.00  0.00    -0.508 OA
ATOM     27  H   UNL     1       2.029  33.834  27.310  1.00  0.00     0.293 HD
ENDBRANCH   8  26
TORSDOF 6
ENDMDL
MODEL 5
REMARK VINA RESULT:    -6.971      2.174      6.872
REMARK INTER + INTRA:          -8.265
REMARK INTER:                  -8.011
REMARK INTRA:                  -0.254
REMARK UNBOUND:                 0.133
REMARK SMILES O=c1c(O)c(-c2ccc(O)c(O)c2)oc2cc(O)cc(O)c12
REMARK SMILES IDX 5 1 3 2 2 3 1 4 22 5 20 6 19 7 17 8 16 9 15 10 14 11 6 12
REMARK SMILES IDX 7 13 8 14 9 15 13 16 11 17 10 18 12 20 4 22 21 24 18 26
REMARK H PARENT 10 19 12 21 4 23 21 25 18 27
REMARK Flexibility Score: inf
ROOT
ATOM      1  C   UNL     1       4.299  35.576  29.714  1.00  0.00     0.180 A 
ATOM      2  C   UNL     1       5.581  35.499  30.293  1.00  0.00     0.208 A 
ATOM      3  C   UNL     1       6.581  36.373  29.841  1.00  0.00     0.238 A 
ATOM      4  O   UNL     1       7.730  36.321  30.360  1.00  0.00    -0.285 OA
ATOM      5  C   UNL     1       6.293  37.292  28.810  1.00  0.00     0.111 A 
ATOM      6  C   UNL     1       7.246  38.203  28.296  1.00  0.00     0.134 A 
ATOM      7  C   UNL     1       6.883  39.080  27.263  1.00  0.00     0.093 A 
ATOM      8  C   UNL     1       5.591  39.062  26.735  1.00  0.00     0.123 A 
ATOM      9  C   UNL     1       4.644  38.164  27.238  1.00  0.00     0.094 A 
ATOM     10  C   UNL     1       4.986  37.284  28.269  1.00  0.00     0.146 A 
ATOM     11  O   UNL     1       4.067  36.445  28.733  1.00  0.00    -0.452 OA
ENDROOT
BRANCH   1  12
ATOM     12  C   UNL     1       3.186  34.701  30.149  1.00  0.00     0.025 A 
ATOM     13  C   UNL     1       2.568  34.934  31.385  1.00  0.00     0.016 A 
ATOM     14  C   UNL     1       1.531  34.108  31.824  1.00  0.00     0.051 A 
ATOM     15  C   UNL     1       1.102  33.027  31.046  1.00  0.00     0.157 A 
ATOM     16  C   UNL     1       2.773  33.603  29.376  1.00  0.00     0.062 A 
ATOM     17  C   UNL     1       1.736  32.766  29.809  1.00  0.00     0.158 A 
BRANCH  15  18
ATOM     18  O   UNL     1       0.055  32.244  31.537  1.00  0.00    -0.504 OA
ATOM     19  H   UNL     1      -0.635  31.793  30.954  1.00  0.00     0.293 HD
ENDBRANCH  15  18
BRANCH  17  20
ATOM     20  O   UNL     1       1.376  31.696  28.988  1.00  0.00    -0.504 OA
ATOM     21  H   UNL     1       1.634  30.736  29.166  1.00  0.00     0.293 HD
ENDBRANCH  17  20
ENDBRANCH   1  12
BRANCH   2  22
ATOM     22  O   UNL     1       5.854  34.548  31.278  1.00  0.00    -0.502 OA
ATOM     23  H   UNL     1       5.958  34.794  32.255  1.00  0.00     0.293 HD
ENDBRANCH   2  22
BRANCH   6  24
ATOM     24  O   UNL     1       8.546  38.245  28.803  1.00  0.00    -0.507 OA
ATOM     25  H   UNL     1       9.198  37.483  28.660  1.00  0.00     0.293 HD
ENDBRANCH   6  24
BRANCH   8  26
ATOM     26  O   UNL     1       5.257  39.943  25.708  1.00  0.00    -0.508 OA
ATOM     27  H   UNL     1       4.966  39.608  24.796  1.00  0.00     0.293 HD
ENDBRANCH   8  26
TORSDOF 6
ENDMDL
MODEL 6
REMARK VINA RESULT:    -6.967      2.674      4.538
REMARK INTER + INTRA:          -8.260
REMARK INTER:                  -7.956
REMARK INTRA:                  -0.304
REMARK UNBOUND:                 0.133
REMARK SMILES O=c1c(O)c(-c2ccc(O)c(O)c2)oc2cc(O)cc(O)c12
REMARK SMILES IDX 5 1 3 2 2 3 1 4 22 5 20 6 19 7 17 8 16 9 15 10 14 11 6 12
REMARK SMILES IDX 7 13 8 14 9 15 13 16 11 17 10 18 12 20 4 22 21 24 18 26
REMARK H PARENT 10 19 12 21 4 23 21 25 18 27
REMARK Flexibility Score: inf
ROOT
ATOM      1  C   UNL     1       5.977  38.121  26.090  1.00  0.00     0.180 A 
ATOM      2  C   UNL     1       5.018  37.101  25.935  1.00  0.00     0.208 A 
ATOM      3  C   UNL     1       4.312  36.658  27.063  1.00  0.00     0.238 A 
ATOM      4  O   UNL     1       3.443  35.752  26.934  1.00  0.00    -0.285 OA
ATOM      5  C   UNL     1       4.587  37.223  28.326  1.00  0.00     0.111 A 
ATOM      6  C   UNL     1       3.922  36.829  29.512  1.00  0.00     0.134 A 
ATOM      7  C   UNL     1       4.259  37.435  30.732  1.00  0.00     0.093 A 
ATOM      8  C   UNL     1       5.245  38.422  30.788  1.00  0.00     0.123 A 
ATOM      9  C   UNL     1       5.906  38.815  29.620  1.00  0.00     0.094 A 
ATOM     10  C   UNL     1       5.582  38.226  28.394  1.00  0.00     0.146 A 
ATOM     11  O   UNL     1       6.221  38.621  27.299  1.00  0.00    -0.452 OA
ENDROOT
BRANCH   1  12
ATOM     12  C   UNL     1       6.750  38.655  24.945  1.00  0.00     0.025 A 
ATOM     13  C   UNL     1       6.306  39.815  24.295  1.00  0.00     0.016 A 
ATOM     14  C   UNL     1       7.008  40.324  23.200  1.00  0.00     0.051 A 
ATOM     15  C   UNL     1       8.155  39.678  22.724  1.00  0.00     0.157 A 
ATOM     16  C   UNL     1       7.887  37.990  24.456  1.00  0.00     0.062 A 
ATOM     17  C   UNL     1       8.596  38.491  23.356  1.00  0.00     0.158 A 
BRANCH  15  18
ATOM     18  O   UNL     1       8.816  40.241  21.631  1.00  0.00    -0.504 OA
ATOM     19  H   UNL     1       9.577  40.901  21.710  1.00  0.00     0.293 HD
ENDBRANCH  15  18
BRANCH  17  20
ATOM     20  O   UNL     1       9.718  37.780  22.926  1.00  0.00    -0.504 OA
ATOM     21  H   UNL     1      10.356  37.303  23.547  1.00  0.00     0.293 HD
ENDBRANCH  17  20
ENDBRANCH   1  12
BRANCH   2  22
ATOM     22  O   UNL     1       4.800  36.523  24.682  1.00  0.00    -0.502 OA
ATOM     23  H   UNL     1       5.426  36.672  23.900  1.00  0.00     0.293 HD
ENDBRANCH   2  22
BRANCH   6  24
ATOM     24  O   UNL     1       2.932  35.846  29.488  1.00  0.00    -0.507 OA
ATOM     25  H   UNL     1       2.810  35.194  30.255  1.00  0.00     0.293 HD
ENDBRANCH   6  24
BRANCH   8  26
ATOM     26  O   UNL     1       5.562  39.006  32.013  1.00  0.00    -0.508 OA
ATOM     27  H   UNL     1       4.885  39.555  32.529  1.00  0.00     0.293 HD
ENDBRANCH   8  26
TORSDOF 6
ENDMDL
MODEL 7
REMARK VINA RESULT:    -6.850      6.222      8.992
REMARK INTER + INTRA:          -8.118
REMARK INTER:                  -7.798
REMARK INTRA:                  -0.321
REMARK UNBOUND:                 0.133
REMARK SMILES O=c1c(O)c(-c2ccc(O)c(O)c2)oc2cc(O)cc(O)c12
REMARK SMILES IDX 5 1 3 2 2 3 1 4 22 5 20 6 19 7 17 8 16 9 15 10 14 11 6 12
REMARK SMILES IDX 7 13 8 14 9 15 13 16 11 17 10 18 12 20 4 22 21 24 18 26
REMARK H PARENT 10 19 12 21 4 23 21 25 18 27
REMARK Flexibility Score: inf
ROOT
ATOM      1  C   UNL     1       9.270  40.456  22.888  1.00  0.00     0.180 A 
ATOM      2  C   UNL     1       8.326  39.434  22.664  1.00  0.00     0.208 A 
ATOM      3  C   UNL     1       8.047  38.531  23.700  1.00  0.00     0.238 A 
ATOM      4  O   UNL     1       7.196  37.618  23.515  1.00  0.00    -0.285 OA
ATOM      5  C   UNL     1       8.725  38.649  24.931  1.00  0.00     0.111 A 
ATOM      6  C   UNL     1       8.504  37.777  26.025  1.00  0.00     0.134 A 
ATOM      7  C   UNL     1       9.225  37.956  27.214  1.00  0.00     0.093 A 
ATOM      8  C   UNL     1      10.161  38.985  27.331  1.00  0.00     0.123 A 
ATOM      9  C   UNL     1      10.385  39.850  26.255  1.00  0.00     0.094 A 
ATOM     10  C   UNL     1       9.674  39.690  25.062  1.00  0.00     0.146 A 
ATOM     11  O   UNL     1       9.901  40.528  24.057  1.00  0.00    -0.452 OA
ENDROOT
BRANCH   1  12
ATOM     12  C   UNL     1       9.605  41.457  21.850  1.00  0.00     0.025 A 
ATOM     13  C   UNL     1      10.779  41.304  21.099  1.00  0.00     0.016 A 
ATOM     14  C   UNL     1      11.125  42.248  20.130  1.00  0.00     0.051 A 
ATOM     15  C   UNL     1      10.318  43.368  19.903  1.00  0.00     0.157 A 
ATOM     16  C   UNL     1       8.805  42.593  21.642  1.00  0.00     0.062 A 
ATOM     17  C   UNL     1       9.146  43.547  20.674  1.00  0.00     0.158 A 
BRANCH  15  18
ATOM     18  O   UNL     1      10.716  44.271  18.914  1.00  0.00    -0.504 OA
ATOM     19  H   UNL     1      10.559  45.267  18.964  1.00  0.00     0.293 HD
ENDBRANCH  15  18
BRANCH  17  20
ATOM     20  O   UNL     1       8.302  44.649  20.520  1.00  0.00    -0.504 OA
ATOM     21  H   UNL     1       7.295  44.586  20.477  1.00  0.00     0.293 HD
ENDBRANCH  17  20
ENDBRANCH   1  12
BRANCH   2  22
ATOM     22  O   UNL     1       7.705  39.309  21.419  1.00  0.00    -0.502 OA
ATOM     23  H   UNL     1       7.409  38.414  21.048  1.00  0.00     0.293 HD
ENDBRANCH   2  22
BRANCH   6  24
ATOM     24  O   UNL     1       7.574  36.739  25.939  1.00  0.00    -0.507 OA
ATOM     25  H   UNL     1       7.582  35.962  26.590  1.00  0.00     0.293 HD
ENDBRANCH   6  24
BRANCH   8  26
ATOM     26  O   UNL     1      10.866  39.140  28.523  1.00  0.00    -0.508 OA
ATOM     27  H   UNL     1      10.409  39.056  29.424  1.00  0.00     0.293 HD
ENDBRANCH   8  26
TORSDOF 6
ENDMDL
MODEL 8
REMARK VINA RESULT:    -6.720      5.571      8.539
REMARK INTER + INTRA:          -7.962
REMARK INTER:                  -7.694
REMARK INTRA:                  -0.267
REMARK UNBOUND:                 0.133
REMARK SMILES O=c1c(O)c(-c2ccc(O)c(O)c2)oc2cc(O)cc(O)c12
REMARK SMILES IDX 5 1 3 2 2 3 1 4 22 5 20 6 19 7 17 8 16 9 15 10 14 11 6 12
REMARK SMILES IDX 7 13 8 14 9 15 13 16 11 17 10 18 12 20 4 22 21 24 18 26
REMARK H PARENT 10 19 12 21 4 23 21 25 18 27
REMARK Flexibility Score: inf
ROOT
ATOM      1  C   UNL     1       9.411  40.791  23.021  1.00  0.00     0.180 A 
ATOM      2  C   UNL     1      10.134  40.848  24.228  1.00  0.00     0.208 A 
ATOM      3  C   UNL     1       9.822  39.937  25.248  1.00  0.00     0.238 A 
ATOM      4  O   UNL     1      10.471  39.970  26.330  1.00  0.00    -0.285 OA
ATOM      5  C   UNL     1       8.783  39.002  25.056  1.00  0.00     0.111 A 
ATOM      6  C   UNL     1       8.404  38.053  26.035  1.00  0.00     0.134 A 
ATOM      7  C   UNL     1       7.354  37.161  25.770  1.00  0.00     0.093 A 
ATOM      8  C   UNL     1       6.677  37.201  24.549  1.00  0.00     0.123 A 
ATOM      9  C   UNL     1       7.047  38.136  23.578  1.00  0.00     0.094 A 
ATOM     10  C   UNL     1       8.093  39.032  23.821  1.00  0.00     0.146 A 
ATOM     11  O   UNL     1       8.427  39.906  22.880  1.00  0.00    -0.452 OA
ENDROOT
BRANCH   1  12
ATOM     12  C   UNL     1       9.693  41.706  21.891  1.00  0.00     0.025 A 
ATOM     13  C   UNL     1      10.828  41.491  21.097  1.00  0.00     0.016 A 
ATOM     14  C   UNL     1      11.124  42.353  20.039  1.00  0.00     0.051 A 
ATOM     15  C   UNL     1      10.306  43.454  19.765  1.00  0.00     0.157 A 
ATOM     16  C   UNL     1       8.882  42.824  21.633  1.00  0.00     0.062 A 
ATOM     17  C   UNL     1       9.173  43.697  20.577  1.00  0.00     0.158 A 
BRANCH  15  18
ATOM     18  O   UNL     1      10.653  44.274  18.689  1.00  0.00    -0.504 OA
ATOM     19  H   UNL     1      11.123  43.945  17.857  1.00  0.00     0.293 HD
ENDBRANCH  15  18
BRANCH  17  20
ATOM     20  O   UNL     1       8.321  44.785  20.378  1.00  0.00    -0.504 OA
ATOM     21  H   UNL     1       8.539  45.731  20.655  1.00  0.00     0.293 HD
ENDBRANCH  17  20
ENDBRANCH   1  12
BRANCH   2  22
ATOM     22  O   UNL     1      11.125  41.815  24.412  1.00  0.00    -0.502 OA
ATOM     23  H   UNL     1      11.215  42.621  23.806  1.00  0.00     0.293 HD
ENDBRANCH   2  22
BRANCH   6  24
ATOM     24  O   UNL     1       9.061  37.988  27.265  1.00  0.00    -0.507 OA
ATOM     25  H   UNL     1       8.552  37.975  28.141  1.00  0.00     0.293 HD
ENDBRANCH   6  24
BRANCH   8  26
ATOM     26  O   UNL     1       5.636  36.306  24.312  1.00  0.00    -0.508 OA
ATOM     27  H   UNL     1       5.399  35.580  24.978  1.00  0.00     0.293 HD
ENDBRANCH   8  26
TORSDOF 6
ENDMDL
MODEL 9
REMARK VINA RESULT:    -6.507      3.734      5.694
REMARK INTER + INTRA:          -7.706
REMARK INTER:                  -7.495
REMARK INTRA:                  -0.211
REMARK UNBOUND:                 0.133
REMARK SMILES O=c1c(O)c(-c2ccc(O)c(O)c2)oc2cc(O)cc(O)c12
REMARK SMILES IDX 5 1 3 2 2 3 1 4 22 5 20 6 19 7 17 8 16 9 15 10 14 11 6 12
REMARK SMILES IDX 7 13 8 14 9 15 13 16 11 17 10 18 12 20 4 22 21 24 18 26
REMARK H PARENT 10 19 12 21 4 23 21 25 18 27
REMARK Flexibility Score: inf
ROOT
ATOM      1  C   UNL     1       7.473  38.793  25.319  1.00  0.00     0.180 A 
ATOM      2  C   UNL     1       6.173  39.240  25.622  1.00  0.00     0.208 A 
ATOM      3  C   UNL     1       5.582  38.835  26.828  1.00  0.00     0.238 A 
ATOM      4  O   UNL     1       4.421  39.238  27.117  1.00  0.00    -0.285 OA
ATOM      5  C   UNL     1       6.286  37.977  27.698  1.00  0.00     0.111 A 
ATOM      6  C   UNL     1       5.760  37.520  28.930  1.00  0.00     0.134 A 
ATOM      7  C   UNL     1       6.522  36.661  29.737  1.00  0.00     0.093 A 
ATOM      8  C   UNL     1       7.795  36.250  29.336  1.00  0.00     0.123 A 
ATOM      9  C   UNL     1       8.321  36.698  28.120  1.00  0.00     0.094 A 
ATOM     10  C   UNL     1       7.578  37.557  27.303  1.00  0.00     0.146 A 
ATOM     11  O   UNL     1       8.103  37.972  26.156  1.00  0.00    -0.452 OA
ENDROOT
BRANCH   1  12
ATOM     12  C   UNL     1       8.172  39.191  24.075  1.00  0.00     0.025 A 
ATOM     13  C   UNL     1       7.741  38.671  22.846  1.00  0.00     0.016 A 
ATOM     14  C   UNL     1       8.398  39.017  21.664  1.00  0.00     0.051 A 
ATOM     15  C   UNL     1       9.504  39.873  21.685  1.00  0.00     0.157 A 
ATOM     16  C   UNL     1       9.296  40.032  24.103  1.00  0.00     0.062 A 
ATOM     17  C   UNL     1       9.964  40.382  22.922  1.00  0.00     0.158 A 
BRANCH  15  18
ATOM     18  O   UNL     1      10.112  40.186  20.467  1.00  0.00    -0.504 OA
ATOM     19  H   UNL     1      10.107  41.108  20.055  1.00  0.00     0.293 HD
ENDBRANCH  15  18
BRANCH  17  20
ATOM     20  O   UNL     1      11.073  41.225  23.026  1.00  0.00    -0.504 OA
ATOM     21  H   UNL     1      11.787  41.307  22.318  1.00  0.00     0.293 HD
ENDBRANCH  17  20
ENDBRANCH   1  12
BRANCH   2  22
ATOM     22  O   UNL     1       5.477  40.049  24.721  1.00  0.00    -0.502 OA
ATOM     23  H   UNL     1       5.201  39.724  23.802  1.00  0.00     0.293 HD
ENDBRANCH   2  22
BRANCH   6  24
ATOM     24  O   UNL     1       4.491  37.913  29.359  1.00  0.00    -0.507 OA
ATOM     25  H   UNL     1       3.677  37.827  28.761  1.00  0.00     0.293 HD
ENDBRANCH   6  24
BRANCH   8  26
ATOM     26  O   UNL     1       8.530  35.395  30.154  1.00  0.00    -0.508 OA
ATOM     27  H   UNL     1       9.514  35.552  30.335  1.00  0.00     0.293 HD
ENDBRANCH   8  26
TORSDOF 6
ENDMDL
