MODEL 1
REMARK VINA RESULT:    -7.398      0.000      0.000
REMARK INTER + INTRA:         -10.679
REMARK INTER:                  -9.776
REMARK INTRA:                  -0.903
REMARK UNBOUND:                -0.903
REMARK SMILES CC[C@@H](C=C[C@H](C)[C@@H]1CC[C@H]2[C@H]3CC=C4C[C@H](O)CC[C@]4(C)[C@H]3CC[C@]21C)C(C)C
REMARK SMILES IDX 6 1 7 2 5 3 4 4 3 5 2 6 1 7 28 8 29 9 30 10 8 11 9 12 26 13
REMARK SMILES IDX 10 14 11 15 25 16 27 17 12 18 24 19 23 20 13 21 21 22 14 23
REMARK SMILES IDX 15 24 20 25 22 26 16 27 19 28 17 29 18 30
REMARK H PARENT 18 31
REMARK Flexibility Score: inf
ROOT
ATOM      1  C   UNL     1      38.072  29.540   8.331  1.00  0.00     0.012 C 
ATOM      2  C   UNL     1      37.734  28.346   7.428  1.00  0.00     0.012 C 
ENDROOT
BRANCH   1   3
ATOM      3  C   UNL     1      39.006  29.080   9.435  1.00  0.00    -0.028 C 
ATOM      4  C   UNL     1      38.616  28.237  10.406  1.00  0.00    -0.027 C 
BRANCH   4   5
ATOM      5  C   UNL     1      39.586  27.720  11.447  1.00  0.00     0.014 C 
BRANCH   5   6
ATOM      6  C   UNL     1      39.763  26.188  11.312  1.00  0.00     0.004 C 
ATOM      7  C   UNL     1      40.134  25.528  12.641  1.00  0.00     0.004 C 
ENDBRANCH   5   6
BRANCH   5   8
ATOM      8  C   UNL     1      39.138  28.165  12.873  1.00  0.00    -0.011 C 
ATOM      9  C   UNL     1      37.710  28.734  12.882  1.00  0.00     0.008 C 
ATOM     10  C   UNL     1      40.112  29.154  13.535  1.00  0.00     0.008 C 
ENDBRANCH   5   8
ENDBRANCH   4   5
ENDBRANCH   1   3
BRANCH   1  11
ATOM     11  C   UNL     1      38.677  30.759   7.552  1.00  0.00     0.002 C 
ATOM     12  C   UNL     1      39.402  31.723   8.498  1.00  0.00     0.005 C 
ATOM     13  C   UNL     1      37.703  31.656   6.715  1.00  0.00    -0.026 C 
ATOM     14  C   UNL     1      39.424  33.085   7.822  1.00  0.00     0.005 C 
ATOM     15  C   UNL     1      38.464  33.012   6.625  1.00  0.00    -0.001 C 
ATOM     16  C   UNL     1      37.366  31.003   5.322  1.00  0.00     0.007 C 
ATOM     17  C   UNL     1      36.372  31.910   7.476  1.00  0.00     0.012 C 
ATOM     18  C   UNL     1      39.152  33.303   5.271  1.00  0.00     0.000 C 
ATOM     19  C   UNL     1      37.485  31.857   4.034  1.00  0.00     0.005 C 
ATOM     20  C   UNL     1      38.089  33.283   4.161  1.00  0.00     0.003 C 
ATOM     21  C   UNL     1      40.330  32.386   4.880  1.00  0.00     0.031 C 
ATOM     22  C   UNL     1      38.680  33.848   2.803  1.00  0.00    -0.008 C 
ATOM     23  C   UNL     1      40.856  32.748   3.517  1.00  0.00    -0.027 C 
ATOM     24  C   UNL     1      40.115  33.356   2.559  1.00  0.00    -0.065 C 
ATOM     25  C   UNL     1      38.732  35.412   2.856  1.00  0.00     0.014 C 
ATOM     26  C   UNL     1      37.763  33.440   1.613  1.00  0.00     0.016 C 
ATOM     27  C   UNL     1      40.826  33.915   1.346  1.00  0.00     0.063 C 
ATOM     28  C   UNL     1      39.490  36.055   1.670  1.00  0.00     0.033 C 
ATOM     29  C   UNL     1      40.893  35.445   1.456  1.00  0.00     0.118 C 
BRANCH  29  30
ATOM     30  O   UNL     1      41.741  35.802   2.518  1.00  0.00    -0.393 OA
ATOM     31  H   UNL     1      42.596  35.320   2.375  1.00  0.00     0.210 HD
ENDBRANCH  29  30
ENDBRANCH   1  11
TORSDOF 6
ENDMDL
MODEL 2
REMARK VINA RESULT:    -7.358      6.672      9.418
REMARK INTER + INTRA:         -10.626
REMARK INTER:                  -9.328
REMARK INTRA:                  -1.299
REMARK UNBOUND:                -0.903
REMARK SMILES CC[C@@H](C=C[C@H](C)[C@@H]1CC[C@H]2[C@H]3CC=C4C[C@H](O)CC[C@]4(C)[C@H]3CC[C@]21C)C(C)C
REMARK SMILES IDX 6 1 7 2 5 3 4 4 3 5 2 6 1 7 28 8 29 9 30 10 8 11 9 12 26 13
REMARK SMILES IDX 10 14 11 15 25 16 27 17 12 18 24 19 23 20 13 21 21 22 14 23
REMARK SMILES IDX 15 24 20 25 22 26 16 27 19 28 17 29 18 30
REMARK H PARENT 18 31
REMARK Flexibility Score: inf
ROOT
ATOM      1  C   UNL     1      46.504  38.784   6.371  1.00  0.00     0.012 C 
ATOM      2  C   UNL     1      47.185  39.780   5.423  1.00  0.00     0.012 C 
ENDROOT
BRANCH   1   3
ATOM      3  C   UNL     1      46.614  39.295   7.794  1.00  0.00    -0.028 C 
ATOM      4  C   UNL     1      47.208  38.589   8.772  1.00  0.00    -0.027 C 
BRANCH   4   5
ATOM      5  C   UNL     1      47.387  39.155  10.165  1.00  0.00     0.014 C 
BRANCH   5   6
ATOM      6  C   UNL     1      48.825  38.896  10.676  1.00  0.00     0.004 C 
ATOM      7  C   UNL     1      49.841  38.817   9.536  1.00  0.00     0.004 C 
ENDBRANCH   5   6
BRANCH   5   8
ATOM      8  C   UNL     1      46.285  38.601  11.120  1.00  0.00    -0.011 C 
ATOM      9  C   UNL     1      45.433  37.510  10.452  1.00  0.00     0.008 C 
ATOM     10  C   UNL     1      45.383  39.699  11.708  1.00  0.00     0.008 C 
ENDBRANCH   5   8
ENDBRANCH   4   5
ENDBRANCH   1   3
BRANCH   1  11
ATOM     11  C   UNL     1      45.012  38.485   5.993  1.00  0.00     0.002 C 
ATOM     12  C   UNL     1      44.046  39.041   7.046  1.00  0.00     0.005 C 
ATOM     13  C   UNL     1      44.587  36.990   5.790  1.00  0.00    -0.026 C 
ATOM     14  C   UNL     1      42.759  38.238   6.942  1.00  0.00     0.005 C 
ATOM     15  C   UNL     1      43.052  37.023   6.049  1.00  0.00    -0.001 C 
ATOM     16  C   UNL     1      44.998  36.459   4.365  1.00  0.00     0.007 C 
ATOM     17  C   UNL     1      45.229  36.069   6.865  1.00  0.00     0.012 C 
ATOM     18  C   UNL     1      42.161  36.963   4.787  1.00  0.00     0.000 C 
ATOM     19  C   UNL     1      43.947  35.718   3.499  1.00  0.00     0.005 C 
ATOM     20  C   UNL     1      42.482  35.673   4.014  1.00  0.00     0.003 C 
ATOM     21  C   UNL     1      42.229  38.173   3.831  1.00  0.00     0.031 C 
ATOM     22  C   UNL     1      41.413  35.417   2.873  1.00  0.00    -0.008 C 
ATOM     23  C   UNL     1      41.360  37.945   2.623  1.00  0.00    -0.027 C 
ATOM     24  C   UNL     1      41.028  36.718   2.152  1.00  0.00    -0.065 C 
ATOM     25  C   UNL     1      40.102  34.830   3.495  1.00  0.00     0.014 C 
ATOM     26  C   UNL     1      41.964  34.379   1.851  1.00  0.00     0.016 C 
ATOM     27  C   UNL     1      39.934  36.619   1.112  1.00  0.00     0.063 C 
ATOM     28  C   UNL     1      38.919  34.744   2.501  1.00  0.00     0.033 C 
ATOM     29  C   UNL     1      38.655  36.079   1.769  1.00  0.00     0.118 C 
BRANCH  29  30
ATOM     30  O   UNL     1      38.154  37.033   2.672  1.00  0.00    -0.393 OA
ATOM     31  H   UNL     1      37.946  37.846   2.143  1.00  0.00     0.210 HD
ENDBRANCH  29  30
ENDBRANCH   1  11
TORSDOF 6
ENDMDL
MODEL 3
REMARK VINA RESULT:    -7.298      8.718     12.331
REMARK INTER + INTRA:         -10.548
REMARK INTER:                  -9.240
REMARK INTRA:                  -1.307
REMARK UNBOUND:                -0.903
REMARK SMILES CC[C@@H](C=C[C@H](C)[C@@H]1CC[C@H]2[C@H]3CC=C4C[C@H](O)CC[C@]4(C)[C@H]3CC[C@]21C)C(C)C
REMARK SMILES IDX 6 1 7 2 5 3 4 4 3 5 2 6 1 7 28 8 29 9 30 10 8 11 9 12 26 13
REMARK SMILES IDX 10 14 11 15 25 16 27 17 12 18 24 19 23 20 13 21 21 22 14 23
REMARK SMILES IDX 15 24 20 25 22 26 16 27 19 28 17 29 18 30
REMARK H PARENT 18 31
REMARK Flexibility Score: inf
ROOT
ATOM      1  C   UNL     1      44.553  38.856   6.355  1.00  0.00     0.012 C 
ATOM      2  C   UNL     1      45.302  39.266   5.080  1.00  0.00     0.012 C 
ENDROOT
BRANCH   1   3
ATOM      3  C   UNL     1      43.164  38.373   5.984  1.00  0.00    -0.028 C 
ATOM      4  C   UNL     1      42.778  38.197   4.709  1.00  0.00    -0.027 C 
BRANCH   4   5
ATOM      5  C   UNL     1      41.418  37.629   4.362  1.00  0.00     0.014 C 
BRANCH   5   6
ATOM      6  C   UNL     1      41.251  36.211   4.962  1.00  0.00     0.004 C 
ATOM      7  C   UNL     1      42.227  35.204   4.351  1.00  0.00     0.004 C 
ENDBRANCH   5   6
BRANCH   5   8
ATOM      8  C   UNL     1      41.189  37.675   2.819  1.00  0.00    -0.011 C 
ATOM      9  C   UNL     1      42.421  38.201   2.066  1.00  0.00     0.008 C 
ATOM     10  C   UNL     1      39.935  38.467   2.415  1.00  0.00     0.008 C 
ENDBRANCH   5   8
ENDBRANCH   4   5
ENDBRANCH   1   3
BRANCH   1  11
ATOM     11  C   UNL     1      45.315  37.783   7.208  1.00  0.00     0.002 C 
ATOM     12  C   UNL     1      44.361  36.703   7.730  1.00  0.00     0.005 C 
ATOM     13  C   UNL     1      46.115  38.271   8.463  1.00  0.00    -0.026 C 
ATOM     14  C   UNL     1      45.007  36.092   8.963  1.00  0.00     0.005 C 
ATOM     15  C   UNL     1      46.188  36.993   9.351  1.00  0.00    -0.001 C 
ATOM     16  C   UNL     1      47.517  38.868   8.062  1.00  0.00     0.007 C 
ATOM     17  C   UNL     1      45.326  39.352   9.253  1.00  0.00     0.012 C 
ATOM     18  C   UNL     1      47.548  36.256   9.348  1.00  0.00     0.000 C 
ATOM     19  C   UNL     1      48.787  38.395   8.813  1.00  0.00     0.005 C 
ATOM     20  C   UNL     1      48.639  37.226   9.826  1.00  0.00     0.003 C 
ATOM     21  C   UNL     1      47.979  35.601   8.019  1.00  0.00     0.031 C 
ATOM     22  C   UNL     1      49.994  36.455  10.113  1.00  0.00    -0.008 C 
ATOM     23  C   UNL     1      49.342  34.977   8.152  1.00  0.00    -0.027 C 
ATOM     24  C   UNL     1      50.274  35.382   9.049  1.00  0.00    -0.065 C 
ATOM     25  C   UNL     1      49.908  35.724  11.493  1.00  0.00     0.014 C 
ATOM     26  C   UNL     1      51.177  37.466  10.180  1.00  0.00     0.016 C 
ATOM     27  C   UNL     1      51.486  34.506   9.273  1.00  0.00     0.063 C 
ATOM     28  C   UNL     1      51.092  34.767  11.773  1.00  0.00     0.033 C 
ATOM     29  C   UNL     1      51.344  33.775  10.616  1.00  0.00     0.118 C 
BRANCH  29  30
ATOM     30  O   UNL     1      50.289  32.849  10.536  1.00  0.00    -0.393 OA
ATOM     31  H   UNL     1      50.548  32.071  11.093  1.00  0.00     0.210 HD
ENDBRANCH  29  30
ENDBRANCH   1  11
TORSDOF 6
ENDMDL
MODEL 4
REMARK VINA RESULT:    -7.291      1.417      2.417
REMARK INTER + INTRA:         -10.538
REMARK INTER:                  -9.506
REMARK INTRA:                  -1.032
REMARK UNBOUND:                -0.903
REMARK SMILES CC[C@@H](C=C[C@H](C)[C@@H]1CC[C@H]2[C@H]3CC=C4C[C@H](O)CC[C@]4(C)[C@H]3CC[C@]21C)C(C)C
REMARK SMILES IDX 6 1 7 2 5 3 4 4 3 5 2 6 1 7 28 8 29 9 30 10 8 11 9 12 26 13
REMARK SMILES IDX 10 14 11 15 25 16 27 17 12 18 24 19 23 20 13 21 21 22 14 23
REMARK SMILES IDX 15 24 20 25 22 26 16 27 19 28 17 29 18 30
REMARK H PARENT 18 31
REMARK Flexibility Score: inf
ROOT
ATOM      1  C   UNL     1      36.556  29.832   6.718  1.00  0.00     0.012 C 
ATOM      2  C   UNL     1      36.138  28.906   5.567  1.00  0.00     0.012 C 
ENDROOT
BRANCH   1   3
ATOM      3  C   UNL     1      37.335  29.030   7.744  1.00  0.00    -0.028 C 
ATOM      4  C   UNL     1      38.472  28.381   7.440  1.00  0.00    -0.027 C 
BRANCH   4   5
ATOM      5  C   UNL     1      39.281  27.660   8.498  1.00  0.00     0.014 C 
BRANCH   5   6
ATOM      6  C   UNL     1      38.541  27.682   9.858  1.00  0.00     0.004 C 
ATOM      7  C   UNL     1      39.429  27.207  11.009  1.00  0.00     0.004 C 
ENDBRANCH   5   6
BRANCH   5   8
ATOM      8  C   UNL     1      40.723  28.251   8.572  1.00  0.00    -0.011 C 
ATOM      9  C   UNL     1      40.719  29.787   8.617  1.00  0.00     0.008 C 
ATOM     10  C   UNL     1      41.643  27.750   7.446  1.00  0.00     0.008 C 
ENDBRANCH   5   8
ENDBRANCH   4   5
ENDBRANCH   1   3
BRANCH   1  11
ATOM     11  C   UNL     1      37.369  31.086   6.246  1.00  0.00     0.002 C 
ATOM     12  C   UNL     1      37.848  31.923   7.438  1.00  0.00     0.005 C 
ATOM     13  C   UNL     1      36.666  32.102   5.283  1.00  0.00    -0.026 C 
ATOM     14  C   UNL     1      38.075  33.338   6.930  1.00  0.00     0.005 C 
ATOM     15  C   UNL     1      37.455  33.422   5.527  1.00  0.00    -0.001 C 
ATOM     16  C   UNL     1      36.685  31.596   3.791  1.00  0.00     0.007 C 
ATOM     17  C   UNL     1      35.189  32.349   5.701  1.00  0.00     0.012 C 
ATOM     18  C   UNL     1      38.476  33.801   4.429  1.00  0.00     0.000 C 
ATOM     19  C   UNL     1      37.153  32.556   2.669  1.00  0.00     0.005 C 
ATOM     20  C   UNL     1      37.737  33.934   3.089  1.00  0.00     0.003 C 
ATOM     21  C   UNL     1      39.694  32.867   4.261  1.00  0.00     0.031 C 
ATOM     22  C   UNL     1      38.671  34.591   1.990  1.00  0.00    -0.008 C 
ATOM     23  C   UNL     1      40.562  33.327   3.121  1.00  0.00    -0.027 C 
ATOM     24  C   UNL     1      40.108  34.055   2.072  1.00  0.00    -0.065 C 
ATOM     25  C   UNL     1      38.744  36.139   2.211  1.00  0.00     0.014 C 
ATOM     26  C   UNL     1      38.083  34.338   0.571  1.00  0.00     0.016 C 
ATOM     27  C   UNL     1      41.122  34.686   1.142  1.00  0.00     0.063 C 
ATOM     28  C   UNL     1      39.797  36.851   1.329  1.00  0.00     0.033 C 
ATOM     29  C   UNL     1      41.193  36.195   1.418  1.00  0.00     0.118 C 
BRANCH  29  30
ATOM     30  O   UNL     1      41.747  36.412   2.692  1.00  0.00    -0.393 OA
ATOM     31  H   UNL     1      41.236  35.847   3.327  1.00  0.00     0.210 HD
ENDBRANCH  29  30
ENDBRANCH   1  11
TORSDOF 6
ENDMDL
MODEL 5
REMARK VINA RESULT:    -7.089      2.926      4.054
REMARK INTER + INTRA:         -10.271
REMARK INTER:                 -10.359
REMARK INTRA:                   0.088
REMARK UNBOUND:                -0.903
REMARK SMILES CC[C@@H](C=C[C@H](C)[C@@H]1CC[C@H]2[C@H]3CC=C4C[C@H](O)CC[C@]4(C)[C@H]3CC[C@]21C)C(C)C
REMARK SMILES IDX 6 1 7 2 5 3 4 4 3 5 2 6 1 7 28 8 29 9 30 10 8 11 9 12 26 13
REMARK SMILES IDX 10 14 11 15 25 16 27 17 12 18 24 19 23 20 13 21 21 22 14 23
REMARK SMILES IDX 15 24 20 25 22 26 16 27 19 28 17 29 18 30
REMARK H PARENT 18 31
REMARK Flexibility Score: inf
ROOT
ATOM      1  C   UNL     1      37.484  28.826   8.870  1.00  0.00     0.012 C 
ATOM      2  C   UNL     1      36.580  27.961   7.982  1.00  0.00     0.012 C 
ENDROOT
BRANCH   1   3
ATOM      3  C   UNL     1      38.247  27.929   9.826  1.00  0.00    -0.028 C 
ATOM      4  C   UNL     1      39.216  28.393  10.634  1.00  0.00    -0.027 C 
BRANCH   4   5
ATOM      5  C   UNL     1      39.904  27.499  11.644  1.00  0.00     0.014 C 
BRANCH   5   6
ATOM      6  C   UNL     1      39.653  26.008  11.310  1.00  0.00     0.004 C 
ATOM      7  C   UNL     1      40.032  25.083  12.468  1.00  0.00     0.004 C 
ENDBRANCH   5   6
BRANCH   5   8
ATOM      8  C   UNL     1      39.473  27.887  13.092  1.00  0.00    -0.011 C 
ATOM      9  C   UNL     1      38.078  28.531  13.130  1.00  0.00     0.008 C 
ATOM     10  C   UNL     1      40.496  28.782  13.810  1.00  0.00     0.008 C 
ENDBRANCH   5   8
ENDBRANCH   4   5
ENDBRANCH   1   3
BRANCH   1  11
ATOM     11  C   UNL     1      38.461  29.745   8.057  1.00  0.00     0.002 C 
ATOM     12  C   UNL     1      37.805  31.085   7.705  1.00  0.00     0.005 C 
ATOM     13  C   UNL     1      39.037  29.198   6.707  1.00  0.00    -0.026 C 
ATOM     14  C   UNL     1      38.528  31.631   6.483  1.00  0.00     0.005 C 
ATOM     15  C   UNL     1      39.404  30.497   5.930  1.00  0.00    -0.001 C 
ATOM     16  C   UNL     1      40.247  28.218   6.947  1.00  0.00     0.007 C 
ATOM     17  C   UNL     1      37.949  28.449   5.890  1.00  0.00     0.012 C 
ATOM     18  C   UNL     1      40.909  30.850   5.893  1.00  0.00     0.000 C 
ATOM     19  C   UNL     1      41.558  28.418   6.146  1.00  0.00     0.005 C 
ATOM     20  C   UNL     1      41.676  29.683   5.252  1.00  0.00     0.003 C 
ATOM     21  C   UNL     1      41.566  31.229   7.237  1.00  0.00     0.031 C 
ATOM     22  C   UNL     1      43.172  30.099   4.930  1.00  0.00    -0.008 C 
ATOM     23  C   UNL     1      43.038  31.485   7.055  1.00  0.00    -0.027 C 
ATOM     24  C   UNL     1      43.781  30.946   6.058  1.00  0.00    -0.065 C 
ATOM     25  C   UNL     1      43.214  30.967   3.628  1.00  0.00     0.014 C 
ATOM     26  C   UNL     1      44.037  28.827   4.686  1.00  0.00     0.016 C 
ATOM     27  C   UNL     1      45.171  31.494   5.819  1.00  0.00     0.063 C 
ATOM     28  C   UNL     1      44.595  31.605   3.343  1.00  0.00     0.033 C 
ATOM     29  C   UNL     1      45.161  32.372   4.558  1.00  0.00     0.118 C 
BRANCH  29  30
ATOM     30  O   UNL     1      44.397  33.527   4.799  1.00  0.00    -0.393 OA
ATOM     31  H   UNL     1      44.272  33.975   3.923  1.00  0.00     0.210 HD
ENDBRANCH  29  30
ENDBRANCH   1  11
TORSDOF 6
ENDMDL
MODEL 6
REMARK VINA RESULT:    -7.050      4.400      6.731
REMARK INTER + INTRA:         -10.219
REMARK INTER:                  -9.014
REMARK INTRA:                  -1.205
REMARK UNBOUND:                -0.903
REMARK SMILES CC[C@@H](C=C[C@H](C)[C@@H]1CC[C@H]2[C@H]3CC=C4C[C@H](O)CC[C@]4(C)[C@H]3CC[C@]21C)C(C)C
REMARK SMILES IDX 6 1 7 2 5 3 4 4 3 5 2 6 1 7 28 8 29 9 30 10 8 11 9 12 26 13
REMARK SMILES IDX 10 14 11 15 25 16 27 17 12 18 24 19 23 20 13 21 21 22 14 23
REMARK SMILES IDX 15 24 20 25 22 26 16 27 19 28 17 29 18 30
REMARK H PARENT 18 31
REMARK Flexibility Score: inf
ROOT
ATOM      1  C   UNL     1      39.458  28.365   7.080  1.00  0.00     0.012 C 
ATOM      2  C   UNL     1      39.281  28.392   8.604  1.00  0.00     0.012 C 
ENDROOT
BRANCH   1   3
ATOM      3  C   UNL     1      38.111  28.592   6.419  1.00  0.00    -0.028 C 
ATOM      4  C   UNL     1      36.950  28.450   7.080  1.00  0.00    -0.027 C 
BRANCH   4   5
ATOM      5  C   UNL     1      35.621  28.768   6.427  1.00  0.00     0.014 C 
BRANCH   5   6
ATOM      6  C   UNL     1      35.836  29.329   5.000  1.00  0.00     0.004 C 
ATOM      7  C   UNL     1      35.210  28.438   3.926  1.00  0.00     0.004 C 
ENDBRANCH   5   6
BRANCH   5   8
ATOM      8  C   UNL     1      34.782  29.715   7.340  1.00  0.00    -0.011 C 
ATOM      9  C   UNL     1      33.654  30.418   6.567  1.00  0.00     0.008 C 
ATOM     10  C   UNL     1      35.638  30.745   8.094  1.00  0.00     0.008 C 
ENDBRANCH   5   8
ENDBRANCH   4   5
ENDBRANCH   1   3
BRANCH   1  11
ATOM     11  C   UNL     1      40.523  29.390   6.558  1.00  0.00     0.002 C 
ATOM     12  C   UNL     1      39.875  30.479   5.695  1.00  0.00     0.005 C 
ATOM     13  C   UNL     1      41.718  28.843   5.705  1.00  0.00    -0.026 C 
ATOM     14  C   UNL     1      40.959  31.035   4.786  1.00  0.00     0.005 C 
ATOM     15  C   UNL     1      42.166  30.090   4.887  1.00  0.00    -0.001 C 
ATOM     16  C   UNL     1      42.843  28.220   6.615  1.00  0.00     0.007 C 
ATOM     17  C   UNL     1      41.243  27.760   4.696  1.00  0.00     0.012 C 
ATOM     18  C   UNL     1      43.451  30.790   5.388  1.00  0.00     0.000 C 
ATOM     19  C   UNL     1      44.319  28.636   6.390  1.00  0.00     0.005 C 
ATOM     20  C   UNL     1      44.605  29.776   5.374  1.00  0.00     0.003 C 
ATOM     21  C   UNL     1      43.374  31.473   6.770  1.00  0.00     0.031 C 
ATOM     22  C   UNL     1      45.996  30.501   5.605  1.00  0.00    -0.008 C 
ATOM     23  C   UNL     1      44.710  32.055   7.149  1.00  0.00    -0.027 C 
ATOM     24  C   UNL     1      45.895  31.597   6.676  1.00  0.00    -0.065 C 
ATOM     25  C   UNL     1      46.462  31.192   4.280  1.00  0.00     0.014 C 
ATOM     26  C   UNL     1      47.080  29.456   6.006  1.00  0.00     0.016 C 
ATOM     27  C   UNL     1      47.134  32.433   6.909  1.00  0.00     0.063 C 
ATOM     28  C   UNL     1      47.698  32.106   4.450  1.00  0.00     0.033 C 
ATOM     29  C   UNL     1      47.534  33.126   5.598  1.00  0.00     0.118 C 
BRANCH  29  30
ATOM     30  O   UNL     1      46.561  34.082   5.259  1.00  0.00    -0.393 OA
ATOM     31  H   UNL     1      45.681  33.631   5.325  1.00  0.00     0.210 HD
ENDBRANCH  29  30
ENDBRANCH   1  11
TORSDOF 6
ENDMDL
MODEL 7
REMARK VINA RESULT:    -6.977      9.568     11.866
REMARK INTER + INTRA:         -10.124
REMARK INTER:                  -9.150
REMARK INTRA:                  -0.974
REMARK UNBOUND:                -0.903
REMARK SMILES CC[C@@H](C=C[C@H](C)[C@@H]1CC[C@H]2[C@H]3CC=C4C[C@H](O)CC[C@]4(C)[C@H]3CC[C@]21C)C(C)C
REMARK SMILES IDX 6 1 7 2 5 3 4 4 3 5 2 6 1 7 28 8 29 9 30 10 8 11 9 12 26 13
REMARK SMILES IDX 10 14 11 15 25 16 27 17 12 18 24 19 23 20 13 21 21 22 14 23
REMARK SMILES IDX 15 24 20 25 22 26 16 27 19 28 17 29 18 30
REMARK H PARENT 18 31
REMARK Flexibility Score: inf
ROOT
ATOM      1  C   UNL     1      47.629  37.757  11.016  1.00  0.00     0.012 C 
ATOM      2  C   UNL     1      48.437  38.926  10.436  1.00  0.00     0.012 C 
ENDROOT
BRANCH   1   3
ATOM      3  C   UNL     1      46.252  38.254  11.414  1.00  0.00    -0.028 C 
ATOM      4  C   UNL     1      46.035  38.953  12.541  1.00  0.00    -0.027 C 
BRANCH   4   5
ATOM      5  C   UNL     1      44.670  39.516  12.876  1.00  0.00     0.014 C 
BRANCH   5   6
ATOM      6  C   UNL     1      44.649  41.051  12.673  1.00  0.00     0.004 C 
ATOM      7  C   UNL     1      43.514  41.723  13.447  1.00  0.00     0.004 C 
ENDBRANCH   5   6
BRANCH   5   8
ATOM      8  C   UNL     1      44.241  39.079  14.311  1.00  0.00    -0.011 C 
ATOM      9  C   UNL     1      45.431  38.580  15.145  1.00  0.00     0.008 C 
ATOM     10  C   UNL     1      43.110  38.038  14.316  1.00  0.00     0.008 C 
ENDBRANCH   5   8
ENDBRANCH   4   5
ENDBRANCH   1   3
BRANCH   1  11
ATOM     11  C   UNL     1      47.527  36.528  10.047  1.00  0.00     0.002 C 
ATOM     12  C   UNL     1      46.299  35.667  10.363  1.00  0.00     0.005 C 
ATOM     13  C   UNL     1      48.732  35.528   9.996  1.00  0.00    -0.026 C 
ATOM     14  C   UNL     1      46.583  34.270   9.835  1.00  0.00     0.005 C 
ATOM     15  C   UNL     1      48.076  34.214   9.478  1.00  0.00    -0.001 C 
ATOM     16  C   UNL     1      49.901  36.074   9.092  1.00  0.00     0.007 C 
ATOM     17  C   UNL     1      49.296  35.247  11.417  1.00  0.00     0.012 C 
ATOM     18  C   UNL     1      48.336  33.880   7.990  1.00  0.00     0.000 C 
ATOM     19  C   UNL     1      50.523  35.151   8.014  1.00  0.00     0.005 C 
ATOM     20  C   UNL     1      49.852  33.772   7.764  1.00  0.00     0.003 C 
ATOM     21  C   UNL     1      47.721  34.836   6.947  1.00  0.00     0.031 C 
ATOM     22  C   UNL     1      50.168  33.158   6.338  1.00  0.00    -0.008 C 
ATOM     23  C   UNL     1      48.109  34.421   5.552  1.00  0.00    -0.027 C 
ATOM     24  C   UNL     1      49.227  33.714   5.258  1.00  0.00    -0.065 C 
ATOM     25  C   UNL     1      49.967  31.606   6.370  1.00  0.00     0.014 C 
ATOM     26  C   UNL     1      51.651  33.440   5.954  1.00  0.00     0.016 C 
ATOM     27  C   UNL     1      49.361  33.123   3.872  1.00  0.00     0.063 C 
ATOM     28  C   UNL     1      50.040  30.934   4.978  1.00  0.00     0.033 C 
ATOM     29  C   UNL     1      49.116  31.608   3.940  1.00  0.00     0.118 C 
BRANCH  29  30
ATOM     30  O   UNL     1      47.769  31.366   4.263  1.00  0.00    -0.393 OA
ATOM     31  H   UNL     1      47.533  30.488   3.868  1.00  0.00     0.210 HD
ENDBRANCH  29  30
ENDBRANCH   1  11
TORSDOF 6
ENDMDL
MODEL 8
REMARK VINA RESULT:    -6.944      8.092     10.236
REMARK INTER + INTRA:         -10.080
REMARK INTER:                  -8.733
REMARK INTRA:                  -1.347
REMARK UNBOUND:                -0.903
REMARK SMILES CC[C@@H](C=C[C@H](C)[C@@H]1CC[C@H]2[C@H]3CC=C4C[C@H](O)CC[C@]4(C)[C@H]3CC[C@]21C)C(C)C
REMARK SMILES IDX 6 1 7 2 5 3 4 4 3 5 2 6 1 7 28 8 29 9 30 10 8 11 9 12 26 13
REMARK SMILES IDX 10 14 11 15 25 16 27 17 12 18 24 19 23 20 13 21 21 22 14 23
REMARK SMILES IDX 15 24 20 25 22 26 16 27 19 28 17 29 18 30
REMARK H PARENT 18 31
REMARK Flexibility Score: inf
ROOT
ATOM      1  C   UNL     1      47.144  38.889   8.758  1.00  0.00     0.012 C 
ATOM      2  C   UNL     1      46.420  39.128  10.090  1.00  0.00     0.012 C 
ENDROOT
BRANCH   1   3
ATOM      3  C   UNL     1      48.593  38.536   9.036  1.00  0.00    -0.028 C 
ATOM      4  C   UNL     1      49.058  38.320  10.277  1.00  0.00    -0.027 C 
BRANCH   4   5
ATOM      5  C   UNL     1      50.487  37.882  10.525  1.00  0.00     0.014 C 
BRANCH   5   6
ATOM      6  C   UNL     1      50.991  36.991   9.364  1.00  0.00     0.004 C 
ATOM      7  C   UNL     1      50.622  35.520   9.558  1.00  0.00     0.004 C 
ENDBRANCH   5   6
BRANCH   5   8
ATOM      8  C   UNL     1      50.608  37.199  11.922  1.00  0.00    -0.011 C 
ATOM      9  C   UNL     1      49.265  37.157  12.668  1.00  0.00     0.008 C 
ATOM     10  C   UNL     1      51.696  37.825  12.811  1.00  0.00     0.008 C 
ENDBRANCH   5   8
ENDBRANCH   4   5
ENDBRANCH   1   3
BRANCH   1  11
ATOM     11  C   UNL     1      46.459  37.799   7.864  1.00  0.00     0.002 C 
ATOM     12  C   UNL     1      47.398  36.615   7.607  1.00  0.00     0.005 C 
ATOM     13  C   UNL     1      45.936  38.227   6.450  1.00  0.00    -0.026 C 
ATOM     14  C   UNL     1      46.931  35.942   6.326  1.00  0.00     0.005 C 
ATOM     15  C   UNL     1      45.915  36.884   5.662  1.00  0.00    -0.001 C 
ATOM     16  C   UNL     1      44.540  38.951   6.542  1.00  0.00     0.007 C 
ATOM     17  C   UNL     1      46.939  39.178   5.739  1.00  0.00     0.012 C 
ATOM     18  C   UNL     1      44.521  36.243   5.471  1.00  0.00     0.000 C 
ATOM     19  C   UNL     1      43.387  38.500   5.610  1.00  0.00     0.005 C 
ATOM     20  C   UNL     1      43.615  37.239   4.731  1.00  0.00     0.003 C 
ATOM     21  C   UNL     1      43.809  35.739   6.744  1.00  0.00     0.031 C 
ATOM     22  C   UNL     1      42.273  36.539   4.260  1.00  0.00    -0.008 C 
ATOM     23  C   UNL     1      42.444  35.200   6.411  1.00  0.00    -0.027 C 
ATOM     24  C   UNL     1      41.722  35.586   5.331  1.00  0.00    -0.065 C 
ATOM     25  C   UNL     1      42.541  35.684   2.976  1.00  0.00     0.014 C 
ATOM     26  C   UNL     1      41.208  37.618   3.901  1.00  0.00     0.016 C 
ATOM     27  C   UNL     1      40.500  34.777   4.956  1.00  0.00     0.063 C 
ATOM     28  C   UNL     1      41.350  34.790   2.558  1.00  0.00     0.033 C 
ATOM     29  C   UNL     1      40.816  33.923   3.720  1.00  0.00     0.118 C 
BRANCH  29  30
ATOM     30  O   UNL     1      41.760  32.939   4.060  1.00  0.00    -0.393 OA
ATOM     31  H   UNL     1      41.422  32.487   4.876  1.00  0.00     0.210 HD
ENDBRANCH  29  30
ENDBRANCH   1  11
TORSDOF 6
ENDMDL
MODEL 9
REMARK VINA RESULT:    -6.910      8.324     12.483
REMARK INTER + INTRA:         -10.034
REMARK INTER:                  -8.972
REMARK INTRA:                  -1.062
REMARK UNBOUND:                -0.903
REMARK SMILES CC[C@@H](C=C[C@H](C)[C@@H]1CC[C@H]2[C@H]3CC=C4C[C@H](O)CC[C@]4(C)[C@H]3CC[C@]21C)C(C)C
REMARK SMILES IDX 6 1 7 2 5 3 4 4 3 5 2 6 1 7 28 8 29 9 30 10 8 11 9 12 26 13
REMARK SMILES IDX 10 14 11 15 25 16 27 17 12 18 24 19 23 20 13 21 21 22 14 23
REMARK SMILES IDX 15 24 20 25 22 26 16 27 19 28 17 29 18 30
REMARK H PARENT 18 31
REMARK Flexibility Score: inf
ROOT
ATOM      1  C   UNL     1      43.539  36.631   5.781  1.00  0.00     0.012 C 
ATOM      2  C   UNL     1      42.351  36.058   6.567  1.00  0.00     0.012 C 
ENDROOT
BRANCH   1   3
ATOM      3  C   UNL     1      43.021  37.577   4.715  1.00  0.00    -0.028 C 
ATOM      4  C   UNL     1      42.422  37.143   3.593  1.00  0.00    -0.027 C 
BRANCH   4   5
ATOM      5  C   UNL     1      41.833  38.105   2.584  1.00  0.00     0.014 C 
BRANCH   5   6
ATOM      6  C   UNL     1      40.376  37.708   2.240  1.00  0.00     0.004 C 
ATOM      7  C   UNL     1      39.394  38.860   2.460  1.00  0.00     0.004 C 
ENDBRANCH   5   6
BRANCH   5   8
ATOM      8  C   UNL     1      42.755  38.206   1.330  1.00  0.00    -0.011 C 
ATOM      9  C   UNL     1      43.550  36.914   1.088  1.00  0.00     0.008 C 
ATOM     10  C   UNL     1      43.701  39.418   1.368  1.00  0.00     0.008 C 
ENDBRANCH   5   8
ENDBRANCH   4   5
ENDBRANCH   1   3
BRANCH   1  11
ATOM     11  C   UNL     1      44.606  37.334   6.689  1.00  0.00     0.002 C 
ATOM     12  C   UNL     1      44.646  38.845   6.438  1.00  0.00     0.005 C 
ATOM     13  C   UNL     1      46.095  36.857   6.583  1.00  0.00    -0.026 C 
ATOM     14  C   UNL     1      46.021  39.335   6.866  1.00  0.00     0.005 C 
ATOM     15  C   UNL     1      46.897  38.093   7.087  1.00  0.00    -0.001 C 
ATOM     16  C   UNL     1      46.342  35.538   7.407  1.00  0.00     0.007 C 
ATOM     17  C   UNL     1      46.502  36.600   5.105  1.00  0.00     0.012 C 
ATOM     18  C   UNL     1      47.452  37.986   8.527  1.00  0.00     0.000 C 
ATOM     19  C   UNL     1      47.549  35.463   8.377  1.00  0.00     0.005 C 
ATOM     20  C   UNL     1      48.373  36.758   8.612  1.00  0.00     0.003 C 
ATOM     21  C   UNL     1      46.415  37.939   9.669  1.00  0.00     0.031 C 
ATOM     22  C   UNL     1      49.188  36.757   9.972  1.00  0.00    -0.008 C 
ATOM     23  C   UNL     1      47.099  37.773  11.000  1.00  0.00    -0.027 C 
ATOM     24  C   UNL     1      48.317  37.200  11.157  1.00  0.00    -0.065 C 
ATOM     25  C   UNL     1      50.382  37.765   9.877  1.00  0.00     0.014 C 
ATOM     26  C   UNL     1      49.777  35.341  10.237  1.00  0.00     0.016 C 
ATOM     27  C   UNL     1      49.011  37.342  12.494  1.00  0.00     0.063 C 
ATOM     28  C   UNL     1      51.113  38.001  11.220  1.00  0.00     0.033 C 
ATOM     29  C   UNL     1      50.148  38.367  12.369  1.00  0.00     0.118 C 
BRANCH  29  30
ATOM     30  O   UNL     1      49.603  39.645  12.153  1.00  0.00    -0.393 OA
ATOM     31  H   UNL     1      49.859  39.914  11.234  1.00  0.00     0.210 HD
ENDBRANCH  29  30
ENDBRANCH   1  11
TORSDOF 6
ENDMDL
