MODEL 1
REMARK VINA RESULT:    -6.649      0.000      0.000
REMARK INTER + INTRA:          -8.097
REMARK INTER:                  -7.816
REMARK INTRA:                  -0.281
REMARK UNBOUND:                -0.281
REMARK SMILES O=c1c(O)c(-c2ccc(O)cc2)oc2cc(O)cc(O)c12
REMARK SMILES IDX 5 1 3 2 2 3 1 4 21 5 19 6 18 7 16 8 15 9 14 10 13 11 6 12
REMARK SMILES IDX 7 13 8 14 9 15 12 16 11 17 10 18 4 20 20 22 17 24
REMARK H PARENT 10 19 4 21 20 23 17 25
REMARK Flexibility Score: inf
ROOT
ATOM      1  C   UNL     1    -118.431  -2.253  77.030  1.00  0.00     0.180 A 
ATOM      2  C   UNL     1    -118.632  -0.974  77.575  1.00  0.00     0.208 A 
ATOM      3  C   UNL     1    -117.541  -0.301  78.150  1.00  0.00     0.238 A 
ATOM      4  O   UNL     1    -117.711   0.873  78.569  1.00  0.00    -0.285 OA
ATOM      5  C   UNL     1    -116.279  -0.937  78.225  1.00  0.00     0.111 A 
ATOM      6  C   UNL     1    -115.116  -0.367  78.826  1.00  0.00     0.134 A 
ATOM      7  C   UNL     1    -113.893  -1.047  78.745  1.00  0.00     0.093 A 
ATOM      8  C   UNL     1    -113.806  -2.304  78.142  1.00  0.00     0.123 A 
ATOM      9  C   UNL     1    -114.946  -2.892  77.602  1.00  0.00     0.094 A 
ATOM     10  C   UNL     1    -116.172  -2.223  77.632  1.00  0.00     0.146 A 
ATOM     11  O   UNL     1    -117.228  -2.812  77.085  1.00  0.00    -0.452 OA
ENDROOT
BRANCH   1  12
ATOM     12  C   UNL     1    -119.527  -3.020  76.394  1.00  0.00     0.021 A 
ATOM     13  C   UNL     1    -119.697  -3.034  74.998  1.00  0.00     0.016 A 
ATOM     14  C   UNL     1    -120.725  -3.785  74.418  1.00  0.00     0.047 A 
ATOM     15  C   UNL     1    -121.585  -4.541  75.222  1.00  0.00     0.115 A 
ATOM     16  C   UNL     1    -120.382  -3.798  77.194  1.00  0.00     0.016 A 
ATOM     17  C   UNL     1    -121.409  -4.546  76.612  1.00  0.00     0.047 A 
BRANCH  15  18
ATOM     18  O   UNL     1    -122.604  -5.283  74.631  1.00  0.00    -0.508 OA
ATOM     19  H   UNL     1    -123.166  -4.904  73.877  1.00  0.00     0.293 HD
ENDBRANCH  15  18
ENDBRANCH   1  12
BRANCH   2  20
ATOM     20  O   UNL     1    -119.903  -0.394  77.562  1.00  0.00    -0.502 OA
ATOM     21  H   UNL     1    -120.349  -0.082  76.708  1.00  0.00     0.293 HD
ENDBRANCH   2  20
BRANCH   6  22
ATOM     22  O   UNL     1    -115.110   0.841  79.530  1.00  0.00    -0.507 OA
ATOM     23  H   UNL     1    -114.700   1.701  79.198  1.00  0.00     0.293 HD
ENDBRANCH   6  22
BRANCH   8  24
ATOM     24  O   UNL     1    -112.589  -2.980  78.083  1.00  0.00    -0.508 OA
ATOM     25  H   UNL     1    -112.188  -3.423  78.901  1.00  0.00     0.293 HD
ENDBRANCH   8  24
TORSDOF 5
ENDMDL
MODEL 2
REMARK VINA RESULT:    -5.927      3.395      4.093
REMARK INTER + INTRA:          -7.248
REMARK INTER:                  -6.966
REMARK INTRA:                  -0.283
REMARK UNBOUND:                -0.281
REMARK SMILES O=c1c(O)c(-c2ccc(O)cc2)oc2cc(O)cc(O)c12
REMARK SMILES IDX 5 1 3 2 2 3 1 4 21 5 19 6 18 7 16 8 15 9 14 10 13 11 6 12
REMARK SMILES IDX 7 13 8 14 9 15 12 16 11 17 10 18 4 20 20 22 17 24
REMARK H PARENT 10 19 4 21 20 23 17 25
REMARK Flexibility Score: inf
ROOT
ATOM      1  C   UNL     1    -117.157  -1.644  79.518  1.00  0.00     0.180 A 
ATOM      2  C   UNL     1    -116.277  -0.561  79.687  1.00  0.00     0.208 A 
ATOM      3  C   UNL     1    -115.414  -0.553  80.795  1.00  0.00     0.238 A 
ATOM      4  O   UNL     1    -114.578   0.382  80.900  1.00  0.00    -0.285 OA
ATOM      5  C   UNL     1    -115.481  -1.596  81.750  1.00  0.00     0.111 A 
ATOM      6  C   UNL     1    -114.685  -1.666  82.934  1.00  0.00     0.134 A 
ATOM      7  C   UNL     1    -114.763  -2.801  83.752  1.00  0.00     0.093 A 
ATOM      8  C   UNL     1    -115.652  -3.838  83.463  1.00  0.00     0.123 A 
ATOM      9  C   UNL     1    -116.471  -3.754  82.340  1.00  0.00     0.094 A 
ATOM     10  C   UNL     1    -116.390  -2.653  81.484  1.00  0.00     0.146 A 
ATOM     11  O   UNL     1    -117.175  -2.625  80.413  1.00  0.00    -0.452 OA
ENDROOT
BRANCH   1  12
ATOM     12  C   UNL     1    -118.086  -1.733  78.369  1.00  0.00     0.021 A 
ATOM     13  C   UNL     1    -117.761  -2.475  77.219  1.00  0.00     0.016 A 
ATOM     14  C   UNL     1    -118.665  -2.565  76.156  1.00  0.00     0.047 A 
ATOM     15  C   UNL     1    -119.908  -1.927  76.232  1.00  0.00     0.115 A 
ATOM     16  C   UNL     1    -119.345  -1.113  78.447  1.00  0.00     0.016 A 
ATOM     17  C   UNL     1    -120.246  -1.203  77.383  1.00  0.00     0.047 A 
BRANCH  15  18
ATOM     18  O   UNL     1    -120.798  -2.024  75.166  1.00  0.00    -0.508 OA
ATOM     19  H   UNL     1    -121.517  -2.737  75.139  1.00  0.00     0.293 HD
ENDBRANCH  15  18
ENDBRANCH   1  12
BRANCH   2  20
ATOM     20  O   UNL     1    -116.280   0.497  78.775  1.00  0.00    -0.502 OA
ATOM     21  H   UNL     1    -115.431   0.855  78.355  1.00  0.00     0.293 HD
ENDBRANCH   2  20
BRANCH   6  22
ATOM     22  O   UNL     1    -113.830  -0.647  83.364  1.00  0.00    -0.507 OA
ATOM     23  H   UNL     1    -113.395  -0.604  84.274  1.00  0.00     0.293 HD
ENDBRANCH   6  22
BRANCH   8  24
ATOM     24  O   UNL     1    -115.735  -4.955  84.292  1.00  0.00    -0.508 OA
ATOM     25  H   UNL     1    -116.139  -5.826  83.969  1.00  0.00     0.293 HD
ENDBRANCH   8  24
TORSDOF 5
ENDMDL
MODEL 3
REMARK VINA RESULT:    -5.871     14.031     15.160
REMARK INTER + INTRA:          -7.182
REMARK INTER:                  -6.887
REMARK INTRA:                  -0.296
REMARK UNBOUND:                -0.281
REMARK SMILES O=c1c(O)c(-c2ccc(O)cc2)oc2cc(O)cc(O)c12
REMARK SMILES IDX 5 1 3 2 2 3 1 4 21 5 19 6 18 7 16 8 15 9 14 10 13 11 6 12
REMARK SMILES IDX 7 13 8 14 9 15 12 16 11 17 10 18 4 20 20 22 17 24
REMARK H PARENT 10 19 4 21 20 23 17 25
REMARK Flexibility Score: inf
ROOT
ATOM      1  C   UNL     1    -118.459 -13.505  87.208  1.00  0.00     0.180 A 
ATOM      2  C   UNL     1    -117.785 -12.380  87.712  1.00  0.00     0.208 A 
ATOM      3  C   UNL     1    -117.488 -11.319  86.840  1.00  0.00     0.238 A 
ATOM      4  O   UNL     1    -116.951 -10.284  87.314  1.00  0.00    -0.285 OA
ATOM      5  C   UNL     1    -117.817 -11.420  85.468  1.00  0.00     0.111 A 
ATOM      6  C   UNL     1    -117.523 -10.425  84.486  1.00  0.00     0.134 A 
ATOM      7  C   UNL     1    -117.993 -10.588  83.176  1.00  0.00     0.093 A 
ATOM      8  C   UNL     1    -118.689 -11.737  82.797  1.00  0.00     0.123 A 
ATOM      9  C   UNL     1    -118.933 -12.738  83.734  1.00  0.00     0.094 A 
ATOM     10  C   UNL     1    -118.512 -12.589  85.057  1.00  0.00     0.146 A 
ATOM     11  O   UNL     1    -118.785 -13.558  85.922  1.00  0.00    -0.452 OA
ENDROOT
BRANCH   1  12
ATOM     12  C   UNL     1    -118.821 -14.657  88.066  1.00  0.00     0.021 A 
ATOM     13  C   UNL     1    -120.018 -14.674  88.804  1.00  0.00     0.016 A 
ATOM     14  C   UNL     1    -120.350 -15.784  89.589  1.00  0.00     0.047 A 
ATOM     15  C   UNL     1    -119.499 -16.893  89.635  1.00  0.00     0.115 A 
ATOM     16  C   UNL     1    -117.982 -15.784  88.101  1.00  0.00     0.016 A 
ATOM     17  C   UNL     1    -118.314 -16.891  88.887  1.00  0.00     0.047 A 
BRANCH  15  18
ATOM     18  O   UNL     1    -119.841 -17.990  90.421  1.00  0.00    -0.508 OA
ATOM     19  H   UNL     1    -120.498 -18.691  90.096  1.00  0.00     0.293 HD
ENDBRANCH  15  18
ENDBRANCH   1  12
BRANCH   2  20
ATOM     20  O   UNL     1    -117.400 -12.333  89.053  1.00  0.00    -0.502 OA
ATOM     21  H   UNL     1    -117.958 -12.739  89.794  1.00  0.00     0.293 HD
ENDBRANCH   2  20
BRANCH   6  22
ATOM     22  O   UNL     1    -116.760  -9.281  84.735  1.00  0.00    -0.507 OA
ATOM     23  H   UNL     1    -116.654  -8.841  85.637  1.00  0.00     0.293 HD
ENDBRANCH   6  22
BRANCH   8  24
ATOM     24  O   UNL     1    -119.136 -11.898  81.488  1.00  0.00    -0.508 OA
ATOM     25  H   UNL     1    -119.945 -11.397  81.138  1.00  0.00     0.293 HD
ENDBRANCH   8  24
TORSDOF 5
ENDMDL
MODEL 4
REMARK VINA RESULT:    -5.854     16.434     17.607
REMARK INTER + INTRA:          -7.162
REMARK INTER:                  -6.873
REMARK INTRA:                  -0.289
REMARK UNBOUND:                -0.281
REMARK SMILES O=c1c(O)c(-c2ccc(O)cc2)oc2cc(O)cc(O)c12
REMARK SMILES IDX 5 1 3 2 2 3 1 4 21 5 19 6 18 7 16 8 15 9 14 10 13 11 6 12
REMARK SMILES IDX 7 13 8 14 9 15 12 16 11 17 10 18 4 20 20 22 17 24
REMARK H PARENT 10 19 4 21 20 23 17 25
REMARK Flexibility Score: inf
ROOT
ATOM      1  C   UNL     1    -118.042 -14.003  88.342  1.00  0.00     0.180 A 
ATOM      2  C   UNL     1    -119.312 -14.377  88.813  1.00  0.00     0.208 A 
ATOM      3  C   UNL     1    -119.463 -15.622  89.446  1.00  0.00     0.238 A 
ATOM      4  O   UNL     1    -120.585 -15.919  89.931  1.00  0.00    -0.285 OA
ATOM      5  C   UNL     1    -118.357 -16.500  89.547  1.00  0.00     0.111 A 
ATOM      6  C   UNL     1    -118.406 -17.805  90.128  1.00  0.00     0.134 A 
ATOM      7  C   UNL     1    -117.223 -18.542  90.269  1.00  0.00     0.093 A 
ATOM      8  C   UNL     1    -116.006 -18.050  89.794  1.00  0.00     0.123 A 
ATOM      9  C   UNL     1    -115.958 -16.803  89.177  1.00  0.00     0.094 A 
ATOM     10  C   UNL     1    -117.113 -16.026  89.055  1.00  0.00     0.146 A 
ATOM     11  O   UNL     1    -117.016 -14.834  88.480  1.00  0.00    -0.452 OA
ENDROOT
BRANCH   1  12
ATOM     12  C   UNL     1    -117.800 -12.701  87.678  1.00  0.00     0.021 A 
ATOM     13  C   UNL     1    -117.332 -11.587  88.398  1.00  0.00     0.016 A 
ATOM     14  C   UNL     1    -117.087 -10.374  87.745  1.00  0.00     0.047 A 
ATOM     15  C   UNL     1    -117.292 -10.264  86.366  1.00  0.00     0.115 A 
ATOM     16  C   UNL     1    -117.984 -12.588  86.289  1.00  0.00     0.016 A 
ATOM     17  C   UNL     1    -117.739 -11.375  85.639  1.00  0.00     0.047 A 
BRANCH  15  18
ATOM     18  O   UNL     1    -117.045  -9.050  85.729  1.00  0.00    -0.508 OA
ATOM     19  H   UNL     1    -117.479  -8.190  86.043  1.00  0.00     0.293 HD
ENDBRANCH  15  18
ENDBRANCH   1  12
BRANCH   2  20
ATOM     20  O   UNL     1    -120.407 -13.529  88.634  1.00  0.00    -0.502 OA
ATOM     21  H   UNL     1    -121.331 -13.875  88.407  1.00  0.00     0.293 HD
ENDBRANCH   2  20
BRANCH   6  22
ATOM     22  O   UNL     1    -119.582 -18.429  90.554  1.00  0.00    -0.507 OA
ATOM     23  H   UNL     1    -120.477 -17.973  90.648  1.00  0.00     0.293 HD
ENDBRANCH   6  22
BRANCH   8  24
ATOM     24  O   UNL     1    -114.838 -18.798  89.923  1.00  0.00    -0.508 OA
ATOM     25  H   UNL     1    -114.841 -19.807  89.823  1.00  0.00     0.293 HD
ENDBRANCH   8  24
TORSDOF 5
ENDMDL
MODEL 5
REMARK VINA RESULT:    -5.823      6.692      9.306
REMARK INTER + INTRA:          -7.125
REMARK INTER:                  -6.926
REMARK INTRA:                  -0.199
REMARK UNBOUND:                -0.281
REMARK SMILES O=c1c(O)c(-c2ccc(O)cc2)oc2cc(O)cc(O)c12
REMARK SMILES IDX 5 1 3 2 2 3 1 4 21 5 19 6 18 7 16 8 15 9 14 10 13 11 6 12
REMARK SMILES IDX 7 13 8 14 9 15 12 16 11 17 10 18 4 20 20 22 17 24
REMARK H PARENT 10 19 4 21 20 23 17 25
REMARK Flexibility Score: inf
ROOT
ATOM      1  C   UNL     1    -109.881  -1.895  74.476  1.00  0.00     0.180 A 
ATOM      2  C   UNL     1    -109.425  -0.572  74.599  1.00  0.00     0.208 A 
ATOM      3  C   UNL     1    -108.064  -0.299  74.386  1.00  0.00     0.238 A 
ATOM      4  O   UNL     1    -107.677   0.898  74.424  1.00  0.00    -0.285 OA
ATOM      5  C   UNL     1    -107.167  -1.358  74.110  1.00  0.00     0.111 A 
ATOM      6  C   UNL     1    -105.759  -1.202  73.921  1.00  0.00     0.134 A 
ATOM      7  C   UNL     1    -104.986  -2.309  73.547  1.00  0.00     0.093 A 
ATOM      8  C   UNL     1    -105.558  -3.577  73.417  1.00  0.00     0.123 A 
ATOM      9  C   UNL     1    -106.919  -3.749  73.653  1.00  0.00     0.094 A 
ATOM     10  C   UNL     1    -107.724  -2.658  73.990  1.00  0.00     0.146 A 
ATOM     11  O   UNL     1    -109.021  -2.864  74.184  1.00  0.00    -0.452 OA
ENDROOT
BRANCH   1  12
ATOM     12  C   UNL     1    -111.303  -2.261  74.671  1.00  0.00     0.021 A 
ATOM     13  C   UNL     1    -112.293  -1.869  73.752  1.00  0.00     0.016 A 
ATOM     14  C   UNL     1    -113.626  -2.247  73.945  1.00  0.00     0.047 A 
ATOM     15  C   UNL     1    -113.984  -3.031  75.046  1.00  0.00     0.115 A 
ATOM     16  C   UNL     1    -111.666  -3.066  75.764  1.00  0.00     0.016 A 
ATOM     17  C   UNL     1    -112.999  -3.441  75.955  1.00  0.00     0.047 A 
BRANCH  15  18
ATOM     18  O   UNL     1    -115.314  -3.399  75.226  1.00  0.00    -0.508 OA
ATOM     19  H   UNL     1    -115.838  -3.866  74.494  1.00  0.00     0.293 HD
ENDBRANCH  15  18
ENDBRANCH   1  12
BRANCH   2  20
ATOM     20  O   UNL     1    -110.313   0.448  74.949  1.00  0.00    -0.502 OA
ATOM     21  H   UNL     1    -111.123   0.287  75.535  1.00  0.00     0.293 HD
ENDBRANCH   2  20
BRANCH   6  22
ATOM     22  O   UNL     1    -105.072  -0.000  74.111  1.00  0.00    -0.507 OA
ATOM     23  H   UNL     1    -104.692   0.315  74.991  1.00  0.00     0.293 HD
ENDBRANCH   6  22
BRANCH   8  24
ATOM     24  O   UNL     1    -104.778  -4.675  73.061  1.00  0.00    -0.508 OA
ATOM     25  H   UNL     1    -104.872  -5.567  73.532  1.00  0.00     0.293 HD
ENDBRANCH   8  24
TORSDOF 5
ENDMDL
MODEL 6
REMARK VINA RESULT:    -5.809      8.584     10.609
REMARK INTER + INTRA:          -7.110
REMARK INTER:                  -6.821
REMARK INTRA:                  -0.289
REMARK UNBOUND:                -0.281
REMARK SMILES O=c1c(O)c(-c2ccc(O)cc2)oc2cc(O)cc(O)c12
REMARK SMILES IDX 5 1 3 2 2 3 1 4 21 5 19 6 18 7 16 8 15 9 14 10 13 11 6 12
REMARK SMILES IDX 7 13 8 14 9 15 12 16 11 17 10 18 4 20 20 22 17 24
REMARK H PARENT 10 19 4 21 20 23 17 25
REMARK Flexibility Score: inf
ROOT
ATOM      1  C   UNL     1    -114.953  -9.968  80.404  1.00  0.00     0.180 A 
ATOM      2  C   UNL     1    -114.589  -9.352  81.613  1.00  0.00     0.208 A 
ATOM      3  C   UNL     1    -115.425  -9.501  82.731  1.00  0.00     0.238 A 
ATOM      4  O   UNL     1    -115.056  -9.010  83.829  1.00  0.00    -0.285 OA
ATOM      5  C   UNL     1    -116.641 -10.216  82.612  1.00  0.00     0.111 A 
ATOM      6  C   UNL     1    -117.587 -10.392  83.668  1.00  0.00     0.134 A 
ATOM      7  C   UNL     1    -118.706 -11.210  83.463  1.00  0.00     0.093 A 
ATOM      8  C   UNL     1    -118.947 -11.805  82.223  1.00  0.00     0.123 A 
ATOM      9  C   UNL     1    -118.059 -11.594  81.171  1.00  0.00     0.094 A 
ATOM     10  C   UNL     1    -116.914 -10.816  81.355  1.00  0.00     0.146 A 
ATOM     11  O   UNL     1    -116.084 -10.660  80.330  1.00  0.00    -0.452 OA
ENDROOT
BRANCH   1  12
ATOM     12  C   UNL     1    -114.117  -9.869  79.185  1.00  0.00     0.021 A 
ATOM     13  C   UNL     1    -113.027 -10.733  78.972  1.00  0.00     0.016 A 
ATOM     14  C   UNL     1    -112.267 -10.637  77.801  1.00  0.00     0.047 A 
ATOM     15  C   UNL     1    -112.592  -9.688  76.827  1.00  0.00     0.115 A 
ATOM     16  C   UNL     1    -114.450  -8.933  78.192  1.00  0.00     0.016 A 
ATOM     17  C   UNL     1    -113.688  -8.837  77.024  1.00  0.00     0.047 A 
BRANCH  15  18
ATOM     18  O   UNL     1    -111.825  -9.602  75.667  1.00  0.00    -0.508 OA
ATOM     19  H   UNL     1    -111.131 -10.304  75.438  1.00  0.00     0.293 HD
ENDBRANCH  15  18
ENDBRANCH   1  12
BRANCH   2  20
ATOM     20  O   UNL     1    -113.423  -8.586  81.689  1.00  0.00    -0.502 OA
ATOM     21  H   UNL     1    -112.545  -8.891  81.289  1.00  0.00     0.293 HD
ENDBRANCH   2  20
BRANCH   6  22
ATOM     22  O   UNL     1    -117.491  -9.773  84.917  1.00  0.00    -0.507 OA
ATOM     23  H   UNL     1    -118.232  -9.255  85.365  1.00  0.00     0.293 HD
ENDBRANCH   6  22
BRANCH   8  24
ATOM     24  O   UNL     1    -120.072 -12.602  82.024  1.00  0.00    -0.508 OA
ATOM     25  H   UNL     1    -120.236 -13.078  81.144  1.00  0.00     0.293 HD
ENDBRANCH   8  24
TORSDOF 5
ENDMDL
MODEL 7
REMARK VINA RESULT:    -5.794      6.514     10.588
REMARK INTER + INTRA:          -7.092
REMARK INTER:                  -6.803
REMARK INTRA:                  -0.289
REMARK UNBOUND:                -0.281
REMARK SMILES O=c1c(O)c(-c2ccc(O)cc2)oc2cc(O)cc(O)c12
REMARK SMILES IDX 5 1 3 2 2 3 1 4 21 5 19 6 18 7 16 8 15 9 14 10 13 11 6 12
REMARK SMILES IDX 7 13 8 14 9 15 12 16 11 17 10 18 4 20 20 22 17 24
REMARK H PARENT 10 19 4 21 20 23 17 25
REMARK Flexibility Score: inf
ROOT
ATOM      1  C   UNL     1    -108.921  -2.515  74.547  1.00  0.00     0.180 A 
ATOM      2  C   UNL     1    -109.271  -2.242  75.879  1.00  0.00     0.208 A 
ATOM      3  C   UNL     1    -110.541  -1.708  76.153  1.00  0.00     0.238 A 
ATOM      4  O   UNL     1    -110.875  -1.535  77.354  1.00  0.00    -0.285 OA
ATOM      5  C   UNL     1    -111.422  -1.402  75.088  1.00  0.00     0.111 A 
ATOM      6  C   UNL     1    -112.716  -0.817  75.247  1.00  0.00     0.134 A 
ATOM      7  C   UNL     1    -113.543  -0.657  74.127  1.00  0.00     0.093 A 
ATOM      8  C   UNL     1    -113.100  -1.002  72.849  1.00  0.00     0.123 A 
ATOM      9  C   UNL     1    -111.820  -1.522  72.677  1.00  0.00     0.094 A 
ATOM     10  C   UNL     1    -110.985  -1.729  73.778  1.00  0.00     0.146 A 
ATOM     11  O   UNL     1    -109.781  -2.248  73.570  1.00  0.00    -0.452 OA
ENDROOT
BRANCH   1  12
ATOM     12  C   UNL     1    -107.607  -3.092  74.179  1.00  0.00     0.021 A 
ATOM     13  C   UNL     1    -106.501  -2.271  73.893  1.00  0.00     0.016 A 
ATOM     14  C   UNL     1    -105.263  -2.839  73.571  1.00  0.00     0.047 A 
ATOM     15  C   UNL     1    -105.112  -4.229  73.544  1.00  0.00     0.115 A 
ATOM     16  C   UNL     1    -107.442  -4.488  74.170  1.00  0.00     0.016 A 
ATOM     17  C   UNL     1    -106.205  -5.052  73.847  1.00  0.00     0.047 A 
BRANCH  15  18
ATOM     18  O   UNL     1    -103.875  -4.781  73.221  1.00  0.00    -0.508 OA
ATOM     19  H   UNL     1    -103.481  -5.547  73.754  1.00  0.00     0.293 HD
ENDBRANCH  15  18
ENDBRANCH   1  12
BRANCH   2  20
ATOM     20  O   UNL     1    -108.358  -2.478  76.910  1.00  0.00    -0.502 OA
ATOM     21  H   UNL     1    -108.586  -2.325  77.884  1.00  0.00     0.293 HD
ENDBRANCH   2  20
BRANCH   6  22
ATOM     22  O   UNL     1    -113.223  -0.355  76.465  1.00  0.00    -0.507 OA
ATOM     23  H   UNL     1    -114.089   0.150  76.576  1.00  0.00     0.293 HD
ENDBRANCH   6  22
BRANCH   8  24
ATOM     24  O   UNL     1    -113.923  -0.823  71.739  1.00  0.00    -0.508 OA
ATOM     25  H   UNL     1    -114.083  -1.569  71.072  1.00  0.00     0.293 HD
ENDBRANCH   8  24
TORSDOF 5
ENDMDL
MODEL 8
REMARK VINA RESULT:    -5.733      7.988      9.287
REMARK INTER + INTRA:          -7.019
REMARK INTER:                  -6.935
REMARK INTRA:                  -0.085
REMARK UNBOUND:                -0.281
REMARK SMILES O=c1c(O)c(-c2ccc(O)cc2)oc2cc(O)cc(O)c12
REMARK SMILES IDX 5 1 3 2 2 3 1 4 21 5 19 6 18 7 16 8 15 9 14 10 13 11 6 12
REMARK SMILES IDX 7 13 8 14 9 15 12 16 11 17 10 18 4 20 20 22 17 24
REMARK H PARENT 10 19 4 21 20 23 17 25
REMARK Flexibility Score: inf
ROOT
ATOM      1  C   UNL     1    -115.964  -9.958  80.506  1.00  0.00     0.180 A 
ATOM      2  C   UNL     1    -115.380  -8.732  80.868  1.00  0.00     0.208 A 
ATOM      3  C   UNL     1    -114.545  -8.077  79.948  1.00  0.00     0.238 A 
ATOM      4  O   UNL     1    -114.087  -6.946  80.250  1.00  0.00    -0.285 OA
ATOM      5  C   UNL     1    -114.259  -8.683  78.701  1.00  0.00     0.111 A 
ATOM      6  C   UNL     1    -113.392  -8.130  77.709  1.00  0.00     0.134 A 
ATOM      7  C   UNL     1    -113.268  -8.767  76.468  1.00  0.00     0.093 A 
ATOM      8  C   UNL     1    -113.929  -9.968  76.205  1.00  0.00     0.123 A 
ATOM      9  C   UNL     1    -114.734 -10.543  77.184  1.00  0.00     0.094 A 
ATOM     10  C   UNL     1    -114.909  -9.913  78.419  1.00  0.00     0.146 A 
ATOM     11  O   UNL     1    -115.703 -10.486  79.315  1.00  0.00    -0.452 OA
ENDROOT
BRANCH   1  12
ATOM     12  C   UNL     1    -116.866 -10.701  81.415  1.00  0.00     0.021 A 
ATOM     13  C   UNL     1    -118.047 -10.121  81.911  1.00  0.00     0.016 A 
ATOM     14  C   UNL     1    -118.897 -10.851  82.749  1.00  0.00     0.047 A 
ATOM     15  C   UNL     1    -118.585 -12.171  83.090  1.00  0.00     0.115 A 
ATOM     16  C   UNL     1    -116.570 -12.035  81.744  1.00  0.00     0.016 A 
ATOM     17  C   UNL     1    -117.420 -12.762  82.583  1.00  0.00     0.047 A 
BRANCH  15  18
ATOM     18  O   UNL     1    -119.439 -12.886  83.926  1.00  0.00    -0.508 OA
ATOM     19  H   UNL     1    -119.503 -12.683  84.916  1.00  0.00     0.293 HD
ENDBRANCH  15  18
ENDBRANCH   1  12
BRANCH   2  20
ATOM     20  O   UNL     1    -115.613  -8.189  82.134  1.00  0.00    -0.502 OA
ATOM     21  H   UNL     1    -115.221  -7.302  82.426  1.00  0.00     0.293 HD
ENDBRANCH   2  20
BRANCH   6  22
ATOM     22  O   UNL     1    -112.615  -6.983  77.899  1.00  0.00    -0.507 OA
ATOM     23  H   UNL     1    -111.856  -6.901  78.559  1.00  0.00     0.293 HD
ENDBRANCH   6  22
BRANCH   8  24
ATOM     24  O   UNL     1    -113.786 -10.604  74.973  1.00  0.00    -0.508 OA
ATOM     25  H   UNL     1    -114.588 -10.836  74.399  1.00  0.00     0.293 HD
ENDBRANCH   8  24
TORSDOF 5
ENDMDL
MODEL 9
REMARK VINA RESULT:    -5.597      6.838     10.376
REMARK INTER + INTRA:          -6.860
REMARK INTER:                  -6.567
REMARK INTRA:                  -0.293
REMARK UNBOUND:                -0.281
REMARK SMILES O=c1c(O)c(-c2ccc(O)cc2)oc2cc(O)cc(O)c12
REMARK SMILES IDX 5 1 3 2 2 3 1 4 21 5 19 6 18 7 16 8 15 9 14 10 13 11 6 12
REMARK SMILES IDX 7 13 8 14 9 15 12 16 11 17 10 18 4 20 20 22 17 24
REMARK H PARENT 10 19 4 21 20 23 17 25
REMARK Flexibility Score: inf
ROOT
ATOM      1  C   UNL     1    -109.191  -2.822  75.228  1.00  0.00     0.180 A 
ATOM      2  C   UNL     1    -108.957  -4.192  75.433  1.00  0.00     0.208 A 
ATOM      3  C   UNL     1    -107.708  -4.730  75.080  1.00  0.00     0.238 A 
ATOM      4  O   UNL     1    -107.480  -5.940  75.334  1.00  0.00    -0.285 OA
ATOM      5  C   UNL     1    -106.731  -3.904  74.474  1.00  0.00     0.111 A 
ATOM      6  C   UNL     1    -105.448  -4.352  74.034  1.00  0.00     0.134 A 
ATOM      7  C   UNL     1    -104.522  -3.421  73.546  1.00  0.00     0.093 A 
ATOM      8  C   UNL     1    -104.854  -2.071  73.422  1.00  0.00     0.123 A 
ATOM      9  C   UNL     1    -106.121  -1.633  73.796  1.00  0.00     0.094 A 
ATOM     10  C   UNL     1    -107.054  -2.530  74.323  1.00  0.00     0.146 A 
ATOM     11  O   UNL     1    -108.243  -2.064  74.688  1.00  0.00    -0.452 OA
ENDROOT
BRANCH   1  12
ATOM     12  C   UNL     1    -110.475  -2.178  75.589  1.00  0.00     0.021 A 
ATOM     13  C   UNL     1    -110.662  -1.564  76.840  1.00  0.00     0.016 A 
ATOM     14  C   UNL     1    -111.876  -0.941  77.149  1.00  0.00     0.047 A 
ATOM     15  C   UNL     1    -112.911  -0.912  76.209  1.00  0.00     0.115 A 
ATOM     16  C   UNL     1    -111.513  -2.126  74.642  1.00  0.00     0.016 A 
ATOM     17  C   UNL     1    -112.725  -1.505  74.953  1.00  0.00     0.047 A 
BRANCH  15  18
ATOM     18  O   UNL     1    -114.114  -0.290  76.530  1.00  0.00    -0.508 OA
ATOM     19  H   UNL     1    -114.864  -0.792  76.990  1.00  0.00     0.293 HD
ENDBRANCH  15  18
ENDBRANCH   1  12
BRANCH   2  20
ATOM     20  O   UNL     1    -109.962  -5.006  75.961  1.00  0.00    -0.502 OA
ATOM     21  H   UNL     1    -110.661  -5.453  75.380  1.00  0.00     0.293 HD
ENDBRANCH   2  20
BRANCH   6  22
ATOM     22  O   UNL     1    -105.045  -5.690  74.031  1.00  0.00    -0.507 OA
ATOM     23  H   UNL     1    -105.099  -6.313  74.824  1.00  0.00     0.293 HD
ENDBRANCH   6  22
BRANCH   8  24
ATOM     24  O   UNL     1    -103.932  -1.156  72.918  1.00  0.00    -0.508 OA
ATOM     25  H   UNL     1    -102.948  -1.383  72.840  1.00  0.00     0.293 HD
ENDBRANCH   8  24
TORSDOF 5
ENDMDL
