MODEL 1
REMARK VINA RESULT:   -10.003      0.000      0.000
REMARK INTER + INTRA:         -14.695
REMARK INTER:                 -13.219
REMARK INTRA:                  -1.476
REMARK UNBOUND:                -1.476
REMARK SMILES CC[C@H](C=C[C@@H](C)[C@H]1CC[C@H]2[C@@H]3CC=C4C[C@H](O)CC[C@]4(C)[C@@H]3CC[C@@]12C)C(C)C
REMARK SMILES IDX 6 1 7 2 5 3 4 4 3 5 2 6 1 7 28 8 29 9 30 10 8 11 9 12 26 13
REMARK SMILES IDX 10 14 11 15 25 16 27 17 12 18 24 19 23 20 13 21 21 22 14 23
REMARK SMILES IDX 15 24 20 25 22 26 16 27 19 28 17 29 18 30
REMARK H PARENT 18 31
REMARK Flexibility Score: inf
ROOT
ATOM      1  C   UNL     1      45.337  47.134  60.660  1.00  0.00     0.012 C 
ATOM      2  C   UNL     1      44.654  45.985  61.417  1.00  0.00     0.012 C 
ENDROOT
BRANCH   1   3
ATOM      3  C   UNL     1      46.769  46.731  60.347  1.00  0.00    -0.028 C 
ATOM      4  C   UNL     1      47.400  46.974  59.180  1.00  0.00    -0.027 C 
BRANCH   4   5
ATOM      5  C   UNL     1      46.816  47.741  58.003  1.00  0.00     0.014 C 
BRANCH   5   6
ATOM      6  C   UNL     1      47.579  49.085  57.866  1.00  0.00     0.004 C 
ATOM      7  C   UNL     1      48.857  49.167  58.701  1.00  0.00     0.004 C 
ENDBRANCH   5   6
BRANCH   5   8
ATOM      8  C   UNL     1      46.817  46.822  56.734  1.00  0.00    -0.011 C 
ATOM      9  C   UNL     1      45.542  45.973  56.608  1.00  0.00     0.008 C 
ATOM     10  C   UNL     1      47.105  47.565  55.419  1.00  0.00     0.008 C 
ENDBRANCH   5   8
ENDBRANCH   4   5
ENDBRANCH   1   3
BRANCH   1  11
ATOM     11  C   UNL     1      45.184  48.476  61.454  1.00  0.00     0.002 C 
ATOM     12  C   UNL     1      46.368  49.452  61.365  1.00  0.00     0.005 C 
ATOM     13  C   UNL     1      43.900  49.332  61.232  1.00  0.00    -0.026 C 
ATOM     14  C   UNL     1      45.790  50.847  61.607  1.00  0.00     0.005 C 
ATOM     15  C   UNL     1      44.299  50.658  61.927  1.00  0.00    -0.001 C 
ATOM     16  C   UNL     1      43.605  49.584  59.730  1.00  0.00     0.007 C 
ATOM     17  C   UNL     1      42.684  48.658  61.913  1.00  0.00     0.012 C 
ATOM     18  C   UNL     1      43.443  51.916  61.581  1.00  0.00     0.000 C 
ATOM     19  C   UNL     1      42.608  50.718  59.485  1.00  0.00     0.005 C 
ATOM     20  C   UNL     1      43.115  52.064  60.063  1.00  0.00     0.003 C 
ATOM     21  C   UNL     1      42.198  52.049  62.513  1.00  0.00     0.031 C 
ATOM     22  C   UNL     1      42.132  53.274  59.823  1.00  0.00    -0.008 C 
ATOM     23  C   UNL     1      40.912  52.463  61.841  1.00  0.00    -0.027 C 
ATOM     24  C   UNL     1      40.862  53.055  60.633  1.00  0.00    -0.065 C 
ATOM     25  C   UNL     1      41.755  53.418  58.316  1.00  0.00     0.014 C 
ATOM     26  C   UNL     1      42.811  54.594  60.286  1.00  0.00     0.016 C 
ATOM     27  C   UNL     1      39.517  53.388  60.022  1.00  0.00     0.063 C 
ATOM     28  C   UNL     1      40.700  54.510  58.034  1.00  0.00     0.033 C 
ATOM     29  C   UNL     1      39.612  54.638  59.130  1.00  0.00     0.118 C 
BRANCH  29  30
ATOM     30  O   UNL     1      38.371  54.888  58.524  1.00  0.00    -0.393 OA
ATOM     31  H   UNL     1      37.671  54.619  59.176  1.00  0.00     0.210 HD
ENDBRANCH  29  30
ENDBRANCH   1  11
TORSDOF 6
ENDMDL
MODEL 2
REMARK VINA RESULT:    -9.895      3.500      5.083
REMARK INTER + INTRA:         -14.552
REMARK INTER:                 -13.562
REMARK INTRA:                  -0.990
REMARK UNBOUND:                -1.476
REMARK SMILES CC[C@H](C=C[C@@H](C)[C@H]1CC[C@H]2[C@@H]3CC=C4C[C@H](O)CC[C@]4(C)[C@@H]3CC[C@@]12C)C(C)C
REMARK SMILES IDX 6 1 7 2 5 3 4 4 3 5 2 6 1 7 28 8 29 9 30 10 8 11 9 12 26 13
REMARK SMILES IDX 10 14 11 15 25 16 27 17 12 18 24 19 23 20 13 21 21 22 14 23
REMARK SMILES IDX 15 24 20 25 22 26 16 27 19 28 17 29 18 30
REMARK H PARENT 18 31
REMARK Flexibility Score: inf
ROOT
ATOM      1  C   UNL     1      44.889  46.743  60.069  1.00  0.00     0.012 C 
ATOM      2  C   UNL     1      44.293  45.351  60.331  1.00  0.00     0.012 C 
ENDROOT
BRANCH   1   3
ATOM      3  C   UNL     1      46.405  46.642  60.110  1.00  0.00    -0.028 C 
ATOM      4  C   UNL     1      47.231  47.057  59.129  1.00  0.00    -0.027 C 
BRANCH   4   5
ATOM      5  C   UNL     1      46.800  47.750  57.845  1.00  0.00     0.014 C 
BRANCH   5   6
ATOM      6  C   UNL     1      47.666  49.024  57.658  1.00  0.00     0.004 C 
ATOM      7  C   UNL     1      48.780  49.179  58.692  1.00  0.00     0.004 C 
ENDBRANCH   5   6
BRANCH   5   8
ATOM      8  C   UNL     1      46.834  46.720  56.663  1.00  0.00    -0.011 C 
ATOM      9  C   UNL     1      45.576  45.840  56.600  1.00  0.00     0.008 C 
ATOM     10  C   UNL     1      47.128  47.347  55.290  1.00  0.00     0.008 C 
ENDBRANCH   5   8
ENDBRANCH   4   5
ENDBRANCH   1   3
BRANCH   1  11
ATOM     11  C   UNL     1      44.267  47.795  61.049  1.00  0.00     0.002 C 
ATOM     12  C   UNL     1      44.035  47.320  62.492  1.00  0.00     0.005 C 
ATOM     13  C   UNL     1      44.935  49.200  61.158  1.00  0.00    -0.026 C 
ATOM     14  C   UNL     1      44.074  48.574  63.366  1.00  0.00     0.005 C 
ATOM     15  C   UNL     1      44.232  49.771  62.414  1.00  0.00    -0.001 C 
ATOM     16  C   UNL     1      46.465  49.114  61.395  1.00  0.00     0.007 C 
ATOM     17  C   UNL     1      44.634  50.034  59.889  1.00  0.00     0.012 C 
ATOM     18  C   UNL     1      44.906  51.001  63.096  1.00  0.00     0.000 C 
ATOM     19  C   UNL     1      47.081  50.424  61.889  1.00  0.00     0.005 C 
ATOM     20  C   UNL     1      46.456  50.883  63.230  1.00  0.00     0.003 C 
ATOM     21  C   UNL     1      44.425  52.349  62.475  1.00  0.00     0.031 C 
ATOM     22  C   UNL     1      47.067  52.223  63.796  1.00  0.00    -0.008 C 
ATOM     23  C   UNL     1      45.493  53.393  62.256  1.00  0.00    -0.027 C 
ATOM     24  C   UNL     1      46.688  53.374  62.875  1.00  0.00    -0.065 C 
ATOM     25  C   UNL     1      48.622  52.146  63.900  1.00  0.00     0.014 C 
ATOM     26  C   UNL     1      46.494  52.496  65.215  1.00  0.00     0.016 C 
ATOM     27  C   UNL     1      47.713  54.442  62.550  1.00  0.00     0.063 C 
ATOM     28  C   UNL     1      49.289  53.469  64.333  1.00  0.00     0.033 C 
ATOM     29  C   UNL     1      48.603  54.739  63.768  1.00  0.00     0.118 C 
BRANCH  29  30
ATOM     30  O   UNL     1      49.584  55.682  63.424  1.00  0.00    -0.393 OA
ATOM     31  H   UNL     1      50.465  55.241  63.549  1.00  0.00     0.210 HD
ENDBRANCH  29  30
ENDBRANCH   1  11
TORSDOF 6
ENDMDL
MODEL 3
REMARK VINA RESULT:    -9.731      3.160      4.759
REMARK INTER + INTRA:         -14.336
REMARK INTER:                 -12.514
REMARK INTRA:                  -1.822
REMARK UNBOUND:                -1.476
REMARK SMILES CC[C@H](C=C[C@@H](C)[C@H]1CC[C@H]2[C@@H]3CC=C4C[C@H](O)CC[C@]4(C)[C@@H]3CC[C@@]12C)C(C)C
REMARK SMILES IDX 6 1 7 2 5 3 4 4 3 5 2 6 1 7 28 8 29 9 30 10 8 11 9 12 26 13
REMARK SMILES IDX 10 14 11 15 25 16 27 17 12 18 24 19 23 20 13 21 21 22 14 23
REMARK SMILES IDX 15 24 20 25 22 26 16 27 19 28 17 29 18 30
REMARK H PARENT 18 31
REMARK Flexibility Score: inf
ROOT
ATOM      1  C   UNL     1      45.795  47.093  59.361  1.00  0.00     0.012 C 
ATOM      2  C   UNL     1      45.412  46.571  57.968  1.00  0.00     0.012 C 
ENDROOT
BRANCH   1   3
ATOM      3  C   UNL     1      47.032  46.350  59.838  1.00  0.00    -0.028 C 
ATOM      4  C   UNL     1      48.121  46.934  60.381  1.00  0.00    -0.027 C 
BRANCH   4   5
ATOM      5  C   UNL     1      48.275  48.421  60.667  1.00  0.00     0.014 C 
BRANCH   5   6
ATOM      6  C   UNL     1      49.322  48.598  61.797  1.00  0.00     0.004 C 
ATOM      7  C   UNL     1      49.157  49.885  62.606  1.00  0.00     0.004 C 
ENDBRANCH   5   6
BRANCH   5   8
ATOM      8  C   UNL     1      48.580  49.176  59.327  1.00  0.00    -0.011 C 
ATOM      9  C   UNL     1      47.636  50.364  59.081  1.00  0.00     0.008 C 
ATOM     10  C   UNL     1      50.048  49.608  59.169  1.00  0.00     0.008 C 
ENDBRANCH   5   8
ENDBRANCH   4   5
ENDBRANCH   1   3
BRANCH   1  11
ATOM     11  C   UNL     1      44.565  47.022  60.328  1.00  0.00     0.002 C 
ATOM     12  C   UNL     1      44.644  45.970  61.446  1.00  0.00     0.005 C 
ATOM     13  C   UNL     1      44.069  48.337  61.004  1.00  0.00    -0.026 C 
ATOM     14  C   UNL     1      43.756  46.485  62.580  1.00  0.00     0.005 C 
ATOM     15  C   UNL     1      43.097  47.778  62.071  1.00  0.00    -0.001 C 
ATOM     16  C   UNL     1      45.219  49.123  61.688  1.00  0.00     0.007 C 
ATOM     17  C   UNL     1      43.348  49.232  59.967  1.00  0.00     0.012 C 
ATOM     18  C   UNL     1      42.694  48.745  63.228  1.00  0.00     0.000 C 
ATOM     19  C   UNL     1      44.729  50.185  62.674  1.00  0.00     0.005 C 
ATOM     20  C   UNL     1      43.885  49.564  63.815  1.00  0.00     0.003 C 
ATOM     21  C   UNL     1      41.451  49.612  62.856  1.00  0.00     0.031 C 
ATOM     22  C   UNL     1      43.368  50.613  64.873  1.00  0.00    -0.008 C 
ATOM     23  C   UNL     1      41.513  51.064  63.269  1.00  0.00    -0.027 C 
ATOM     24  C   UNL     1      42.352  51.533  64.211  1.00  0.00    -0.065 C 
ATOM     25  C   UNL     1      44.536  51.475  65.446  1.00  0.00     0.014 C 
ATOM     26  C   UNL     1      42.685  49.867  66.054  1.00  0.00     0.016 C 
ATOM     27  C   UNL     1      42.371  53.016  64.518  1.00  0.00     0.063 C 
ATOM     28  C   UNL     1      44.078  52.602  66.396  1.00  0.00     0.033 C 
ATOM     29  C   UNL     1      42.738  53.267  65.991  1.00  0.00     0.118 C 
BRANCH  29  30
ATOM     30  O   UNL     1      42.813  54.648  66.235  1.00  0.00    -0.393 OA
ATOM     31  H   UNL     1      43.737  54.837  66.547  1.00  0.00     0.210 HD
ENDBRANCH  29  30
ENDBRANCH   1  11
TORSDOF 6
ENDMDL
MODEL 4
REMARK VINA RESULT:    -9.464     10.560     13.022
REMARK INTER + INTRA:         -13.982
REMARK INTER:                 -12.351
REMARK INTRA:                  -1.631
REMARK UNBOUND:                -1.476
REMARK SMILES CC[C@H](C=C[C@@H](C)[C@H]1CC[C@H]2[C@@H]3CC=C4C[C@H](O)CC[C@]4(C)[C@@H]3CC[C@@]12C)C(C)C
REMARK SMILES IDX 6 1 7 2 5 3 4 4 3 5 2 6 1 7 28 8 29 9 30 10 8 11 9 12 26 13
REMARK SMILES IDX 10 14 11 15 25 16 27 17 12 18 24 19 23 20 13 21 21 22 14 23
REMARK SMILES IDX 15 24 20 25 22 26 16 27 19 28 17 29 18 30
REMARK H PARENT 18 31
REMARK Flexibility Score: inf
ROOT
ATOM      1  C   UNL     1      51.590  56.192  50.558  1.00  0.00     0.012 C 
ATOM      2  C   UNL     1      52.134  57.199  49.532  1.00  0.00     0.012 C 
ENDROOT
BRANCH   1   3
ATOM      3  C   UNL     1      50.686  55.203  49.841  1.00  0.00    -0.028 C 
ATOM      4  C   UNL     1      50.876  53.868  49.807  1.00  0.00    -0.027 C 
BRANCH   4   5
ATOM      5  C   UNL     1      51.986  53.116  50.526  1.00  0.00     0.014 C 
BRANCH   5   6
ATOM      6  C   UNL     1      51.349  52.250  51.645  1.00  0.00     0.004 C 
ATOM      7  C   UNL     1      50.876  53.048  52.860  1.00  0.00     0.004 C 
ENDBRANCH   5   6
BRANCH   5   8
ATOM      8  C   UNL     1      52.855  52.344  49.474  1.00  0.00    -0.011 C 
ATOM      9  C   UNL     1      52.237  51.001  49.057  1.00  0.00     0.008 C 
ATOM     10  C   UNL     1      53.230  53.177  48.236  1.00  0.00     0.008 C 
ENDBRANCH   5   8
ENDBRANCH   4   5
ENDBRANCH   1   3
BRANCH   1  11
ATOM     11  C   UNL     1      50.928  56.943  51.762  1.00  0.00     0.002 C 
ATOM     12  C   UNL     1      49.658  56.302  52.343  1.00  0.00     0.005 C 
ATOM     13  C   UNL     1      51.819  57.326  52.984  1.00  0.00    -0.026 C 
ATOM     14  C   UNL     1      49.578  56.760  53.801  1.00  0.00     0.005 C 
ATOM     15  C   UNL     1      50.745  57.735  54.022  1.00  0.00    -0.001 C 
ATOM     16  C   UNL     1      52.645  56.125  53.516  1.00  0.00     0.007 C 
ATOM     17  C   UNL     1      52.755  58.503  52.616  1.00  0.00     0.012 C 
ATOM     18  C   UNL     1      51.201  57.803  55.513  1.00  0.00     0.000 C 
ATOM     19  C   UNL     1      53.215  56.350  54.918  1.00  0.00     0.005 C 
ATOM     20  C   UNL     1      52.096  56.605  55.958  1.00  0.00     0.003 C 
ATOM     21  C   UNL     1      51.786  59.202  55.881  1.00  0.00     0.031 C 
ATOM     22  C   UNL     1      52.627  56.826  57.427  1.00  0.00    -0.008 C 
ATOM     23  C   UNL     1      53.021  59.193  56.748  1.00  0.00    -0.027 C 
ATOM     24  C   UNL     1      53.402  58.135  57.488  1.00  0.00    -0.065 C 
ATOM     25  C   UNL     1      53.560  55.661  57.882  1.00  0.00     0.014 C 
ATOM     26  C   UNL     1      51.423  56.902  58.408  1.00  0.00     0.016 C 
ATOM     27  C   UNL     1      54.686  58.209  58.287  1.00  0.00     0.063 C 
ATOM     28  C   UNL     1      54.208  55.880  59.267  1.00  0.00     0.033 C 
ATOM     29  C   UNL     1      54.591  57.352  59.562  1.00  0.00     0.118 C 
BRANCH  29  30
ATOM     30  O   UNL     1      55.813  57.384  60.251  1.00  0.00    -0.393 OA
ATOM     31  H   UNL     1      56.216  58.277  60.086  1.00  0.00     0.210 HD
ENDBRANCH  29  30
ENDBRANCH   1  11
TORSDOF 6
ENDMDL
MODEL 5
REMARK VINA RESULT:    -9.451      3.086      4.863
REMARK INTER + INTRA:         -13.965
REMARK INTER:                 -12.559
REMARK INTRA:                  -1.407
REMARK UNBOUND:                -1.476
REMARK SMILES CC[C@H](C=C[C@@H](C)[C@H]1CC[C@H]2[C@@H]3CC=C4C[C@H](O)CC[C@]4(C)[C@@H]3CC[C@@]12C)C(C)C
REMARK SMILES IDX 6 1 7 2 5 3 4 4 3 5 2 6 1 7 28 8 29 9 30 10 8 11 9 12 26 13
REMARK SMILES IDX 10 14 11 15 25 16 27 17 12 18 24 19 23 20 13 21 21 22 14 23
REMARK SMILES IDX 15 24 20 25 22 26 16 27 19 28 17 29 18 30
REMARK H PARENT 18 31
REMARK Flexibility Score: inf
ROOT
ATOM      1  C   UNL     1      46.911  51.154  65.698  1.00  0.00     0.012 C 
ATOM      2  C   UNL     1      47.627  50.744  66.994  1.00  0.00     0.012 C 
ENDROOT
BRANCH   1   3
ATOM      3  C   UNL     1      47.769  52.173  64.966  1.00  0.00    -0.028 C 
ATOM      4  C   UNL     1      48.404  51.949  63.797  1.00  0.00    -0.027 C 
BRANCH   4   5
ATOM      5  C   UNL     1      48.323  50.668  62.980  1.00  0.00     0.014 C 
BRANCH   5   6
ATOM      6  C   UNL     1      47.401  50.921  61.758  1.00  0.00     0.004 C 
ATOM      7  C   UNL     1      46.464  49.759  61.430  1.00  0.00     0.004 C 
ENDBRANCH   5   6
BRANCH   5   8
ATOM      8  C   UNL     1      49.773  50.171  62.651  1.00  0.00    -0.011 C 
ATOM      9  C   UNL     1      49.826  48.680  62.282  1.00  0.00     0.008 C 
ATOM     10  C   UNL     1      50.504  51.017  61.596  1.00  0.00     0.008 C 
ENDBRANCH   5   8
ENDBRANCH   4   5
ENDBRANCH   1   3
BRANCH   1  11
ATOM     11  C   UNL     1      45.448  51.619  66.007  1.00  0.00     0.002 C 
ATOM     12  C   UNL     1      45.306  52.959  66.745  1.00  0.00     0.005 C 
ATOM     13  C   UNL     1      44.414  51.656  64.840  1.00  0.00    -0.026 C 
ATOM     14  C   UNL     1      43.931  53.512  66.366  1.00  0.00     0.005 C 
ATOM     15  C   UNL     1      43.253  52.445  65.492  1.00  0.00    -0.001 C 
ATOM     16  C   UNL     1      44.947  52.418  63.598  1.00  0.00     0.007 C 
ATOM     17  C   UNL     1      43.997  50.217  64.449  1.00  0.00     0.012 C 
ATOM     18  C   UNL     1      42.185  53.047  64.526  1.00  0.00     0.000 C 
ATOM     19  C   UNL     1      43.851  52.810  62.605  1.00  0.00     0.005 C 
ATOM     20  C   UNL     1      42.787  53.727  63.258  1.00  0.00     0.003 C 
ATOM     21  C   UNL     1      41.040  52.032  64.217  1.00  0.00     0.031 C 
ATOM     22  C   UNL     1      41.640  54.178  62.273  1.00  0.00    -0.008 C 
ATOM     23  C   UNL     1      40.572  51.982  62.783  1.00  0.00    -0.027 C 
ATOM     24  C   UNL     1      40.802  52.965  61.892  1.00  0.00    -0.065 C 
ATOM     25  C   UNL     1      42.217  54.824  60.976  1.00  0.00     0.014 C 
ATOM     26  C   UNL     1      40.730  55.223  62.979  1.00  0.00     0.016 C 
ATOM     27  C   UNL     1      40.333  52.797  60.461  1.00  0.00     0.063 C 
ATOM     28  C   UNL     1      41.147  55.175  59.919  1.00  0.00     0.033 C 
ATOM     29  C   UNL     1      39.981  54.158  59.836  1.00  0.00     0.118 C 
BRANCH  29  30
ATOM     30  O   UNL     1      39.612  53.985  58.493  1.00  0.00    -0.393 OA
ATOM     31  H   UNL     1      40.253  53.337  58.097  1.00  0.00     0.210 HD
ENDBRANCH  29  30
ENDBRANCH   1  11
TORSDOF 6
ENDMDL
MODEL 6
REMARK VINA RESULT:    -9.305      3.960      8.267
REMARK INTER + INTRA:         -13.772
REMARK INTER:                 -12.573
REMARK INTRA:                  -1.199
REMARK UNBOUND:                -1.476
REMARK SMILES CC[C@H](C=C[C@@H](C)[C@H]1CC[C@H]2[C@@H]3CC=C4C[C@H](O)CC[C@]4(C)[C@@H]3CC[C@@]12C)C(C)C
REMARK SMILES IDX 6 1 7 2 5 3 4 4 3 5 2 6 1 7 28 8 29 9 30 10 8 11 9 12 26 13
REMARK SMILES IDX 10 14 11 15 25 16 27 17 12 18 24 19 23 20 13 21 21 22 14 23
REMARK SMILES IDX 15 24 20 25 22 26 16 27 19 28 17 29 18 30
REMARK H PARENT 18 31
REMARK Flexibility Score: inf
ROOT
ATOM      1  C   UNL     1      46.438  52.598  63.119  1.00  0.00     0.012 C 
ATOM      2  C   UNL     1      46.014  53.739  62.181  1.00  0.00     0.012 C 
ENDROOT
BRANCH   1   3
ATOM      3  C   UNL     1      46.844  53.190  64.458  1.00  0.00    -0.028 C 
ATOM      4  C   UNL     1      46.308  52.845  65.647  1.00  0.00    -0.027 C 
BRANCH   4   5
ATOM      5  C   UNL     1      45.256  51.767  65.863  1.00  0.00     0.014 C 
BRANCH   5   6
ATOM      6  C   UNL     1      45.765  50.797  66.961  1.00  0.00     0.004 C 
ATOM      7  C   UNL     1      47.284  50.779  67.125  1.00  0.00     0.004 C 
ENDBRANCH   5   6
BRANCH   5   8
ATOM      8  C   UNL     1      43.870  52.445  66.137  1.00  0.00    -0.011 C 
ATOM      9  C   UNL     1      43.974  53.674  67.053  1.00  0.00     0.008 C 
ATOM     10  C   UNL     1      43.072  52.781  64.865  1.00  0.00     0.008 C 
ENDBRANCH   5   8
ENDBRANCH   4   5
ENDBRANCH   1   3
BRANCH   1  11
ATOM     11  C   UNL     1      47.526  51.704  62.432  1.00  0.00     0.002 C 
ATOM     12  C   UNL     1      48.341  50.795  63.365  1.00  0.00     0.005 C 
ATOM     13  C   UNL     1      47.106  50.816  61.221  1.00  0.00    -0.026 C 
ATOM     14  C   UNL     1      48.812  49.618  62.510  1.00  0.00     0.005 C 
ATOM     15  C   UNL     1      48.348  49.904  61.072  1.00  0.00    -0.001 C 
ATOM     16  C   UNL     1      45.847  49.960  61.519  1.00  0.00     0.007 C 
ATOM     17  C   UNL     1      46.874  51.696  59.968  1.00  0.00     0.012 C 
ATOM     18  C   UNL     1      48.167  48.604  60.228  1.00  0.00     0.000 C 
ATOM     19  C   UNL     1      45.639  48.814  60.527  1.00  0.00     0.005 C 
ATOM     20  C   UNL     1      46.841  47.836  60.520  1.00  0.00     0.003 C 
ATOM     21  C   UNL     1      48.433  48.854  58.710  1.00  0.00     0.031 C 
ATOM     22  C   UNL     1      46.673  46.622  59.527  1.00  0.00    -0.008 C 
ATOM     23  C   UNL     1      47.478  48.181  57.754  1.00  0.00    -0.027 C 
ATOM     24  C   UNL     1      46.695  47.140  58.096  1.00  0.00    -0.065 C 
ATOM     25  C   UNL     1      45.333  45.862  59.771  1.00  0.00     0.014 C 
ATOM     26  C   UNL     1      47.847  45.623  59.724  1.00  0.00     0.016 C 
ATOM     27  C   UNL     1      45.733  46.566  57.076  1.00  0.00     0.063 C 
ATOM     28  C   UNL     1      45.053  44.737  58.750  1.00  0.00     0.033 C 
ATOM     29  C   UNL     1      45.520  45.061  57.308  1.00  0.00     0.118 C 
BRANCH  29  30
ATOM     30  O   UNL     1      44.577  44.565  56.394  1.00  0.00    -0.393 OA
ATOM     31  H   UNL     1      43.689  44.620  56.835  1.00  0.00     0.210 HD
ENDBRANCH  29  30
ENDBRANCH   1  11
TORSDOF 6
ENDMDL
MODEL 7
REMARK VINA RESULT:    -9.220      2.085      3.274
REMARK INTER + INTRA:         -13.661
REMARK INTER:                 -12.267
REMARK INTRA:                  -1.394
REMARK UNBOUND:                -1.476
REMARK SMILES CC[C@H](C=C[C@@H](C)[C@H]1CC[C@H]2[C@@H]3CC=C4C[C@H](O)CC[C@]4(C)[C@@H]3CC[C@@]12C)C(C)C
REMARK SMILES IDX 6 1 7 2 5 3 4 4 3 5 2 6 1 7 28 8 29 9 30 10 8 11 9 12 26 13
REMARK SMILES IDX 10 14 11 15 25 16 27 17 12 18 24 19 23 20 13 21 21 22 14 23
REMARK SMILES IDX 15 24 20 25 22 26 16 27 19 28 17 29 18 30
REMARK H PARENT 18 31
REMARK Flexibility Score: inf
ROOT
ATOM      1  C   UNL     1      46.521  50.910  63.559  1.00  0.00     0.012 C 
ATOM      2  C   UNL     1      46.369  50.815  65.085  1.00  0.00     0.012 C 
ENDROOT
BRANCH   1   3
ATOM      3  C   UNL     1      47.953  50.561  63.187  1.00  0.00    -0.028 C 
ATOM      4  C   UNL     1      48.335  50.030  62.007  1.00  0.00    -0.027 C 
BRANCH   4   5
ATOM      5  C   UNL     1      47.417  49.747  60.828  1.00  0.00     0.014 C 
BRANCH   5   6
ATOM      6  C   UNL     1      48.204  50.014  59.517  1.00  0.00     0.004 C 
ATOM      7  C   UNL     1      49.720  49.880  59.660  1.00  0.00     0.004 C 
ENDBRANCH   5   6
BRANCH   5   8
ATOM      8  C   UNL     1      46.808  48.310  60.979  1.00  0.00    -0.011 C 
ATOM      9  C   UNL     1      45.359  48.218  60.475  1.00  0.00     0.008 C 
ATOM     10  C   UNL     1      47.669  47.194  60.364  1.00  0.00     0.008 C 
ENDBRANCH   5   8
ENDBRANCH   4   5
ENDBRANCH   1   3
BRANCH   1  11
ATOM     11  C   UNL     1      46.025  52.306  63.048  1.00  0.00     0.002 C 
ATOM     12  C   UNL     1      46.929  53.011  62.025  1.00  0.00     0.005 C 
ATOM     13  C   UNL     1      44.571  52.424  62.496  1.00  0.00    -0.026 C 
ATOM     14  C   UNL     1      46.016  53.932  61.212  1.00  0.00     0.005 C 
ATOM     15  C   UNL     1      44.614  53.823  61.834  1.00  0.00    -0.001 C 
ATOM     16  C   UNL     1      44.248  51.341  61.434  1.00  0.00     0.007 C 
ATOM     17  C   UNL     1      43.551  52.359  63.659  1.00  0.00     0.012 C 
ATOM     18  C   UNL     1      43.477  54.154  60.817  1.00  0.00     0.000 C 
ATOM     19  C   UNL     1      43.003  51.653  60.601  1.00  0.00     0.005 C 
ATOM     20  C   UNL     1      43.148  52.990  59.832  1.00  0.00     0.003 C 
ATOM     21  C   UNL     1      42.224  54.760  61.522  1.00  0.00     0.031 C 
ATOM     22  C   UNL     1      41.898  53.354  58.941  1.00  0.00    -0.008 C 
ATOM     23  C   UNL     1      40.885  54.262  61.032  1.00  0.00    -0.027 C 
ATOM     24  C   UNL     1      40.710  53.652  59.844  1.00  0.00    -0.065 C 
ATOM     25  C   UNL     1      41.522  52.189  57.974  1.00  0.00     0.014 C 
ATOM     26  C   UNL     1      42.218  54.615  58.088  1.00  0.00     0.016 C 
ATOM     27  C   UNL     1      39.334  53.144  59.465  1.00  0.00     0.063 C 
ATOM     28  C   UNL     1      40.233  52.438  57.162  1.00  0.00     0.033 C 
ATOM     29  C   UNL     1      39.129  53.197  57.941  1.00  0.00     0.118 C 
BRANCH  29  30
ATOM     30  O   UNL     1      37.875  52.661  57.609  1.00  0.00    -0.393 OA
ATOM     31  H   UNL     1      37.894  52.462  56.637  1.00  0.00     0.210 HD
ENDBRANCH  29  30
ENDBRANCH   1  11
TORSDOF 6
ENDMDL
MODEL 8
REMARK VINA RESULT:    -9.153      3.140      8.068
REMARK INTER + INTRA:         -13.571
REMARK INTER:                 -11.983
REMARK INTRA:                  -1.588
REMARK UNBOUND:                -1.476
REMARK SMILES CC[C@H](C=C[C@@H](C)[C@H]1CC[C@H]2[C@@H]3CC=C4C[C@H](O)CC[C@]4(C)[C@@H]3CC[C@@]12C)C(C)C
REMARK SMILES IDX 6 1 7 2 5 3 4 4 3 5 2 6 1 7 28 8 29 9 30 10 8 11 9 12 26 13
REMARK SMILES IDX 10 14 11 15 25 16 27 17 12 18 24 19 23 20 13 21 21 22 14 23
REMARK SMILES IDX 15 24 20 25 22 26 16 27 19 28 17 29 18 30
REMARK H PARENT 18 31
REMARK Flexibility Score: inf
ROOT
ATOM      1  C   UNL     1      46.612  52.595  63.451  1.00  0.00     0.012 C 
ATOM      2  C   UNL     1      47.291  53.748  64.206  1.00  0.00     0.012 C 
ENDROOT
BRANCH   1   3
ATOM      3  C   UNL     1      45.693  51.857  64.410  1.00  0.00    -0.028 C 
ATOM      4  C   UNL     1      44.371  52.089  64.543  1.00  0.00    -0.027 C 
BRANCH   4   5
ATOM      5  C   UNL     1      43.561  53.080  63.721  1.00  0.00     0.014 C 
BRANCH   5   6
ATOM      6  C   UNL     1      43.211  52.420  62.361  1.00  0.00     0.004 C 
ATOM      7  C   UNL     1      43.728  53.186  61.143  1.00  0.00     0.004 C 
ENDBRANCH   5   6
BRANCH   5   8
ATOM      8  C   UNL     1      42.343  53.585  64.569  1.00  0.00    -0.011 C 
ATOM      9  C   UNL     1      42.764  54.207  65.910  1.00  0.00     0.008 C 
ATOM     10  C   UNL     1      41.393  54.526  63.809  1.00  0.00     0.008 C 
ENDBRANCH   5   8
ENDBRANCH   4   5
ENDBRANCH   1   3
BRANCH   1  11
ATOM     11  C   UNL     1      47.684  51.702  62.740  1.00  0.00     0.002 C 
ATOM     12  C   UNL     1      48.464  50.734  63.644  1.00  0.00     0.005 C 
ATOM     13  C   UNL     1      47.257  50.877  61.488  1.00  0.00    -0.026 C 
ATOM     14  C   UNL     1      48.915  49.581  62.746  1.00  0.00     0.005 C 
ATOM     15  C   UNL     1      48.477  49.938  61.316  1.00  0.00    -0.001 C 
ATOM     16  C   UNL     1      45.973  50.043  61.735  1.00  0.00     0.007 C 
ATOM     17  C   UNL     1      47.064  51.813  60.270  1.00  0.00     0.012 C 
ATOM     18  C   UNL     1      48.273  48.680  60.416  1.00  0.00     0.000 C 
ATOM     19  C   UNL     1      45.748  48.944  60.695  1.00  0.00     0.005 C 
ATOM     20  C   UNL     1      46.923  47.936  60.660  1.00  0.00     0.003 C 
ATOM     21  C   UNL     1      48.564  48.985  58.913  1.00  0.00     0.031 C 
ATOM     22  C   UNL     1      46.736  46.769  59.616  1.00  0.00    -0.008 C 
ATOM     23  C   UNL     1      47.604  48.378  57.919  1.00  0.00    -0.027 C 
ATOM     24  C   UNL     1      46.790  47.345  58.208  1.00  0.00    -0.065 C 
ATOM     25  C   UNL     1      45.374  46.035  59.813  1.00  0.00     0.014 C 
ATOM     26  C   UNL     1      47.882  45.731  59.785  1.00  0.00     0.016 C 
ATOM     27  C   UNL     1      45.827  46.840  57.153  1.00  0.00     0.063 C 
ATOM     28  C   UNL     1      45.078  44.961  58.742  1.00  0.00     0.033 C 
ATOM     29  C   UNL     1      45.571  45.332  57.321  1.00  0.00     0.118 C 
BRANCH  29  30
ATOM     30  O   UNL     1      44.627  44.900  56.376  1.00  0.00    -0.393 OA
ATOM     31  H   UNL     1      43.999  45.655  56.228  1.00  0.00     0.210 HD
ENDBRANCH  29  30
ENDBRANCH   1  11
TORSDOF 6
ENDMDL
MODEL 9
REMARK VINA RESULT:    -9.095      2.970      5.539
REMARK INTER + INTRA:         -13.495
REMARK INTER:                 -12.448
REMARK INTRA:                  -1.047
REMARK UNBOUND:                -1.476
REMARK SMILES CC[C@H](C=C[C@@H](C)[C@H]1CC[C@H]2[C@@H]3CC=C4C[C@H](O)CC[C@]4(C)[C@@H]3CC[C@@]12C)C(C)C
REMARK SMILES IDX 6 1 7 2 5 3 4 4 3 5 2 6 1 7 28 8 29 9 30 10 8 11 9 12 26 13
REMARK SMILES IDX 10 14 11 15 25 16 27 17 12 18 24 19 23 20 13 21 21 22 14 23
REMARK SMILES IDX 15 24 20 25 22 26 16 27 19 28 17 29 18 30
REMARK H PARENT 18 31
REMARK Flexibility Score: inf
ROOT
ATOM      1  C   UNL     1      48.350  49.464  59.983  1.00  0.00     0.012 C 
ATOM      2  C   UNL     1      49.292  49.307  58.779  1.00  0.00     0.012 C 
ENDROOT
BRANCH   1   3
ATOM      3  C   UNL     1      48.764  48.474  61.060  1.00  0.00    -0.028 C 
ATOM      4  C   UNL     1      49.450  48.792  62.176  1.00  0.00    -0.027 C 
BRANCH   4   5
ATOM      5  C   UNL     1      49.874  50.196  62.582  1.00  0.00     0.014 C 
BRANCH   5   6
ATOM      6  C   UNL     1      50.819  50.760  61.489  1.00  0.00     0.004 C 
ATOM      7  C   UNL     1      51.976  49.830  61.122  1.00  0.00     0.004 C 
ENDBRANCH   5   6
BRANCH   5   8
ATOM      8  C   UNL     1      48.599  51.053  62.892  1.00  0.00    -0.011 C 
ATOM      9  C   UNL     1      48.057  50.830  64.313  1.00  0.00     0.008 C 
ATOM     10  C   UNL     1      48.765  52.555  62.604  1.00  0.00     0.008 C 
ENDBRANCH   5   8
ENDBRANCH   4   5
ENDBRANCH   1   3
BRANCH   1  11
ATOM     11  C   UNL     1      46.856  49.358  59.523  1.00  0.00     0.002 C 
ATOM     12  C   UNL     1      46.400  47.979  59.022  1.00  0.00     0.005 C 
ATOM     13  C   UNL     1      45.741  49.858  60.491  1.00  0.00    -0.026 C 
ATOM     14  C   UNL     1      44.890  47.917  59.260  1.00  0.00     0.005 C 
ATOM     15  C   UNL     1      44.473  49.292  59.807  1.00  0.00    -0.001 C 
ATOM     16  C   UNL     1      45.885  49.269  61.919  1.00  0.00     0.007 C 
ATOM     17  C   UNL     1      45.734  51.405  60.545  1.00  0.00     0.012 C 
ATOM     18  C   UNL     1      43.177  49.228  60.674  1.00  0.00     0.000 C 
ATOM     19  C   UNL     1      44.623  49.416  62.771  1.00  0.00     0.005 C 
ATOM     20  C   UNL     1      43.408  48.703  62.125  1.00  0.00     0.003 C 
ATOM     21  C   UNL     1      42.363  50.558  60.603  1.00  0.00     0.031 C 
ATOM     22  C   UNL     1      42.081  48.807  62.970  1.00  0.00    -0.008 C 
ATOM     23  C   UNL     1      41.780  51.044  61.908  1.00  0.00    -0.027 C 
ATOM     24  C   UNL     1      41.609  50.255  62.985  1.00  0.00    -0.065 C 
ATOM     25  C   UNL     1      42.296  48.327  64.439  1.00  0.00     0.014 C 
ATOM     26  C   UNL     1      40.980  47.921  62.320  1.00  0.00     0.016 C 
ATOM     27  C   UNL     1      41.061  50.851  64.266  1.00  0.00     0.063 C 
ATOM     28  C   UNL     1      41.063  48.519  65.349  1.00  0.00     0.033 C 
ATOM     29  C   UNL     1      40.253  49.807  65.056  1.00  0.00     0.118 C 
BRANCH  29  30
ATOM     30  O   UNL     1      39.812  50.363  66.267  1.00  0.00    -0.393 OA
ATOM     31  H   UNL     1      38.968  49.898  66.508  1.00  0.00     0.210 HD
ENDBRANCH  29  30
ENDBRANCH   1  11
TORSDOF 6
ENDMDL
