MODEL 1
REMARK VINA RESULT:    -5.857      0.000      0.000
REMARK INTER + INTRA:          -7.058
REMARK INTER:                  -6.884
REMARK INTRA:                  -0.174
REMARK UNBOUND:                -0.174
REMARK SMILES O=c1c(O)c(-c2ccc(O)cc2)oc2cc(O)cc(O)c12
REMARK SMILES IDX 5 1 3 2 2 3 1 4 21 5 19 6 18 7 16 8 15 9 14 10 13 11 6 12
REMARK SMILES IDX 7 13 8 14 9 15 12 16 11 17 10 18 4 20 20 22 17 24
REMARK H PARENT 10 19 4 21 20 23 17 25
REMARK Flexibility Score: inf
ROOT
ATOM      1  C   UNL     1     -11.072  -8.067  -6.024  1.00  0.00     0.180 A 
ATOM      2  C   UNL     1      -9.773  -8.457  -5.658  1.00  0.00     0.208 A 
ATOM      3  C   UNL     1      -9.565  -9.758  -5.171  1.00  0.00     0.238 A 
ATOM      4  O   UNL     1      -8.409 -10.084  -4.794  1.00  0.00    -0.285 OA
ATOM      5  C   UNL     1     -10.654 -10.657  -5.073  1.00  0.00     0.111 A 
ATOM      6  C   UNL     1     -10.551 -12.010  -4.632  1.00  0.00     0.134 A 
ATOM      7  C   UNL     1     -11.715 -12.767  -4.450  1.00  0.00     0.093 A 
ATOM      8  C   UNL     1     -12.972 -12.240  -4.755  1.00  0.00     0.123 A 
ATOM      9  C   UNL     1     -13.077 -10.940  -5.243  1.00  0.00     0.094 A 
ATOM     10  C   UNL     1     -11.939 -10.148  -5.401  1.00  0.00     0.146 A 
ATOM     11  O   UNL     1     -12.084  -8.910  -5.859  1.00  0.00    -0.452 OA
ENDROOT
BRANCH   1  12
ATOM     12  C   UNL     1     -11.367  -6.722  -6.569  1.00  0.00     0.021 A 
ATOM     13  C   UNL     1     -12.215  -5.856  -5.857  1.00  0.00     0.016 A 
ATOM     14  C   UNL     1     -12.524  -4.591  -6.363  1.00  0.00     0.047 A 
ATOM     15  C   UNL     1     -12.002  -4.179  -7.596  1.00  0.00     0.115 A 
ATOM     16  C   UNL     1     -10.863  -6.309  -7.816  1.00  0.00     0.016 A 
ATOM     17  C   UNL     1     -11.173  -5.042  -8.321  1.00  0.00     0.047 A 
BRANCH  15  18
ATOM     18  O   UNL     1     -12.302  -2.921  -8.111  1.00  0.00    -0.508 OA
ATOM     19  H   UNL     1     -12.702  -2.808  -9.036  1.00  0.00     0.293 HD
ENDBRANCH  15  18
ENDBRANCH   1  12
BRANCH   2  20
ATOM     20  O   UNL     1      -8.715  -7.548  -5.742  1.00  0.00    -0.502 OA
ATOM     21  H   UNL     1      -8.853  -6.546  -5.688  1.00  0.00     0.293 HD
ENDBRANCH   2  20
BRANCH   6  22
ATOM     22  O   UNL     1      -9.339 -12.661  -4.387  1.00  0.00    -0.507 OA
ATOM     23  H   UNL     1      -9.211 -13.408  -3.720  1.00  0.00     0.293 HD
ENDBRANCH   6  22
BRANCH   8  24
ATOM     24  O   UNL     1     -14.124 -13.006  -4.586  1.00  0.00    -0.508 OA
ATOM     25  H   UNL     1     -14.082 -13.957  -4.235  1.00  0.00     0.293 HD
ENDBRANCH   8  24
TORSDOF 5
ENDMDL
MODEL 2
REMARK VINA RESULT:    -5.235      1.791      7.040
REMARK INTER + INTRA:          -6.327
REMARK INTER:                  -6.308
REMARK INTRA:                  -0.018
REMARK UNBOUND:                -0.174
REMARK SMILES O=c1c(O)c(-c2ccc(O)cc2)oc2cc(O)cc(O)c12
REMARK SMILES IDX 5 1 3 2 2 3 1 4 21 5 19 6 18 7 16 8 15 9 14 10 13 11 6 12
REMARK SMILES IDX 7 13 8 14 9 15 12 16 11 17 10 18 4 20 20 22 17 24
REMARK H PARENT 10 19 4 21 20 23 17 25
REMARK Flexibility Score: inf
ROOT
ATOM      1  C   UNL     1     -12.169  -8.005  -5.747  1.00  0.00     0.180 A 
ATOM      2  C   UNL     1     -12.671  -7.002  -4.900  1.00  0.00     0.208 A 
ATOM      3  C   UNL     1     -12.510  -5.657  -5.268  1.00  0.00     0.238 A 
ATOM      4  O   UNL     1     -12.913  -4.761  -4.480  1.00  0.00    -0.285 OA
ATOM      5  C   UNL     1     -11.864  -5.332  -6.486  1.00  0.00     0.111 A 
ATOM      6  C   UNL     1     -11.681  -4.004  -6.977  1.00  0.00     0.134 A 
ATOM      7  C   UNL     1     -10.912  -3.794  -8.128  1.00  0.00     0.093 A 
ATOM      8  C   UNL     1     -10.375  -4.868  -8.841  1.00  0.00     0.123 A 
ATOM      9  C   UNL     1     -10.598  -6.171  -8.402  1.00  0.00     0.094 A 
ATOM     10  C   UNL     1     -11.330  -6.411  -7.238  1.00  0.00     0.146 A 
ATOM     11  O   UNL     1     -11.510  -7.668  -6.848  1.00  0.00    -0.452 OA
ENDROOT
BRANCH   1  12
ATOM     12  C   UNL     1     -12.323  -9.446  -5.439  1.00  0.00     0.021 A 
ATOM     13  C   UNL     1     -11.204 -10.292  -5.508  1.00  0.00     0.016 A 
ATOM     14  C   UNL     1     -11.331 -11.659  -5.244  1.00  0.00     0.047 A 
ATOM     15  C   UNL     1     -12.582 -12.200  -4.922  1.00  0.00     0.115 A 
ATOM     16  C   UNL     1     -13.581 -10.000  -5.135  1.00  0.00     0.016 A 
ATOM     17  C   UNL     1     -13.705 -11.368  -4.871  1.00  0.00     0.047 A 
BRANCH  15  18
ATOM     18  O   UNL     1     -12.721 -13.559  -4.656  1.00  0.00    -0.508 OA
ATOM     19  H   UNL     1     -11.992 -14.223  -4.892  1.00  0.00     0.293 HD
ENDBRANCH  15  18
ENDBRANCH   1  12
BRANCH   2  20
ATOM     20  O   UNL     1     -13.287  -7.343  -3.692  1.00  0.00    -0.502 OA
ATOM     21  H   UNL     1     -12.874  -7.996  -3.037  1.00  0.00     0.293 HD
ENDBRANCH   2  20
BRANCH   6  22
ATOM     22  O   UNL     1     -12.251  -2.870  -6.392  1.00  0.00    -0.507 OA
ATOM     23  H   UNL     1     -12.622  -2.832  -5.454  1.00  0.00     0.293 HD
ENDBRANCH   6  22
BRANCH   8  24
ATOM     24  O   UNL     1      -9.624  -4.651  -9.995  1.00  0.00    -0.508 OA
ATOM     25  H   UNL     1      -8.786  -4.080  -9.983  1.00  0.00     0.293 HD
ENDBRANCH   8  24
TORSDOF 5
ENDMDL
MODEL 3
REMARK VINA RESULT:    -5.105      4.523      6.723
REMARK INTER + INTRA:          -6.174
REMARK INTER:                  -5.934
REMARK INTRA:                  -0.240
REMARK UNBOUND:                -0.174
REMARK SMILES O=c1c(O)c(-c2ccc(O)cc2)oc2cc(O)cc(O)c12
REMARK SMILES IDX 5 1 3 2 2 3 1 4 21 5 19 6 18 7 16 8 15 9 14 10 13 11 6 12
REMARK SMILES IDX 7 13 8 14 9 15 12 16 11 17 10 18 4 20 20 22 17 24
REMARK H PARENT 10 19 4 21 20 23 17 25
REMARK Flexibility Score: inf
ROOT
ATOM      1  C   UNL     1     -10.168 -12.267  -5.420  1.00  0.00     0.180 A 
ATOM      2  C   UNL     1     -10.375 -13.158  -6.487  1.00  0.00     0.208 A 
ATOM      3  C   UNL     1      -9.338 -13.366  -7.411  1.00  0.00     0.238 A 
ATOM      4  O   UNL     1      -9.548 -14.123  -8.394  1.00  0.00    -0.285 OA
ATOM      5  C   UNL     1      -8.103 -12.693  -7.249  1.00  0.00     0.111 A 
ATOM      6  C   UNL     1      -6.972 -12.858  -8.103  1.00  0.00     0.134 A 
ATOM      7  C   UNL     1      -5.847 -12.043  -7.924  1.00  0.00     0.093 A 
ATOM      8  C   UNL     1      -5.789 -11.114  -6.882  1.00  0.00     0.123 A 
ATOM      9  C   UNL     1      -6.865 -10.987  -6.008  1.00  0.00     0.094 A 
ATOM     10  C   UNL     1      -8.015 -11.760  -6.181  1.00  0.00     0.146 A 
ATOM     11  O   UNL     1      -9.023 -11.600  -5.332  1.00  0.00    -0.452 OA
ENDROOT
BRANCH   1  12
ATOM     12  C   UNL     1     -11.202 -12.015  -4.391  1.00  0.00     0.021 A 
ATOM     13  C   UNL     1     -12.276 -11.157  -4.684  1.00  0.00     0.016 A 
ATOM     14  C   UNL     1     -13.252 -10.888  -3.720  1.00  0.00     0.047 A 
ATOM     15  C   UNL     1     -13.159 -11.461  -2.445  1.00  0.00     0.115 A 
ATOM     16  C   UNL     1     -11.105 -12.571  -3.101  1.00  0.00     0.016 A 
ATOM     17  C   UNL     1     -12.082 -12.300  -2.139  1.00  0.00     0.047 A 
BRANCH  15  18
ATOM     18  O   UNL     1     -14.125 -11.201  -1.476  1.00  0.00    -0.508 OA
ATOM     19  H   UNL     1     -13.890 -10.742  -0.603  1.00  0.00     0.293 HD
ENDBRANCH  15  18
ENDBRANCH   1  12
BRANCH   2  20
ATOM     20  O   UNL     1     -11.609 -13.796  -6.641  1.00  0.00    -0.502 OA
ATOM     21  H   UNL     1     -11.806 -14.420  -7.414  1.00  0.00     0.293 HD
ENDBRANCH   2  20
BRANCH   6  22
ATOM     22  O   UNL     1      -6.891 -13.819  -9.115  1.00  0.00    -0.507 OA
ATOM     23  H   UNL     1      -6.313 -13.740  -9.938  1.00  0.00     0.293 HD
ENDBRANCH   6  22
BRANCH   8  24
ATOM     24  O   UNL     1      -4.660 -10.318  -6.702  1.00  0.00    -0.508 OA
ATOM     25  H   UNL     1      -4.074 -10.406  -5.878  1.00  0.00     0.293 HD
ENDBRANCH   8  24
TORSDOF 5
ENDMDL
MODEL 4
REMARK VINA RESULT:    -5.042      4.928      5.989
REMARK INTER + INTRA:          -6.100
REMARK INTER:                  -6.519
REMARK INTRA:                   0.419
REMARK UNBOUND:                -0.174
REMARK SMILES O=c1c(O)c(-c2ccc(O)cc2)oc2cc(O)cc(O)c12
REMARK SMILES IDX 5 1 3 2 2 3 1 4 21 5 19 6 18 7 16 8 15 9 14 10 13 11 6 12
REMARK SMILES IDX 7 13 8 14 9 15 12 16 11 17 10 18 4 20 20 22 17 24
REMARK H PARENT 10 19 4 21 20 23 17 25
REMARK Flexibility Score: inf
ROOT
ATOM      1  C   UNL     1      -9.275 -12.288  -6.001  1.00  0.00     0.180 A 
ATOM      2  C   UNL     1      -9.973 -12.993  -6.997  1.00  0.00     0.208 A 
ATOM      3  C   UNL     1     -11.274 -13.446  -6.725  1.00  0.00     0.238 A 
ATOM      4  O   UNL     1     -11.874 -14.123  -7.600  1.00  0.00    -0.285 OA
ATOM      5  C   UNL     1     -11.867 -13.175  -5.468  1.00  0.00     0.111 A 
ATOM      6  C   UNL     1     -13.193 -13.553  -5.098  1.00  0.00     0.134 A 
ATOM      7  C   UNL     1     -13.627 -13.348  -3.783  1.00  0.00     0.093 A 
ATOM      8  C   UNL     1     -12.807 -12.722  -2.842  1.00  0.00     0.123 A 
ATOM      9  C   UNL     1     -11.532 -12.297  -3.210  1.00  0.00     0.094 A 
ATOM     10  C   UNL     1     -11.057 -12.518  -4.504  1.00  0.00     0.146 A 
ATOM     11  O   UNL     1      -9.832 -12.107  -4.810  1.00  0.00    -0.452 OA
ENDROOT
BRANCH   1  12
ATOM     12  C   UNL     1      -7.911 -11.757  -6.221  1.00  0.00     0.021 A 
ATOM     13  C   UNL     1      -7.073 -12.369  -7.169  1.00  0.00     0.016 A 
ATOM     14  C   UNL     1      -5.774 -11.897  -7.377  1.00  0.00     0.047 A 
ATOM     15  C   UNL     1      -5.290 -10.816  -6.628  1.00  0.00     0.115 A 
ATOM     16  C   UNL     1      -7.410 -10.684  -5.459  1.00  0.00     0.016 A 
ATOM     17  C   UNL     1      -6.110 -10.214  -5.669  1.00  0.00     0.047 A 
BRANCH  15  18
ATOM     18  O   UNL     1      -3.997 -10.337  -6.827  1.00  0.00    -0.508 OA
ATOM     19  H   UNL     1      -3.774  -9.353  -6.722  1.00  0.00     0.293 HD
ENDBRANCH  15  18
ENDBRANCH   1  12
BRANCH   2  20
ATOM     20  O   UNL     1      -9.362 -13.268  -8.223  1.00  0.00    -0.502 OA
ATOM     21  H   UNL     1      -8.572 -12.738  -8.569  1.00  0.00     0.293 HD
ENDBRANCH   2  20
BRANCH   6  22
ATOM     22  O   UNL     1     -14.124 -14.101  -5.985  1.00  0.00    -0.507 OA
ATOM     23  H   UNL     1     -14.542 -15.014  -5.888  1.00  0.00     0.293 HD
ENDBRANCH   6  22
BRANCH   8  24
ATOM     24  O   UNL     1     -13.253 -12.508  -1.540  1.00  0.00    -0.508 OA
ATOM     25  H   UNL     1     -12.691 -12.005  -0.862  1.00  0.00     0.293 HD
ENDBRANCH   8  24
TORSDOF 5
ENDMDL
MODEL 5
REMARK VINA RESULT:    -4.989      1.771      3.704
REMARK INTER + INTRA:          -6.038
REMARK INTER:                  -5.750
REMARK INTRA:                  -0.288
REMARK UNBOUND:                -0.174
REMARK SMILES O=c1c(O)c(-c2ccc(O)cc2)oc2cc(O)cc(O)c12
REMARK SMILES IDX 5 1 3 2 2 3 1 4 21 5 19 6 18 7 16 8 15 9 14 10 13 11 6 12
REMARK SMILES IDX 7 13 8 14 9 15 12 16 11 17 10 18 4 20 20 22 17 24
REMARK H PARENT 10 19 4 21 20 23 17 25
REMARK Flexibility Score: inf
ROOT
ATOM      1  C   UNL     1     -10.387  -7.700  -5.643  1.00  0.00     0.180 A 
ATOM      2  C   UNL     1     -11.311  -8.758  -5.620  1.00  0.00     0.208 A 
ATOM      3  C   UNL     1     -10.834 -10.076  -5.525  1.00  0.00     0.238 A 
ATOM      4  O   UNL     1     -11.664 -11.022  -5.559  1.00  0.00    -0.285 OA
ATOM      5  C   UNL     1      -9.442 -10.318  -5.439  1.00  0.00     0.111 A 
ATOM      6  C   UNL     1      -8.851 -11.609  -5.301  1.00  0.00     0.134 A 
ATOM      7  C   UNL     1      -7.457 -11.740  -5.357  1.00  0.00     0.093 A 
ATOM      8  C   UNL     1      -6.633 -10.619  -5.482  1.00  0.00     0.123 A 
ATOM      9  C   UNL     1      -7.199  -9.349  -5.559  1.00  0.00     0.094 A 
ATOM     10  C   UNL     1      -8.586  -9.189  -5.542  1.00  0.00     0.146 A 
ATOM     11  O   UNL     1      -9.085  -7.962  -5.628  1.00  0.00    -0.452 OA
ENDROOT
BRANCH   1  12
ATOM     12  C   UNL     1     -10.812  -6.283  -5.716  1.00  0.00     0.021 A 
ATOM     13  C   UNL     1     -10.779  -5.612  -6.950  1.00  0.00     0.016 A 
ATOM     14  C   UNL     1     -11.156  -4.269  -7.037  1.00  0.00     0.047 A 
ATOM     15  C   UNL     1     -11.556  -3.574  -5.887  1.00  0.00     0.115 A 
ATOM     16  C   UNL     1     -11.196  -5.573  -4.563  1.00  0.00     0.016 A 
ATOM     17  C   UNL     1     -11.572  -4.229  -4.652  1.00  0.00     0.047 A 
BRANCH  15  18
ATOM     18  O   UNL     1     -11.933  -2.236  -5.962  1.00  0.00    -0.508 OA
ATOM     19  H   UNL     1     -12.548  -1.819  -5.271  1.00  0.00     0.293 HD
ENDBRANCH  15  18
ENDBRANCH   1  12
BRANCH   2  20
ATOM     20  O   UNL     1     -12.680  -8.499  -5.727  1.00  0.00    -0.502 OA
ATOM     21  H   UNL     1     -13.150  -8.420  -6.621  1.00  0.00     0.293 HD
ENDBRANCH   2  20
BRANCH   6  22
ATOM     22  O   UNL     1      -9.579 -12.781  -5.079  1.00  0.00    -0.507 OA
ATOM     23  H   UNL     1     -10.425 -13.034  -5.568  1.00  0.00     0.293 HD
ENDBRANCH   6  22
BRANCH   8  24
ATOM     24  O   UNL     1      -5.247 -10.757  -5.522  1.00  0.00    -0.508 OA
ATOM     25  H   UNL     1      -4.699 -10.388  -6.292  1.00  0.00     0.293 HD
ENDBRANCH   8  24
TORSDOF 5
ENDMDL
MODEL 6
REMARK VINA RESULT:    -4.882      1.561      3.144
REMARK INTER + INTRA:          -5.913
REMARK INTER:                  -6.168
REMARK INTRA:                   0.256
REMARK UNBOUND:                -0.174
REMARK SMILES O=c1c(O)c(-c2ccc(O)cc2)oc2cc(O)cc(O)c12
REMARK SMILES IDX 5 1 3 2 2 3 1 4 21 5 19 6 18 7 16 8 15 9 14 10 13 11 6 12
REMARK SMILES IDX 7 13 8 14 9 15 12 16 11 17 10 18 4 20 20 22 17 24
REMARK H PARENT 10 19 4 21 20 23 17 25
REMARK Flexibility Score: inf
ROOT
ATOM      1  C   UNL     1     -11.855  -8.476  -5.599  1.00  0.00     0.180 A 
ATOM      2  C   UNL     1     -13.017  -9.050  -5.055  1.00  0.00     0.208 A 
ATOM      3  C   UNL     1     -13.063 -10.440  -4.862  1.00  0.00     0.238 A 
ATOM      4  O   UNL     1     -14.125 -10.955  -4.424  1.00  0.00    -0.285 OA
ATOM      5  C   UNL     1     -11.942 -11.236  -5.200  1.00  0.00     0.111 A 
ATOM      6  C   UNL     1     -11.864 -12.649  -5.010  1.00  0.00     0.134 A 
ATOM      7  C   UNL     1     -10.757 -13.352  -5.502  1.00  0.00     0.093 A 
ATOM      8  C   UNL     1      -9.697 -12.684  -6.119  1.00  0.00     0.123 A 
ATOM      9  C   UNL     1      -9.737 -11.299  -6.256  1.00  0.00     0.094 A 
ATOM     10  C   UNL     1     -10.843 -10.574  -5.808  1.00  0.00     0.146 A 
ATOM     11  O   UNL     1     -10.846  -9.256  -5.968  1.00  0.00    -0.452 OA
ENDROOT
BRANCH   1  12
ATOM     12  C   UNL     1     -11.721  -7.016  -5.809  1.00  0.00     0.021 A 
ATOM     13  C   UNL     1     -10.895  -6.537  -6.840  1.00  0.00     0.016 A 
ATOM     14  C   UNL     1     -10.737  -5.163  -7.041  1.00  0.00     0.047 A 
ATOM     15  C   UNL     1     -11.391  -4.249  -6.205  1.00  0.00     0.115 A 
ATOM     16  C   UNL     1     -12.359  -6.092  -4.961  1.00  0.00     0.016 A 
ATOM     17  C   UNL     1     -12.200  -4.718  -5.165  1.00  0.00     0.047 A 
BRANCH  15  18
ATOM     18  O   UNL     1     -11.242  -2.878  -6.396  1.00  0.00    -0.508 OA
ATOM     19  H   UNL     1     -10.797  -2.504  -7.227  1.00  0.00     0.293 HD
ENDBRANCH  15  18
ENDBRANCH   1  12
BRANCH   2  20
ATOM     20  O   UNL     1     -14.120  -8.249  -4.748  1.00  0.00    -0.502 OA
ATOM     21  H   UNL     1     -14.171  -7.271  -5.005  1.00  0.00     0.293 HD
ENDBRANCH   2  20
BRANCH   6  22
ATOM     22  O   UNL     1     -12.825 -13.398  -4.325  1.00  0.00    -0.507 OA
ATOM     23  H   UNL     1     -13.178 -13.178  -3.406  1.00  0.00     0.293 HD
ENDBRANCH   6  22
BRANCH   8  24
ATOM     24  O   UNL     1      -8.592 -13.390  -6.592  1.00  0.00    -0.508 OA
ATOM     25  H   UNL     1      -8.694 -14.165  -7.237  1.00  0.00     0.293 HD
ENDBRANCH   8  24
TORSDOF 5
ENDMDL
MODEL 7
REMARK VINA RESULT:    -4.580      4.908      7.218
REMARK INTER + INTRA:          -5.558
REMARK INTER:                  -5.287
REMARK INTRA:                  -0.271
REMARK UNBOUND:                -0.174
REMARK SMILES O=c1c(O)c(-c2ccc(O)cc2)oc2cc(O)cc(O)c12
REMARK SMILES IDX 5 1 3 2 2 3 1 4 21 5 19 6 18 7 16 8 15 9 14 10 13 11 6 12
REMARK SMILES IDX 7 13 8 14 9 15 12 16 11 17 10 18 4 20 20 22 17 24
REMARK H PARENT 10 19 4 21 20 23 17 25
REMARK Flexibility Score: inf
ROOT
ATOM      1  C   UNL     1      -7.064 -12.452  -7.641  1.00  0.00     0.180 A 
ATOM      2  C   UNL     1      -6.902 -11.377  -6.751  1.00  0.00     0.208 A 
ATOM      3  C   UNL     1      -7.964 -11.033  -5.899  1.00  0.00     0.238 A 
ATOM      4  O   UNL     1      -7.833 -10.035  -5.142  1.00  0.00    -0.285 OA
ATOM      5  C   UNL     1      -9.167 -11.778  -5.936  1.00  0.00     0.111 A 
ATOM      6  C   UNL     1     -10.293 -11.542  -5.091  1.00  0.00     0.134 A 
ATOM      7  C   UNL     1     -11.479 -12.256  -5.305  1.00  0.00     0.093 A 
ATOM      8  C   UNL     1     -11.557 -13.242  -6.291  1.00  0.00     0.123 A 
ATOM      9  C   UNL     1     -10.445 -13.520  -7.082  1.00  0.00     0.094 A 
ATOM     10  C   UNL     1      -9.260 -12.800  -6.917  1.00  0.00     0.146 A 
ATOM     11  O   UNL     1      -8.227 -13.090  -7.699  1.00  0.00    -0.452 OA
ENDROOT
BRANCH   1  12
ATOM     12  C   UNL     1      -5.982 -12.891  -8.552  1.00  0.00     0.021 A 
ATOM     13  C   UNL     1      -4.956 -13.717  -8.062  1.00  0.00     0.016 A 
ATOM     14  C   UNL     1      -3.913 -14.125  -8.899  1.00  0.00     0.047 A 
ATOM     15  C   UNL     1      -3.875 -13.699 -10.233  1.00  0.00     0.115 A 
ATOM     16  C   UNL     1      -5.925 -12.452  -9.888  1.00  0.00     0.016 A 
ATOM     17  C   UNL     1      -4.881 -12.861 -10.723  1.00  0.00     0.047 A 
BRANCH  15  18
ATOM     18  O   UNL     1      -2.841 -14.099 -11.076  1.00  0.00    -0.508 OA
ATOM     19  H   UNL     1      -1.949 -13.618 -11.087  1.00  0.00     0.293 HD
ENDBRANCH  15  18
ENDBRANCH   1  12
BRANCH   2  20
ATOM     20  O   UNL     1      -5.714 -10.641  -6.745  1.00  0.00    -0.502 OA
ATOM     21  H   UNL     1      -5.240 -10.365  -7.596  1.00  0.00     0.293 HD
ENDBRANCH   2  20
BRANCH   6  22
ATOM     22  O   UNL     1     -10.290 -10.646  -4.018  1.00  0.00    -0.507 OA
ATOM     23  H   UNL     1     -11.117 -10.295  -3.559  1.00  0.00     0.293 HD
ENDBRANCH   6  22
BRANCH   8  24
ATOM     24  O   UNL     1     -12.736 -13.959  -6.487  1.00  0.00    -0.508 OA
ATOM     25  H   UNL     1     -12.795 -14.949  -6.279  1.00  0.00     0.293 HD
ENDBRANCH   8  24
TORSDOF 5
ENDMDL
MODEL 8
REMARK VINA RESULT:    -4.410      7.200     10.274
REMARK INTER + INTRA:          -5.357
REMARK INTER:                  -5.243
REMARK INTRA:                  -0.114
REMARK UNBOUND:                -0.174
REMARK SMILES O=c1c(O)c(-c2ccc(O)cc2)oc2cc(O)cc(O)c12
REMARK SMILES IDX 5 1 3 2 2 3 1 4 21 5 19 6 18 7 16 8 15 9 14 10 13 11 6 12
REMARK SMILES IDX 7 13 8 14 9 15 12 16 11 17 10 18 4 20 20 22 17 24
REMARK H PARENT 10 19 4 21 20 23 17 25
REMARK Flexibility Score: inf
ROOT
ATOM      1  C   UNL     1      -2.893 -12.468  -5.567  1.00  0.00     0.180 A 
ATOM      2  C   UNL     1      -3.215 -13.143  -6.756  1.00  0.00     0.208 A 
ATOM      3  C   UNL     1      -4.425 -12.842  -7.403  1.00  0.00     0.238 A 
ATOM      4  O   UNL     1      -4.733 -13.489  -8.439  1.00  0.00    -0.285 OA
ATOM      5  C   UNL     1      -5.288 -11.860  -6.862  1.00  0.00     0.111 A 
ATOM      6  C   UNL     1      -6.520 -11.448  -7.455  1.00  0.00     0.134 A 
ATOM      7  C   UNL     1      -7.356 -10.562  -6.764  1.00  0.00     0.093 A 
ATOM      8  C   UNL     1      -6.976 -10.025  -5.533  1.00  0.00     0.123 A 
ATOM      9  C   UNL     1      -5.749 -10.376  -4.974  1.00  0.00     0.094 A 
ATOM     10  C   UNL     1      -4.909 -11.284  -5.621  1.00  0.00     0.146 A 
ATOM     11  O   UNL     1      -3.753 -11.599  -5.049  1.00  0.00    -0.452 OA
ENDROOT
BRANCH   1  12
ATOM     12  C   UNL     1      -1.625 -12.711  -4.841  1.00  0.00     0.021 A 
ATOM     13  C   UNL     1      -1.664 -13.128  -3.500  1.00  0.00     0.016 A 
ATOM     14  C   UNL     1      -0.480 -13.343  -2.789  1.00  0.00     0.047 A 
ATOM     15  C   UNL     1       0.760 -13.128  -3.406  1.00  0.00     0.115 A 
ATOM     16  C   UNL     1      -0.377 -12.478  -5.447  1.00  0.00     0.016 A 
ATOM     17  C   UNL     1       0.807 -12.693  -4.734  1.00  0.00     0.047 A 
BRANCH  15  18
ATOM     18  O   UNL     1       1.946 -13.338  -2.708  1.00  0.00    -0.508 OA
ATOM     19  H   UNL     1       2.488 -12.565  -2.339  1.00  0.00     0.293 HD
ENDBRANCH  15  18
ENDBRANCH   1  12
BRANCH   2  20
ATOM     20  O   UNL     1      -2.359 -14.125  -7.262  1.00  0.00    -0.502 OA
ATOM     21  H   UNL     1      -2.457 -15.105  -7.028  1.00  0.00     0.293 HD
ENDBRANCH   2  20
BRANCH   6  22
ATOM     22  O   UNL     1      -6.950 -11.853  -8.722  1.00  0.00    -0.507 OA
ATOM     23  H   UNL     1      -7.238 -12.791  -8.958  1.00  0.00     0.293 HD
ENDBRANCH   6  22
BRANCH   8  24
ATOM     24  O   UNL     1      -7.807  -9.132  -4.859  1.00  0.00    -0.508 OA
ATOM     25  H   UNL     1      -8.581  -9.455  -4.290  1.00  0.00     0.293 HD
ENDBRANCH   8  24
TORSDOF 5
ENDMDL
