MODEL 1
REMARK VINA RESULT:    -3.696      0.000      0.000
REMARK INTER + INTRA:          -3.696
REMARK INTER:                  -3.696
REMARK INTRA:                   0.000
REMARK UNBOUND:                 0.000
REMARK SMILES CC1(C)O[C@]2(C)CC[C@H]1CC2
REMARK SMILES IDX 1 1 2 2 9 3 10 4 11 5 5 6 4 7 7 8 8 9 6 10 3 11
REMARK H PARENT
REMARK Flexibility Score: inf
ROOT
ATOM      1  C   UNL     1     165.185 173.643 171.645  1.00  0.00     0.042 C 
ATOM      2  C   UNL     1     165.159 172.378 170.761  1.00  0.00     0.066 C 
ATOM      3  C   UNL     1     163.719 171.733 170.752  1.00  0.00     0.021 C 
ATOM      4  C   UNL     1     162.734 172.743 170.116  1.00  0.00     0.009 C 
ATOM      5  C   UNL     1     163.297 173.213 168.753  1.00  0.00     0.035 C 
ATOM      6  C   UNL     1     164.614 172.449 168.435  1.00  0.00     0.066 C 
ATOM      7  O   UNL     1     165.584 172.747 169.440  1.00  0.00    -0.369 OA
ATOM      8  C   UNL     1     164.326 170.920 168.443  1.00  0.00     0.035 C 
ATOM      9  C   UNL     1     163.737 170.503 169.813  1.00  0.00     0.009 C 
ATOM     10  C   UNL     1     165.166 172.880 167.073  1.00  0.00     0.042 C 
ATOM     11  C   UNL     1     166.195 171.390 171.340  1.00  0.00     0.042 C 
ENDROOT
TORSDOF 0
ENDMDL
MODEL 2
REMARK VINA RESULT:    -3.650      8.134      9.609
REMARK INTER + INTRA:          -3.650
REMARK INTER:                  -3.650
REMARK INTRA:                   0.000
REMARK UNBOUND:                 0.000
REMARK SMILES CC1(C)O[C@]2(C)CC[C@H]1CC2
REMARK SMILES IDX 1 1 2 2 9 3 10 4 11 5 5 6 4 7 7 8 8 9 6 10 3 11
REMARK H PARENT
REMARK Flexibility Score: inf
ROOT
ATOM      1  C   UNL     1     157.623 165.235 171.580  1.00  0.00     0.042 C 
ATOM      2  C   UNL     1     158.905 165.191 170.721  1.00  0.00     0.066 C 
ATOM      3  C   UNL     1     159.510 163.734 170.695  1.00  0.00     0.021 C 
ATOM      4  C   UNL     1     158.486 162.792 170.017  1.00  0.00     0.009 C 
ATOM      5  C   UNL     1     158.061 163.397 168.657  1.00  0.00     0.035 C 
ATOM      6  C   UNL     1     158.869 164.699 168.383  1.00  0.00     0.066 C 
ATOM      7  O   UNL     1     158.576 165.655 169.403  1.00  0.00    -0.369 OA
ATOM      8  C   UNL     1     160.388 164.366 168.416  1.00  0.00     0.035 C 
ATOM      9  C   UNL     1     160.759 163.737 169.781  1.00  0.00     0.009 C 
ATOM     10  C   UNL     1     158.482 165.291 167.025  1.00  0.00     0.042 C 
ATOM     11  C   UNL     1     159.909 166.187 171.343  1.00  0.00     0.042 C 
ENDROOT
TORSDOF 0
ENDMDL
MODEL 3
REMARK VINA RESULT:    -3.647      8.116      9.637
REMARK INTER + INTRA:          -3.647
REMARK INTER:                  -3.647
REMARK INTRA:                   0.000
REMARK UNBOUND:                 0.000
REMARK SMILES CC1(C)O[C@]2(C)CC[C@H]1CC2
REMARK SMILES IDX 1 1 2 2 9 3 10 4 11 5 5 6 4 7 7 8 8 9 6 10 3 11
REMARK H PARENT
REMARK Flexibility Score: inf
ROOT
ATOM      1  C   UNL     1     173.620 166.058 171.716  1.00  0.00     0.042 C 
ATOM      2  C   UNL     1     172.337 166.073 170.858  1.00  0.00     0.066 C 
ATOM      3  C   UNL     1     171.685 167.510 170.855  1.00  0.00     0.021 C 
ATOM      4  C   UNL     1     172.677 168.496 170.193  1.00  0.00     0.009 C 
ATOM      5  C   UNL     1     173.121 167.927 168.823  1.00  0.00     0.035 C 
ATOM      6  C   UNL     1     172.356 166.605 168.529  1.00  0.00     0.066 C 
ATOM      7  O   UNL     1     172.680 165.642 169.533  1.00  0.00    -0.369 OA
ATOM      8  C   UNL     1     170.826 166.887 168.567  1.00  0.00     0.035 C 
ATOM      9  C   UNL     1     170.436 167.481 169.942  1.00  0.00     0.009 C 
ATOM     10  C   UNL     1     172.761 166.047 167.161  1.00  0.00     0.042 C 
ATOM     11  C   UNL     1     171.366 165.036 171.464  1.00  0.00     0.042 C 
ENDROOT
TORSDOF 0
ENDMDL
MODEL 4
REMARK VINA RESULT:    -3.642     12.226     13.666
REMARK INTER + INTRA:          -3.642
REMARK INTER:                  -3.642
REMARK INTRA:                   0.000
REMARK UNBOUND:                 0.000
REMARK SMILES CC1(C)O[C@]2(C)CC[C@H]1CC2
REMARK SMILES IDX 1 1 2 2 9 3 10 4 11 5 5 6 4 7 7 8 8 9 6 10 3 11
REMARK H PARENT
REMARK Flexibility Score: inf
ROOT
ATOM      1  C   UNL     1     166.037 157.550 171.689  1.00  0.00     0.042 C 
ATOM      2  C   UNL     1     166.066 158.849 170.855  1.00  0.00     0.066 C 
ATOM      3  C   UNL     1     167.510 159.485 170.862  1.00  0.00     0.021 C 
ATOM      4  C   UNL     1     168.484 158.494 170.180  1.00  0.00     0.009 C 
ATOM      5  C   UNL     1     167.908 158.082 168.804  1.00  0.00     0.035 C 
ATOM      6  C   UNL     1     166.594 158.867 168.525  1.00  0.00     0.066 C 
ATOM      7  O   UNL     1     165.629 158.534 169.525  1.00  0.00    -0.369 OA
ATOM      8  C   UNL     1     166.893 160.392 168.591  1.00  0.00     0.035 C 
ATOM      9  C   UNL     1     167.493 160.750 169.972  1.00  0.00     0.009 C 
ATOM     10  C   UNL     1     166.031 158.493 167.151  1.00  0.00     0.042 C 
ATOM     11  C   UNL     1     165.040 159.819 171.480  1.00  0.00     0.042 C 
ENDROOT
TORSDOF 0
ENDMDL
MODEL 5
REMARK VINA RESULT:    -3.559     11.766     12.972
REMARK INTER + INTRA:          -3.559
REMARK INTER:                  -3.559
REMARK INTRA:                   0.000
REMARK UNBOUND:                 0.000
REMARK SMILES CC1(C)O[C@]2(C)CC[C@H]1CC2
REMARK SMILES IDX 1 1 2 2 9 3 10 4 11 5 5 6 4 7 7 8 8 9 6 10 3 11
REMARK H PARENT
REMARK Flexibility Score: inf
ROOT
ATOM      1  C   UNL     1     169.678 160.056 170.518  1.00  0.00     0.042 C 
ATOM      2  C   UNL     1     168.561 159.227 169.848  1.00  0.00     0.066 C 
ATOM      3  C   UNL     1     167.213 159.348 170.659  1.00  0.00     0.021 C 
ATOM      4  C   UNL     1     166.753 160.825 170.625  1.00  0.00     0.009 C 
ATOM      5  C   UNL     1     166.733 161.318 169.158  1.00  0.00     0.035 C 
ATOM      6  C   UNL     1     167.092 160.143 168.202  1.00  0.00     0.066 C 
ATOM      7  O   UNL     1     168.413 159.686 168.496  1.00  0.00    -0.369 OA
ATOM      8  C   UNL     1     166.086 158.980 168.433  1.00  0.00     0.035 C 
ATOM      9  C   UNL     1     166.120 158.542 169.917  1.00  0.00     0.009 C 
ATOM     10  C   UNL     1     167.044 160.609 166.744  1.00  0.00     0.042 C 
ATOM     11  C   UNL     1     169.041 157.759 169.805  1.00  0.00     0.042 C 
ENDROOT
TORSDOF 0
ENDMDL
MODEL 6
REMARK VINA RESULT:    -3.554      1.555      3.033
REMARK INTER + INTRA:          -3.554
REMARK INTER:                  -3.554
REMARK INTRA:                   0.000
REMARK UNBOUND:                 0.000
REMARK SMILES CC1(C)O[C@]2(C)CC[C@H]1CC2
REMARK SMILES IDX 1 1 2 2 9 3 10 4 11 5 5 6 4 7 7 8 8 9 6 10 3 11
REMARK H PARENT
REMARK Flexibility Score: inf
ROOT
ATOM      1  C   UNL     1     161.484 171.220 170.486  1.00  0.00     0.042 C 
ATOM      2  C   UNL     1     162.592 172.043 169.795  1.00  0.00     0.066 C 
ATOM      3  C   UNL     1     163.934 171.978 170.622  1.00  0.00     0.021 C 
ATOM      4  C   UNL     1     164.420 170.509 170.649  1.00  0.00     0.009 C 
ATOM      5  C   UNL     1     164.463 169.960 169.202  1.00  0.00     0.035 C 
ATOM      6  C   UNL     1     164.093 171.090 168.199  1.00  0.00     0.066 C 
ATOM      7  O   UNL     1     162.761 171.534 168.463  1.00  0.00    -0.369 OA
ATOM      8  C   UNL     1     165.076 172.281 168.393  1.00  0.00     0.035 C 
ATOM      9  C   UNL     1     165.019 172.775 169.859  1.00  0.00     0.009 C 
ATOM     10  C   UNL     1     164.163 170.570 166.760  1.00  0.00     0.042 C 
ATOM     11  C   UNL     1     162.086 173.499 169.691  1.00  0.00     0.042 C 
ENDROOT
TORSDOF 0
ENDMDL
MODEL 7
REMARK VINA RESULT:    -3.541      7.467      8.619
REMARK INTER + INTRA:          -3.541
REMARK INTER:                  -3.541
REMARK INTRA:                   0.000
REMARK UNBOUND:                 0.000
REMARK SMILES CC1(C)O[C@]2(C)CC[C@H]1CC2
REMARK SMILES IDX 1 1 2 2 9 3 10 4 11 5 5 6 4 7 7 8 8 9 6 10 3 11
REMARK H PARENT
REMARK Flexibility Score: inf
ROOT
ATOM      1  C   UNL     1     171.218 169.744 170.418  1.00  0.00     0.042 C 
ATOM      2  C   UNL     1     172.021 168.601 169.758  1.00  0.00     0.066 C 
ATOM      3  C   UNL     1     171.915 167.280 170.613  1.00  0.00     0.021 C 
ATOM      4  C   UNL     1     170.435 166.829 170.637  1.00  0.00     0.009 C 
ATOM      5  C   UNL     1     169.898 166.768 169.186  1.00  0.00     0.035 C 
ATOM      6  C   UNL     1     171.046 167.089 168.186  1.00  0.00     0.066 C 
ATOM      7  O   UNL     1     171.520 168.416 168.426  1.00  0.00    -0.369 OA
ATOM      8  C   UNL     1     172.210 166.083 168.412  1.00  0.00     0.035 C 
ATOM      9  C   UNL     1     172.692 166.159 169.882  1.00  0.00     0.009 C 
ATOM     10  C   UNL     1     170.537 167.000 166.744  1.00  0.00     0.042 C 
ATOM     11  C   UNL     1     173.489 169.069 169.657  1.00  0.00     0.042 C 
ENDROOT
TORSDOF 0
ENDMDL
MODEL 8
REMARK VINA RESULT:    -3.509      8.883     10.164
REMARK INTER + INTRA:          -3.509
REMARK INTER:                  -3.509
REMARK INTRA:                   0.000
REMARK UNBOUND:                 0.000
REMARK SMILES CC1(C)O[C@]2(C)CC[C@H]1CC2
REMARK SMILES IDX 1 1 2 2 9 3 10 4 11 5 5 6 4 7 7 8 8 9 6 10 3 11
REMARK H PARENT
REMARK Flexibility Score: inf
ROOT
ATOM      1  C   UNL     1     160.177 161.516 170.694  1.00  0.00     0.042 C 
ATOM      2  C   UNL     1     159.300 162.615 170.057  1.00  0.00     0.066 C 
ATOM      3  C   UNL     1     159.454 163.976 170.842  1.00  0.00     0.021 C 
ATOM      4  C   UNL     1     160.922 164.449 170.718  1.00  0.00     0.009 C 
ATOM      5  C   UNL     1     161.331 164.453 169.226  1.00  0.00     0.035 C 
ATOM      6  C   UNL     1     160.108 164.070 168.343  1.00  0.00     0.066 C 
ATOM      7  O   UNL     1     159.682 162.749 168.680  1.00  0.00    -0.369 OA
ATOM      8  C   UNL     1     158.949 165.069 168.625  1.00  0.00     0.035 C 
ATOM      9  C   UNL     1     158.596 165.051 170.132  1.00  0.00     0.009 C 
ATOM     10  C   UNL     1     160.490 164.102 166.860  1.00  0.00     0.042 C 
ATOM     11  C   UNL     1     157.838 162.121 170.104  1.00  0.00     0.042 C 
ENDROOT
TORSDOF 0
ENDMDL
MODEL 9
REMARK VINA RESULT:    -3.380     12.164     13.688
REMARK INTER + INTRA:          -3.380
REMARK INTER:                  -3.380
REMARK INTRA:                   0.000
REMARK UNBOUND:                 0.000
REMARK SMILES CC1(C)O[C@]2(C)CC[C@H]1CC2
REMARK SMILES IDX 1 1 2 2 9 3 10 4 11 5 5 6 4 7 7 8 8 9 6 10 3 11
REMARK H PARENT
REMARK Flexibility Score: inf
ROOT
ATOM      1  C   UNL     1     166.039 158.497 167.359  1.00  0.00     0.042 C 
ATOM      2  C   UNL     1     166.830 159.518 168.206  1.00  0.00     0.066 C 
ATOM      3  C   UNL     1     166.161 159.704 169.623  1.00  0.00     0.021 C 
ATOM      4  C   UNL     1     166.226 158.354 170.376  1.00  0.00     0.009 C 
ATOM      5  C   UNL     1     167.682 157.828 170.353  1.00  0.00     0.035 C 
ATOM      6  C   UNL     1     168.608 158.871 169.664  1.00  0.00     0.066 C 
ATOM      7  O   UNL     1     168.184 159.055 168.312  1.00  0.00    -0.369 OA
ATOM      8  C   UNL     1     168.496 160.225 170.422  1.00  0.00     0.035 C 
ATOM      9  C   UNL     1     167.021 160.694 170.444  1.00  0.00     0.009 C 
ATOM     10  C   UNL     1     170.058 158.379 169.664  1.00  0.00     0.042 C 
ATOM     11  C   UNL     1     166.839 160.852 167.428  1.00  0.00     0.042 C 
ENDROOT
TORSDOF 0
ENDMDL
