MODEL 1
REMARK VINA RESULT:    -3.842      0.000      0.000
REMARK INTER + INTRA:          -8.298
REMARK INTER:                  -6.986
REMARK INTRA:                  -1.312
REMARK UNBOUND:                -1.312
REMARK SMILES CCCCCCCCCCCCCCCC(=O)[O-]
REMARK SMILES IDX 9 1 10 2 11 3 12 4 13 5 14 6 15 7 16 8 17 9 18 10 8 11 7 12
REMARK SMILES IDX 6 13 5 14 4 15 3 16 2 17 1 18
REMARK H PARENT
REMARK Flexibility Score: inf
ROOT
ATOM      1  C   UNL     1     -31.327 -22.244 -34.004  1.00  0.00     0.000 C 
ENDROOT
BRANCH   1   2
ATOM      2  C   UNL     1     -32.238 -23.192 -34.797  1.00  0.00     0.000 C 
BRANCH   2   3
ATOM      3  C   UNL     1     -32.817 -22.548 -36.069  1.00  0.00     0.000 C 
BRANCH   3   4
ATOM      4  C   UNL     1     -32.439 -23.249 -37.387  1.00  0.00     0.000 C 
BRANCH   4   5
ATOM      5  C   UNL     1     -31.199 -24.151 -37.253  1.00  0.00     0.000 C 
BRANCH   5   6
ATOM      6  C   UNL     1     -31.347 -25.472 -38.023  1.00  0.00     0.006 C 
BRANCH   6   7
ATOM      7  C   UNL     1     -32.709 -26.142 -37.793  1.00  0.00     0.053 C 
BRANCH   7   8
ATOM      8  C   UNL     1     -32.727 -27.508 -38.403  1.00  0.00     0.041 C 
ATOM      9  O   UNL     1     -33.823 -28.085 -38.632  1.00  0.00    -0.550 OA
ATOM     10  O   UNL     1     -31.536 -28.125 -38.765  1.00  0.00    -0.550 OA
ENDBRANCH   7   8
ENDBRANCH   6   7
ENDBRANCH   5   6
ENDBRANCH   4   5
ENDBRANCH   3   4
ENDBRANCH   2   3
ENDBRANCH   1   2
BRANCH   1  11
ATOM     11  C   UNL     1     -31.923 -20.832 -33.943  1.00  0.00     0.000 C 
BRANCH  11  12
ATOM     12  C   UNL     1     -30.995 -19.875 -33.179  1.00  0.00    -0.000 C 
BRANCH  12  13
ATOM     13  C   UNL     1     -29.540 -20.367 -33.146  1.00  0.00    -0.000 C 
BRANCH  13  14
ATOM     14  C   UNL     1     -28.907 -20.248 -31.748  1.00  0.00    -0.000 C 
BRANCH  14  15
ATOM     15  C   UNL     1     -29.948 -19.898 -30.664  1.00  0.00    -0.000 C 
BRANCH  15  16
ATOM     16  C   UNL     1     -30.697 -21.123 -30.106  1.00  0.00    -0.000 C 
BRANCH  16  17
ATOM     17  C   UNL     1     -29.901 -22.438 -30.150  1.00  0.00    -0.003 C 
ATOM     18  C   UNL     1     -30.733 -23.620 -30.646  1.00  0.00     0.004 C 
ENDBRANCH  16  17
ENDBRANCH  15  16
ENDBRANCH  14  15
ENDBRANCH  13  14
ENDBRANCH  12  13
ENDBRANCH  11  12
ENDBRANCH   1  11
TORSDOF 14
ENDMDL
MODEL 2
REMARK VINA RESULT:    -3.796      1.109      2.408
REMARK INTER + INTRA:          -8.214
REMARK INTER:                  -6.991
REMARK INTRA:                  -1.223
REMARK UNBOUND:                -1.312
REMARK SMILES CCCCCCCCCCCCCCCC(=O)[O-]
REMARK SMILES IDX 9 1 10 2 11 3 12 4 13 5 14 6 15 7 16 8 17 9 18 10 8 11 7 12
REMARK SMILES IDX 6 13 5 14 4 15 3 16 2 17 1 18
REMARK H PARENT
REMARK Flexibility Score: inf
ROOT
ATOM      1  C   UNL     1     -33.619 -22.368 -36.996  1.00  0.00     0.000 C 
ENDROOT
BRANCH   1   2
ATOM      2  C   UNL     1     -32.688 -23.174 -36.077  1.00  0.00     0.000 C 
BRANCH   2   3
ATOM      3  C   UNL     1     -31.309 -23.444 -36.706  1.00  0.00     0.000 C 
BRANCH   3   4
ATOM      4  C   UNL     1     -31.250 -23.306 -38.239  1.00  0.00     0.000 C 
BRANCH   4   5
ATOM      5  C   UNL     1     -31.497 -24.637 -38.970  1.00  0.00     0.000 C 
BRANCH   5   6
ATOM      6  C   UNL     1     -31.542 -25.836 -38.011  1.00  0.00     0.006 C 
BRANCH   6   7
ATOM      7  C   UNL     1     -32.885 -26.577 -38.052  1.00  0.00     0.053 C 
BRANCH   7   8
ATOM      8  C   UNL     1     -32.698 -27.967 -38.574  1.00  0.00     0.041 C 
ATOM      9  O   UNL     1     -31.566 -28.346 -38.974  1.00  0.00    -0.550 OA
ATOM     10  O   UNL     1     -33.762 -28.860 -38.572  1.00  0.00    -0.550 OA
ENDBRANCH   7   8
ENDBRANCH   6   7
ENDBRANCH   5   6
ENDBRANCH   4   5
ENDBRANCH   3   4
ENDBRANCH   2   3
ENDBRANCH   1   2
BRANCH   1  11
ATOM     11  C   UNL     1     -33.925 -20.990 -36.396  1.00  0.00     0.000 C 
BRANCH  11  12
ATOM     12  C   UNL     1     -33.632 -20.969 -34.888  1.00  0.00    -0.000 C 
BRANCH  12  13
ATOM     13  C   UNL     1     -32.626 -19.875 -34.498  1.00  0.00    -0.000 C 
BRANCH  13  14
ATOM     14  C   UNL     1     -31.827 -20.231 -33.232  1.00  0.00    -0.000 C 
BRANCH  14  15
ATOM     15  C   UNL     1     -30.853 -21.405 -33.466  1.00  0.00    -0.000 C 
BRANCH  15  16
ATOM     16  C   UNL     1     -29.818 -21.584 -32.339  1.00  0.00    -0.000 C 
BRANCH  16  17
ATOM     17  C   UNL     1     -30.374 -22.207 -31.049  1.00  0.00    -0.003 C 
ATOM     18  C   UNL     1     -30.561 -21.186 -29.927  1.00  0.00     0.004 C 
ENDBRANCH  16  17
ENDBRANCH  15  16
ENDBRANCH  14  15
ENDBRANCH  13  14
ENDBRANCH  12  13
ENDBRANCH  11  12
ENDBRANCH   1  11
TORSDOF 14
ENDMDL
MODEL 3
REMARK VINA RESULT:    -3.542      3.770      7.766
REMARK INTER + INTRA:          -7.752
REMARK INTER:                  -6.962
REMARK INTRA:                  -0.790
REMARK UNBOUND:                -1.312
REMARK SMILES CCCCCCCCCCCCCCCC(=O)[O-]
REMARK SMILES IDX 9 1 10 2 11 3 12 4 13 5 14 6 15 7 16 8 17 9 18 10 8 11 7 12
REMARK SMILES IDX 6 13 5 14 4 15 3 16 2 17 1 18
REMARK H PARENT
REMARK Flexibility Score: inf
ROOT
ATOM      1  C   UNL     1     -32.234 -23.184 -34.929  1.00  0.00     0.000 C 
ENDROOT
BRANCH   1   2
ATOM      2  C   UNL     1     -31.197 -22.240 -34.303  1.00  0.00     0.000 C 
BRANCH   2   3
ATOM      3  C   UNL     1     -31.824 -20.963 -33.714  1.00  0.00     0.000 C 
BRANCH   3   4
ATOM      4  C   UNL     1     -30.818 -19.875 -33.294  1.00  0.00     0.000 C 
BRANCH   4   5
ATOM      5  C   UNL     1     -29.371 -20.394 -33.216  1.00  0.00     0.000 C 
BRANCH   5   6
ATOM      6  C   UNL     1     -28.810 -20.357 -31.785  1.00  0.00     0.006 C 
BRANCH   6   7
ATOM      7  C   UNL     1     -29.865 -19.952 -30.746  1.00  0.00     0.053 C 
BRANCH   7   8
ATOM      8  C   UNL     1     -30.494 -21.168 -30.142  1.00  0.00     0.041 C 
ATOM      9  O   UNL     1     -30.311 -22.300 -30.660  1.00  0.00    -0.550 OA
ATOM     10  O   UNL     1     -31.242 -21.057 -28.977  1.00  0.00    -0.550 OA
ENDBRANCH   7   8
ENDBRANCH   6   7
ENDBRANCH   5   6
ENDBRANCH   4   5
ENDBRANCH   3   4
ENDBRANCH   2   3
ENDBRANCH   1   2
BRANCH   1  11
ATOM     11  C   UNL     1     -33.453 -22.403 -35.436  1.00  0.00     0.000 C 
BRANCH  11  12
ATOM     12  C   UNL     1     -33.113 -21.620 -36.713  1.00  0.00    -0.000 C 
BRANCH  12  13
ATOM     13  C   UNL     1     -33.024 -22.524 -37.952  1.00  0.00    -0.000 C 
BRANCH  13  14
ATOM     14  C   UNL     1     -31.585 -22.982 -38.249  1.00  0.00    -0.000 C 
BRANCH  14  15
ATOM     15  C   UNL     1     -31.540 -24.379 -38.903  1.00  0.00    -0.000 C 
BRANCH  15  16
ATOM     16  C   UNL     1     -31.890 -25.526 -37.936  1.00  0.00    -0.000 C 
BRANCH  16  17
ATOM     17  C   UNL     1     -31.967 -26.916 -38.589  1.00  0.00    -0.003 C 
ATOM     18  C   UNL     1     -33.197 -27.710 -38.152  1.00  0.00     0.004 C 
ENDBRANCH  16  17
ENDBRANCH  15  16
ENDBRANCH  14  15
ENDBRANCH  13  14
ENDBRANCH  12  13
ENDBRANCH  11  12
ENDBRANCH   1  11
TORSDOF 14
ENDMDL
MODEL 4
REMARK VINA RESULT:    -3.087      1.694      2.273
REMARK INTER + INTRA:          -6.925
REMARK INTER:                  -5.725
REMARK INTRA:                  -1.200
REMARK UNBOUND:                -1.312
REMARK SMILES CCCCCCCCCCCCCCCC(=O)[O-]
REMARK SMILES IDX 9 1 10 2 11 3 12 4 13 5 14 6 15 7 16 8 17 9 18 10 8 11 7 12
REMARK SMILES IDX 6 13 5 14 4 15 3 16 2 17 1 18
REMARK H PARENT
REMARK Flexibility Score: inf
ROOT
ATOM      1  C   UNL     1     -31.470 -22.130 -33.983  1.00  0.00     0.000 C 
ENDROOT
BRANCH   1   2
ATOM      2  C   UNL     1     -32.565 -22.603 -34.950  1.00  0.00     0.000 C 
BRANCH   2   3
ATOM      3  C   UNL     1     -33.524 -21.474 -35.371  1.00  0.00     0.000 C 
BRANCH   3   4
ATOM      4  C   UNL     1     -33.436 -21.061 -36.852  1.00  0.00     0.000 C 
BRANCH   4   5
ATOM      5  C   UNL     1     -33.705 -22.228 -37.818  1.00  0.00     0.000 C 
BRANCH   5   6
ATOM      6  C   UNL     1     -32.874 -22.129 -39.107  1.00  0.00     0.006 C 
BRANCH   6   7
ATOM      7  C   UNL     1     -31.451 -22.680 -38.937  1.00  0.00     0.053 C 
BRANCH   7   8
ATOM      8  C   UNL     1     -31.493 -24.063 -38.369  1.00  0.00     0.041 C 
ATOM      9  O   UNL     1     -32.144 -24.969 -38.953  1.00  0.00    -0.550 OA
ATOM     10  O   UNL     1     -30.772 -24.365 -37.221  1.00  0.00    -0.550 OA
ENDBRANCH   7   8
ENDBRANCH   6   7
ENDBRANCH   5   6
ENDBRANCH   4   5
ENDBRANCH   3   4
ENDBRANCH   2   3
ENDBRANCH   1   2
BRANCH   1  11
ATOM     11  C   UNL     1     -31.752 -20.708 -33.484  1.00  0.00     0.000 C 
BRANCH  11  12
ATOM     12  C   UNL     1     -30.452 -19.899 -33.363  1.00  0.00    -0.000 C 
BRANCH  12  13
ATOM     13  C   UNL     1     -29.267 -20.755 -32.889  1.00  0.00    -0.000 C 
BRANCH  13  14
ATOM     14  C   UNL     1     -28.714 -20.299 -31.528  1.00  0.00    -0.000 C 
BRANCH  14  15
ATOM     15  C   UNL     1     -29.835 -19.875 -30.554  1.00  0.00    -0.000 C 
BRANCH  15  16
ATOM     16  C   UNL     1     -30.840 -21.001 -30.241  1.00  0.00    -0.000 C 
BRANCH  16  17
ATOM     17  C   UNL     1     -30.201 -22.329 -29.807  1.00  0.00    -0.003 C 
ATOM     18  C   UNL     1     -30.592 -23.499 -30.709  1.00  0.00     0.004 C 
ENDBRANCH  16  17
ENDBRANCH  15  16
ENDBRANCH  14  15
ENDBRANCH  13  14
ENDBRANCH  12  13
ENDBRANCH  11  12
ENDBRANCH   1  11
TORSDOF 14
ENDMDL
MODEL 5
REMARK VINA RESULT:    -2.763      3.615      7.960
REMARK INTER + INTRA:          -6.337
REMARK INTER:                  -5.272
REMARK INTRA:                  -1.065
REMARK UNBOUND:                -1.312
REMARK SMILES CCCCCCCCCCCCCCCC(=O)[O-]
REMARK SMILES IDX 9 1 10 2 11 3 12 4 13 5 14 6 15 7 16 8 17 9 18 10 8 11 7 12
REMARK SMILES IDX 6 13 5 14 4 15 3 16 2 17 1 18
REMARK H PARENT
REMARK Flexibility Score: inf
ROOT
ATOM      1  C   UNL     1     -32.518 -21.261 -34.984  1.00  0.00     0.000 C 
ENDROOT
BRANCH   1   2
ATOM      2  C   UNL     1     -31.499 -20.944 -33.879  1.00  0.00     0.000 C 
BRANCH   2   3
ATOM      3  C   UNL     1     -30.163 -21.686 -34.060  1.00  0.00     0.000 C 
BRANCH   3   4
ATOM      4  C   UNL     1     -28.967 -21.075 -33.306  1.00  0.00     0.000 C 
BRANCH   4   5
ATOM      5  C   UNL     1     -29.362 -19.875 -32.428  1.00  0.00     0.000 C 
BRANCH   5   6
ATOM      6  C   UNL     1     -29.267 -20.188 -30.926  1.00  0.00     0.006 C 
BRANCH   6   7
ATOM      7  C   UNL     1     -30.554 -20.811 -30.369  1.00  0.00     0.053 C 
BRANCH   7   8
ATOM      8  C   UNL     1     -30.312 -22.229 -29.960  1.00  0.00     0.041 C 
ATOM      9  O   UNL     1     -29.767 -22.486 -28.854  1.00  0.00    -0.550 OA
ATOM     10  O   UNL     1     -30.734 -23.270 -30.776  1.00  0.00    -0.550 OA
ENDBRANCH   7   8
ENDBRANCH   6   7
ENDBRANCH   5   6
ENDBRANCH   4   5
ENDBRANCH   3   4
ENDBRANCH   2   3
ENDBRANCH   1   2
BRANCH   1  11
ATOM     11  C   UNL     1     -32.929 -22.738 -34.945  1.00  0.00     0.000 C 
BRANCH  11  12
ATOM     12  C   UNL     1     -32.915 -23.350 -36.353  1.00  0.00    -0.000 C 
BRANCH  12  13
ATOM     13  C   UNL     1     -31.854 -24.452 -36.506  1.00  0.00    -0.000 C 
BRANCH  13  14
ATOM     14  C   UNL     1     -31.344 -24.585 -37.951  1.00  0.00    -0.000 C 
BRANCH  14  15
ATOM     15  C   UNL     1     -32.160 -25.610 -38.767  1.00  0.00    -0.000 C 
BRANCH  15  16
ATOM     16  C   UNL     1     -32.880 -26.659 -37.899  1.00  0.00    -0.000 C 
BRANCH  16  17
ATOM     17  C   UNL     1     -32.987 -28.055 -38.534  1.00  0.00    -0.003 C 
ATOM     18  C   UNL     1     -31.629 -28.630 -38.935  1.00  0.00     0.004 C 
ENDBRANCH  16  17
ENDBRANCH  15  16
ENDBRANCH  14  15
ENDBRANCH  13  14
ENDBRANCH  12  13
ENDBRANCH  11  12
ENDBRANCH   1  11
TORSDOF 14
ENDMDL
MODEL 6
REMARK VINA RESULT:    -2.701      1.245      2.210
REMARK INTER + INTRA:          -6.224
REMARK INTER:                  -5.372
REMARK INTRA:                  -0.852
REMARK UNBOUND:                -1.312
REMARK SMILES CCCCCCCCCCCCCCCC(=O)[O-]
REMARK SMILES IDX 9 1 10 2 11 3 12 4 13 5 14 6 15 7 16 8 17 9 18 10 8 11 7 12
REMARK SMILES IDX 6 13 5 14 4 15 3 16 2 17 1 18
REMARK H PARENT
REMARK Flexibility Score: inf
ROOT
ATOM      1  C   UNL     1     -31.262 -21.592 -33.567  1.00  0.00     0.000 C 
ENDROOT
BRANCH   1   2
ATOM      2  C   UNL     1     -31.969 -20.233 -33.677  1.00  0.00     0.000 C 
BRANCH   2   3
ATOM      3  C   UNL     1     -33.108 -20.229 -34.712  1.00  0.00     0.000 C 
BRANCH   3   4
ATOM      4  C   UNL     1     -33.428 -21.600 -35.338  1.00  0.00     0.000 C 
BRANCH   4   5
ATOM      5  C   UNL     1     -32.305 -22.117 -36.255  1.00  0.00     0.000 C 
BRANCH   5   6
ATOM      6  C   UNL     1     -32.841 -22.950 -37.429  1.00  0.00     0.006 C 
BRANCH   6   7
ATOM      7  C   UNL     1     -32.994 -24.436 -37.079  1.00  0.00     0.053 C 
BRANCH   7   8
ATOM      8  C   UNL     1     -31.945 -25.246 -37.773  1.00  0.00     0.041 C 
ATOM      9  O   UNL     1     -30.762 -24.822 -37.845  1.00  0.00    -0.550 OA
ATOM     10  O   UNL     1     -32.262 -26.493 -38.296  1.00  0.00    -0.550 OA
ENDBRANCH   7   8
ENDBRANCH   6   7
ENDBRANCH   5   6
ENDBRANCH   4   5
ENDBRANCH   3   4
ENDBRANCH   2   3
ENDBRANCH   1   2
BRANCH   1  11
ATOM     11  C   UNL     1     -29.748 -21.413 -33.394  1.00  0.00     0.000 C 
BRANCH  11  12
ATOM     12  C   UNL     1     -29.407 -19.966 -33.008  1.00  0.00    -0.000 C 
BRANCH  12  13
ATOM     13  C   UNL     1     -28.234 -19.882 -32.018  1.00  0.00    -0.000 C 
BRANCH  13  14
ATOM     14  C   UNL     1     -28.698 -19.875 -30.551  1.00  0.00    -0.000 C 
BRANCH  14  15
ATOM     15  C   UNL     1     -30.236 -19.876 -30.425  1.00  0.00    -0.000 C 
BRANCH  15  16
ATOM     16  C   UNL     1     -30.805 -21.165 -29.800  1.00  0.00    -0.000 C 
BRANCH  16  17
ATOM     17  C   UNL     1     -29.949 -22.421 -30.029  1.00  0.00    -0.003 C 
ATOM     18  C   UNL     1     -30.765 -23.613 -30.529  1.00  0.00     0.004 C 
ENDBRANCH  16  17
ENDBRANCH  15  16
ENDBRANCH  14  15
ENDBRANCH  13  14
ENDBRANCH  12  13
ENDBRANCH  11  12
ENDBRANCH   1  11
TORSDOF 14
ENDMDL
MODEL 7
REMARK VINA RESULT:    -1.945      1.035      1.620
REMARK INTER + INTRA:          -4.848
REMARK INTER:                  -4.038
REMARK INTRA:                  -0.810
REMARK UNBOUND:                -1.312
REMARK SMILES CCCCCCCCCCCCCCCC(=O)[O-]
REMARK SMILES IDX 9 1 10 2 11 3 12 4 13 5 14 6 15 7 16 8 17 9 18 10 8 11 7 12
REMARK SMILES IDX 6 13 5 14 4 15 3 16 2 17 1 18
REMARK H PARENT
REMARK Flexibility Score: inf
ROOT
ATOM      1  C   UNL     1     -31.165 -22.275 -33.733  1.00  0.00     0.000 C 
ENDROOT
BRANCH   1   2
ATOM      2  C   UNL     1     -32.156 -22.123 -34.897  1.00  0.00     0.000 C 
BRANCH   2   3
ATOM      3  C   UNL     1     -32.630 -23.473 -35.464  1.00  0.00     0.000 C 
BRANCH   3   4
ATOM      4  C   UNL     1     -32.961 -23.471 -36.968  1.00  0.00     0.000 C 
BRANCH   4   5
ATOM      5  C   UNL     1     -31.708 -23.382 -37.857  1.00  0.00     0.000 C 
BRANCH   5   6
ATOM      6  C   UNL     1     -31.569 -24.590 -38.798  1.00  0.00     0.006 C 
BRANCH   6   7
ATOM      7  C   UNL     1     -31.118 -25.862 -38.067  1.00  0.00     0.053 C 
BRANCH   7   8
ATOM      8  C   UNL     1     -32.040 -26.997 -38.379  1.00  0.00     0.041 C 
ATOM      9  O   UNL     1     -31.602 -28.030 -38.951  1.00  0.00    -0.550 OA
ATOM     10  O   UNL     1     -33.373 -26.937 -37.995  1.00  0.00    -0.550 OA
ENDBRANCH   7   8
ENDBRANCH   6   7
ENDBRANCH   5   6
ENDBRANCH   4   5
ENDBRANCH   3   4
ENDBRANCH   2   3
ENDBRANCH   1   2
BRANCH   1  11
ATOM     11  C   UNL     1     -30.049 -21.227 -33.821  1.00  0.00     0.000 C 
BRANCH  11  12
ATOM     12  C   UNL     1     -30.515 -19.878 -33.251  1.00  0.00    -0.000 C 
BRANCH  12  13
ATOM     13  C   UNL     1     -31.529 -20.040 -32.108  1.00  0.00    -0.000 C 
BRANCH  13  14
ATOM     14  C   UNL     1     -30.885 -19.882 -30.720  1.00  0.00    -0.000 C 
BRANCH  14  15
ATOM     15  C   UNL     1     -29.893 -21.022 -30.403  1.00  0.00    -0.000 C 
BRANCH  15  16
ATOM     16  C   UNL     1     -30.542 -22.419 -30.381  1.00  0.00    -0.000 C 
BRANCH  16  17
ATOM     17  C   UNL     1     -29.890 -23.415 -29.408  1.00  0.00    -0.003 C 
ATOM     18  C   UNL     1     -29.319 -22.740 -28.161  1.00  0.00     0.004 C 
ENDBRANCH  16  17
ENDBRANCH  15  16
ENDBRANCH  14  15
ENDBRANCH  13  14
ENDBRANCH  12  13
ENDBRANCH  11  12
ENDBRANCH   1  11
TORSDOF 14
ENDMDL
MODEL 8
REMARK VINA RESULT:    -1.876      2.056      3.067
REMARK INTER + INTRA:          -4.723
REMARK INTER:                  -4.682
REMARK INTRA:                  -0.040
REMARK UNBOUND:                -1.312
REMARK SMILES CCCCCCCCCCCCCCCC(=O)[O-]
REMARK SMILES IDX 9 1 10 2 11 3 12 4 13 5 14 6 15 7 16 8 17 9 18 10 8 11 7 12
REMARK SMILES IDX 6 13 5 14 4 15 3 16 2 17 1 18
REMARK H PARENT
REMARK Flexibility Score: inf
ROOT
ATOM      1  C   UNL     1     -30.739 -21.637 -33.037  1.00  0.00     0.000 C 
ENDROOT
BRANCH   1   2
ATOM      2  C   UNL     1     -31.892 -21.995 -33.986  1.00  0.00     0.000 C 
BRANCH   2   3
ATOM      3  C   UNL     1     -32.568 -20.758 -34.605  1.00  0.00     0.000 C 
BRANCH   3   4
ATOM      4  C   UNL     1     -33.888 -21.037 -35.347  1.00  0.00     0.000 C 
BRANCH   4   5
ATOM      5  C   UNL     1     -33.759 -20.896 -36.874  1.00  0.00     0.000 C 
BRANCH   5   6
ATOM      6  C   UNL     1     -33.489 -22.241 -37.568  1.00  0.00     0.006 C 
BRANCH   6   7
ATOM      7  C   UNL     1     -32.028 -22.691 -37.439  1.00  0.00     0.053 C 
BRANCH   7   8
ATOM      8  C   UNL     1     -31.952 -24.175 -37.266  1.00  0.00     0.041 C 
ATOM      9  O   UNL     1     -30.889 -24.791 -37.540  1.00  0.00    -0.550 OA
ATOM     10  O   UNL     1     -33.039 -24.872 -36.754  1.00  0.00    -0.550 OA
ENDBRANCH   7   8
ENDBRANCH   6   7
ENDBRANCH   5   6
ENDBRANCH   4   5
ENDBRANCH   3   4
ENDBRANCH   2   3
ENDBRANCH   1   2
BRANCH   1  11
ATOM     11  C   UNL     1     -29.447 -21.369 -33.819  1.00  0.00     0.000 C 
BRANCH  11  12
ATOM     12  C   UNL     1     -28.896 -19.969 -33.507  1.00  0.00    -0.000 C 
BRANCH  12  13
ATOM     13  C   UNL     1     -28.209 -19.898 -32.135  1.00  0.00    -0.000 C 
BRANCH  13  14
ATOM     14  C   UNL     1     -28.913 -20.764 -31.076  1.00  0.00    -0.000 C 
BRANCH  14  15
ATOM     15  C   UNL     1     -29.678 -19.914 -30.040  1.00  0.00    -0.000 C 
BRANCH  15  16
ATOM     16  C   UNL     1     -31.201 -19.876 -30.273  1.00  0.00    -0.000 C 
BRANCH  16  17
ATOM     17  C   UNL     1     -32.047 -19.876 -28.991  1.00  0.00    -0.003 C 
ATOM     18  C   UNL     1     -33.550 -19.881 -29.270  1.00  0.00     0.004 C 
ENDBRANCH  16  17
ENDBRANCH  15  16
ENDBRANCH  14  15
ENDBRANCH  13  14
ENDBRANCH  12  13
ENDBRANCH  11  12
ENDBRANCH   1  11
TORSDOF 14
ENDMDL
MODEL 9
REMARK VINA RESULT:    -1.739      3.905      8.389
REMARK INTER + INTRA:          -4.474
REMARK INTER:                  -3.791
REMARK INTRA:                  -0.683
REMARK UNBOUND:                -1.312
REMARK SMILES CCCCCCCCCCCCCCCC(=O)[O-]
REMARK SMILES IDX 9 1 10 2 11 3 12 4 13 5 14 6 15 7 16 8 17 9 18 10 8 11 7 12
REMARK SMILES IDX 6 13 5 14 4 15 3 16 2 17 1 18
REMARK H PARENT
REMARK Flexibility Score: inf
ROOT
ATOM      1  C   UNL     1     -32.730 -22.056 -36.941  1.00  0.00     0.000 C 
ENDROOT
BRANCH   1   2
ATOM      2  C   UNL     1     -33.043 -21.844 -35.453  1.00  0.00     0.000 C 
BRANCH   2   3
ATOM      3  C   UNL     1     -32.242 -22.781 -34.530  1.00  0.00     0.000 C 
BRANCH   3   4
ATOM      4  C   UNL     1     -31.090 -22.110 -33.759  1.00  0.00     0.000 C 
BRANCH   4   5
ATOM      5  C   UNL     1     -31.312 -20.603 -33.540  1.00  0.00     0.000 C 
BRANCH   5   6
ATOM      6  C   UNL     1     -30.153 -19.943 -32.776  1.00  0.00     0.006 C 
BRANCH   6   7
ATOM      7  C   UNL     1     -29.285 -20.960 -32.023  1.00  0.00     0.053 C 
BRANCH   7   8
ATOM      8  C   UNL     1     -29.870 -21.250 -30.677  1.00  0.00     0.041 C 
ATOM      9  O   UNL     1     -29.912 -20.350 -29.798  1.00  0.00    -0.550 OA
ATOM     10  O   UNL     1     -30.416 -22.498 -30.410  1.00  0.00    -0.550 OA
ENDBRANCH   7   8
ENDBRANCH   6   7
ENDBRANCH   5   6
ENDBRANCH   4   5
ENDBRANCH   3   4
ENDBRANCH   2   3
ENDBRANCH   1   2
BRANCH   1  11
ATOM     11  C   UNL     1     -33.121 -23.469 -37.390  1.00  0.00     0.000 C 
BRANCH  11  12
ATOM     12  C   UNL     1     -31.879 -24.289 -37.772  1.00  0.00    -0.000 C 
BRANCH  12  13
ATOM     13  C   UNL     1     -32.236 -25.602 -38.485  1.00  0.00    -0.000 C 
BRANCH  13  14
ATOM     14  C   UNL     1     -32.888 -26.629 -37.543  1.00  0.00    -0.000 C 
BRANCH  14  15
ATOM     15  C   UNL     1     -33.444 -27.850 -38.305  1.00  0.00    -0.000 C 
BRANCH  15  16
ATOM     16  C   UNL     1     -32.378 -28.612 -39.116  1.00  0.00    -0.000 C 
BRANCH  16  17
ATOM     17  C   UNL     1     -31.192 -29.132 -38.289  1.00  0.00    -0.003 C 
ATOM     18  C   UNL     1     -30.186 -29.923 -39.124  1.00  0.00     0.004 C 
ENDBRANCH  16  17
ENDBRANCH  15  16
ENDBRANCH  14  15
ENDBRANCH  13  14
ENDBRANCH  12  13
ENDBRANCH  11  12
ENDBRANCH   1  11
TORSDOF 14
ENDMDL
