MODEL 1
REMARK VINA RESULT:   133.102      0.000      0.000
REMARK INTER + INTRA:         146.056
REMARK INTER:                 144.774
REMARK INTRA:                   1.282
REMARK UNBOUND:                 1.282
REMARK SMILES C[C@@H]1[C@H](C)CC[C@@]2(C(=O)[O-])CC[C@@]3(C)C(=CC[C@H]4[C@@]5(C)CC[C@@H](O)C(C)(C)[C@H]5CC[C@]43C)[C@H]12
REMARK SMILES IDX 7 1 6 2 11 3 33 4 5 5 12 6 15 7 2 8 3 9 13 10 16 11 1 12
REMARK SMILES IDX 4 13 14 14 31 15 17 16 18 17 30 18 32 19 19 20 29 21 28 22
REMARK SMILES IDX 21 23 20 24 25 25 22 26 23 27 26 28 27 29 8 30 9 31 10 32
REMARK SMILES IDX 24 33
REMARK H PARENT 24 34
REMARK Flexibility Score: inf
ROOT
ATOM      1  C   UNL     1      10.566  -0.416  10.579  1.00  0.00     0.017 C 
ATOM      2  C   UNL     1       9.460  -1.520  10.682  1.00  0.00     0.014 C 
ATOM      3  C   UNL     1      11.385  -0.414  11.918  1.00  0.00     0.014 C 
ATOM      4  C   UNL     1      11.469  -0.798   9.350  1.00  0.00     0.030 C 
ATOM      5  C   UNL     1       8.672  -1.739   9.372  1.00  0.00     0.004 C 
ATOM      6  C   UNL     1      12.818   0.193  11.841  1.00  0.00     0.013 C 
ATOM      7  C   UNL     1      12.843  -0.121   9.402  1.00  0.00    -0.063 C 
ATOM      8  C   UNL     1      10.680  -0.879   8.002  1.00  0.00    -0.003 C 
ATOM      9  C   UNL     1       9.599  -1.997   8.156  1.00  0.00    -0.011 C 
ATOM     10  C   UNL     1      13.680  -0.362  10.669  1.00  0.00    -0.006 C 
ATOM     11  C   UNL     1      13.154   0.903   8.588  1.00  0.00    -0.027 C 
ATOM     12  C   UNL     1      10.049   0.440   7.481  1.00  0.00     0.008 C 
ATOM     13  C   UNL     1       8.781  -2.219   6.875  1.00  0.00     0.008 C 
ATOM     14  C   UNL     1      13.854  -1.918  10.858  1.00  0.00     0.017 C 
ATOM     15  C   UNL     1      15.150   0.329  10.549  1.00  0.00    -0.020 C 
ATOM     16  C   UNL     1      13.807   2.116   9.166  1.00  0.00     0.032 C 
ATOM     17  C   UNL     1      15.124   1.817   9.923  1.00  0.00     0.006 C 
ATOM     18  C   UNL     1      15.917   0.258  11.909  1.00  0.00     0.008 C 
ATOM     19  C   UNL     1      16.012  -0.546   9.560  1.00  0.00     0.012 C 
ATOM     20  C   UNL     1      15.680   3.101  10.752  1.00  0.00    -0.025 C 
ATOM     21  C   UNL     1      15.891   1.527  12.722  1.00  0.00     0.005 C 
ATOM     22  C   UNL     1      16.600   2.670  11.960  1.00  0.00     0.003 C 
ATOM     23  C   UNL     1      14.523   4.006  11.306  1.00  0.00     0.010 C 
ATOM     24  C   UNL     1      16.488   3.953   9.717  1.00  0.00     0.012 C 
ATOM     25  C   UNL     1      17.063   3.846  12.940  1.00  0.00    -0.006 C 
ATOM     26  C   UNL     1      14.966   5.156  12.231  1.00  0.00     0.033 C 
ATOM     27  C   UNL     1      15.837   4.690  13.406  1.00  0.00     0.120 C 
ATOM     28  C   UNL     1      18.125   4.765  12.259  1.00  0.00     0.014 C 
ATOM     29  C   UNL     1      17.796   3.282  14.199  1.00  0.00     0.014 C 
ENDROOT
BRANCH   1  30
ATOM     30  C   UNL     1       9.927   0.963  10.447  1.00  0.00     0.048 C 
ATOM     31  O   UNL     1      10.302   1.764   9.544  1.00  0.00    -0.550 OA
ATOM     32  O   UNL     1       8.850   1.320  11.246  1.00  0.00    -0.550 OA
ENDBRANCH   1  30
BRANCH  27  33
ATOM     33  O   UNL     1      15.037   3.956  14.302  1.00  0.00    -0.393 OA
ATOM     34  H   UNL     1      14.489   4.605  14.812  1.00  0.00     0.210 HD
ENDBRANCH  27  33
TORSDOF 2
ENDMDL
