MODEL 1
REMARK VINA RESULT:    -5.482      0.000      0.000
REMARK INTER + INTRA:          -6.850
REMARK INTER:                  -6.604
REMARK INTRA:                  -0.246
REMARK UNBOUND:                -0.246
REMARK SMILES O=c1c(O)c(-c2ccc(O)c(O)c2)oc2cc(O)cc(O)c12
REMARK SMILES IDX 5 1 3 2 2 3 1 4 22 5 20 6 19 7 17 8 16 9 15 10 14 11 6 12
REMARK SMILES IDX 7 13 8 14 9 15 13 16 11 17 10 18 12 20 4 22 21 24 18 26
REMARK H PARENT 10 19 12 21 4 23 21 25 18 27
REMARK Flexibility Score: inf
ROOT
ATOM      1  C   UNL     1      19.001  52.001  41.796  1.00  0.00     0.180 A 
ATOM      2  C   UNL     1      19.483  50.682  41.722  1.00  0.00     0.208 A 
ATOM      3  C   UNL     1      20.475  50.268  42.625  1.00  0.00     0.238 A 
ATOM      4  O   UNL     1      20.848  49.067  42.601  1.00  0.00    -0.285 OA
ATOM      5  C   UNL     1      21.013  51.191  43.554  1.00  0.00     0.111 A 
ATOM      6  C   UNL     1      22.052  50.893  44.487  1.00  0.00     0.134 A 
ATOM      7  C   UNL     1      22.431  51.856  45.431  1.00  0.00     0.093 A 
ATOM      8  C   UNL     1      21.854  53.125  45.436  1.00  0.00     0.123 A 
ATOM      9  C   UNL     1      20.876  53.445  44.495  1.00  0.00     0.094 A 
ATOM     10  C   UNL     1      20.450  52.494  43.565  1.00  0.00     0.146 A 
ATOM     11  O   UNL     1      19.502  52.834  42.700  1.00  0.00    -0.452 OA
ENDROOT
BRANCH   1  12
ATOM     12  C   UNL     1      17.947  52.507  40.889  1.00  0.00     0.025 A 
ATOM     13  C   UNL     1      16.639  52.664  41.372  1.00  0.00     0.016 A 
ATOM     14  C   UNL     1      15.623  53.120  40.527  1.00  0.00     0.051 A 
ATOM     15  C   UNL     1      15.896  53.410  39.184  1.00  0.00     0.157 A 
ATOM     16  C   UNL     1      18.214  52.778  39.534  1.00  0.00     0.062 A 
ATOM     17  C   UNL     1      17.197  53.233  38.685  1.00  0.00     0.158 A 
BRANCH  15  18
ATOM     18  O   UNL     1      14.881  53.866  38.345  1.00  0.00    -0.504 OA
ATOM     19  H   UNL     1      14.540  53.308  37.571  1.00  0.00     0.293 HD
ENDBRANCH  15  18
BRANCH  17  20
ATOM     20  O   UNL     1      17.499  53.499  37.350  1.00  0.00    -0.504 OA
ATOM     21  H   UNL     1      17.248  54.374  36.906  1.00  0.00     0.293 HD
ENDBRANCH  17  20
ENDBRANCH   1  12
BRANCH   2  22
ATOM     22  O   UNL     1      18.995  49.809  40.747  1.00  0.00    -0.502 OA
ATOM     23  H   UNL     1      18.776  50.112  39.805  1.00  0.00     0.293 HD
ENDBRANCH   2  22
BRANCH   6  24
ATOM     24  O   UNL     1      22.759  49.687  44.513  1.00  0.00    -0.507 OA
ATOM     25  H   UNL     1      22.343  48.777  44.633  1.00  0.00     0.293 HD
ENDBRANCH   6  24
BRANCH   8  26
ATOM     26  O   UNL     1      22.268  54.064  46.379  1.00  0.00    -0.508 OA
ATOM     27  H   UNL     1      21.701  54.286  47.191  1.00  0.00     0.293 HD
ENDBRANCH   8  26
TORSDOF 6
ENDMDL
MODEL 2
REMARK VINA RESULT:    -5.384      1.638      6.918
REMARK INTER + INTRA:          -6.732
REMARK INTER:                  -6.410
REMARK INTRA:                  -0.321
REMARK UNBOUND:                -0.246
REMARK SMILES O=c1c(O)c(-c2ccc(O)c(O)c2)oc2cc(O)cc(O)c12
REMARK SMILES IDX 5 1 3 2 2 3 1 4 22 5 20 6 19 7 17 8 16 9 15 10 14 11 6 12
REMARK SMILES IDX 7 13 8 14 9 15 13 16 11 17 10 18 12 20 4 22 21 24 18 26
REMARK H PARENT 10 19 12 21 4 23 21 25 18 27
REMARK Flexibility Score: inf
ROOT
ATOM      1  C   UNL     1      19.483  51.742  42.694  1.00  0.00     0.180 A 
ATOM      2  C   UNL     1      18.372  50.978  43.092  1.00  0.00     0.208 A 
ATOM      3  C   UNL     1      17.247  50.923  42.253  1.00  0.00     0.238 A 
ATOM      4  O   UNL     1      16.287  50.179  42.580  1.00  0.00    -0.285 OA
ATOM      5  C   UNL     1      17.225  51.676  41.054  1.00  0.00     0.111 A 
ATOM      6  C   UNL     1      16.121  51.730  40.149  1.00  0.00     0.134 A 
ATOM      7  C   UNL     1      16.253  52.425  38.940  1.00  0.00     0.093 A 
ATOM      8  C   UNL     1      17.422  53.119  38.631  1.00  0.00     0.123 A 
ATOM      9  C   UNL     1      18.487  53.117  39.532  1.00  0.00     0.094 A 
ATOM     10  C   UNL     1      18.400  52.402  40.729  1.00  0.00     0.146 A 
ATOM     11  O   UNL     1      19.445  52.410  41.548  1.00  0.00    -0.452 OA
ENDROOT
BRANCH   1  12
ATOM     12  C   UNL     1      20.709  51.836  43.518  1.00  0.00     0.025 A 
ATOM     13  C   UNL     1      21.707  50.858  43.384  1.00  0.00     0.016 A 
ATOM     14  C   UNL     1      22.863  50.916  44.166  1.00  0.00     0.051 A 
ATOM     15  C   UNL     1      23.033  51.943  45.104  1.00  0.00     0.157 A 
ATOM     16  C   UNL     1      20.872  52.854  44.475  1.00  0.00     0.062 A 
ATOM     17  C   UNL     1      22.030  52.913  45.262  1.00  0.00     0.158 A 
BRANCH  15  18
ATOM     18  O   UNL     1      24.189  51.998  45.881  1.00  0.00    -0.504 OA
ATOM     19  H   UNL     1      24.679  51.158  46.165  1.00  0.00     0.293 HD
ENDBRANCH  15  18
BRANCH  17  20
ATOM     20  O   UNL     1      22.161  53.940  46.196  1.00  0.00    -0.504 OA
ATOM     21  H   UNL     1      21.456  54.658  46.308  1.00  0.00     0.293 HD
ENDBRANCH  17  20
ENDBRANCH   1  12
BRANCH   2  22
ATOM     22  O   UNL     1      18.383  50.304  44.316  1.00  0.00    -0.502 OA
ATOM     23  H   UNL     1      17.542  50.145  44.858  1.00  0.00     0.293 HD
ENDBRANCH   2  22
BRANCH   6  24
ATOM     24  O   UNL     1      14.875  51.148  40.398  1.00  0.00    -0.507 OA
ATOM     25  H   UNL     1      14.206  50.891  39.689  1.00  0.00     0.293 HD
ENDBRANCH   6  24
BRANCH   8  26
ATOM     26  O   UNL     1      17.511  53.814  37.427  1.00  0.00    -0.508 OA
ATOM     27  H   UNL     1      18.389  54.205  37.104  1.00  0.00     0.293 HD
ENDBRANCH   8  26
TORSDOF 6
ENDMDL
MODEL 3
REMARK VINA RESULT:    -5.006      2.087      7.051
REMARK INTER + INTRA:          -6.277
REMARK INTER:                  -5.975
REMARK INTRA:                  -0.301
REMARK UNBOUND:                -0.246
REMARK SMILES O=c1c(O)c(-c2ccc(O)c(O)c2)oc2cc(O)cc(O)c12
REMARK SMILES IDX 5 1 3 2 2 3 1 4 22 5 20 6 19 7 17 8 16 9 15 10 14 11 6 12
REMARK SMILES IDX 7 13 8 14 9 15 13 16 11 17 10 18 12 20 4 22 21 24 18 26
REMARK H PARENT 10 19 12 21 4 23 21 25 18 27
REMARK Flexibility Score: inf
ROOT
ATOM      1  C   UNL     1      19.826  52.003  43.164  1.00  0.00     0.180 A 
ATOM      2  C   UNL     1      19.551  52.876  42.096  1.00  0.00     0.208 A 
ATOM      3  C   UNL     1      18.345  52.729  41.390  1.00  0.00     0.238 A 
ATOM      4  O   UNL     1      18.073  53.559  40.485  1.00  0.00    -0.285 OA
ATOM      5  C   UNL     1      17.457  51.678  41.723  1.00  0.00     0.111 A 
ATOM      6  C   UNL     1      16.229  51.408  41.046  1.00  0.00     0.134 A 
ATOM      7  C   UNL     1      15.378  50.407  41.532  1.00  0.00     0.093 A 
ATOM      8  C   UNL     1      15.738  49.624  42.629  1.00  0.00     0.123 A 
ATOM      9  C   UNL     1      16.961  49.844  43.264  1.00  0.00     0.094 A 
ATOM     10  C   UNL     1      17.813  50.860  42.827  1.00  0.00     0.146 A 
ATOM     11  O   UNL     1      18.957  51.049  43.473  1.00  0.00    -0.452 OA
ENDROOT
BRANCH   1  12
ATOM     12  C   UNL     1      21.067  52.105  43.964  1.00  0.00     0.025 A 
ATOM     13  C   UNL     1      22.100  51.178  43.754  1.00  0.00     0.016 A 
ATOM     14  C   UNL     1      23.272  51.241  44.512  1.00  0.00     0.051 A 
ATOM     15  C   UNL     1      23.422  52.222  45.502  1.00  0.00     0.157 A 
ATOM     16  C   UNL     1      21.212  53.075  44.972  1.00  0.00     0.062 A 
ATOM     17  C   UNL     1      22.385  53.139  45.735  1.00  0.00     0.158 A 
BRANCH  15  18
ATOM     18  O   UNL     1      24.594  52.283  46.255  1.00  0.00    -0.504 OA
ATOM     19  H   UNL     1      25.415  52.773  45.920  1.00  0.00     0.293 HD
ENDBRANCH  15  18
BRANCH  17  20
ATOM     20  O   UNL     1      22.497  54.118  46.722  1.00  0.00    -0.504 OA
ATOM     21  H   UNL     1      22.843  55.049  46.519  1.00  0.00     0.293 HD
ENDBRANCH  17  20
ENDBRANCH   1  12
BRANCH   2  22
ATOM     22  O   UNL     1      20.476  53.858  41.733  1.00  0.00    -0.502 OA
ATOM     23  H   UNL     1      20.204  54.720  41.276  1.00  0.00     0.293 HD
ENDBRANCH   2  22
BRANCH   6  24
ATOM     24  O   UNL     1      15.811  52.069  39.888  1.00  0.00    -0.507 OA
ATOM     25  H   UNL     1      16.370  52.723  39.362  1.00  0.00     0.293 HD
ENDBRANCH   6  24
BRANCH   8  26
ATOM     26  O   UNL     1      14.875  48.625  43.073  1.00  0.00    -0.508 OA
ATOM     27  H   UNL     1      15.199  47.678  43.235  1.00  0.00     0.293 HD
ENDBRANCH   8  26
TORSDOF 6
ENDMDL
MODEL 4
REMARK VINA RESULT:    -4.974      1.957      2.283
REMARK INTER + INTRA:          -6.238
REMARK INTER:                  -5.997
REMARK INTRA:                  -0.241
REMARK UNBOUND:                -0.246
REMARK SMILES O=c1c(O)c(-c2ccc(O)c(O)c2)oc2cc(O)cc(O)c12
REMARK SMILES IDX 5 1 3 2 2 3 1 4 22 5 20 6 19 7 17 8 16 9 15 10 14 11 6 12
REMARK SMILES IDX 7 13 8 14 9 15 13 16 11 17 10 18 12 20 4 22 21 24 18 26
REMARK H PARENT 10 19 12 21 4 23 21 25 18 27
REMARK Flexibility Score: inf
ROOT
ATOM      1  C   UNL     1      18.741  51.503  42.024  1.00  0.00     0.180 A 
ATOM      2  C   UNL     1      17.889  50.815  42.905  1.00  0.00     0.208 A 
ATOM      3  C   UNL     1      18.398  50.367  44.135  1.00  0.00     0.238 A 
ATOM      4  O   UNL     1      17.612  49.818  44.949  1.00  0.00    -0.285 OA
ATOM      5  C   UNL     1      19.766  50.562  44.444  1.00  0.00     0.111 A 
ATOM      6  C   UNL     1      20.400  50.110  45.641  1.00  0.00     0.134 A 
ATOM      7  C   UNL     1      21.735  50.454  45.887  1.00  0.00     0.093 A 
ATOM      8  C   UNL     1      22.477  51.177  44.954  1.00  0.00     0.123 A 
ATOM      9  C   UNL     1      21.883  51.577  43.757  1.00  0.00     0.094 A 
ATOM     10  C   UNL     1      20.542  51.282  43.500  1.00  0.00     0.146 A 
ATOM     11  O   UNL     1      20.011  51.700  42.357  1.00  0.00    -0.452 OA
ENDROOT
BRANCH   1  12
ATOM     12  C   UNL     1      18.273  52.019  40.718  1.00  0.00     0.025 A 
ATOM     13  C   UNL     1      18.049  53.395  40.560  1.00  0.00     0.016 A 
ATOM     14  C   UNL     1      17.587  53.902  39.342  1.00  0.00     0.051 A 
ATOM     15  C   UNL     1      17.328  53.039  38.270  1.00  0.00     0.157 A 
ATOM     16  C   UNL     1      17.993  51.152  39.646  1.00  0.00     0.062 A 
ATOM     17  C   UNL     1      17.528  51.657  38.425  1.00  0.00     0.158 A 
BRANCH  15  18
ATOM     18  O   UNL     1      16.870  53.548  37.056  1.00  0.00    -0.504 OA
ATOM     19  H   UNL     1      17.381  53.403  36.193  1.00  0.00     0.293 HD
ENDBRANCH  15  18
BRANCH  17  20
ATOM     20  O   UNL     1      17.266  50.770  37.381  1.00  0.00    -0.504 OA
ATOM     21  H   UNL     1      17.609  49.817  37.387  1.00  0.00     0.293 HD
ENDBRANCH  17  20
ENDBRANCH   1  12
BRANCH   2  22
ATOM     22  O   UNL     1      16.561  50.565  42.548  1.00  0.00    -0.502 OA
ATOM     23  H   UNL     1      15.806  50.571  43.223  1.00  0.00     0.293 HD
ENDBRANCH   2  22
BRANCH   6  24
ATOM     24  O   UNL     1      19.780  49.306  46.602  1.00  0.00    -0.507 OA
ATOM     25  H   UNL     1      18.790  49.116  46.644  1.00  0.00     0.293 HD
ENDBRANCH   6  24
BRANCH   8  26
ATOM     26  O   UNL     1      23.809  51.486  45.225  1.00  0.00    -0.508 OA
ATOM     27  H   UNL     1      24.544  51.299  44.552  1.00  0.00     0.293 HD
ENDBRANCH   8  26
TORSDOF 6
ENDMDL
MODEL 5
REMARK VINA RESULT:    -4.892      2.221      2.999
REMARK INTER + INTRA:          -6.139
REMARK INTER:                  -5.816
REMARK INTRA:                  -0.323
REMARK UNBOUND:                -0.246
REMARK SMILES O=c1c(O)c(-c2ccc(O)c(O)c2)oc2cc(O)cc(O)c12
REMARK SMILES IDX 5 1 3 2 2 3 1 4 22 5 20 6 19 7 17 8 16 9 15 10 14 11 6 12
REMARK SMILES IDX 7 13 8 14 9 15 13 16 11 17 10 18 12 20 4 22 21 24 18 26
REMARK H PARENT 10 19 12 21 4 23 21 25 18 27
REMARK Flexibility Score: inf
ROOT
ATOM      1  C   UNL     1      18.268  51.949  41.744  1.00  0.00     0.180 A 
ATOM      2  C   UNL     1      19.572  52.395  42.025  1.00  0.00     0.208 A 
ATOM      3  C   UNL     1      20.227  51.907  43.167  1.00  0.00     0.238 A 
ATOM      4  O   UNL     1      21.419  52.253  43.372  1.00  0.00    -0.285 OA
ATOM      5  C   UNL     1      19.552  51.024  44.044  1.00  0.00     0.111 A 
ATOM      6  C   UNL     1      20.103  50.501  45.253  1.00  0.00     0.134 A 
ATOM      7  C   UNL     1      19.382  49.550  45.986  1.00  0.00     0.093 A 
ATOM      8  C   UNL     1      18.106  49.151  45.591  1.00  0.00     0.123 A 
ATOM      9  C   UNL     1      17.536  49.695  44.440  1.00  0.00     0.094 A 
ATOM     10  C   UNL     1      18.246  50.617  43.667  1.00  0.00     0.146 A 
ATOM     11  O   UNL     1      17.674  51.095  42.568  1.00  0.00    -0.452 OA
ENDROOT
BRANCH   1  12
ATOM     12  C   UNL     1      17.519  52.407  40.552  1.00  0.00     0.025 A 
ATOM     13  C   UNL     1      16.568  53.429  40.687  1.00  0.00     0.016 A 
ATOM     14  C   UNL     1      15.833  53.863  39.580  1.00  0.00     0.051 A 
ATOM     15  C   UNL     1      16.027  53.269  38.326  1.00  0.00     0.157 A 
ATOM     16  C   UNL     1      17.697  51.798  39.297  1.00  0.00     0.062 A 
ATOM     17  C   UNL     1      16.961  52.229  38.186  1.00  0.00     0.158 A 
BRANCH  15  18
ATOM     18  O   UNL     1      15.295  53.705  37.223  1.00  0.00    -0.504 OA
ATOM     19  H   UNL     1      14.387  54.143  37.328  1.00  0.00     0.293 HD
ENDBRANCH  15  18
BRANCH  17  20
ATOM     20  O   UNL     1      17.168  51.608  36.955  1.00  0.00    -0.504 OA
ATOM     21  H   UNL     1      18.063  51.637  36.481  1.00  0.00     0.293 HD
ENDBRANCH  17  20
ENDBRANCH   1  12
BRANCH   2  22
ATOM     22  O   UNL     1      20.192  53.327  41.189  1.00  0.00    -0.502 OA
ATOM     23  H   UNL     1      20.104  53.296  40.180  1.00  0.00     0.293 HD
ENDBRANCH   2  22
BRANCH   6  24
ATOM     24  O   UNL     1      21.332  50.897  45.790  1.00  0.00    -0.507 OA
ATOM     25  H   UNL     1      21.446  51.431  46.637  1.00  0.00     0.293 HD
ENDBRANCH   6  24
BRANCH   8  26
ATOM     26  O   UNL     1      17.411  48.216  46.354  1.00  0.00    -0.508 OA
ATOM     27  H   UNL     1      17.091  48.430  47.293  1.00  0.00     0.293 HD
ENDBRANCH   8  26
TORSDOF 6
ENDMDL
MODEL 6
REMARK VINA RESULT:    -4.823      1.911      3.116
REMARK INTER + INTRA:          -6.056
REMARK INTER:                  -5.921
REMARK INTRA:                  -0.135
REMARK UNBOUND:                -0.246
REMARK SMILES O=c1c(O)c(-c2ccc(O)c(O)c2)oc2cc(O)cc(O)c12
REMARK SMILES IDX 5 1 3 2 2 3 1 4 22 5 20 6 19 7 17 8 16 9 15 10 14 11 6 12
REMARK SMILES IDX 7 13 8 14 9 15 13 16 11 17 10 18 12 20 4 22 21 24 18 26
REMARK H PARENT 10 19 12 21 4 23 21 25 18 27
REMARK Flexibility Score: inf
ROOT
ATOM      1  C   UNL     1      18.611  51.412  41.135  1.00  0.00     0.180 A 
ATOM      2  C   UNL     1      18.692  52.688  41.720  1.00  0.00     0.208 A 
ATOM      3  C   UNL     1      19.655  52.921  42.716  1.00  0.00     0.238 A 
ATOM      4  O   UNL     1      19.771  54.084  43.181  1.00  0.00    -0.285 OA
ATOM      5  C   UNL     1      20.486  51.862  43.154  1.00  0.00     0.111 A 
ATOM      6  C   UNL     1      21.466  51.973  44.188  1.00  0.00     0.134 A 
ATOM      7  C   UNL     1      22.304  50.885  44.464  1.00  0.00     0.093 A 
ATOM      8  C   UNL     1      22.158  49.673  43.791  1.00  0.00     0.123 A 
ATOM      9  C   UNL     1      21.168  49.537  42.817  1.00  0.00     0.094 A 
ATOM     10  C   UNL     1      20.342  50.615  42.493  1.00  0.00     0.146 A 
ATOM     11  O   UNL     1      19.427  50.448  41.545  1.00  0.00    -0.452 OA
ENDROOT
BRANCH   1  12
ATOM     12  C   UNL     1      17.633  51.093  40.071  1.00  0.00     0.025 A 
ATOM     13  C   UNL     1      16.721  50.044  40.263  1.00  0.00     0.016 A 
ATOM     14  C   UNL     1      15.803  49.712  39.264  1.00  0.00     0.051 A 
ATOM     15  C   UNL     1      15.794  50.414  38.051  1.00  0.00     0.157 A 
ATOM     16  C   UNL     1      17.635  51.782  38.844  1.00  0.00     0.062 A 
ATOM     17  C   UNL     1      16.718  51.450  37.840  1.00  0.00     0.158 A 
BRANCH  15  18
ATOM     18  O   UNL     1      14.875  50.082  37.056  1.00  0.00    -0.504 OA
ATOM     19  H   UNL     1      14.693  49.118  36.803  1.00  0.00     0.293 HD
ENDBRANCH  15  18
BRANCH  17  20
ATOM     20  O   UNL     1      16.744  52.159  36.639  1.00  0.00    -0.504 OA
ATOM     21  H   UNL     1      16.381  53.101  36.562  1.00  0.00     0.293 HD
ENDBRANCH  17  20
ENDBRANCH   1  12
BRANCH   2  22
ATOM     22  O   UNL     1      17.811  53.698  41.328  1.00  0.00    -0.502 OA
ATOM     23  H   UNL     1      16.926  53.860  41.794  1.00  0.00     0.293 HD
ENDBRANCH   2  22
BRANCH   6  24
ATOM     24  O   UNL     1      21.639  53.108  44.984  1.00  0.00    -0.507 OA
ATOM     25  H   UNL     1      20.914  53.771  45.210  1.00  0.00     0.293 HD
ENDBRANCH   6  24
BRANCH   8  26
ATOM     26  O   UNL     1      22.999  48.607  44.104  1.00  0.00    -0.508 OA
ATOM     27  H   UNL     1      22.722  47.890  44.766  1.00  0.00     0.293 HD
ENDBRANCH   8  26
TORSDOF 6
ENDMDL
MODEL 7
REMARK VINA RESULT:    -4.767      1.922      6.834
REMARK INTER + INTRA:          -5.989
REMARK INTER:                  -5.667
REMARK INTRA:                  -0.322
REMARK UNBOUND:                -0.246
REMARK SMILES O=c1c(O)c(-c2ccc(O)c(O)c2)oc2cc(O)cc(O)c12
REMARK SMILES IDX 5 1 3 2 2 3 1 4 22 5 20 6 19 7 17 8 16 9 15 10 14 11 6 12
REMARK SMILES IDX 7 13 8 14 9 15 13 16 11 17 10 18 12 20 4 22 21 24 18 26
REMARK H PARENT 10 19 12 21 4 23 21 25 18 27
REMARK Flexibility Score: inf
ROOT
ATOM      1  C   UNL     1      18.952  51.147  41.913  1.00  0.00     0.180 A 
ATOM      2  C   UNL     1      18.367  49.879  41.749  1.00  0.00     0.208 A 
ATOM      3  C   UNL     1      17.601  49.626  40.600  1.00  0.00     0.238 A 
ATOM      4  O   UNL     1      17.143  48.467  40.424  1.00  0.00    -0.285 OA
ATOM      5  C   UNL     1      17.381  50.660  39.658  1.00  0.00     0.111 A 
ATOM      6  C   UNL     1      16.584  50.529  38.480  1.00  0.00     0.134 A 
ATOM      7  C   UNL     1      16.525  51.587  37.565  1.00  0.00     0.093 A 
ATOM      8  C   UNL     1      17.180  52.793  37.814  1.00  0.00     0.123 A 
ATOM      9  C   UNL     1      17.918  52.950  38.987  1.00  0.00     0.094 A 
ATOM     10  C   UNL     1      18.026  51.899  39.901  1.00  0.00     0.146 A 
ATOM     11  O   UNL     1      18.755  52.085  40.995  1.00  0.00    -0.452 OA
ENDROOT
BRANCH   1  12
ATOM     12  C   UNL     1      19.785  51.484  43.089  1.00  0.00     0.025 A 
ATOM     13  C   UNL     1      21.167  51.244  43.047  1.00  0.00     0.016 A 
ATOM     14  C   UNL     1      21.970  51.535  44.153  1.00  0.00     0.051 A 
ATOM     15  C   UNL     1      21.401  52.054  45.323  1.00  0.00     0.157 A 
ATOM     16  C   UNL     1      19.214  51.985  44.273  1.00  0.00     0.062 A 
ATOM     17  C   UNL     1      20.015  52.275  45.384  1.00  0.00     0.158 A 
BRANCH  15  18
ATOM     18  O   UNL     1      22.205  52.345  46.424  1.00  0.00    -0.504 OA
ATOM     19  H   UNL     1      23.191  52.111  46.438  1.00  0.00     0.293 HD
ENDBRANCH  15  18
BRANCH  17  20
ATOM     20  O   UNL     1      19.416  52.778  46.538  1.00  0.00    -0.504 OA
ATOM     21  H   UNL     1      19.813  52.631  47.458  1.00  0.00     0.293 HD
ENDBRANCH  17  20
ENDBRANCH   1  12
BRANCH   2  22
ATOM     22  O   UNL     1      18.532  48.896  42.729  1.00  0.00    -0.502 OA
ATOM     23  H   UNL     1      18.788  47.942  42.504  1.00  0.00     0.293 HD
ENDBRANCH   2  22
BRANCH   6  24
ATOM     24  O   UNL     1      15.816  49.401  38.174  1.00  0.00    -0.507 OA
ATOM     25  H   UNL     1      15.756  48.572  38.744  1.00  0.00     0.293 HD
ENDBRANCH   6  24
BRANCH   8  26
ATOM     26  O   UNL     1      17.085  53.830  36.889  1.00  0.00    -0.508 OA
ATOM     27  H   UNL     1      17.335  53.698  35.915  1.00  0.00     0.293 HD
ENDBRANCH   8  26
TORSDOF 6
ENDMDL
MODEL 8
REMARK VINA RESULT:    -4.708      1.962      7.217
REMARK INTER + INTRA:          -5.917
REMARK INTER:                  -5.616
REMARK INTRA:                  -0.301
REMARK UNBOUND:                -0.246
REMARK SMILES O=c1c(O)c(-c2ccc(O)c(O)c2)oc2cc(O)cc(O)c12
REMARK SMILES IDX 5 1 3 2 2 3 1 4 22 5 20 6 19 7 17 8 16 9 15 10 14 11 6 12
REMARK SMILES IDX 7 13 8 14 9 15 13 16 11 17 10 18 12 20 4 22 21 24 18 26
REMARK H PARENT 10 19 12 21 4 23 21 25 18 27
REMARK Flexibility Score: inf
ROOT
ATOM      1  C   UNL     1      19.283  51.510  42.468  1.00  0.00     0.180 A 
ATOM      2  C   UNL     1      18.763  52.796  42.242  1.00  0.00     0.208 A 
ATOM      3  C   UNL     1      17.823  52.980  41.215  1.00  0.00     0.238 A 
ATOM      4  O   UNL     1      17.307  54.118  41.068  1.00  0.00    -0.285 OA
ATOM      5  C   UNL     1      17.457  51.888  40.391  1.00  0.00     0.111 A 
ATOM      6  C   UNL     1      16.547  51.969  39.293  1.00  0.00     0.134 A 
ATOM      7  C   UNL     1      16.178  50.800  38.615  1.00  0.00     0.093 A 
ATOM      8  C   UNL     1      16.731  49.566  38.952  1.00  0.00     0.123 A 
ATOM      9  C   UNL     1      17.662  49.484  39.988  1.00  0.00     0.094 A 
ATOM     10  C   UNL     1      18.022  50.626  40.708  1.00  0.00     0.146 A 
ATOM     11  O   UNL     1      18.895  50.499  41.700  1.00  0.00    -0.452 OA
ENDROOT
BRANCH   1  12
ATOM     12  C   UNL     1      20.266  51.234  43.540  1.00  0.00     0.025 A 
ATOM     13  C   UNL     1      19.819  50.739  44.775  1.00  0.00     0.016 A 
ATOM     14  C   UNL     1      20.726  50.492  45.809  1.00  0.00     0.051 A 
ATOM     15  C   UNL     1      22.091  50.751  45.629  1.00  0.00     0.157 A 
ATOM     16  C   UNL     1      21.634  51.513  43.370  1.00  0.00     0.062 A 
ATOM     17  C   UNL     1      22.546  51.269  44.405  1.00  0.00     0.158 A 
BRANCH  15  18
ATOM     18  O   UNL     1      22.994  50.502  46.661  1.00  0.00    -0.504 OA
ATOM     19  H   UNL     1      22.901  50.946  47.567  1.00  0.00     0.293 HD
ENDBRANCH  15  18
BRANCH  17  20
ATOM     20  O   UNL     1      23.895  51.550  44.198  1.00  0.00    -0.504 OA
ATOM     21  H   UNL     1      24.315  51.525  43.277  1.00  0.00     0.293 HD
ENDBRANCH  17  20
ENDBRANCH   1  12
BRANCH   2  22
ATOM     22  O   UNL     1      19.196  53.876  43.017  1.00  0.00    -0.502 OA
ATOM     23  H   UNL     1      19.448  54.769  42.612  1.00  0.00     0.293 HD
ENDBRANCH   2  22
BRANCH   6  24
ATOM     24  O   UNL     1      16.001  53.163  38.814  1.00  0.00    -0.507 OA
ATOM     25  H   UNL     1      15.816  53.980  39.375  1.00  0.00     0.293 HD
ENDBRANCH   6  24
BRANCH   8  26
ATOM     26  O   UNL     1      16.354  48.427  38.244  1.00  0.00    -0.508 OA
ATOM     27  H   UNL     1      16.982  47.638  38.135  1.00  0.00     0.293 HD
ENDBRANCH   8  26
TORSDOF 6
ENDMDL
