MODEL 1
REMARK VINA RESULT:    -4.137      0.000      0.000
REMARK INTER + INTRA:         -10.284
REMARK INTER:                  -8.006
REMARK INTRA:                  -2.278
REMARK UNBOUND:                -2.278
REMARK SMILES CCCCCCCCCCCCCCCCCC(=O)[O-]
REMARK SMILES IDX 10 1 11 2 12 3 13 4 14 5 15 6 16 7 17 8 18 9 19 10 20 11
REMARK SMILES IDX 9 12 8 13 7 14 6 15 5 16 4 17 3 18 2 19 1 20
REMARK H PARENT
REMARK Flexibility Score: inf
ROOT
ATOM      1  C   UNL     1       7.018 -18.596  31.774  1.00  0.00     0.000 C 
ENDROOT
BRANCH   1   2
ATOM      2  C   UNL     1       7.780 -17.781  32.832  1.00  0.00     0.000 C 
BRANCH   2   3
ATOM      3  C   UNL     1       6.928 -17.492  34.080  1.00  0.00     0.000 C 
BRANCH   3   4
ATOM      4  C   UNL     1       7.780 -17.103  35.299  1.00  0.00     0.000 C 
BRANCH   4   5
ATOM      5  C   UNL     1       9.289 -17.196  35.014  1.00  0.00     0.000 C 
BRANCH   5   6
ATOM      6  C   UNL     1      10.108 -16.171  35.814  1.00  0.00     0.000 C 
BRANCH   6   7
ATOM      7  C   UNL     1      10.143 -14.786  35.150  1.00  0.00     0.006 C 
BRANCH   7   8
ATOM      8  C   UNL     1      11.282 -14.696  34.131  1.00  0.00     0.053 C 
BRANCH   8   9
ATOM      9  C   UNL     1      12.307 -13.700  34.572  1.00  0.00     0.041 C 
ATOM     10  O   UNL     1      13.088 -13.181  33.733  1.00  0.00    -0.550 OA
ATOM     11  O   UNL     1      12.428 -13.378  35.917  1.00  0.00    -0.550 OA
ENDBRANCH   8   9
ENDBRANCH   7   8
ENDBRANCH   6   7
ENDBRANCH   5   6
ENDBRANCH   4   5
ENDBRANCH   3   4
ENDBRANCH   2   3
ENDBRANCH   1   2
BRANCH   1  12
ATOM     12  C   UNL     1       7.028 -17.923  30.393  1.00  0.00     0.000 C 
BRANCH  12  13
ATOM     13  C   UNL     1       7.336 -18.943  29.287  1.00  0.00    -0.000 C 
BRANCH  13  14
ATOM     14  C   UNL     1       7.274 -20.399  29.782  1.00  0.00    -0.000 C 
BRANCH  14  15
ATOM     15  C   UNL     1       8.505 -21.262  29.436  1.00  0.00    -0.000 C 
BRANCH  15  16
ATOM     16  C   UNL     1       9.843 -20.505  29.395  1.00  0.00    -0.000 C 
BRANCH  16  17
ATOM     17  C   UNL     1      10.619 -20.591  30.718  1.00  0.00    -0.000 C 
BRANCH  17  18
ATOM     18  C   UNL     1      10.752 -19.206  31.366  1.00  0.00    -0.000 C 
BRANCH  18  19
ATOM     19  C   UNL     1      10.757 -18.069  30.333  1.00  0.00    -0.003 C 
ATOM     20  C   UNL     1      10.565 -16.692  30.968  1.00  0.00     0.004 C 
ENDBRANCH  18  19
ENDBRANCH  17  18
ENDBRANCH  16  17
ENDBRANCH  15  16
ENDBRANCH  14  15
ENDBRANCH  13  14
ENDBRANCH  12  13
ENDBRANCH   1  12
TORSDOF 16
ENDMDL
MODEL 2
REMARK VINA RESULT:    -4.099      3.719      7.462
REMARK INTER + INTRA:         -10.212
REMARK INTER:                  -8.215
REMARK INTRA:                  -1.996
REMARK UNBOUND:                -2.278
REMARK SMILES CCCCCCCCCCCCCCCCCC(=O)[O-]
REMARK SMILES IDX 10 1 11 2 12 3 13 4 14 5 15 6 16 7 17 8 18 9 19 10 20 11
REMARK SMILES IDX 9 12 8 13 7 14 6 15 5 16 4 17 3 18 2 19 1 20
REMARK H PARENT
REMARK Flexibility Score: inf
ROOT
ATOM      1  C   UNL     1       8.240 -17.253  33.319  1.00  0.00     0.000 C 
ENDROOT
BRANCH   1   2
ATOM      2  C   UNL     1       9.583 -17.911  32.963  1.00  0.00     0.000 C 
BRANCH   2   3
ATOM      3  C   UNL     1      10.237 -17.282  31.720  1.00  0.00     0.000 C 
BRANCH   3   4
ATOM      4  C   UNL     1      11.013 -18.308  30.879  1.00  0.00     0.000 C 
BRANCH   4   5
ATOM      5  C   UNL     1      10.676 -19.759  31.265  1.00  0.00     0.000 C 
BRANCH   5   6
ATOM      6  C   UNL     1      10.236 -20.605  30.060  1.00  0.00     0.000 C 
BRANCH   6   7
ATOM      7  C   UNL     1       8.863 -20.191  29.509  1.00  0.00     0.006 C 
BRANCH   7   8
ATOM      8  C   UNL     1       7.822 -20.118  30.629  1.00  0.00     0.053 C 
BRANCH   8   9
ATOM      9  C   UNL     1       6.513 -20.675  30.169  1.00  0.00     0.041 C 
ATOM     10  O   UNL     1       5.531 -20.718  30.956  1.00  0.00    -0.550 OA
ATOM     11  O   UNL     1       6.388 -21.187  28.885  1.00  0.00    -0.550 OA
ENDBRANCH   8   9
ENDBRANCH   7   8
ENDBRANCH   6   7
ENDBRANCH   5   6
ENDBRANCH   4   5
ENDBRANCH   3   4
ENDBRANCH   2   3
ENDBRANCH   1   2
BRANCH   1  12
ATOM     12  C   UNL     1       8.153 -16.856  34.800  1.00  0.00     0.000 C 
BRANCH  12  13
ATOM     13  C   UNL     1       9.539 -16.890  35.461  1.00  0.00    -0.000 C 
BRANCH  13  14
ATOM     14  C   UNL     1       9.975 -15.520  36.008  1.00  0.00    -0.000 C 
BRANCH  14  15
ATOM     15  C   UNL     1       9.541 -14.307  35.159  1.00  0.00    -0.000 C 
BRANCH  15  16
ATOM     16  C   UNL     1      10.339 -14.100  33.861  1.00  0.00    -0.000 C 
BRANCH  16  17
ATOM     17  C   UNL     1      11.816 -14.502  33.997  1.00  0.00    -0.000 C 
BRANCH  17  18
ATOM     18  C   UNL     1      12.685 -13.284  34.345  1.00  0.00    -0.000 C 
BRANCH  18  19
ATOM     19  C   UNL     1      12.755 -13.022  35.857  1.00  0.00    -0.003 C 
ATOM     20  C   UNL     1      12.183 -11.660  36.248  1.00  0.00     0.004 C 
ENDBRANCH  18  19
ENDBRANCH  17  18
ENDBRANCH  16  17
ENDBRANCH  15  16
ENDBRANCH  14  15
ENDBRANCH  13  14
ENDBRANCH  12  13
ENDBRANCH   1  12
TORSDOF 16
ENDMDL
MODEL 3
REMARK VINA RESULT:    -4.096      1.105      2.803
REMARK INTER + INTRA:         -10.205
REMARK INTER:                  -7.716
REMARK INTRA:                  -2.490
REMARK UNBOUND:                -2.278
REMARK SMILES CCCCCCCCCCCCCCCCCC(=O)[O-]
REMARK SMILES IDX 10 1 11 2 12 3 13 4 14 5 15 6 16 7 17 8 18 9 19 10 20 11
REMARK SMILES IDX 9 12 8 13 7 14 6 15 5 16 4 17 3 18 2 19 1 20
REMARK H PARENT
REMARK Flexibility Score: inf
ROOT
ATOM      1  C   UNL     1       8.075 -16.711  31.815  1.00  0.00     0.000 C 
ENDROOT
BRANCH   1   2
ATOM      2  C   UNL     1       8.264 -17.617  33.043  1.00  0.00     0.000 C 
BRANCH   2   3
ATOM      3  C   UNL     1       8.129 -16.847  34.369  1.00  0.00     0.000 C 
BRANCH   3   4
ATOM      4  C   UNL     1       9.284 -17.142  35.342  1.00  0.00     0.000 C 
BRANCH   4   5
ATOM      5  C   UNL     1      10.090 -15.880  35.694  1.00  0.00     0.000 C 
BRANCH   5   6
ATOM      6  C   UNL     1      10.062 -14.827  34.574  1.00  0.00     0.000 C 
BRANCH   6   7
ATOM      7  C   UNL     1      11.460 -14.496  34.031  1.00  0.00     0.006 C 
BRANCH   7   8
ATOM      8  C   UNL     1      11.679 -12.982  33.969  1.00  0.00     0.053 C 
BRANCH   8   9
ATOM      9  C   UNL     1      12.421 -12.507  35.178  1.00  0.00     0.041 C 
ATOM     10  O   UNL     1      12.755 -13.322  36.077  1.00  0.00    -0.550 OA
ATOM     11  O   UNL     1      12.705 -11.157  35.332  1.00  0.00    -0.550 OA
ENDBRANCH   8   9
ENDBRANCH   7   8
ENDBRANCH   6   7
ENDBRANCH   5   6
ENDBRANCH   4   5
ENDBRANCH   3   4
ENDBRANCH   2   3
ENDBRANCH   1   2
BRANCH   1  12
ATOM     12  C   UNL     1       9.391 -16.457  31.063  1.00  0.00     0.000 C 
BRANCH  12  13
ATOM     13  C   UNL     1      10.558 -17.198  31.733  1.00  0.00    -0.000 C 
BRANCH  13  14
ATOM     14  C   UNL     1      11.132 -18.325  30.855  1.00  0.00    -0.000 C 
BRANCH  14  15
ATOM     15  C   UNL     1      10.771 -19.755  31.306  1.00  0.00    -0.000 C 
BRANCH  15  16
ATOM     16  C   UNL     1      10.059 -20.614  30.247  1.00  0.00    -0.000 C 
BRANCH  16  17
ATOM     17  C   UNL     1       9.573 -19.795  29.042  1.00  0.00    -0.000 C 
BRANCH  17  18
ATOM     18  C   UNL     1       8.071 -19.496  29.154  1.00  0.00    -0.000 C 
BRANCH  18  19
ATOM     19  C   UNL     1       7.317 -20.554  29.974  1.00  0.00    -0.003 C 
ATOM     20  C   UNL     1       6.351 -19.939  30.986  1.00  0.00     0.004 C 
ENDBRANCH  18  19
ENDBRANCH  17  18
ENDBRANCH  16  17
ENDBRANCH  15  16
ENDBRANCH  14  15
ENDBRANCH  13  14
ENDBRANCH  12  13
ENDBRANCH   1  12
TORSDOF 16
ENDMDL
MODEL 4
REMARK VINA RESULT:    -4.064      2.112      2.974
REMARK INTER + INTRA:         -10.143
REMARK INTER:                  -7.604
REMARK INTRA:                  -2.539
REMARK UNBOUND:                -2.278
REMARK SMILES CCCCCCCCCCCCCCCCCC(=O)[O-]
REMARK SMILES IDX 10 1 11 2 12 3 13 4 14 5 15 6 16 7 17 8 18 9 19 10 20 11
REMARK SMILES IDX 9 12 8 13 7 14 6 15 5 16 4 17 3 18 2 19 1 20
REMARK H PARENT
REMARK Flexibility Score: inf
ROOT
ATOM      1  C   UNL     1       8.289 -19.215  31.680  1.00  0.00     0.000 C 
ENDROOT
BRANCH   1   2
ATOM      2  C   UNL     1       7.293 -18.150  32.168  1.00  0.00     0.000 C 
BRANCH   2   3
ATOM      3  C   UNL     1       7.967 -17.055  33.013  1.00  0.00     0.000 C 
BRANCH   3   4
ATOM      4  C   UNL     1       7.405 -16.983  34.442  1.00  0.00     0.000 C 
BRANCH   4   5
ATOM      5  C   UNL     1       8.460 -17.332  35.506  1.00  0.00     0.000 C 
BRANCH   5   6
ATOM      6  C   UNL     1       9.820 -16.671  35.231  1.00  0.00     0.000 C 
BRANCH   6   7
ATOM      7  C   UNL     1      10.121 -15.505  36.184  1.00  0.00     0.006 C 
BRANCH   7   8
ATOM      8  C   UNL     1       9.617 -14.180  35.605  1.00  0.00     0.053 C 
BRANCH   8   9
ATOM      9  C   UNL     1       8.616 -13.551  36.522  1.00  0.00     0.041 C 
ATOM     10  O   UNL     1       7.896 -14.269  37.263  1.00  0.00    -0.550 OA
ATOM     11  O   UNL     1       8.449 -12.172  36.526  1.00  0.00    -0.550 OA
ENDBRANCH   8   9
ENDBRANCH   7   8
ENDBRANCH   6   7
ENDBRANCH   5   6
ENDBRANCH   4   5
ENDBRANCH   3   4
ENDBRANCH   2   3
ENDBRANCH   1   2
BRANCH   1  12
ATOM     12  C   UNL     1       9.750 -18.816  31.938  1.00  0.00     0.000 C 
BRANCH  12  13
ATOM     13  C   UNL     1      10.701 -19.578  31.003  1.00  0.00    -0.000 C 
BRANCH  13  14
ATOM     14  C   UNL     1      10.009 -20.733  30.258  1.00  0.00    -0.000 C 
BRANCH  14  15
ATOM     15  C   UNL     1      10.029 -20.628  28.720  1.00  0.00    -0.000 C 
BRANCH  15  16
ATOM     16  C   UNL     1       8.837 -19.879  28.100  1.00  0.00    -0.000 C 
BRANCH  16  17
ATOM     17  C   UNL     1       9.166 -18.421  27.746  1.00  0.00    -0.000 C 
BRANCH  17  18
ATOM     18  C   UNL     1       8.080 -17.471  28.270  1.00  0.00    -0.000 C 
BRANCH  18  19
ATOM     19  C   UNL     1       8.641 -16.393  29.210  1.00  0.00    -0.003 C 
ATOM     20  C   UNL     1      10.169 -16.350  29.212  1.00  0.00     0.004 C 
ENDBRANCH  18  19
ENDBRANCH  17  18
ENDBRANCH  16  17
ENDBRANCH  15  16
ENDBRANCH  14  15
ENDBRANCH  13  14
ENDBRANCH  12  13
ENDBRANCH   1  12
TORSDOF 16
ENDMDL
MODEL 5
REMARK VINA RESULT:    -4.055      1.390      2.467
REMARK INTER + INTRA:         -10.125
REMARK INTER:                  -7.310
REMARK INTRA:                  -2.815
REMARK UNBOUND:                -2.278
REMARK SMILES CCCCCCCCCCCCCCCCCC(=O)[O-]
REMARK SMILES IDX 10 1 11 2 12 3 13 4 14 5 15 6 16 7 17 8 18 9 19 10 20 11
REMARK SMILES IDX 9 12 8 13 7 14 6 15 5 16 4 17 3 18 2 19 1 20
REMARK H PARENT
REMARK Flexibility Score: inf
ROOT
ATOM      1  C   UNL     1       6.959 -18.910  30.322  1.00  0.00     0.000 C 
ENDROOT
BRANCH   1   2
ATOM      2  C   UNL     1       6.575 -17.862  31.380  1.00  0.00     0.000 C 
BRANCH   2   3
ATOM      3  C   UNL     1       7.278 -18.102  32.728  1.00  0.00     0.000 C 
BRANCH   3   4
ATOM      4  C   UNL     1       8.162 -16.917  33.152  1.00  0.00     0.000 C 
BRANCH   4   5
ATOM      5  C   UNL     1       8.775 -17.112  34.549  1.00  0.00     0.000 C 
BRANCH   5   6
ATOM      6  C   UNL     1       9.971 -16.182  34.806  1.00  0.00     0.000 C 
BRANCH   6   7
ATOM      7  C   UNL     1      10.369 -15.365  33.567  1.00  0.00     0.006 C 
BRANCH   7   8
ATOM      8  C   UNL     1      11.634 -14.546  33.834  1.00  0.00     0.053 C 
BRANCH   8   9
ATOM      9  C   UNL     1      11.401 -13.558  34.933  1.00  0.00     0.041 C 
ATOM     10  O   UNL     1      10.467 -12.719  34.843  1.00  0.00    -0.550 OA
ATOM     11  O   UNL     1      12.242 -13.535  36.037  1.00  0.00    -0.550 OA
ENDBRANCH   8   9
ENDBRANCH   7   8
ENDBRANCH   6   7
ENDBRANCH   5   6
ENDBRANCH   4   5
ENDBRANCH   3   4
ENDBRANCH   2   3
ENDBRANCH   1   2
BRANCH   1  12
ATOM     12  C   UNL     1       7.764 -20.077  30.913  1.00  0.00     0.000 C 
BRANCH  12  13
ATOM     13  C   UNL     1       8.787 -20.609  29.898  1.00  0.00    -0.000 C 
BRANCH  13  14
ATOM     14  C   UNL     1      10.242 -20.419  30.362  1.00  0.00    -0.000 C 
BRANCH  14  15
ATOM     15  C   UNL     1      10.444 -19.374  31.478  1.00  0.00    -0.000 C 
BRANCH  15  16
ATOM     16  C   UNL     1      11.139 -18.074  31.038  1.00  0.00    -0.000 C 
BRANCH  16  17
ATOM     17  C   UNL     1      10.202 -17.124  30.278  1.00  0.00    -0.000 C 
BRANCH  17  18
ATOM     18  C   UNL     1      10.494 -17.157  28.771  1.00  0.00    -0.000 C 
BRANCH  18  19
ATOM     19  C   UNL     1       9.254 -17.516  27.938  1.00  0.00    -0.003 C 
ATOM     20  C   UNL     1       9.555 -18.535  26.840  1.00  0.00     0.004 C 
ENDBRANCH  18  19
ENDBRANCH  17  18
ENDBRANCH  16  17
ENDBRANCH  15  16
ENDBRANCH  14  15
ENDBRANCH  13  14
ENDBRANCH  12  13
ENDBRANCH   1  12
TORSDOF 16
ENDMDL
MODEL 6
REMARK VINA RESULT:    -4.009      3.724      6.815
REMARK INTER + INTRA:         -10.037
REMARK INTER:                  -7.229
REMARK INTRA:                  -2.808
REMARK UNBOUND:                -2.278
REMARK SMILES CCCCCCCCCCCCCCCCCC(=O)[O-]
REMARK SMILES IDX 10 1 11 2 12 3 13 4 14 5 15 6 16 7 17 8 18 9 19 10 20 11
REMARK SMILES IDX 9 12 8 13 7 14 6 15 5 16 4 17 3 18 2 19 1 20
REMARK H PARENT
REMARK Flexibility Score: inf
ROOT
ATOM      1  C   UNL     1       9.529 -14.528  31.859  1.00  0.00     0.000 C 
ENDROOT
BRANCH   1   2
ATOM      2  C   UNL     1      10.623 -15.354  31.164  1.00  0.00     0.000 C 
BRANCH   2   3
ATOM      3  C   UNL     1      10.141 -16.763  30.775  1.00  0.00     0.000 C 
BRANCH   3   4
ATOM      4  C   UNL     1      11.116 -17.865  31.222  1.00  0.00     0.000 C 
BRANCH   4   5
ATOM      5  C   UNL     1      10.400 -19.189  31.537  1.00  0.00     0.000 C 
BRANCH   5   6
ATOM      6  C   UNL     1       8.870 -19.051  31.530  1.00  0.00     0.000 C 
BRANCH   6   7
ATOM      7  C   UNL     1       8.181 -20.082  30.623  1.00  0.00     0.006 C 
BRANCH   7   8
ATOM      8  C   UNL     1       9.213 -20.886  29.826  1.00  0.00     0.053 C 
BRANCH   8   9
ATOM      9  C   UNL     1       8.831 -20.947  28.381  1.00  0.00     0.041 C 
ATOM     10  O   UNL     1       9.157 -20.017  27.599  1.00  0.00    -0.550 OA
ATOM     11  O   UNL     1       8.078 -22.013  27.907  1.00  0.00    -0.550 OA
ENDBRANCH   8   9
ENDBRANCH   7   8
ENDBRANCH   6   7
ENDBRANCH   5   6
ENDBRANCH   4   5
ENDBRANCH   3   4
ENDBRANCH   2   3
ENDBRANCH   1   2
BRANCH   1  12
ATOM     12  C   UNL     1       8.133 -15.147  31.699  1.00  0.00     0.000 C 
BRANCH  12  13
ATOM     13  C   UNL     1       7.399 -15.205  33.047  1.00  0.00    -0.000 C 
BRANCH  13  14
ATOM     14  C   UNL     1       7.026 -16.639  33.463  1.00  0.00    -0.000 C 
BRANCH  14  15
ATOM     15  C   UNL     1       7.776 -17.180  34.697  1.00  0.00    -0.000 C 
BRANCH  15  16
ATOM     16  C   UNL     1       9.310 -17.103  34.615  1.00  0.00    -0.000 C 
BRANCH  16  17
ATOM     17  C   UNL     1       9.930 -16.296  35.766  1.00  0.00    -0.000 C 
BRANCH  17  18
ATOM     18  C   UNL     1      10.514 -14.971  35.254  1.00  0.00    -0.000 C 
BRANCH  18  19
ATOM     19  C   UNL     1       9.709 -13.751  35.725  1.00  0.00    -0.003 C 
ATOM     20  C   UNL     1       8.553 -14.127  36.652  1.00  0.00     0.004 C 
ENDBRANCH  18  19
ENDBRANCH  17  18
ENDBRANCH  16  17
ENDBRANCH  15  16
ENDBRANCH  14  15
ENDBRANCH  13  14
ENDBRANCH  12  13
ENDBRANCH   1  12
TORSDOF 16
ENDMDL
MODEL 7
REMARK VINA RESULT:    -3.986      2.989      6.564
REMARK INTER + INTRA:          -9.993
REMARK INTER:                  -7.149
REMARK INTRA:                  -2.844
REMARK UNBOUND:                -2.278
REMARK SMILES CCCCCCCCCCCCCCCCCC(=O)[O-]
REMARK SMILES IDX 10 1 11 2 12 3 13 4 14 5 15 6 16 7 17 8 18 9 19 10 20 11
REMARK SMILES IDX 9 12 8 13 7 14 6 15 5 16 4 17 3 18 2 19 1 20
REMARK H PARENT
REMARK Flexibility Score: inf
ROOT
ATOM      1  C   UNL     1      10.158 -17.643  31.397  1.00  0.00     0.000 C 
ENDROOT
BRANCH   1   2
ATOM      2  C   UNL     1      11.152 -18.689  30.866  1.00  0.00     0.000 C 
BRANCH   2   3
ATOM      3  C   UNL     1      10.582 -20.118  30.903  1.00  0.00     0.000 C 
BRANCH   3   4
ATOM      4  C   UNL     1       9.970 -20.543  29.557  1.00  0.00     0.000 C 
BRANCH   4   5
ATOM      5  C   UNL     1       8.558 -21.132  29.715  1.00  0.00     0.000 C 
BRANCH   5   6
ATOM      6  C   UNL     1       7.598 -20.181  30.448  1.00  0.00     0.000 C 
BRANCH   6   7
ATOM      7  C   UNL     1       6.692 -19.392  29.490  1.00  0.00     0.006 C 
BRANCH   7   8
ATOM      8  C   UNL     1       7.140 -17.931  29.391  1.00  0.00     0.053 C 
BRANCH   8   9
ATOM      9  C   UNL     1       8.039 -17.734  28.212  1.00  0.00     0.041 C 
ATOM     10  O   UNL     1       8.009 -18.545  27.250  1.00  0.00    -0.550 OA
ATOM     11  O   UNL     1       8.941 -16.678  28.194  1.00  0.00    -0.550 OA
ENDBRANCH   8   9
ENDBRANCH   7   8
ENDBRANCH   6   7
ENDBRANCH   5   6
ENDBRANCH   4   5
ENDBRANCH   3   4
ENDBRANCH   2   3
ENDBRANCH   1   2
BRANCH   1  12
ATOM     12  C   UNL     1       9.558 -18.038  32.755  1.00  0.00     0.000 C 
BRANCH  12  13
ATOM     13  C   UNL     1       8.180 -17.390  32.956  1.00  0.00    -0.000 C 
BRANCH  13  14
ATOM     14  C   UNL     1       8.043 -16.687  34.319  1.00  0.00    -0.000 C 
BRANCH  14  15
ATOM     15  C   UNL     1       9.055 -17.136  35.393  1.00  0.00    -0.000 C 
BRANCH  15  16
ATOM     16  C   UNL     1      10.042 -16.050  35.855  1.00  0.00    -0.000 C 
BRANCH  16  17
ATOM     17  C   UNL     1       9.973 -14.777  34.998  1.00  0.00    -0.000 C 
BRANCH  17  18
ATOM     18  C   UNL     1      11.236 -14.628  34.138  1.00  0.00    -0.000 C 
BRANCH  18  19
ATOM     19  C   UNL     1      10.915 -14.380  32.656  1.00  0.00    -0.003 C 
ATOM     20  C   UNL     1       9.523 -13.785  32.445  1.00  0.00     0.004 C 
ENDBRANCH  18  19
ENDBRANCH  17  18
ENDBRANCH  16  17
ENDBRANCH  15  16
ENDBRANCH  14  15
ENDBRANCH  13  14
ENDBRANCH  12  13
ENDBRANCH   1  12
TORSDOF 16
ENDMDL
MODEL 8
REMARK VINA RESULT:    -3.986      3.316      6.737
REMARK INTER + INTRA:          -9.992
REMARK INTER:                  -7.394
REMARK INTRA:                  -2.598
REMARK UNBOUND:                -2.278
REMARK SMILES CCCCCCCCCCCCCCCCCC(=O)[O-]
REMARK SMILES IDX 10 1 11 2 12 3 13 4 14 5 15 6 16 7 17 8 18 9 19 10 20 11
REMARK SMILES IDX 9 12 8 13 7 14 6 15 5 16 4 17 3 18 2 19 1 20
REMARK H PARENT
REMARK Flexibility Score: inf
ROOT
ATOM      1  C   UNL     1       9.387 -15.912  31.316  1.00  0.00     0.000 C 
ENDROOT
BRANCH   1   2
ATOM      2  C   UNL     1       9.200 -16.762  30.048  1.00  0.00     0.000 C 
BRANCH   2   3
ATOM      3  C   UNL     1      10.464 -17.561  29.683  1.00  0.00     0.000 C 
BRANCH   3   4
ATOM      4  C   UNL     1      11.109 -18.237  30.904  1.00  0.00     0.000 C 
BRANCH   4   5
ATOM      5  C   UNL     1      10.406 -19.551  31.288  1.00  0.00     0.000 C 
BRANCH   5   6
ATOM      6  C   UNL     1      10.270 -20.517  30.101  1.00  0.00     0.000 C 
BRANCH   6   7
ATOM      7  C   UNL     1       8.811 -20.895  29.802  1.00  0.00     0.006 C 
BRANCH   7   8
ATOM      8  C   UNL     1       7.847 -20.085  30.672  1.00  0.00     0.053 C 
BRANCH   8   9
ATOM      9  C   UNL     1       6.771 -19.470  29.834  1.00  0.00     0.041 C 
ATOM     10  O   UNL     1       6.680 -19.753  28.611  1.00  0.00    -0.550 OA
ATOM     11  O   UNL     1       5.894 -18.550  30.395  1.00  0.00    -0.550 OA
ENDBRANCH   8   9
ENDBRANCH   7   8
ENDBRANCH   6   7
ENDBRANCH   5   6
ENDBRANCH   4   5
ENDBRANCH   3   4
ENDBRANCH   2   3
ENDBRANCH   1   2
BRANCH   1  12
ATOM     12  C   UNL     1       8.139 -15.909  32.211  1.00  0.00     0.000 C 
BRANCH  12  13
ATOM     13  C   UNL     1       8.014 -17.230  32.985  1.00  0.00    -0.000 C 
BRANCH  13  14
ATOM     14  C   UNL     1       9.179 -17.461  33.963  1.00  0.00    -0.000 C 
BRANCH  14  15
ATOM     15  C   UNL     1       8.971 -16.884  35.379  1.00  0.00    -0.000 C 
BRANCH  15  16
ATOM     16  C   UNL     1      10.111 -15.987  35.892  1.00  0.00    -0.000 C 
BRANCH  16  17
ATOM     17  C   UNL     1       9.746 -14.495  35.885  1.00  0.00    -0.000 C 
BRANCH  17  18
ATOM     18  C   UNL     1      10.216 -13.822  34.587  1.00  0.00    -0.000 C 
BRANCH  18  19
ATOM     19  C   UNL     1      11.517 -14.433  34.044  1.00  0.00    -0.003 C 
ATOM     20  C   UNL     1      12.757 -13.636  34.450  1.00  0.00     0.004 C 
ENDBRANCH  18  19
ENDBRANCH  17  18
ENDBRANCH  16  17
ENDBRANCH  15  16
ENDBRANCH  14  15
ENDBRANCH  13  14
ENDBRANCH  12  13
ENDBRANCH   1  12
TORSDOF 16
ENDMDL
MODEL 9
REMARK VINA RESULT:    -3.971      2.885      4.627
REMARK INTER + INTRA:          -9.964
REMARK INTER:                  -8.058
REMARK INTRA:                  -1.906
REMARK UNBOUND:                -2.278
REMARK SMILES CCCCCCCCCCCCCCCCCC(=O)[O-]
REMARK SMILES IDX 10 1 11 2 12 3 13 4 14 5 15 6 16 7 17 8 18 9 19 10 20 11
REMARK SMILES IDX 9 12 8 13 7 14 6 15 5 16 4 17 3 18 2 19 1 20
REMARK H PARENT
REMARK Flexibility Score: inf
ROOT
ATOM      1  C   UNL     1       9.730 -15.254  32.394  1.00  0.00     0.000 C 
ENDROOT
BRANCH   1   2
ATOM      2  C   UNL     1      10.632 -15.628  33.581  1.00  0.00     0.000 C 
BRANCH   2   3
ATOM      3  C   UNL     1       9.892 -15.561  34.929  1.00  0.00     0.000 C 
BRANCH   3   4
ATOM      4  C   UNL     1       9.304 -16.919  35.347  1.00  0.00     0.000 C 
BRANCH   4   5
ATOM      5  C   UNL     1       7.802 -17.030  35.035  1.00  0.00     0.000 C 
BRANCH   5   6
ATOM      6  C   UNL     1       6.983 -17.532  36.235  1.00  0.00     0.000 C 
BRANCH   6   7
ATOM      7  C   UNL     1       5.914 -16.528  36.691  1.00  0.00     0.006 C 
BRANCH   7   8
ATOM      8  C   UNL     1       6.558 -15.235  37.198  1.00  0.00     0.053 C 
BRANCH   8   9
ATOM      9  C   UNL     1       5.973 -14.836  38.516  1.00  0.00     0.041 C 
ATOM     10  O   UNL     1       4.735 -14.937  38.716  1.00  0.00    -0.550 OA
ATOM     11  O   UNL     1       6.790 -14.312  39.509  1.00  0.00    -0.550 OA
ENDBRANCH   8   9
ENDBRANCH   7   8
ENDBRANCH   6   7
ENDBRANCH   5   6
ENDBRANCH   4   5
ENDBRANCH   3   4
ENDBRANCH   2   3
ENDBRANCH   1   2
BRANCH   1  12
ATOM     12  C   UNL     1       9.771 -16.300  31.270  1.00  0.00     0.000 C 
BRANCH  12  13
ATOM     13  C   UNL     1       8.791 -17.449  31.553  1.00  0.00    -0.000 C 
BRANCH  13  14
ATOM     14  C   UNL     1       9.493 -18.720  32.066  1.00  0.00    -0.000 C 
BRANCH  14  15
ATOM     15  C   UNL     1      10.641 -19.238  31.176  1.00  0.00    -0.000 C 
BRANCH  15  16
ATOM     16  C   UNL     1      10.394 -20.610  30.525  1.00  0.00    -0.000 C 
BRANCH  16  17
ATOM     17  C   UNL     1      10.021 -20.507  29.038  1.00  0.00    -0.000 C 
BRANCH  17  18
ATOM     18  C   UNL     1       8.528 -20.190  28.870  1.00  0.00    -0.000 C 
BRANCH  18  19
ATOM     19  C   UNL     1       7.631 -21.097  29.727  1.00  0.00    -0.003 C 
ATOM     20  C   UNL     1       6.549 -20.321  30.476  1.00  0.00     0.004 C 
ENDBRANCH  18  19
ENDBRANCH  17  18
ENDBRANCH  16  17
ENDBRANCH  15  16
ENDBRANCH  14  15
ENDBRANCH  13  14
ENDBRANCH  12  13
ENDBRANCH   1  12
TORSDOF 16
ENDMDL
