MODEL 1
REMARK VINA RESULT:    -6.400      0.000      0.000
REMARK INTER + INTRA:          -7.790
REMARK INTER:                  -7.523
REMARK INTRA:                  -0.268
REMARK UNBOUND:                -0.268
REMARK SMILES O=c1cc(-c2ccc(O)c(O)c2)oc2cc(O)cc(O)c12
REMARK SMILES IDX 4 1 3 2 2 3 1 4 21 5 19 6 18 7 16 8 15 9 14 10 13 11 5 12
REMARK SMILES IDX 6 13 7 14 8 15 12 16 10 17 9 18 11 20 20 22 17 24
REMARK H PARENT 9 19 11 21 20 23 17 25
REMARK Flexibility Score: inf
ROOT
ATOM      1  C   UNL     1      11.079 -15.586  15.524  1.00  0.00     0.138 A 
ATOM      2  C   UNL     1      10.153 -15.895  16.533  1.00  0.00     0.100 A 
ATOM      3  C   UNL     1       9.884 -14.958  17.531  1.00  0.00     0.197 A 
ATOM      4  O   UNL     1       9.052 -15.246  18.433  1.00  0.00    -0.289 OA
ATOM      5  C   UNL     1      10.547 -13.715  17.515  1.00  0.00     0.107 A 
ATOM      6  C   UNL     1      10.333 -12.709  18.486  1.00  0.00     0.134 A 
ATOM      7  C   UNL     1      11.039 -11.500  18.402  1.00  0.00     0.093 A 
ATOM      8  C   UNL     1      11.953 -11.278  17.369  1.00  0.00     0.123 A 
ATOM      9  C   UNL     1      12.169 -12.269  16.405  1.00  0.00     0.094 A 
ATOM     10  C   UNL     1      11.475 -13.480  16.471  1.00  0.00     0.146 A 
ATOM     11  O   UNL     1      11.697 -14.406  15.543  1.00  0.00    -0.456 OA
ENDROOT
BRANCH   1  12
ATOM     12  C   UNL     1      11.405 -16.544  14.438  1.00  0.00     0.021 A 
ATOM     13  C   UNL     1      12.204 -17.665  14.723  1.00  0.00     0.016 A 
ATOM     14  C   UNL     1      12.532 -18.579  13.717  1.00  0.00     0.051 A 
ATOM     15  C   UNL     1      12.074 -18.382  12.409  1.00  0.00     0.157 A 
ATOM     16  C   UNL     1      10.959 -16.346  13.117  1.00  0.00     0.062 A 
ATOM     17  C   UNL     1      11.291 -17.262  12.107  1.00  0.00     0.158 A 
BRANCH  15  18
ATOM     18  O   UNL     1      12.398 -19.291  11.404  1.00  0.00    -0.504 OA
ATOM     19  H   UNL     1      12.706 -18.983  10.489  1.00  0.00     0.293 HD
ENDBRANCH  15  18
BRANCH  17  20
ATOM     20  O   UNL     1      10.846 -17.063  10.801  1.00  0.00    -0.504 OA
ATOM     21  H   UNL     1      11.169 -17.643  10.036  1.00  0.00     0.293 HD
ENDBRANCH  17  20
ENDBRANCH   1  12
BRANCH   6  22
ATOM     22  O   UNL     1       9.427 -12.901  19.530  1.00  0.00    -0.507 OA
ATOM     23  H   UNL     1       8.824 -12.155  19.856  1.00  0.00     0.293 HD
ENDBRANCH   6  22
BRANCH   8  24
ATOM     24  O   UNL     1      12.641 -10.068  17.309  1.00  0.00    -0.508 OA
ATOM     25  H   UNL     1      12.356  -9.269  17.863  1.00  0.00     0.293 HD
ENDBRANCH   8  24
TORSDOF 5
ENDMDL
MODEL 2
REMARK VINA RESULT:    -6.391      1.663      7.397
REMARK INTER + INTRA:          -7.779
REMARK INTER:                  -7.489
REMARK INTRA:                  -0.291
REMARK UNBOUND:                -0.268
REMARK SMILES O=c1cc(-c2ccc(O)c(O)c2)oc2cc(O)cc(O)c12
REMARK SMILES IDX 4 1 3 2 2 3 1 4 21 5 19 6 18 7 16 8 15 9 14 10 13 11 5 12
REMARK SMILES IDX 6 13 7 14 8 15 12 16 10 17 9 18 11 20 20 22 17 24
REMARK H PARENT 9 19 11 21 20 23 17 25
REMARK Flexibility Score: inf
ROOT
ATOM      1  C   UNL     1      10.764 -15.674  14.212  1.00  0.00     0.138 A 
ATOM      2  C   UNL     1      10.410 -15.120  12.971  1.00  0.00     0.100 A 
ATOM      3  C   UNL     1      10.663 -15.836  11.801  1.00  0.00     0.197 A 
ATOM      4  O   UNL     1      10.342 -15.328  10.692  1.00  0.00    -0.289 OA
ATOM      5  C   UNL     1      11.275 -17.102  11.879  1.00  0.00     0.107 A 
ATOM      6  C   UNL     1      11.566 -17.894  10.743  1.00  0.00     0.134 A 
ATOM      7  C   UNL     1      12.182 -19.143  10.906  1.00  0.00     0.093 A 
ATOM      8  C   UNL     1      12.513 -19.615  12.179  1.00  0.00     0.123 A 
ATOM      9  C   UNL     1      12.227 -18.837  13.306  1.00  0.00     0.094 A 
ATOM     10  C   UNL     1      11.612 -17.590  13.165  1.00  0.00     0.146 A 
ATOM     11  O   UNL     1      11.350 -16.869  14.251  1.00  0.00    -0.456 OA
ENDROOT
BRANCH   1  12
ATOM     12  C   UNL     1      10.519 -14.958  15.489  1.00  0.00     0.021 A 
ATOM     13  C   UNL     1      10.399 -15.693  16.681  1.00  0.00     0.016 A 
ATOM     14  C   UNL     1      10.161 -15.043  17.896  1.00  0.00     0.051 A 
ATOM     15  C   UNL     1      10.032 -13.650  17.938  1.00  0.00     0.157 A 
ATOM     16  C   UNL     1      10.375 -13.557  15.537  1.00  0.00     0.062 A 
ATOM     17  C   UNL     1      10.135 -12.906  16.756  1.00  0.00     0.158 A 
BRANCH  15  18
ATOM     18  O   UNL     1       9.796 -12.999  19.147  1.00  0.00    -0.504 OA
ATOM     19  H   UNL     1       8.863 -12.723  19.428  1.00  0.00     0.293 HD
ENDBRANCH  15  18
BRANCH  17  20
ATOM     20  O   UNL     1       9.994 -11.520  16.800  1.00  0.00    -0.504 OA
ATOM     21  H   UNL     1      10.725 -10.924  17.169  1.00  0.00     0.293 HD
ENDBRANCH  17  20
ENDBRANCH   1  12
BRANCH   6  22
ATOM     22  O   UNL     1      11.249 -17.450   9.459  1.00  0.00    -0.507 OA
ATOM     23  H   UNL     1      10.324 -17.106   9.227  1.00  0.00     0.293 HD
ENDBRANCH   6  22
BRANCH   8  24
ATOM     24  O   UNL     1      13.125 -20.859  12.313  1.00  0.00    -0.508 OA
ATOM     25  H   UNL     1      12.893 -21.632  11.700  1.00  0.00     0.293 HD
ENDBRANCH   8  24
TORSDOF 5
ENDMDL
MODEL 3
REMARK VINA RESULT:    -6.153      3.120      5.030
REMARK INTER + INTRA:          -7.500
REMARK INTER:                  -7.195
REMARK INTRA:                  -0.305
REMARK UNBOUND:                -0.268
REMARK SMILES O=c1cc(-c2ccc(O)c(O)c2)oc2cc(O)cc(O)c12
REMARK SMILES IDX 4 1 3 2 2 3 1 4 21 5 19 6 18 7 16 8 15 9 14 10 13 11 5 12
REMARK SMILES IDX 6 13 7 14 8 15 12 16 10 17 9 18 11 20 20 22 17 24
REMARK H PARENT 9 19 11 21 20 23 17 25
REMARK Flexibility Score: inf
ROOT
ATOM      1  C   UNL     1      10.822 -15.075  12.799  1.00  0.00     0.138 A 
ATOM      2  C   UNL     1      11.798 -16.084  12.844  1.00  0.00     0.100 A 
ATOM      3  C   UNL     1      12.121 -16.674  14.067  1.00  0.00     0.197 A 
ATOM      4  O   UNL     1      12.999 -17.578  14.096  1.00  0.00    -0.289 OA
ATOM      5  C   UNL     1      11.467 -16.247  15.239  1.00  0.00     0.107 A 
ATOM      6  C   UNL     1      11.733 -16.793  16.517  1.00  0.00     0.134 A 
ATOM      7  C   UNL     1      11.042 -16.307  17.638  1.00  0.00     0.093 A 
ATOM      8  C   UNL     1      10.094 -15.290  17.505  1.00  0.00     0.123 A 
ATOM      9  C   UNL     1       9.826 -14.748  16.244  1.00  0.00     0.094 A 
ATOM     10  C   UNL     1      10.503 -15.218  15.115  1.00  0.00     0.146 A 
ATOM     11  O   UNL     1      10.230 -14.687  13.927  1.00  0.00    -0.456 OA
ENDROOT
BRANCH   1  12
ATOM     12  C   UNL     1      10.439 -14.411  11.528  1.00  0.00     0.021 A 
ATOM     13  C   UNL     1      11.401 -14.247  10.516  1.00  0.00     0.016 A 
ATOM     14  C   UNL     1      11.068 -13.618   9.313  1.00  0.00     0.051 A 
ATOM     15  C   UNL     1       9.770 -13.137   9.105  1.00  0.00     0.157 A 
ATOM     16  C   UNL     1       9.139 -13.912  11.316  1.00  0.00     0.062 A 
ATOM     17  C   UNL     1       8.805 -13.280  10.108  1.00  0.00     0.158 A 
BRANCH  15  18
ATOM     18  O   UNL     1       9.434 -12.511   7.906  1.00  0.00    -0.504 OA
ATOM     19  H   UNL     1       9.377 -11.502   7.832  1.00  0.00     0.293 HD
ENDBRANCH  15  18
BRANCH  17  20
ATOM     20  O   UNL     1       7.517 -12.789   9.902  1.00  0.00    -0.504 OA
ATOM     21  H   UNL     1       6.801 -13.349   9.454  1.00  0.00     0.293 HD
ENDBRANCH  17  20
ENDBRANCH   1  12
BRANCH   6  22
ATOM     22  O   UNL     1      12.676 -17.808  16.682  1.00  0.00    -0.507 OA
ATOM     23  H   UNL     1      13.636 -17.608  16.934  1.00  0.00     0.293 HD
ENDBRANCH   6  22
BRANCH   8  24
ATOM     24  O   UNL     1       9.422 -14.827  18.634  1.00  0.00    -0.508 OA
ATOM     25  H   UNL     1       8.506 -14.399  18.567  1.00  0.00     0.293 HD
ENDBRANCH   8  24
TORSDOF 5
ENDMDL
MODEL 4
REMARK VINA RESULT:    -6.079      1.464      7.124
REMARK INTER + INTRA:          -7.413
REMARK INTER:                  -7.135
REMARK INTRA:                  -0.277
REMARK UNBOUND:                -0.268
REMARK SMILES O=c1cc(-c2ccc(O)c(O)c2)oc2cc(O)cc(O)c12
REMARK SMILES IDX 4 1 3 2 2 3 1 4 21 5 19 6 18 7 16 8 15 9 14 10 13 11 5 12
REMARK SMILES IDX 6 13 7 14 8 15 12 16 10 17 9 18 11 20 20 22 17 24
REMARK H PARENT 9 19 11 21 20 23 17 25
REMARK Flexibility Score: inf
ROOT
ATOM      1  C   UNL     1      11.197 -15.991  14.659  1.00  0.00     0.138 A 
ATOM      2  C   UNL     1      11.929 -17.184  14.767  1.00  0.00     0.100 A 
ATOM      3  C   UNL     1      12.268 -17.890  13.612  1.00  0.00     0.197 A 
ATOM      4  O   UNL     1      12.925 -18.961  13.721  1.00  0.00    -0.289 OA
ATOM      5  C   UNL     1      11.867 -17.399  12.354  1.00  0.00     0.107 A 
ATOM      6  C   UNL     1      12.169 -18.052  11.136  1.00  0.00     0.134 A 
ATOM      7  C   UNL     1      11.727 -17.499   9.924  1.00  0.00     0.093 A 
ATOM      8  C   UNL     1      10.992 -16.312   9.908  1.00  0.00     0.123 A 
ATOM      9  C   UNL     1      10.691 -15.662  11.109  1.00  0.00     0.094 A 
ATOM     10  C   UNL     1      11.122 -16.195  12.327  1.00  0.00     0.146 A 
ATOM     11  O   UNL     1      10.825 -15.558  13.456  1.00  0.00    -0.456 OA
ENDROOT
BRANCH   1  12
ATOM     12  C   UNL     1      10.809 -15.198  15.853  1.00  0.00     0.021 A 
ATOM     13  C   UNL     1       9.985 -15.782  16.832  1.00  0.00     0.016 A 
ATOM     14  C   UNL     1       9.599 -15.055  17.961  1.00  0.00     0.051 A 
ATOM     15  C   UNL     1      10.021 -13.730  18.126  1.00  0.00     0.157 A 
ATOM     16  C   UNL     1      11.219 -13.861  16.019  1.00  0.00     0.062 A 
ATOM     17  C   UNL     1      10.829 -13.131  17.153  1.00  0.00     0.158 A 
BRANCH  15  18
ATOM     18  O   UNL     1       9.639 -13.003  19.251  1.00  0.00    -0.504 OA
ATOM     19  H   UNL     1      10.059 -12.108  19.472  1.00  0.00     0.293 HD
ENDBRANCH  15  18
BRANCH  17  20
ATOM     20  O   UNL     1      11.239 -11.808  17.315  1.00  0.00    -0.504 OA
ATOM     21  H   UNL     1      12.150 -11.578  17.692  1.00  0.00     0.293 HD
ENDBRANCH  17  20
ENDBRANCH   1  12
BRANCH   6  22
ATOM     22  O   UNL     1      12.901 -19.239  11.120  1.00  0.00    -0.507 OA
ATOM     23  H   UNL     1      13.067 -19.774  11.964  1.00  0.00     0.293 HD
ENDBRANCH   6  22
BRANCH   8  24
ATOM     24  O   UNL     1      10.565 -15.785   8.690  1.00  0.00    -0.508 OA
ATOM     25  H   UNL     1       9.699 -16.085   8.258  1.00  0.00     0.293 HD
ENDBRANCH   8  24
TORSDOF 5
ENDMDL
MODEL 5
REMARK VINA RESULT:    -6.062      2.414      7.178
REMARK INTER + INTRA:          -7.392
REMARK INTER:                  -7.095
REMARK INTRA:                  -0.297
REMARK UNBOUND:                -0.268
REMARK SMILES O=c1cc(-c2ccc(O)c(O)c2)oc2cc(O)cc(O)c12
REMARK SMILES IDX 4 1 3 2 2 3 1 4 21 5 19 6 18 7 16 8 15 9 14 10 13 11 5 12
REMARK SMILES IDX 6 13 7 14 8 15 12 16 10 17 9 18 11 20 20 22 17 24
REMARK H PARENT 9 19 11 21 20 23 17 25
REMARK Flexibility Score: inf
ROOT
ATOM      1  C   UNL     1      10.500 -14.862  13.976  1.00  0.00     0.138 A 
ATOM      2  C   UNL     1      11.277 -16.000  13.704  1.00  0.00     0.100 A 
ATOM      3  C   UNL     1      11.424 -16.433  12.385  1.00  0.00     0.197 A 
ATOM      4  O   UNL     1      12.122 -17.457  12.153  1.00  0.00    -0.289 OA
ATOM      5  C   UNL     1      10.788 -15.726  11.346  1.00  0.00     0.107 A 
ATOM      6  C   UNL     1      10.886 -16.096   9.984  1.00  0.00     0.134 A 
ATOM      7  C   UNL     1      10.217 -15.341   9.009  1.00  0.00     0.093 A 
ATOM      8  C   UNL     1       9.454 -14.227   9.369  1.00  0.00     0.123 A 
ATOM      9  C   UNL     1       9.355 -13.856  10.714  1.00  0.00     0.094 A 
ATOM     10  C   UNL     1      10.014 -14.595  11.700  1.00  0.00     0.146 A 
ATOM     11  O   UNL     1       9.904 -14.221  12.972  1.00  0.00    -0.456 OA
ENDROOT
BRANCH   1  12
ATOM     12  C   UNL     1      10.308 -14.356  15.358  1.00  0.00     0.021 A 
ATOM     13  C   UNL     1      10.097 -15.270  16.406  1.00  0.00     0.016 A 
ATOM     14  C   UNL     1       9.905 -14.819  17.715  1.00  0.00     0.051 A 
ATOM     15  C   UNL     1       9.914 -13.448  17.997  1.00  0.00     0.157 A 
ATOM     16  C   UNL     1      10.302 -12.977  15.648  1.00  0.00     0.062 A 
ATOM     17  C   UNL     1      10.108 -12.526  16.962  1.00  0.00     0.158 A 
BRANCH  15  18
ATOM     18  O   UNL     1       9.725 -12.995  19.301  1.00  0.00    -0.504 OA
ATOM     19  H   UNL     1      10.227 -13.401  20.081  1.00  0.00     0.293 HD
ENDBRANCH  15  18
BRANCH  17  20
ATOM     20  O   UNL     1      10.104 -11.160  17.245  1.00  0.00    -0.504 OA
ATOM     21  H   UNL     1       9.365 -10.734  17.791  1.00  0.00     0.293 HD
ENDBRANCH  17  20
ENDBRANCH   1  12
BRANCH   6  22
ATOM     22  O   UNL     1      11.640 -17.203   9.594  1.00  0.00    -0.507 OA
ATOM     23  H   UNL     1      11.875 -17.943  10.244  1.00  0.00     0.293 HD
ENDBRANCH   6  22
BRANCH   8  24
ATOM     24  O   UNL     1       8.800 -13.495   8.380  1.00  0.00    -0.508 OA
ATOM     25  H   UNL     1       7.997 -12.916   8.595  1.00  0.00     0.293 HD
ENDBRANCH   8  24
TORSDOF 5
ENDMDL
MODEL 6
REMARK VINA RESULT:    -6.028      1.396      7.035
REMARK INTER + INTRA:          -7.353
REMARK INTER:                  -7.089
REMARK INTRA:                  -0.264
REMARK UNBOUND:                -0.268
REMARK SMILES O=c1cc(-c2ccc(O)c(O)c2)oc2cc(O)cc(O)c12
REMARK SMILES IDX 4 1 3 2 2 3 1 4 21 5 19 6 18 7 16 8 15 9 14 10 13 11 5 12
REMARK SMILES IDX 6 13 7 14 8 15 12 16 10 17 9 18 11 20 20 22 17 24
REMARK H PARENT 9 19 11 21 20 23 17 25
REMARK Flexibility Score: inf
ROOT
ATOM      1  C   UNL     1      11.357 -14.888  15.356  1.00  0.00     0.138 A 
ATOM      2  C   UNL     1      11.838 -16.168  15.675  1.00  0.00     0.100 A 
ATOM      3  C   UNL     1      11.939 -17.135  14.674  1.00  0.00     0.197 A 
ATOM      4  O   UNL     1      12.371 -18.281  14.972  1.00  0.00    -0.289 OA
ATOM      5  C   UNL     1      11.553 -16.815  13.358  1.00  0.00     0.107 A 
ATOM      6  C   UNL     1      11.624 -17.734  12.284  1.00  0.00     0.134 A 
ATOM      7  C   UNL     1      11.214 -17.338  11.002  1.00  0.00     0.093 A 
ATOM      8  C   UNL     1      10.736 -16.046  10.774  1.00  0.00     0.123 A 
ATOM      9  C   UNL     1      10.664 -15.133  11.831  1.00  0.00     0.094 A 
ATOM     10  C   UNL     1      11.068 -15.507  13.115  1.00  0.00     0.146 A 
ATOM     11  O   UNL     1      10.991 -14.621  14.104  1.00  0.00    -0.456 OA
ENDROOT
BRANCH   1  12
ATOM     12  C   UNL     1      11.227 -13.821  16.380  1.00  0.00     0.021 A 
ATOM     13  C   UNL     1      12.040 -12.678  16.293  1.00  0.00     0.016 A 
ATOM     14  C   UNL     1      11.944 -11.662  17.248  1.00  0.00     0.051 A 
ATOM     15  C   UNL     1      11.038 -11.776  18.310  1.00  0.00     0.157 A 
ATOM     16  C   UNL     1      10.328 -13.935  17.458  1.00  0.00     0.062 A 
ATOM     17  C   UNL     1      10.233 -12.916  18.418  1.00  0.00     0.158 A 
BRANCH  15  18
ATOM     18  O   UNL     1      10.938 -10.765  19.263  1.00  0.00    -0.504 OA
ATOM     19  H   UNL     1      10.427  -9.910  19.078  1.00  0.00     0.293 HD
ENDBRANCH  15  18
BRANCH  17  20
ATOM     20  O   UNL     1       9.341 -13.032  19.483  1.00  0.00    -0.504 OA
ATOM     21  H   UNL     1       9.659 -13.024  20.445  1.00  0.00     0.293 HD
ENDBRANCH  17  20
ENDBRANCH   1  12
BRANCH   6  22
ATOM     22  O   UNL     1      12.096 -19.032  12.481  1.00  0.00    -0.507 OA
ATOM     23  H   UNL     1      12.761 -19.252  13.213  1.00  0.00     0.293 HD
ENDBRANCH   6  22
BRANCH   8  24
ATOM     24  O   UNL     1      10.335 -15.679   9.491  1.00  0.00    -0.508 OA
ATOM     25  H   UNL     1      10.443 -14.730   9.153  1.00  0.00     0.293 HD
ENDBRANCH   8  24
TORSDOF 5
ENDMDL
MODEL 7
REMARK VINA RESULT:    -5.963      1.266      7.211
REMARK INTER + INTRA:          -7.277
REMARK INTER:                  -7.010
REMARK INTRA:                  -0.267
REMARK UNBOUND:                -0.268
REMARK SMILES O=c1cc(-c2ccc(O)c(O)c2)oc2cc(O)cc(O)c12
REMARK SMILES IDX 4 1 3 2 2 3 1 4 21 5 19 6 18 7 16 8 15 9 14 10 13 11 5 12
REMARK SMILES IDX 6 13 7 14 8 15 12 16 10 17 9 18 11 20 20 22 17 24
REMARK H PARENT 9 19 11 21 20 23 17 25
REMARK Flexibility Score: inf
ROOT
ATOM      1  C   UNL     1      11.068 -14.361  15.020  1.00  0.00     0.138 A 
ATOM      2  C   UNL     1      10.421 -14.011  13.824  1.00  0.00     0.100 A 
ATOM      3  C   UNL     1      10.428 -14.904  12.751  1.00  0.00     0.197 A 
ATOM      4  O   UNL     1       9.845 -14.579  11.681  1.00  0.00    -0.289 OA
ATOM      5  C   UNL     1      11.088 -16.142  12.881  1.00  0.00     0.107 A 
ATOM      6  C   UNL     1      11.142 -17.104  11.844  1.00  0.00     0.134 A 
ATOM      7  C   UNL     1      11.825 -18.311  12.052  1.00  0.00     0.093 A 
ATOM      8  C   UNL     1      12.453 -18.574  13.272  1.00  0.00     0.123 A 
ATOM      9  C   UNL     1      12.402 -17.628  14.300  1.00  0.00     0.094 A 
ATOM     10  C   UNL     1      11.726 -16.419  14.114  1.00  0.00     0.146 A 
ATOM     11  O   UNL     1      11.691 -15.535  15.107  1.00  0.00    -0.456 OA
ENDROOT
BRANCH   1  12
ATOM     12  C   UNL     1      11.093 -13.452  16.193  1.00  0.00     0.021 A 
ATOM     13  C   UNL     1      12.017 -12.393  16.226  1.00  0.00     0.016 A 
ATOM     14  C   UNL     1      12.066 -11.527  17.322  1.00  0.00     0.051 A 
ATOM     15  C   UNL     1      11.200 -11.711  18.406  1.00  0.00     0.157 A 
ATOM     16  C   UNL     1      10.233 -13.639  17.293  1.00  0.00     0.062 A 
ATOM     17  C   UNL     1      10.285 -12.770  18.394  1.00  0.00     0.158 A 
BRANCH  15  18
ATOM     18  O   UNL     1      11.245 -10.849  19.500  1.00  0.00    -0.504 OA
ATOM     19  H   UNL     1      11.892 -10.070  19.535  1.00  0.00     0.293 HD
ENDBRANCH  15  18
BRANCH  17  20
ATOM     20  O   UNL     1       9.431 -12.957  19.480  1.00  0.00    -0.504 OA
ATOM     21  H   UNL     1       8.746 -12.259  19.743  1.00  0.00     0.293 HD
ENDBRANCH  17  20
ENDBRANCH   1  12
BRANCH   6  22
ATOM     22  O   UNL     1      10.526 -16.869  10.615  1.00  0.00    -0.507 OA
ATOM     23  H   UNL     1      10.653 -17.493   9.827  1.00  0.00     0.293 HD
ENDBRANCH   6  22
BRANCH   8  24
ATOM     24  O   UNL     1      13.125 -19.782  13.452  1.00  0.00    -0.508 OA
ATOM     25  H   UNL     1      13.107 -20.270  14.339  1.00  0.00     0.293 HD
ENDBRANCH   8  24
TORSDOF 5
ENDMDL
MODEL 8
REMARK VINA RESULT:    -5.951      1.621      2.823
REMARK INTER + INTRA:          -7.263
REMARK INTER:                  -6.998
REMARK INTRA:                  -0.264
REMARK UNBOUND:                -0.268
REMARK SMILES O=c1cc(-c2ccc(O)c(O)c2)oc2cc(O)cc(O)c12
REMARK SMILES IDX 4 1 3 2 2 3 1 4 21 5 19 6 18 7 16 8 15 9 14 10 13 11 5 12
REMARK SMILES IDX 6 13 7 14 8 15 12 16 10 17 9 18 11 20 20 22 17 24
REMARK H PARENT 9 19 11 21 20 23 17 25
REMARK Flexibility Score: inf
ROOT
ATOM      1  C   UNL     1      11.225 -15.363  14.131  1.00  0.00     0.138 A 
ATOM      2  C   UNL     1      11.321 -14.190  13.367  1.00  0.00     0.100 A 
ATOM      3  C   UNL     1      11.057 -12.956  13.963  1.00  0.00     0.197 A 
ATOM      4  O   UNL     1      11.145 -11.909  13.267  1.00  0.00    -0.289 OA
ATOM      5  C   UNL     1      10.695 -12.905  15.323  1.00  0.00     0.107 A 
ATOM      6  C   UNL     1      10.412 -11.698  16.005  1.00  0.00     0.134 A 
ATOM      7  C   UNL     1      10.052 -11.734  17.361  1.00  0.00     0.093 A 
ATOM      8  C   UNL     1       9.969 -12.949  18.045  1.00  0.00     0.123 A 
ATOM      9  C   UNL     1      10.247 -14.145  17.376  1.00  0.00     0.094 A 
ATOM     10  C   UNL     1      10.609 -14.131  16.026  1.00  0.00     0.146 A 
ATOM     11  O   UNL     1      10.870 -15.282  15.413  1.00  0.00    -0.456 OA
ENDROOT
BRANCH   1  12
ATOM     12  C   UNL     1      11.493 -16.703  13.550  1.00  0.00     0.021 A 
ATOM     13  C   UNL     1      12.587 -17.452  14.017  1.00  0.00     0.016 A 
ATOM     14  C   UNL     1      12.866 -18.713  13.480  1.00  0.00     0.051 A 
ATOM     15  C   UNL     1      12.061 -19.241  12.464  1.00  0.00     0.157 A 
ATOM     16  C   UNL     1      10.695 -17.235  12.518  1.00  0.00     0.062 A 
ATOM     17  C   UNL     1      10.977 -18.500  11.979  1.00  0.00     0.158 A 
BRANCH  15  18
ATOM     18  O   UNL     1      12.334 -20.498  11.928  1.00  0.00    -0.504 OA
ATOM     19  H   UNL     1      11.598 -21.169  11.749  1.00  0.00     0.293 HD
ENDBRANCH  15  18
BRANCH  17  20
ATOM     20  O   UNL     1      10.184 -19.023  10.959  1.00  0.00    -0.504 OA
ATOM     21  H   UNL     1       9.836 -19.974  10.993  1.00  0.00     0.293 HD
ENDBRANCH  17  20
ENDBRANCH   1  12
BRANCH   6  22
ATOM     22  O   UNL     1      10.486 -10.469  15.349  1.00  0.00    -0.507 OA
ATOM     23  H   UNL     1      10.623  -9.602  15.855  1.00  0.00     0.293 HD
ENDBRANCH   6  22
BRANCH   8  24
ATOM     24  O   UNL     1       9.608 -12.956  19.391  1.00  0.00    -0.508 OA
ATOM     25  H   UNL     1       9.896 -13.702  20.012  1.00  0.00     0.293 HD
ENDBRANCH   8  24
TORSDOF 5
ENDMDL
MODEL 9
REMARK VINA RESULT:    -5.915      1.997      7.482
REMARK INTER + INTRA:          -7.220
REMARK INTER:                  -6.902
REMARK INTRA:                  -0.318
REMARK UNBOUND:                -0.268
REMARK SMILES O=c1cc(-c2ccc(O)c(O)c2)oc2cc(O)cc(O)c12
REMARK SMILES IDX 4 1 3 2 2 3 1 4 21 5 19 6 18 7 16 8 15 9 14 10 13 11 5 12
REMARK SMILES IDX 6 13 7 14 8 15 12 16 10 17 9 18 11 20 20 22 17 24
REMARK H PARENT 9 19 11 21 20 23 17 25
REMARK Flexibility Score: inf
ROOT
ATOM      1  C   UNL     1      10.457 -14.551  13.867  1.00  0.00     0.138 A 
ATOM      2  C   UNL     1      10.612 -13.595  12.850  1.00  0.00     0.100 A 
ATOM      3  C   UNL     1      10.786 -14.016  11.531  1.00  0.00     0.197 A 
ATOM      4  O   UNL     1      10.925 -13.150  10.626  1.00  0.00    -0.289 OA
ATOM      5  C   UNL     1      10.808 -15.394  11.238  1.00  0.00     0.107 A 
ATOM      6  C   UNL     1      10.979 -15.905   9.930  1.00  0.00     0.134 A 
ATOM      7  C   UNL     1      10.995 -17.293   9.723  1.00  0.00     0.093 A 
ATOM      8  C   UNL     1      10.846 -18.176  10.796  1.00  0.00     0.123 A 
ATOM      9  C   UNL     1      10.677 -17.676  12.091  1.00  0.00     0.094 A 
ATOM     10  C   UNL     1      10.656 -16.297  12.318  1.00  0.00     0.146 A 
ATOM     11  O   UNL     1      10.493 -15.846  13.558  1.00  0.00    -0.456 OA
ENDROOT
BRANCH   1  12
ATOM     12  C   UNL     1      10.270 -14.161  15.287  1.00  0.00     0.021 A 
ATOM     13  C   UNL     1      10.398 -12.811  15.656  1.00  0.00     0.016 A 
ATOM     14  C   UNL     1      10.234 -12.419  16.988  1.00  0.00     0.051 A 
ATOM     15  C   UNL     1       9.947 -13.371  17.973  1.00  0.00     0.157 A 
ATOM     16  C   UNL     1       9.994 -15.116  16.286  1.00  0.00     0.062 A 
ATOM     17  C   UNL     1       9.831 -14.722  17.623  1.00  0.00     0.158 A 
BRANCH  15  18
ATOM     18  O   UNL     1       9.781 -12.985  19.301  1.00  0.00    -0.504 OA
ATOM     19  H   UNL     1       9.808 -12.010  19.577  1.00  0.00     0.293 HD
ENDBRANCH  15  18
BRANCH  17  20
ATOM     20  O   UNL     1       9.557 -15.669  18.608  1.00  0.00    -0.504 OA
ATOM     21  H   UNL     1       9.917 -16.614  18.550  1.00  0.00     0.293 HD
ENDBRANCH  17  20
ENDBRANCH   1  12
BRANCH   6  22
ATOM     22  O   UNL     1      11.131 -15.049   8.839  1.00  0.00    -0.507 OA
ATOM     23  H   UNL     1      11.646 -15.326   8.012  1.00  0.00     0.293 HD
ENDBRANCH   6  22
BRANCH   8  24
ATOM     24  O   UNL     1      10.867 -19.549  10.562  1.00  0.00    -0.508 OA
ATOM     25  H   UNL     1      10.118 -20.012  10.061  1.00  0.00     0.293 HD
ENDBRANCH   8  24
TORSDOF 5
ENDMDL
