MODEL 1
REMARK VINA RESULT:    -5.326      0.000      0.000
REMARK INTER + INTRA:         -11.997
REMARK INTER:                 -10.307
REMARK INTRA:                  -1.690
REMARK UNBOUND:                -1.690
REMARK SMILES CCCCCCCCCCCCCCCCCC(=O)[O-]
REMARK SMILES IDX 10 1 11 2 12 3 13 4 14 5 15 6 16 7 17 8 18 9 19 10 20 11
REMARK SMILES IDX 9 12 8 13 7 14 6 15 5 16 4 17 3 18 2 19 1 20
REMARK H PARENT
REMARK Flexibility Score: inf
ROOT
ATOM      1  C   UNL     1      33.937   6.375   8.046  1.00  0.00     0.000 C 
ENDROOT
BRANCH   1   2
ATOM      2  C   UNL     1      34.985   5.256   8.177  1.00  0.00     0.000 C 
BRANCH   2   3
ATOM      3  C   UNL     1      34.541   4.142   9.142  1.00  0.00     0.000 C 
BRANCH   3   4
ATOM      4  C   UNL     1      33.012   4.019   9.236  1.00  0.00     0.000 C 
BRANCH   4   5
ATOM      5  C   UNL     1      32.538   3.579  10.633  1.00  0.00     0.000 C 
BRANCH   5   6
ATOM      6  C   UNL     1      32.900   2.119  10.948  1.00  0.00     0.000 C 
BRANCH   6   7
ATOM      7  C   UNL     1      33.183   1.889  12.442  1.00  0.00     0.006 C 
BRANCH   7   8
ATOM      8  C   UNL     1      33.129   3.194  13.249  1.00  0.00     0.053 C 
BRANCH   8   9
ATOM      9  C   UNL     1      33.942   3.107  14.504  1.00  0.00     0.041 C 
ATOM     10  O   UNL     1      33.933   2.054  15.194  1.00  0.00    -0.550 OA
ATOM     11  O   UNL     1      34.686   4.201  14.930  1.00  0.00    -0.550 OA
ENDBRANCH   8   9
ENDBRANCH   7   8
ENDBRANCH   6   7
ENDBRANCH   5   6
ENDBRANCH   4   5
ENDBRANCH   3   4
ENDBRANCH   2   3
ENDBRANCH   1   2
BRANCH   1  12
ATOM     12  C   UNL     1      34.151   7.505   9.068  1.00  0.00     0.000 C 
BRANCH  12  13
ATOM     13  C   UNL     1      35.215   7.162  10.124  1.00  0.00    -0.000 C 
BRANCH  13  14
ATOM     14  C   UNL     1      34.985   7.794  11.513  1.00  0.00    -0.000 C 
BRANCH  14  15
ATOM     15  C   UNL     1      34.253   6.895  12.529  1.00  0.00    -0.000 C 
BRANCH  15  16
ATOM     16  C   UNL     1      32.717   6.921  12.426  1.00  0.00    -0.000 C 
BRANCH  16  17
ATOM     17  C   UNL     1      32.105   8.216  12.991  1.00  0.00    -0.000 C 
BRANCH  17  18
ATOM     18  C   UNL     1      31.360   9.031  11.922  1.00  0.00    -0.000 C 
BRANCH  18  19
ATOM     19  C   UNL     1      31.484  10.545  12.144  1.00  0.00    -0.003 C 
ATOM     20  C   UNL     1      30.111  11.209  12.181  1.00  0.00     0.004 C 
ENDBRANCH  18  19
ENDBRANCH  17  18
ENDBRANCH  16  17
ENDBRANCH  15  16
ENDBRANCH  14  15
ENDBRANCH  13  14
ENDBRANCH  12  13
ENDBRANCH   1  12
TORSDOF 16
ENDMDL
MODEL 2
REMARK VINA RESULT:    -5.163      1.748      4.715
REMARK INTER + INTRA:         -11.683
REMARK INTER:                  -9.370
REMARK INTRA:                  -2.313
REMARK UNBOUND:                -1.690
REMARK SMILES CCCCCCCCCCCCCCCCCC(=O)[O-]
REMARK SMILES IDX 10 1 11 2 12 3 13 4 14 5 15 6 16 7 17 8 18 9 19 10 20 11
REMARK SMILES IDX 9 12 8 13 7 14 6 15 5 16 4 17 3 18 2 19 1 20
REMARK H PARENT
REMARK Flexibility Score: inf
ROOT
ATOM      1  C   UNL     1      35.611   7.880  11.535  1.00  0.00     0.000 C 
ENDROOT
BRANCH   1   2
ATOM      2  C   UNL     1      34.235   8.104  12.186  1.00  0.00     0.000 C 
BRANCH   2   3
ATOM      3  C   UNL     1      33.078   7.584  11.314  1.00  0.00     0.000 C 
BRANCH   3   4
ATOM      4  C   UNL     1      31.856   7.167  12.147  1.00  0.00     0.000 C 
BRANCH   4   5
ATOM      5  C   UNL     1      31.720   5.639  12.275  1.00  0.00     0.000 C 
BRANCH   5   6
ATOM      6  C   UNL     1      32.507   4.882  11.194  1.00  0.00     0.000 C 
BRANCH   6   7
ATOM      7  C   UNL     1      33.373   3.751  11.775  1.00  0.00     0.006 C 
BRANCH   7   8
ATOM      8  C   UNL     1      32.847   3.258  13.130  1.00  0.00     0.053 C 
BRANCH   8   9
ATOM      9  C   UNL     1      33.839   3.486  14.230  1.00  0.00     0.041 C 
ATOM     10  O   UNL     1      34.456   4.581  14.309  1.00  0.00    -0.550 OA
ATOM     11  O   UNL     1      34.102   2.480  15.150  1.00  0.00    -0.550 OA
ENDBRANCH   8   9
ENDBRANCH   7   8
ENDBRANCH   6   7
ENDBRANCH   5   6
ENDBRANCH   4   5
ENDBRANCH   3   4
ENDBRANCH   2   3
ENDBRANCH   1   2
BRANCH   1  12
ATOM     12  C   UNL     1      35.982   6.390  11.438  1.00  0.00     0.000 C 
BRANCH  12  13
ATOM     13  C   UNL     1      36.536   6.001  10.057  1.00  0.00    -0.000 C 
BRANCH  13  14
ATOM     14  C   UNL     1      36.219   4.560   9.607  1.00  0.00    -0.000 C 
BRANCH  14  15
ATOM     15  C   UNL     1      35.135   4.436   8.518  1.00  0.00    -0.000 C 
BRANCH  15  16
ATOM     16  C   UNL     1      34.375   5.738   8.210  1.00  0.00    -0.000 C 
BRANCH  16  17
ATOM     17  C   UNL     1      33.260   5.543   7.168  1.00  0.00    -0.000 C 
BRANCH  17  18
ATOM     18  C   UNL     1      32.513   4.212   7.345  1.00  0.00    -0.000 C 
BRANCH  18  19
ATOM     19  C   UNL     1      31.162   4.193   6.615  1.00  0.00    -0.003 C 
ATOM     20  C   UNL     1      31.355   4.178   5.102  1.00  0.00     0.004 C 
ENDBRANCH  18  19
ENDBRANCH  17  18
ENDBRANCH  16  17
ENDBRANCH  15  16
ENDBRANCH  14  15
ENDBRANCH  13  14
ENDBRANCH  12  13
ENDBRANCH   1  12
TORSDOF 16
ENDMDL
MODEL 3
REMARK VINA RESULT:    -5.132      4.352      5.933
REMARK INTER + INTRA:         -11.622
REMARK INTER:                  -9.160
REMARK INTRA:                  -2.463
REMARK UNBOUND:                -1.690
REMARK SMILES CCCCCCCCCCCCCCCCCC(=O)[O-]
REMARK SMILES IDX 10 1 11 2 12 3 13 4 14 5 15 6 16 7 17 8 18 9 19 10 20 11
REMARK SMILES IDX 9 12 8 13 7 14 6 15 5 16 4 17 3 18 2 19 1 20
REMARK H PARENT
REMARK Flexibility Score: inf
ROOT
ATOM      1  C   UNL     1      32.359   4.617  11.783  1.00  0.00     0.000 C 
ENDROOT
BRANCH   1   2
ATOM      2  C   UNL     1      33.254   3.459  11.309  1.00  0.00     0.000 C 
BRANCH   2   3
ATOM      3  C   UNL     1      33.806   3.682   9.890  1.00  0.00     0.000 C 
BRANCH   3   4
ATOM      4  C   UNL     1      32.739   4.214   8.920  1.00  0.00     0.000 C 
BRANCH   4   5
ATOM      5  C   UNL     1      33.317   5.196   7.885  1.00  0.00     0.000 C 
BRANCH   5   6
ATOM      6  C   UNL     1      32.896   4.853   6.446  1.00  0.00     0.000 C 
BRANCH   6   7
ATOM      7  C   UNL     1      31.791   3.785   6.392  1.00  0.00     0.006 C 
BRANCH   7   8
ATOM      8  C   UNL     1      31.528   3.296   4.961  1.00  0.00     0.053 C 
BRANCH   8   9
ATOM      9  C   UNL     1      30.477   4.115   4.276  1.00  0.00     0.041 C 
ATOM     10  O   UNL     1      30.780   4.838   3.291  1.00  0.00    -0.550 OA
ATOM     11  O   UNL     1      29.169   4.103   4.744  1.00  0.00    -0.550 OA
ENDBRANCH   8   9
ENDBRANCH   7   8
ENDBRANCH   6   7
ENDBRANCH   5   6
ENDBRANCH   4   5
ENDBRANCH   3   4
ENDBRANCH   2   3
ENDBRANCH   1   2
BRANCH   1  12
ATOM     12  C   UNL     1      32.603   4.986  13.256  1.00  0.00     0.000 C 
BRANCH  12  13
ATOM     13  C   UNL     1      33.998   4.570  13.753  1.00  0.00    -0.000 C 
BRANCH  13  14
ATOM     14  C   UNL     1      35.051   5.697  13.765  1.00  0.00    -0.000 C 
BRANCH  14  15
ATOM     15  C   UNL     1      35.683   6.018  12.395  1.00  0.00    -0.000 C 
BRANCH  15  16
ATOM     16  C   UNL     1      35.393   7.433  11.864  1.00  0.00    -0.000 C 
BRANCH  16  17
ATOM     17  C   UNL     1      34.693   7.422  10.494  1.00  0.00    -0.000 C 
BRANCH  17  18
ATOM     18  C   UNL     1      33.241   7.920  10.570  1.00  0.00    -0.000 C 
BRANCH  18  19
ATOM     19  C   UNL     1      32.910   8.568  11.922  1.00  0.00    -0.003 C 
ATOM     20  C   UNL     1      31.450   8.339  12.298  1.00  0.00     0.004 C 
ENDBRANCH  18  19
ENDBRANCH  17  18
ENDBRANCH  16  17
ENDBRANCH  15  16
ENDBRANCH  14  15
ENDBRANCH  13  14
ENDBRANCH  12  13
ENDBRANCH   1  12
TORSDOF 16
ENDMDL
MODEL 4
REMARK VINA RESULT:    -5.102      1.329      2.125
REMARK INTER + INTRA:         -11.565
REMARK INTER:                  -9.704
REMARK INTRA:                  -1.861
REMARK UNBOUND:                -1.690
REMARK SMILES CCCCCCCCCCCCCCCCCC(=O)[O-]
REMARK SMILES IDX 10 1 11 2 12 3 13 4 14 5 15 6 16 7 17 8 18 9 19 10 20 11
REMARK SMILES IDX 9 12 8 13 7 14 6 15 5 16 4 17 3 18 2 19 1 20
REMARK H PARENT
REMARK Flexibility Score: inf
ROOT
ATOM      1  C   UNL     1      33.669   4.637   8.229  1.00  0.00     0.000 C 
ENDROOT
BRANCH   1   2
ATOM      2  C   UNL     1      32.384   3.795   8.298  1.00  0.00     0.000 C 
BRANCH   2   3
ATOM      3  C   UNL     1      32.537   2.555   9.195  1.00  0.00     0.000 C 
BRANCH   3   4
ATOM      4  C   UNL     1      33.549   2.772  10.332  1.00  0.00     0.000 C 
BRANCH   4   5
ATOM      5  C   UNL     1      32.870   3.058  11.684  1.00  0.00     0.000 C 
BRANCH   5   6
ATOM      6  C   UNL     1      32.483   4.536  11.851  1.00  0.00     0.000 C 
BRANCH   6   7
ATOM      7  C   UNL     1      32.550   5.003  13.315  1.00  0.00     0.006 C 
BRANCH   7   8
ATOM      8  C   UNL     1      33.547   4.177  14.140  1.00  0.00     0.053 C 
BRANCH   8   9
ATOM      9  C   UNL     1      34.772   4.966  14.487  1.00  0.00     0.041 C 
ATOM     10  O   UNL     1      35.161   5.898  13.735  1.00  0.00    -0.550 OA
ATOM     11  O   UNL     1      35.502   4.655  15.628  1.00  0.00    -0.550 OA
ENDBRANCH   8   9
ENDBRANCH   7   8
ENDBRANCH   6   7
ENDBRANCH   5   6
ENDBRANCH   4   5
ENDBRANCH   3   4
ENDBRANCH   2   3
ENDBRANCH   1   2
BRANCH   1  12
ATOM     12  C   UNL     1      33.454   5.984   7.519  1.00  0.00     0.000 C 
BRANCH  12  13
ATOM     13  C   UNL     1      34.057   7.170   8.292  1.00  0.00    -0.000 C 
BRANCH  13  14
ATOM     14  C   UNL     1      34.987   6.782   9.461  1.00  0.00    -0.000 C 
BRANCH  14  15
ATOM     15  C   UNL     1      34.605   7.383  10.829  1.00  0.00    -0.000 C 
BRANCH  15  16
ATOM     16  C   UNL     1      33.168   7.928  10.918  1.00  0.00    -0.000 C 
BRANCH  16  17
ATOM     17  C   UNL     1      32.908   8.710  12.218  1.00  0.00    -0.000 C 
BRANCH  17  18
ATOM     18  C   UNL     1      31.470   9.245  12.307  1.00  0.00    -0.000 C 
BRANCH  18  19
ATOM     19  C   UNL     1      31.407  10.778  12.246  1.00  0.00    -0.003 C 
ATOM     20  C   UNL     1      29.969  11.264  12.103  1.00  0.00     0.004 C 
ENDBRANCH  18  19
ENDBRANCH  17  18
ENDBRANCH  16  17
ENDBRANCH  15  16
ENDBRANCH  14  15
ENDBRANCH  13  14
ENDBRANCH  12  13
ENDBRANCH   1  12
TORSDOF 16
ENDMDL
MODEL 5
REMARK VINA RESULT:    -5.085      4.143      5.877
REMARK INTER + INTRA:         -11.531
REMARK INTER:                  -8.850
REMARK INTRA:                  -2.681
REMARK UNBOUND:                -1.690
REMARK SMILES CCCCCCCCCCCCCCCCCC(=O)[O-]
REMARK SMILES IDX 10 1 11 2 12 3 13 4 14 5 15 6 16 7 17 8 18 9 19 10 20 11
REMARK SMILES IDX 9 12 8 13 7 14 6 15 5 16 4 17 3 18 2 19 1 20
REMARK H PARENT
REMARK Flexibility Score: inf
ROOT
ATOM      1  C   UNL     1      36.069   6.417   9.728  1.00  0.00     0.000 C 
ENDROOT
BRANCH   1   2
ATOM      2  C   UNL     1      36.184   4.884   9.718  1.00  0.00     0.000 C 
BRANCH   2   3
ATOM      3  C   UNL     1      35.098   4.215   8.858  1.00  0.00     0.000 C 
BRANCH   3   4
ATOM      4  C   UNL     1      34.574   5.139   7.747  1.00  0.00     0.000 C 
BRANCH   4   5
ATOM      5  C   UNL     1      33.038   5.239   7.734  1.00  0.00     0.000 C 
BRANCH   5   6
ATOM      6  C   UNL     1      32.355   3.886   7.992  1.00  0.00     0.000 C 
BRANCH   6   7
ATOM      7  C   UNL     1      31.292   3.549   6.933  1.00  0.00     0.006 C 
BRANCH   7   8
ATOM      8  C   UNL     1      31.862   3.591   5.508  1.00  0.00     0.053 C 
BRANCH   8   9
ATOM      9  C   UNL     1      31.034   4.448   4.601  1.00  0.00     0.041 C 
ATOM     10  O   UNL     1      31.376   5.636   4.364  1.00  0.00    -0.550 OA
ATOM     11  O   UNL     1      29.867   3.944   4.040  1.00  0.00    -0.550 OA
ENDBRANCH   8   9
ENDBRANCH   7   8
ENDBRANCH   6   7
ENDBRANCH   5   6
ENDBRANCH   4   5
ENDBRANCH   3   4
ENDBRANCH   2   3
ENDBRANCH   1   2
BRANCH   1  12
ATOM     12  C   UNL     1      36.256   7.014  11.134  1.00  0.00     0.000 C 
BRANCH  12  13
ATOM     13  C   UNL     1      35.059   7.870  11.583  1.00  0.00    -0.000 C 
BRANCH  13  14
ATOM     14  C   UNL     1      33.756   7.640  10.788  1.00  0.00    -0.000 C 
BRANCH  14  15
ATOM     15  C   UNL     1      32.463   7.675  11.626  1.00  0.00    -0.000 C 
BRANCH  15  16
ATOM     16  C   UNL     1      32.089   6.340  12.296  1.00  0.00    -0.000 C 
BRANCH  16  17
ATOM     17  C   UNL     1      32.506   5.118  11.459  1.00  0.00    -0.000 C 
BRANCH  17  18
ATOM     18  C   UNL     1      33.469   4.187  12.212  1.00  0.00    -0.000 C 
BRANCH  18  19
ATOM     19  C   UNL     1      33.524   4.489  13.716  1.00  0.00    -0.003 C 
ATOM     20  C   UNL     1      34.824   5.196  14.088  1.00  0.00     0.004 C 
ENDBRANCH  18  19
ENDBRANCH  17  18
ENDBRANCH  16  17
ENDBRANCH  15  16
ENDBRANCH  14  15
ENDBRANCH  13  14
ENDBRANCH  12  13
ENDBRANCH   1  12
TORSDOF 16
ENDMDL
MODEL 6
REMARK VINA RESULT:    -5.069      2.461      4.323
REMARK INTER + INTRA:         -11.500
REMARK INTER:                  -9.240
REMARK INTRA:                  -2.260
REMARK UNBOUND:                -1.690
REMARK SMILES CCCCCCCCCCCCCCCCCC(=O)[O-]
REMARK SMILES IDX 10 1 11 2 12 3 13 4 14 5 15 6 16 7 17 8 18 9 19 10 20 11
REMARK SMILES IDX 9 12 8 13 7 14 6 15 5 16 4 17 3 18 2 19 1 20
REMARK H PARENT
REMARK Flexibility Score: inf
ROOT
ATOM      1  C   UNL     1      32.496   3.444   9.070  1.00  0.00     0.000 C 
ENDROOT
BRANCH   1   2
ATOM      2  C   UNL     1      33.013   4.125   7.792  1.00  0.00     0.000 C 
BRANCH   2   3
ATOM      3  C   UNL     1      34.142   5.132   8.073  1.00  0.00     0.000 C 
BRANCH   3   4
ATOM      4  C   UNL     1      33.688   6.590   7.897  1.00  0.00     0.000 C 
BRANCH   4   5
ATOM      5  C   UNL     1      34.208   7.511   9.016  1.00  0.00     0.000 C 
BRANCH   5   6
ATOM      6  C   UNL     1      34.603   6.737  10.284  1.00  0.00     0.000 C 
BRANCH   6   7
ATOM      7  C   UNL     1      35.576   7.525  11.178  1.00  0.00     0.006 C 
BRANCH   7   8
ATOM      8  C   UNL     1      36.680   6.632  11.761  1.00  0.00     0.053 C 
BRANCH   8   9
ATOM      9  C   UNL     1      37.981   6.812  11.042  1.00  0.00     0.041 C 
ATOM     10  O   UNL     1      38.002   6.937   9.790  1.00  0.00    -0.550 OA
ATOM     11  O   UNL     1      39.175   6.812  11.753  1.00  0.00    -0.550 OA
ENDBRANCH   8   9
ENDBRANCH   7   8
ENDBRANCH   6   7
ENDBRANCH   5   6
ENDBRANCH   4   5
ENDBRANCH   3   4
ENDBRANCH   2   3
ENDBRANCH   1   2
BRANCH   1  12
ATOM     12  C   UNL     1      33.574   3.350  10.165  1.00  0.00     0.000 C 
BRANCH  12  13
ATOM     13  C   UNL     1      33.025   2.812  11.497  1.00  0.00    -0.000 C 
BRANCH  13  14
ATOM     14  C   UNL     1      33.419   3.629  12.744  1.00  0.00    -0.000 C 
BRANCH  14  15
ATOM     15  C   UNL     1      33.018   5.118  12.706  1.00  0.00    -0.000 C 
BRANCH  15  16
ATOM     16  C   UNL     1      31.538   5.380  12.373  1.00  0.00    -0.000 C 
BRANCH  16  17
ATOM     17  C   UNL     1      31.281   6.825  11.909  1.00  0.00    -0.000 C 
BRANCH  17  18
ATOM     18  C   UNL     1      32.019   7.861  12.770  1.00  0.00    -0.000 C 
BRANCH  18  19
ATOM     19  C   UNL     1      32.350   9.144  11.995  1.00  0.00    -0.003 C 
ATOM     20  C   UNL     1      31.287  10.214  12.224  1.00  0.00     0.004 C 
ENDBRANCH  18  19
ENDBRANCH  17  18
ENDBRANCH  16  17
ENDBRANCH  15  16
ENDBRANCH  14  15
ENDBRANCH  13  14
ENDBRANCH  12  13
ENDBRANCH   1  12
TORSDOF 16
ENDMDL
MODEL 7
REMARK VINA RESULT:    -5.059      4.057      6.194
REMARK INTER + INTRA:         -11.480
REMARK INTER:                  -8.935
REMARK INTRA:                  -2.545
REMARK UNBOUND:                -1.690
REMARK SMILES CCCCCCCCCCCCCCCCCC(=O)[O-]
REMARK SMILES IDX 10 1 11 2 12 3 13 4 14 5 15 6 16 7 17 8 18 9 19 10 20 11
REMARK SMILES IDX 9 12 8 13 7 14 6 15 5 16 4 17 3 18 2 19 1 20
REMARK H PARENT
REMARK Flexibility Score: inf
ROOT
ATOM      1  C   UNL     1      32.924   3.968  12.524  1.00  0.00     0.000 C 
ENDROOT
BRANCH   1   2
ATOM      2  C   UNL     1      32.909   4.111  10.992  1.00  0.00     0.000 C 
BRANCH   2   3
ATOM      3  C   UNL     1      34.255   3.731  10.351  1.00  0.00     0.000 C 
BRANCH   3   4
ATOM      4  C   UNL     1      34.342   4.150   8.875  1.00  0.00     0.000 C 
BRANCH   4   5
ATOM      5  C   UNL     1      33.040   4.792   8.362  1.00  0.00     0.000 C 
BRANCH   5   6
ATOM      6  C   UNL     1      33.249   5.610   7.078  1.00  0.00     0.000 C 
BRANCH   6   7
ATOM      7  C   UNL     1      32.507   5.013   5.870  1.00  0.00     0.006 C 
BRANCH   7   8
ATOM      8  C   UNL     1      31.347   4.102   6.295  1.00  0.00     0.053 C 
BRANCH   8   9
ATOM      9  C   UNL     1      30.331   3.947   5.206  1.00  0.00     0.041 C 
ATOM     10  O   UNL     1      30.670   3.486   4.084  1.00  0.00    -0.550 OA
ATOM     11  O   UNL     1      29.015   4.337   5.419  1.00  0.00    -0.550 OA
ENDBRANCH   8   9
ENDBRANCH   7   8
ENDBRANCH   6   7
ENDBRANCH   5   6
ENDBRANCH   4   5
ENDBRANCH   3   4
ENDBRANCH   2   3
ENDBRANCH   1   2
BRANCH   1  12
ATOM     12  C   UNL     1      32.567   5.280  13.242  1.00  0.00     0.000 C 
BRANCH  12  13
ATOM     13  C   UNL     1      31.791   6.260  12.345  1.00  0.00    -0.000 C 
BRANCH  13  14
ATOM     14  C   UNL     1      32.001   7.752  12.672  1.00  0.00    -0.000 C 
BRANCH  14  15
ATOM     15  C   UNL     1      33.113   8.450  11.863  1.00  0.00    -0.000 C 
BRANCH  15  16
ATOM     16  C   UNL     1      33.324   7.897  10.442  1.00  0.00    -0.000 C 
BRANCH  16  17
ATOM     17  C   UNL     1      34.790   7.520  10.163  1.00  0.00    -0.000 C 
BRANCH  17  18
ATOM     18  C   UNL     1      35.678   7.642  11.410  1.00  0.00    -0.000 C 
BRANCH  18  19
ATOM     19  C   UNL     1      36.457   6.353  11.708  1.00  0.00    -0.003 C 
ATOM     20  C   UNL     1      37.493   6.074  10.624  1.00  0.00     0.004 C 
ENDBRANCH  18  19
ENDBRANCH  17  18
ENDBRANCH  16  17
ENDBRANCH  15  16
ENDBRANCH  14  15
ENDBRANCH  13  14
ENDBRANCH  12  13
ENDBRANCH   1  12
TORSDOF 16
ENDMDL
MODEL 8
REMARK VINA RESULT:    -5.056      2.414      4.326
REMARK INTER + INTRA:         -11.475
REMARK INTER:                  -9.553
REMARK INTRA:                  -1.922
REMARK UNBOUND:                -1.690
REMARK SMILES CCCCCCCCCCCCCCCCCC(=O)[O-]
REMARK SMILES IDX 10 1 11 2 12 3 13 4 14 5 15 6 16 7 17 8 18 9 19 10 20 11
REMARK SMILES IDX 9 12 8 13 7 14 6 15 5 16 4 17 3 18 2 19 1 20
REMARK H PARENT
REMARK Flexibility Score: inf
ROOT
ATOM      1  C   UNL     1      33.545   3.128  10.947  1.00  0.00     0.000 C 
ENDROOT
BRANCH   1   2
ATOM      2  C   UNL     1      32.695   4.114  10.129  1.00  0.00     0.000 C 
BRANCH   2   3
ATOM      3  C   UNL     1      32.918   3.970   8.613  1.00  0.00     0.000 C 
BRANCH   3   4
ATOM      4  C   UNL     1      34.073   4.846   8.102  1.00  0.00     0.000 C 
BRANCH   4   5
ATOM      5  C   UNL     1      33.857   6.341   8.395  1.00  0.00     0.000 C 
BRANCH   5   6
ATOM      6  C   UNL     1      34.759   6.858   9.527  1.00  0.00     0.000 C 
BRANCH   6   7
ATOM      7  C   UNL     1      36.039   6.021   9.692  1.00  0.00     0.006 C 
BRANCH   7   8
ATOM      8  C   UNL     1      36.775   6.341  11.001  1.00  0.00     0.053 C 
BRANCH   8   9
ATOM      9  C   UNL     1      38.176   6.809  10.753  1.00  0.00     0.041 C 
ATOM     10  O   UNL     1      38.514   7.223   9.613  1.00  0.00    -0.550 OA
ATOM     11  O   UNL     1      39.118   6.761  11.773  1.00  0.00    -0.550 OA
ENDBRANCH   8   9
ENDBRANCH   7   8
ENDBRANCH   6   7
ENDBRANCH   5   6
ENDBRANCH   4   5
ENDBRANCH   3   4
ENDBRANCH   2   3
ENDBRANCH   1   2
BRANCH   1  12
ATOM     12  C   UNL     1      32.929   2.820  12.323  1.00  0.00     0.000 C 
BRANCH  12  13
ATOM     13  C   UNL     1      32.688   4.084  13.165  1.00  0.00    -0.000 C 
BRANCH  13  14
ATOM     14  C   UNL     1      33.961   4.863  13.554  1.00  0.00    -0.000 C 
BRANCH  14  15
ATOM     15  C   UNL     1      34.007   6.327  13.072  1.00  0.00    -0.000 C 
BRANCH  15  16
ATOM     16  C   UNL     1      32.641   6.927  12.694  1.00  0.00    -0.000 C 
BRANCH  16  17
ATOM     17  C   UNL     1      32.741   8.396  12.244  1.00  0.00    -0.000 C 
BRANCH  17  18
ATOM     18  C   UNL     1      31.366   9.072  12.129  1.00  0.00    -0.000 C 
BRANCH  18  19
ATOM     19  C   UNL     1      31.447  10.599  12.268  1.00  0.00    -0.003 C 
ATOM     20  C   UNL     1      30.075  11.240  12.085  1.00  0.00     0.004 C 
ENDBRANCH  18  19
ENDBRANCH  17  18
ENDBRANCH  16  17
ENDBRANCH  15  16
ENDBRANCH  14  15
ENDBRANCH  13  14
ENDBRANCH  12  13
ENDBRANCH   1  12
TORSDOF 16
ENDMDL
MODEL 9
REMARK VINA RESULT:    -5.016      2.568      5.424
REMARK INTER + INTRA:         -11.397
REMARK INTER:                  -8.838
REMARK INTRA:                  -2.559
REMARK UNBOUND:                -1.690
REMARK SMILES CCCCCCCCCCCCCCCCCC(=O)[O-]
REMARK SMILES IDX 10 1 11 2 12 3 13 4 14 5 15 6 16 7 17 8 18 9 19 10 20 11
REMARK SMILES IDX 9 12 8 13 7 14 6 15 5 16 4 17 3 18 2 19 1 20
REMARK H PARENT
REMARK Flexibility Score: inf
ROOT
ATOM      1  C   UNL     1      32.179   3.747   9.423  1.00  0.00     0.000 C 
ENDROOT
BRANCH   1   2
ATOM      2  C   UNL     1      32.935   2.574  10.071  1.00  0.00     0.000 C 
BRANCH   2   3
ATOM      3  C   UNL     1      33.248   2.821  11.557  1.00  0.00     0.000 C 
BRANCH   3   4
ATOM      4  C   UNL     1      32.717   4.176  12.053  1.00  0.00     0.000 C 
BRANCH   4   5
ATOM      5  C   UNL     1      33.494   4.707  13.271  1.00  0.00     0.000 C 
BRANCH   5   6
ATOM      6  C   UNL     1      34.247   6.012  12.969  1.00  0.00     0.000 C 
BRANCH   6   7
ATOM      7  C   UNL     1      33.815   6.649  11.637  1.00  0.00     0.006 C 
BRANCH   7   8
ATOM      8  C   UNL     1      33.504   8.145  11.784  1.00  0.00     0.053 C 
BRANCH   8   9
ATOM      9  C   UNL     1      32.070   8.383  12.147  1.00  0.00     0.041 C 
ATOM     10  O   UNL     1      31.279   7.412  12.277  1.00  0.00    -0.550 OA
ATOM     11  O   UNL     1      31.600   9.679  12.314  1.00  0.00    -0.550 OA
ENDBRANCH   8   9
ENDBRANCH   7   8
ENDBRANCH   6   7
ENDBRANCH   5   6
ENDBRANCH   4   5
ENDBRANCH   3   4
ENDBRANCH   2   3
ENDBRANCH   1   2
BRANCH   1  12
ATOM     12  C   UNL     1      32.115   3.633   7.890  1.00  0.00     0.000 C 
BRANCH  12  13
ATOM     13  C   UNL     1      32.990   4.678   7.177  1.00  0.00    -0.000 C 
BRANCH  13  14
ATOM     14  C   UNL     1      33.558   5.786   8.088  1.00  0.00    -0.000 C 
BRANCH  14  15
ATOM     15  C   UNL     1      35.089   5.761   8.273  1.00  0.00    -0.000 C 
BRANCH  15  16
ATOM     16  C   UNL     1      35.618   4.602   9.137  1.00  0.00    -0.000 C 
BRANCH  16  17
ATOM     17  C   UNL     1      36.774   5.029  10.059  1.00  0.00    -0.000 C 
BRANCH  17  18
ATOM     18  C   UNL     1      37.024   6.544  10.029  1.00  0.00    -0.000 C 
BRANCH  18  19
ATOM     19  C   UNL     1      37.595   7.074  11.352  1.00  0.00    -0.003 C 
ATOM     20  C   UNL     1      39.083   6.759  11.474  1.00  0.00     0.004 C 
ENDBRANCH  18  19
ENDBRANCH  17  18
ENDBRANCH  16  17
ENDBRANCH  15  16
ENDBRANCH  14  15
ENDBRANCH  13  14
ENDBRANCH  12  13
ENDBRANCH   1  12
TORSDOF 16
ENDMDL
