MODEL 1
REMARK VINA RESULT:    -7.077      0.000      0.000
REMARK INTER + INTRA:          -8.655
REMARK INTER:                  -8.526
REMARK INTRA:                  -0.130
REMARK UNBOUND:                -0.130
REMARK SMILES O=c1c(O)c(-c2ccc(O)cc2O)oc2cc(O)cc(O)c12
REMARK SMILES IDX 5 1 3 2 2 3 1 4 22 5 20 6 19 7 17 8 16 9 15 10 14 11 6 12
REMARK SMILES IDX 8 13 7 14 9 15 11 16 12 17 10 18 13 20 4 22 21 24 18 26
REMARK H PARENT 10 19 13 21 4 23 21 25 18 27
REMARK Flexibility Score: inf
ROOT
ATOM      1  C   UNL     1      28.717  23.166  49.711  1.00  0.00     0.184 A 
ATOM      2  C   UNL     1      29.974  22.629  50.040  1.00  0.00     0.208 A 
ATOM      3  C   UNL     1      30.239  22.295  51.377  1.00  0.00     0.238 A 
ATOM      4  O   UNL     1      31.368  21.824  51.687  1.00  0.00    -0.285 OA
ATOM      5  C   UNL     1      29.240  22.486  52.354  1.00  0.00     0.111 A 
ATOM      6  C   UNL     1      29.425  22.171  53.722  1.00  0.00     0.134 A 
ATOM      7  C   UNL     1      28.378  22.382  54.631  1.00  0.00     0.093 A 
ATOM      8  C   UNL     1      27.153  22.896  54.201  1.00  0.00     0.123 A 
ATOM      9  C   UNL     1      26.963  23.208  52.851  1.00  0.00     0.094 A 
ATOM     10  C   UNL     1      27.995  23.008  51.928  1.00  0.00     0.146 A 
ATOM     11  O   UNL     1      27.792  23.317  50.653  1.00  0.00    -0.451 OA
ENDROOT
BRANCH   1  12
ATOM     12  C   UNL     1      28.376  23.549  48.325  1.00  0.00     0.063 A 
ATOM     13  C   UNL     1      29.022  24.650  46.256  1.00  0.00     0.047 A 
ATOM     14  C   UNL     1      29.310  24.278  47.571  1.00  0.00     0.020 A 
ATOM     15  C   UNL     1      27.803  24.286  45.672  1.00  0.00     0.119 A 
ATOM     16  C   UNL     1      26.877  23.539  46.407  1.00  0.00     0.093 A 
ATOM     17  C   UNL     1      27.161  23.156  47.727  1.00  0.00     0.130 A 
BRANCH  15  18
ATOM     18  O   UNL     1      27.504  24.655  44.363  1.00  0.00    -0.508 OA
ATOM     19  H   UNL     1      26.597  25.029  44.112  1.00  0.00     0.293 HD
ENDBRANCH  15  18
BRANCH  17  20
ATOM     20  O   UNL     1      26.249  22.369  48.432  1.00  0.00    -0.507 OA
ATOM     21  H   UNL     1      26.233  21.361  48.337  1.00  0.00     0.293 HD
ENDBRANCH  17  20
ENDBRANCH   1  12
BRANCH   2  22
ATOM     22  O   UNL     1      30.927  22.411  49.042  1.00  0.00    -0.502 OA
ATOM     23  H   UNL     1      31.400  21.523  48.929  1.00  0.00     0.293 HD
ENDBRANCH   2  22
BRANCH   6  24
ATOM     24  O   UNL     1      30.637  21.656  54.183  1.00  0.00    -0.507 OA
ATOM     25  H   UNL     1      30.932  21.768  55.146  1.00  0.00     0.293 HD
ENDBRANCH   6  24
BRANCH   8  26
ATOM     26  O   UNL     1      26.129  23.093  55.125  1.00  0.00    -0.508 OA
ATOM     27  H   UNL     1      26.238  23.724  55.911  1.00  0.00     0.293 HD
ENDBRANCH   8  26
TORSDOF 6
ENDMDL
MODEL 2
REMARK VINA RESULT:    -6.905     12.079     13.702
REMARK INTER + INTRA:          -8.447
REMARK INTER:                  -8.108
REMARK INTRA:                  -0.339
REMARK UNBOUND:                -0.130
REMARK SMILES O=c1c(O)c(-c2ccc(O)cc2O)oc2cc(O)cc(O)c12
REMARK SMILES IDX 5 1 3 2 2 3 1 4 22 5 20 6 19 7 17 8 16 9 15 10 14 11 6 12
REMARK SMILES IDX 8 13 7 14 9 15 11 16 12 17 10 18 13 20 4 22 21 24 18 26
REMARK H PARENT 10 19 13 21 4 23 21 25 18 27
REMARK Flexibility Score: inf
ROOT
ATOM      1  C   UNL     1      18.458  24.423  41.641  1.00  0.00     0.184 A 
ATOM      2  C   UNL     1      17.218  24.107  42.224  1.00  0.00     0.208 A 
ATOM      3  C   UNL     1      16.800  24.821  43.358  1.00  0.00     0.238 A 
ATOM      4  O   UNL     1      15.694  24.539  43.896  1.00  0.00    -0.285 OA
ATOM      5  C   UNL     1      17.618  25.846  43.876  1.00  0.00     0.111 A 
ATOM      6  C   UNL     1      17.269  26.616  45.012  1.00  0.00     0.134 A 
ATOM      7  C   UNL     1      18.133  27.625  45.460  1.00  0.00     0.093 A 
ATOM      8  C   UNL     1      19.335  27.882  44.796  1.00  0.00     0.123 A 
ATOM      9  C   UNL     1      19.686  27.126  43.673  1.00  0.00     0.094 A 
ATOM     10  C   UNL     1      18.839  26.114  43.210  1.00  0.00     0.146 A 
ATOM     11  O   UNL     1      19.197  25.407  42.145  1.00  0.00    -0.451 OA
ENDROOT
BRANCH   1  12
ATOM     12  C   UNL     1      18.963  23.704  40.453  1.00  0.00     0.063 A 
ATOM     13  C   UNL     1      20.476  22.049  39.515  1.00  0.00     0.047 A 
ATOM     14  C   UNL     1      19.981  22.751  40.616  1.00  0.00     0.020 A 
ATOM     15  C   UNL     1      19.949  22.279  38.239  1.00  0.00     0.119 A 
ATOM     16  C   UNL     1      18.918  23.208  38.071  1.00  0.00     0.093 A 
ATOM     17  C   UNL     1      18.411  23.914  39.173  1.00  0.00     0.130 A 
BRANCH  15  18
ATOM     18  O   UNL     1      20.438  21.587  37.133  1.00  0.00    -0.508 OA
ATOM     19  H   UNL     1      21.288  21.038  37.186  1.00  0.00     0.293 HD
ENDBRANCH  15  18
BRANCH  17  20
ATOM     20  O   UNL     1      17.349  24.802  38.999  1.00  0.00    -0.507 OA
ATOM     21  H   UNL     1      16.575  24.839  39.651  1.00  0.00     0.293 HD
ENDBRANCH  17  20
ENDBRANCH   1  12
BRANCH   2  22
ATOM     22  O   UNL     1      16.410  23.116  41.660  1.00  0.00    -0.502 OA
ATOM     23  H   UNL     1      16.389  22.168  42.015  1.00  0.00     0.293 HD
ENDBRANCH   2  22
BRANCH   6  24
ATOM     24  O   UNL     1      16.076  26.385  45.697  1.00  0.00    -0.507 OA
ATOM     25  H   UNL     1      15.412  25.682  45.391  1.00  0.00     0.293 HD
ENDBRANCH   6  24
BRANCH   8  26
ATOM     26  O   UNL     1      20.175  28.892  45.262  1.00  0.00    -0.508 OA
ATOM     27  H   UNL     1      20.320  29.745  44.735  1.00  0.00     0.293 HD
ENDBRANCH   8  26
TORSDOF 6
ENDMDL
MODEL 3
REMARK VINA RESULT:    -6.832     12.388     13.394
REMARK INTER + INTRA:          -8.360
REMARK INTER:                  -7.944
REMARK INTRA:                  -0.415
REMARK UNBOUND:                -0.130
REMARK SMILES O=c1c(O)c(-c2ccc(O)cc2O)oc2cc(O)cc(O)c12
REMARK SMILES IDX 5 1 3 2 2 3 1 4 22 5 20 6 19 7 17 8 16 9 15 10 14 11 6 12
REMARK SMILES IDX 8 13 7 14 9 15 11 16 12 17 10 18 13 20 4 22 21 24 18 26
REMARK H PARENT 10 19 13 21 4 23 21 25 18 27
REMARK Flexibility Score: inf
ROOT
ATOM      1  C   UNL     1      19.221  24.946  41.242  1.00  0.00     0.184 A 
ATOM      2  C   UNL     1      20.072  26.038  41.491  1.00  0.00     0.208 A 
ATOM      3  C   UNL     1      19.844  26.830  42.627  1.00  0.00     0.238 A 
ATOM      4  O   UNL     1      20.593  27.819  42.854  1.00  0.00    -0.285 OA
ATOM      5  C   UNL     1      18.785  26.507  43.500  1.00  0.00     0.111 A 
ATOM      6  C   UNL     1      18.490  27.250  44.668  1.00  0.00     0.134 A 
ATOM      7  C   UNL     1      17.424  26.858  45.491  1.00  0.00     0.093 A 
ATOM      8  C   UNL     1      16.651  25.740  45.173  1.00  0.00     0.123 A 
ATOM      9  C   UNL     1      16.937  25.000  44.021  1.00  0.00     0.094 A 
ATOM     10  C   UNL     1      17.994  25.375  43.185  1.00  0.00     0.146 A 
ATOM     11  O   UNL     1      18.242  24.659  42.095  1.00  0.00    -0.451 OA
ENDROOT
BRANCH   1  12
ATOM     12  C   UNL     1      19.398  24.079  40.059  1.00  0.00     0.063 A 
ATOM     13  C   UNL     1      20.305  22.038  39.098  1.00  0.00     0.047 A 
ATOM     14  C   UNL     1      20.124  22.884  40.195  1.00  0.00     0.020 A 
ATOM     15  C   UNL     1      19.752  22.368  37.856  1.00  0.00     0.119 A 
ATOM     16  C   UNL     1      19.008  23.544  37.717  1.00  0.00     0.093 A 
ATOM     17  C   UNL     1      18.815  24.396  38.815  1.00  0.00     0.130 A 
BRANCH  15  18
ATOM     18  O   UNL     1      19.930  21.533  36.755  1.00  0.00    -0.508 OA
ATOM     19  H   UNL     1      19.318  21.583  35.949  1.00  0.00     0.293 HD
ENDBRANCH  15  18
BRANCH  17  20
ATOM     20  O   UNL     1      18.030  25.541  38.675  1.00  0.00    -0.507 OA
ATOM     21  H   UNL     1      17.828  25.939  37.766  1.00  0.00     0.293 HD
ENDBRANCH  17  20
ENDBRANCH   1  12
BRANCH   2  22
ATOM     22  O   UNL     1      21.139  26.306  40.630  1.00  0.00    -0.502 OA
ATOM     23  H   UNL     1      22.061  26.550  40.971  1.00  0.00     0.293 HD
ENDBRANCH   2  22
BRANCH   6  24
ATOM     24  O   UNL     1      19.243  28.372  45.015  1.00  0.00    -0.507 OA
ATOM     25  H   UNL     1      18.907  29.054  45.685  1.00  0.00     0.293 HD
ENDBRANCH   6  24
BRANCH   8  26
ATOM     26  O   UNL     1      15.599  25.371  46.009  1.00  0.00    -0.508 OA
ATOM     27  H   UNL     1      15.506  25.752  46.944  1.00  0.00     0.293 HD
ENDBRANCH   8  26
TORSDOF 6
ENDMDL
MODEL 4
REMARK VINA RESULT:    -6.405     12.820     15.326
REMARK INTER + INTRA:          -7.845
REMARK INTER:                  -7.422
REMARK INTRA:                  -0.423
REMARK UNBOUND:                -0.130
REMARK SMILES O=c1c(O)c(-c2ccc(O)cc2O)oc2cc(O)cc(O)c12
REMARK SMILES IDX 5 1 3 2 2 3 1 4 22 5 20 6 19 7 17 8 16 9 15 10 14 11 6 12
REMARK SMILES IDX 8 13 7 14 9 15 11 16 12 17 10 18 13 20 4 22 21 24 18 26
REMARK H PARENT 10 19 13 21 4 23 21 25 18 27
REMARK Flexibility Score: inf
ROOT
ATOM      1  C   UNL     1      17.241  25.081  42.342  1.00  0.00     0.184 A 
ATOM      2  C   UNL     1      16.417  25.422  41.255  1.00  0.00     0.208 A 
ATOM      3  C   UNL     1      16.739  24.933  39.979  1.00  0.00     0.238 A 
ATOM      4  O   UNL     1      16.014  25.241  38.994  1.00  0.00    -0.285 OA
ATOM      5  C   UNL     1      17.865  24.099  39.818  1.00  0.00     0.111 A 
ATOM      6  C   UNL     1      18.257  23.561  38.568  1.00  0.00     0.134 A 
ATOM      7  C   UNL     1      19.385  22.731  38.492  1.00  0.00     0.093 A 
ATOM      8  C   UNL     1      20.127  22.428  39.635  1.00  0.00     0.123 A 
ATOM      9  C   UNL     1      19.745  22.956  40.873  1.00  0.00     0.094 A 
ATOM     10  C   UNL     1      18.624  23.786  40.971  1.00  0.00     0.146 A 
ATOM     11  O   UNL     1      18.285  24.279  42.157  1.00  0.00    -0.451 OA
ENDROOT
BRANCH   1  12
ATOM     12  C   UNL     1      16.965  25.571  43.708  1.00  0.00     0.063 A 
ATOM     13  C   UNL     1      15.686  25.371  45.766  1.00  0.00     0.047 A 
ATOM     14  C   UNL     1      15.969  24.937  44.469  1.00  0.00     0.020 A 
ATOM     15  C   UNL     1      16.405  26.434  46.325  1.00  0.00     0.119 A 
ATOM     16  C   UNL     1      17.415  27.055  45.583  1.00  0.00     0.093 A 
ATOM     17  C   UNL     1      17.709  26.622  44.282  1.00  0.00     0.130 A 
BRANCH  15  18
ATOM     18  O   UNL     1      16.130  26.877  47.616  1.00  0.00    -0.508 OA
ATOM     19  H   UNL     1      16.853  27.271  48.207  1.00  0.00     0.293 HD
ENDBRANCH  15  18
BRANCH  17  20
ATOM     20  O   UNL     1      18.752  27.218  43.571  1.00  0.00    -0.507 OA
ATOM     21  H   UNL     1      19.570  26.692  43.289  1.00  0.00     0.293 HD
ENDBRANCH  17  20
ENDBRANCH   1  12
BRANCH   2  22
ATOM     22  O   UNL     1      15.283  26.214  41.455  1.00  0.00    -0.502 OA
ATOM     23  H   UNL     1      14.626  26.038  42.205  1.00  0.00     0.293 HD
ENDBRANCH   2  22
BRANCH   6  24
ATOM     24  O   UNL     1      17.538  23.844  37.407  1.00  0.00    -0.507 OA
ATOM     25  H   UNL     1      17.886  23.593  36.489  1.00  0.00     0.293 HD
ENDBRANCH   6  24
BRANCH   8  26
ATOM     26  O   UNL     1      21.242  21.600  39.532  1.00  0.00    -0.508 OA
ATOM     27  H   UNL     1      21.406  21.032  38.709  1.00  0.00     0.293 HD
ENDBRANCH   8  26
TORSDOF 6
ENDMDL
MODEL 5
REMARK VINA RESULT:    -6.282     12.045     14.519
REMARK INTER + INTRA:          -7.697
REMARK INTER:                  -7.507
REMARK INTRA:                  -0.190
REMARK UNBOUND:                -0.130
REMARK SMILES O=c1c(O)c(-c2ccc(O)cc2O)oc2cc(O)cc(O)c12
REMARK SMILES IDX 5 1 3 2 2 3 1 4 22 5 20 6 19 7 17 8 16 9 15 10 14 11 6 12
REMARK SMILES IDX 8 13 7 14 9 15 11 16 12 17 10 18 13 20 4 22 21 24 18 26
REMARK H PARENT 10 19 13 21 4 23 21 25 18 27
REMARK Flexibility Score: inf
ROOT
ATOM      1  C   UNL     1      17.345  26.184  44.179  1.00  0.00     0.184 A 
ATOM      2  C   UNL     1      16.655  25.732  43.039  1.00  0.00     0.208 A 
ATOM      3  C   UNL     1      17.283  25.819  41.787  1.00  0.00     0.238 A 
ATOM      4  O   UNL     1      16.670  25.428  40.757  1.00  0.00    -0.285 OA
ATOM      5  C   UNL     1      18.592  26.336  41.700  1.00  0.00     0.111 A 
ATOM      6  C   UNL     1      19.298  26.453  40.478  1.00  0.00     0.134 A 
ATOM      7  C   UNL     1      20.602  26.969  40.476  1.00  0.00     0.093 A 
ATOM      8  C   UNL     1      21.214  27.367  41.666  1.00  0.00     0.123 A 
ATOM      9  C   UNL     1      20.523  27.253  42.877  1.00  0.00     0.094 A 
ATOM     10  C   UNL     1      19.221  26.743  42.902  1.00  0.00     0.146 A 
ATOM     11  O   UNL     1      18.584  26.650  44.063  1.00  0.00    -0.451 OA
ENDROOT
BRANCH   1  12
ATOM     12  C   UNL     1      16.737  26.131  45.525  1.00  0.00     0.063 A 
ATOM     13  C   UNL     1      15.602  24.836  47.241  1.00  0.00     0.047 A 
ATOM     14  C   UNL     1      16.179  24.923  45.972  1.00  0.00     0.020 A 
ATOM     15  C   UNL     1      15.589  25.952  48.086  1.00  0.00     0.119 A 
ATOM     16  C   UNL     1      16.165  27.153  47.658  1.00  0.00     0.093 A 
ATOM     17  C   UNL     1      16.751  27.247  46.387  1.00  0.00     0.130 A 
BRANCH  15  18
ATOM     18  O   UNL     1      15.014  25.879  49.352  1.00  0.00    -0.508 OA
ATOM     19  H   UNL     1      15.518  26.173  50.180  1.00  0.00     0.293 HD
ENDBRANCH  15  18
BRANCH  17  20
ATOM     20  O   UNL     1      17.365  28.436  45.992  1.00  0.00    -0.507 OA
ATOM     21  H   UNL     1      17.167  28.863  45.095  1.00  0.00     0.293 HD
ENDBRANCH  17  20
ENDBRANCH   1  12
BRANCH   2  22
ATOM     22  O   UNL     1      15.375  25.184  43.165  1.00  0.00    -0.502 OA
ATOM     23  H   UNL     1      14.701  25.531  43.837  1.00  0.00     0.293 HD
ENDBRANCH   2  22
BRANCH   6  24
ATOM     24  O   UNL     1      18.715  26.065  39.272  1.00  0.00    -0.507 OA
ATOM     25  H   UNL     1      17.782  26.362  39.010  1.00  0.00     0.293 HD
ENDBRANCH   6  24
BRANCH   8  26
ATOM     26  O   UNL     1      22.511  27.875  41.636  1.00  0.00    -0.508 OA
ATOM     27  H   UNL     1      23.283  27.383  42.071  1.00  0.00     0.293 HD
ENDBRANCH   8  26
TORSDOF 6
ENDMDL
MODEL 6
REMARK VINA RESULT:    -6.256     11.965     13.005
REMARK INTER + INTRA:          -7.666
REMARK INTER:                  -7.384
REMARK INTRA:                  -0.282
REMARK UNBOUND:                -0.130
REMARK SMILES O=c1c(O)c(-c2ccc(O)cc2O)oc2cc(O)cc(O)c12
REMARK SMILES IDX 5 1 3 2 2 3 1 4 22 5 20 6 19 7 17 8 16 9 15 10 14 11 6 12
REMARK SMILES IDX 8 13 7 14 9 15 11 16 12 17 10 18 13 20 4 22 21 24 18 26
REMARK H PARENT 10 19 13 21 4 23 21 25 18 27
REMARK Flexibility Score: inf
ROOT
ATOM      1  C   UNL     1      17.665  25.887  44.357  1.00  0.00     0.184 A 
ATOM      2  C   UNL     1      17.156  24.580  44.459  1.00  0.00     0.208 A 
ATOM      3  C   UNL     1      16.386  24.237  45.581  1.00  0.00     0.238 A 
ATOM      4  O   UNL     1      15.935  23.064  45.689  1.00  0.00    -0.285 OA
ATOM      5  C   UNL     1      16.124  25.209  46.569  1.00  0.00     0.111 A 
ATOM      6  C   UNL     1      15.355  24.947  47.728  1.00  0.00     0.134 A 
ATOM      7  C   UNL     1      15.131  25.971  48.659  1.00  0.00     0.093 A 
ATOM      8  C   UNL     1      15.657  27.249  48.456  1.00  0.00     0.123 A 
ATOM      9  C   UNL     1      16.418  27.515  47.313  1.00  0.00     0.094 A 
ATOM     10  C   UNL     1      16.655  26.507  46.372  1.00  0.00     0.146 A 
ATOM     11  O   UNL     1      17.384  26.783  45.297  1.00  0.00    -0.451 OA
ENDROOT
BRANCH   1  12
ATOM     12  C   UNL     1      18.491  26.310  43.207  1.00  0.00     0.063 A 
ATOM     13  C   UNL     1      18.717  26.586  40.802  1.00  0.00     0.047 A 
ATOM     14  C   UNL     1      17.965  26.189  41.911  1.00  0.00     0.020 A 
ATOM     15  C   UNL     1      19.998  27.122  40.976  1.00  0.00     0.119 A 
ATOM     16  C   UNL     1      20.520  27.268  42.265  1.00  0.00     0.093 A 
ATOM     17  C   UNL     1      19.769  26.878  43.384  1.00  0.00     0.130 A 
BRANCH  15  18
ATOM     18  O   UNL     1      20.758  27.517  39.878  1.00  0.00    -0.508 OA
ATOM     19  H   UNL     1      21.768  27.436  39.876  1.00  0.00     0.293 HD
ENDBRANCH  15  18
BRANCH  17  20
ATOM     20  O   UNL     1      20.282  27.075  44.667  1.00  0.00    -0.507 OA
ATOM     21  H   UNL     1      19.721  26.912  45.494  1.00  0.00     0.293 HD
ENDBRANCH  17  20
ENDBRANCH   1  12
BRANCH   2  22
ATOM     22  O   UNL     1      17.396  23.652  43.442  1.00  0.00    -0.502 OA
ATOM     23  H   UNL     1      18.331  23.356  43.189  1.00  0.00     0.293 HD
ENDBRANCH   2  22
BRANCH   6  24
ATOM     24  O   UNL     1      14.814  23.682  47.961  1.00  0.00    -0.507 OA
ATOM     25  H   UNL     1      14.405  23.433  48.854  1.00  0.00     0.293 HD
ENDBRANCH   6  24
BRANCH   8  26
ATOM     26  O   UNL     1      15.419  28.248  49.397  1.00  0.00    -0.508 OA
ATOM     27  H   UNL     1      16.179  28.727  49.866  1.00  0.00     0.293 HD
ENDBRANCH   8  26
TORSDOF 6
ENDMDL
MODEL 7
REMARK VINA RESULT:    -6.215     12.404     14.602
REMARK INTER + INTRA:          -7.617
REMARK INTER:                  -7.211
REMARK INTRA:                  -0.406
REMARK UNBOUND:                -0.130
REMARK SMILES O=c1c(O)c(-c2ccc(O)cc2O)oc2cc(O)cc(O)c12
REMARK SMILES IDX 5 1 3 2 2 3 1 4 22 5 20 6 19 7 17 8 16 9 15 10 14 11 6 12
REMARK SMILES IDX 8 13 7 14 9 15 11 16 12 17 10 18 13 20 4 22 21 24 18 26
REMARK H PARENT 10 19 13 21 4 23 21 25 18 27
REMARK Flexibility Score: inf
ROOT
ATOM      1  C   UNL     1      18.085  24.775  42.113  1.00  0.00     0.184 A 
ATOM      2  C   UNL     1      17.718  24.771  40.755  1.00  0.00     0.208 A 
ATOM      3  C   UNL     1      18.363  25.655  39.876  1.00  0.00     0.238 A 
ATOM      4  O   UNL     1      18.034  25.669  38.658  1.00  0.00    -0.285 OA
ATOM      5  C   UNL     1      19.373  26.509  40.365  1.00  0.00     0.111 A 
ATOM      6  C   UNL     1      20.075  27.426  39.545  1.00  0.00     0.134 A 
ATOM      7  C   UNL     1      21.073  28.236  40.105  1.00  0.00     0.093 A 
ATOM      8  C   UNL     1      21.386  28.147  41.463  1.00  0.00     0.123 A 
ATOM      9  C   UNL     1      20.697  27.243  42.279  1.00  0.00     0.094 A 
ATOM     10  C   UNL     1      19.696  26.428  41.741  1.00  0.00     0.146 A 
ATOM     11  O   UNL     1      19.053  25.582  42.537  1.00  0.00    -0.451 OA
ENDROOT
BRANCH   1  12
ATOM     12  C   UNL     1      17.439  23.878  43.093  1.00  0.00     0.063 A 
ATOM     13  C   UNL     1      17.113  21.625  43.948  1.00  0.00     0.047 A 
ATOM     14  C   UNL     1      17.702  22.500  43.032  1.00  0.00     0.020 A 
ATOM     15  C   UNL     1      16.264  22.118  44.945  1.00  0.00     0.119 A 
ATOM     16  C   UNL     1      16.014  23.491  45.028  1.00  0.00     0.093 A 
ATOM     17  C   UNL     1      16.607  24.378  44.117  1.00  0.00     0.130 A 
BRANCH  15  18
ATOM     18  O   UNL     1      15.667  21.254  45.861  1.00  0.00    -0.508 OA
ATOM     19  H   UNL     1      15.097  21.602  46.623  1.00  0.00     0.293 HD
ENDBRANCH  15  18
BRANCH  17  20
ATOM     20  O   UNL     1      16.389  25.750  44.241  1.00  0.00    -0.507 OA
ATOM     21  H   UNL     1      15.454  26.138  44.281  1.00  0.00     0.293 HD
ENDBRANCH  17  20
ENDBRANCH   1  12
BRANCH   2  22
ATOM     22  O   UNL     1      16.745  23.881  40.294  1.00  0.00    -0.502 OA
ATOM     23  H   UNL     1      16.333  23.959  39.372  1.00  0.00     0.293 HD
ENDBRANCH   2  22
BRANCH   6  24
ATOM     24  O   UNL     1      19.787  27.539  38.184  1.00  0.00    -0.507 OA
ATOM     25  H   UNL     1      20.173  26.896  37.502  1.00  0.00     0.293 HD
ENDBRANCH   6  24
BRANCH   8  26
ATOM     26  O   UNL     1      22.383  28.962  41.994  1.00  0.00    -0.508 OA
ATOM     27  H   UNL     1      22.888  28.704  42.834  1.00  0.00     0.293 HD
ENDBRANCH   8  26
TORSDOF 6
ENDMDL
MODEL 8
REMARK VINA RESULT:    -6.174     12.261     14.405
REMARK INTER + INTRA:          -7.566
REMARK INTER:                  -7.436
REMARK INTRA:                  -0.131
REMARK UNBOUND:                -0.130
REMARK SMILES O=c1c(O)c(-c2ccc(O)cc2O)oc2cc(O)cc(O)c12
REMARK SMILES IDX 5 1 3 2 2 3 1 4 22 5 20 6 19 7 17 8 16 9 15 10 14 11 6 12
REMARK SMILES IDX 8 13 7 14 9 15 11 16 12 17 10 18 13 20 4 22 21 24 18 26
REMARK H PARENT 10 19 13 21 4 23 21 25 18 27
REMARK Flexibility Score: inf
ROOT
ATOM      1  C   UNL     1      17.713  25.777  44.127  1.00  0.00     0.184 A 
ATOM      2  C   UNL     1      18.883  26.540  43.961  1.00  0.00     0.208 A 
ATOM      3  C   UNL     1      19.509  26.556  42.706  1.00  0.00     0.238 A 
ATOM      4  O   UNL     1      20.566  27.227  42.548  1.00  0.00    -0.285 OA
ATOM      5  C   UNL     1      18.947  25.827  41.637  1.00  0.00     0.111 A 
ATOM      6  C   UNL     1      19.514  25.793  40.340  1.00  0.00     0.134 A 
ATOM      7  C   UNL     1      18.888  25.051  39.328  1.00  0.00     0.093 A 
ATOM      8  C   UNL     1      17.711  24.346  39.584  1.00  0.00     0.123 A 
ATOM      9  C   UNL     1      17.145  24.375  40.863  1.00  0.00     0.094 A 
ATOM     10  C   UNL     1      17.754  25.107  41.887  1.00  0.00     0.146 A 
ATOM     11  O   UNL     1      17.200  25.115  43.094  1.00  0.00    -0.451 OA
ENDROOT
BRANCH   1  12
ATOM     12  C   UNL     1      17.009  25.708  45.425  1.00  0.00     0.063 A 
ATOM     13  C   UNL     1      16.088  26.869  47.352  1.00  0.00     0.047 A 
ATOM     14  C   UNL     1      16.757  26.898  46.125  1.00  0.00     0.020 A 
ATOM     15  C   UNL     1      15.651  25.651  47.886  1.00  0.00     0.119 A 
ATOM     16  C   UNL     1      15.878  24.464  47.184  1.00  0.00     0.093 A 
ATOM     17  C   UNL     1      16.543  24.484  45.948  1.00  0.00     0.130 A 
BRANCH  15  18
ATOM     18  O   UNL     1      14.987  25.610  49.110  1.00  0.00    -0.508 OA
ATOM     19  H   UNL     1      14.240  26.259  49.329  1.00  0.00     0.293 HD
ENDBRANCH  15  18
BRANCH  17  20
ATOM     20  O   UNL     1      16.718  23.298  45.235  1.00  0.00    -0.507 OA
ATOM     21  H   UNL     1      17.404  23.221  44.494  1.00  0.00     0.293 HD
ENDBRANCH  17  20
ENDBRANCH   1  12
BRANCH   2  22
ATOM     22  O   UNL     1      19.390  27.287  45.028  1.00  0.00    -0.502 OA
ATOM     23  H   UNL     1      19.441  28.297  45.004  1.00  0.00     0.293 HD
ENDBRANCH   2  22
BRANCH   6  24
ATOM     24  O   UNL     1      20.689  26.487  40.052  1.00  0.00    -0.507 OA
ATOM     25  H   UNL     1      21.472  26.501  40.694  1.00  0.00     0.293 HD
ENDBRANCH   6  24
BRANCH   8  26
ATOM     26  O   UNL     1      17.109  23.618  38.560  1.00  0.00    -0.508 OA
ATOM     27  H   UNL     1      17.578  23.460  37.675  1.00  0.00     0.293 HD
ENDBRANCH   8  26
TORSDOF 6
ENDMDL
MODEL 9
REMARK VINA RESULT:    -6.081     13.063     15.170
REMARK INTER + INTRA:          -7.455
REMARK INTER:                  -7.067
REMARK INTRA:                  -0.388
REMARK UNBOUND:                -0.130
REMARK SMILES O=c1c(O)c(-c2ccc(O)cc2O)oc2cc(O)cc(O)c12
REMARK SMILES IDX 5 1 3 2 2 3 1 4 22 5 20 6 19 7 17 8 16 9 15 10 14 11 6 12
REMARK SMILES IDX 8 13 7 14 9 15 11 16 12 17 10 18 13 20 4 22 21 24 18 26
REMARK H PARENT 10 19 13 21 4 23 21 25 18 27
REMARK Flexibility Score: inf
ROOT
ATOM      1  C   UNL     1      16.905  23.771  42.472  1.00  0.00     0.184 A 
ATOM      2  C   UNL     1      17.444  24.674  43.406  1.00  0.00     0.208 A 
ATOM      3  C   UNL     1      18.328  25.667  42.957  1.00  0.00     0.238 A 
ATOM      4  O   UNL     1      18.827  26.475  43.787  1.00  0.00    -0.285 OA
ATOM      5  C   UNL     1      18.642  25.752  41.585  1.00  0.00     0.111 A 
ATOM      6  C   UNL     1      19.520  26.725  41.050  1.00  0.00     0.134 A 
ATOM      7  C   UNL     1      19.774  26.749  39.671  1.00  0.00     0.093 A 
ATOM      8  C   UNL     1      19.168  25.824  38.818  1.00  0.00     0.123 A 
ATOM      9  C   UNL     1      18.299  24.860  39.339  1.00  0.00     0.094 A 
ATOM     10  C   UNL     1      18.034  24.818  40.712  1.00  0.00     0.146 A 
ATOM     11  O   UNL     1      17.209  23.890  41.183  1.00  0.00    -0.451 OA
ENDROOT
BRANCH   1  12
ATOM     12  C   UNL     1      15.977  22.696  42.879  1.00  0.00     0.063 A 
ATOM     13  C   UNL     1      13.695  21.874  43.044  1.00  0.00     0.047 A 
ATOM     14  C   UNL     1      14.600  22.874  42.676  1.00  0.00     0.020 A 
ATOM     15  C   UNL     1      14.158  20.679  43.606  1.00  0.00     0.119 A 
ATOM     16  C   UNL     1      15.530  20.484  43.790  1.00  0.00     0.093 A 
ATOM     17  C   UNL     1      16.446  21.480  43.417  1.00  0.00     0.130 A 
BRANCH  15  18
ATOM     18  O   UNL     1      13.265  19.677  43.980  1.00  0.00    -0.508 OA
ATOM     19  H   UNL     1      12.403  19.892  44.468  1.00  0.00     0.293 HD
ENDBRANCH  15  18
BRANCH  17  20
ATOM     20  O   UNL     1      17.815  21.252  43.561  1.00  0.00    -0.507 OA
ATOM     21  H   UNL     1      18.491  21.999  43.454  1.00  0.00     0.293 HD
ENDBRANCH  17  20
ENDBRANCH   1  12
BRANCH   2  22
ATOM     22  O   UNL     1      17.079  24.592  44.752  1.00  0.00    -0.502 OA
ATOM     23  H   UNL     1      16.891  23.708  45.209  1.00  0.00     0.293 HD
ENDBRANCH   2  22
BRANCH   6  24
ATOM     24  O   UNL     1      20.141  27.663  41.875  1.00  0.00    -0.507 OA
ATOM     25  H   UNL     1      20.814  27.390  42.582  1.00  0.00     0.293 HD
ENDBRANCH   6  24
BRANCH   8  26
ATOM     26  O   UNL     1      19.436  25.871  37.451  1.00  0.00    -0.508 OA
ATOM     27  H   UNL     1      19.254  25.077  36.848  1.00  0.00     0.293 HD
ENDBRANCH   8  26
TORSDOF 6
ENDMDL
