MODEL 1
REMARK VINA RESULT:    -2.750      0.000      0.000
REMARK INTER + INTRA:         -13.362
REMARK INTER:                  -7.251
REMARK INTRA:                  -6.111
REMARK UNBOUND:                -6.111
REMARK SMILES CCCCCCCCCCCCCCCCCCCCCCCCCCCCCC(=O)[O-]
REMARK SMILES IDX 16 1 17 2 18 3 19 4 20 5 21 6 22 7 23 8 24 9 25 10 26 11
REMARK SMILES IDX 27 12 28 13 29 14 30 15 31 16 32 17 15 18 14 19 13 20 12 21
REMARK SMILES IDX 11 22 10 23 9 24 8 25 7 26 6 27 5 28 4 29 3 30 2 31 1 32
REMARK H PARENT
REMARK Flexibility Score: inf
ROOT
ATOM      1  C   UNL     1      59.309  30.002  51.015  1.00  0.00     0.000 C 
ENDROOT
BRANCH   1   2
ATOM      2  C   UNL     1      58.115  30.298  51.939  1.00  0.00     0.000 C 
BRANCH   2   3
ATOM      3  C   UNL     1      58.406  30.197  53.451  1.00  0.00     0.000 C 
BRANCH   3   4
ATOM      4  C   UNL     1      58.242  31.505  54.249  1.00  0.00     0.000 C 
BRANCH   4   5
ATOM      5  C   UNL     1      57.842  32.702  53.373  1.00  0.00     0.000 C 
BRANCH   5   6
ATOM      6  C   UNL     1      57.311  33.888  54.197  1.00  0.00     0.000 C 
BRANCH   6   7
ATOM      7  C   UNL     1      55.954  34.436  53.706  1.00  0.00     0.000 C 
BRANCH   7   8
ATOM      8  C   UNL     1      54.824  34.218  54.728  1.00  0.00     0.000 C 
BRANCH   8   9
ATOM      9  C   UNL     1      54.935  35.173  55.929  1.00  0.00     0.000 C 
BRANCH   9  10
ATOM     10  C   UNL     1      55.403  34.453  57.202  1.00  0.00     0.000 C 
BRANCH  10  11
ATOM     11  C   UNL     1      55.129  32.944  57.116  1.00  0.00     0.000 C 
BRANCH  11  12
ATOM     12  C   UNL     1      56.373  32.088  57.420  1.00  0.00     0.000 C 
BRANCH  12  13
ATOM     13  C   UNL     1      57.470  32.797  58.240  1.00  0.00     0.006 C 
BRANCH  13  14
ATOM     14  C   UNL     1      58.893  32.608  57.691  1.00  0.00     0.053 C 
BRANCH  14  15
ATOM     15  C   UNL     1      59.448  31.257  58.025  1.00  0.00     0.041 C 
ATOM     16  O   UNL     1      59.274  30.769  59.173  1.00  0.00    -0.550 OA
ATOM     17  O   UNL     1      60.187  30.554  57.083  1.00  0.00    -0.550 OA
ENDBRANCH  14  15
ENDBRANCH  13  14
ENDBRANCH  12  13
ENDBRANCH  11  12
ENDBRANCH  10  11
ENDBRANCH   9  10
ENDBRANCH   8   9
ENDBRANCH   7   8
ENDBRANCH   6   7
ENDBRANCH   5   6
ENDBRANCH   4   5
ENDBRANCH   3   4
ENDBRANCH   2   3
ENDBRANCH   1   2
BRANCH   1  18
ATOM     18  C   UNL     1      58.890  29.322  49.700  1.00  0.00     0.000 C 
BRANCH  18  19
ATOM     19  C   UNL     1      59.349  27.855  49.620  1.00  0.00     0.000 C 
BRANCH  19  20
ATOM     20  C   UNL     1      58.959  26.981  50.828  1.00  0.00     0.000 C 
BRANCH  20  21
ATOM     21  C   UNL     1      57.606  26.257  50.662  1.00  0.00     0.000 C 
BRANCH  21  22
ATOM     22  C   UNL     1      56.477  26.949  51.446  1.00  0.00     0.000 C 
BRANCH  22  23
ATOM     23  C   UNL     1      55.383  27.518  50.534  1.00  0.00     0.000 C 
BRANCH  23  24
ATOM     24  C   UNL     1      55.192  29.035  50.713  1.00  0.00    -0.000 C 
BRANCH  24  25
ATOM     25  C   UNL     1      53.726  29.458  50.532  1.00  0.00    -0.000 C 
BRANCH  25  26
ATOM     26  C   UNL     1      53.300  30.539  51.542  1.00  0.00    -0.000 C 
BRANCH  26  27
ATOM     27  C   UNL     1      54.459  30.966  52.468  1.00  0.00    -0.000 C 
BRANCH  27  28
ATOM     28  C   UNL     1      54.133  30.830  53.968  1.00  0.00    -0.000 C 
BRANCH  28  29
ATOM     29  C   UNL     1      55.003  29.812  54.728  1.00  0.00    -0.000 C 
BRANCH  29  30
ATOM     30  C   UNL     1      54.739  28.337  54.365  1.00  0.00    -0.000 C 
BRANCH  30  31
ATOM     31  C   UNL     1      53.246  27.952  54.375  1.00  0.00    -0.003 C 
ATOM     32  C   UNL     1      52.876  27.011  53.226  1.00  0.00     0.004 C 
ENDBRANCH  30  31
ENDBRANCH  29  30
ENDBRANCH  28  29
ENDBRANCH  27  28
ENDBRANCH  26  27
ENDBRANCH  25  26
ENDBRANCH  24  25
ENDBRANCH  23  24
ENDBRANCH  22  23
ENDBRANCH  21  22
ENDBRANCH  20  21
ENDBRANCH  19  20
ENDBRANCH  18  19
ENDBRANCH   1  18
TORSDOF 28
ENDMDL
MODEL 2
REMARK VINA RESULT:    -2.739      2.493      5.560
REMARK INTER + INTRA:         -13.333
REMARK INTER:                  -7.204
REMARK INTRA:                  -6.129
REMARK UNBOUND:                -6.111
REMARK SMILES CCCCCCCCCCCCCCCCCCCCCCCCCCCCCC(=O)[O-]
REMARK SMILES IDX 16 1 17 2 18 3 19 4 20 5 21 6 22 7 23 8 24 9 25 10 26 11
REMARK SMILES IDX 27 12 28 13 29 14 30 15 31 16 32 17 15 18 14 19 13 20 12 21
REMARK SMILES IDX 11 22 10 23 9 24 8 25 7 26 6 27 5 28 4 29 3 30 2 31 1 32
REMARK H PARENT
REMARK Flexibility Score: inf
ROOT
ATOM      1  C   UNL     1      56.351  26.225  51.490  1.00  0.00     0.000 C 
ENDROOT
BRANCH   1   2
ATOM      2  C   UNL     1      55.497  26.703  50.302  1.00  0.00     0.000 C 
BRANCH   2   3
ATOM      3  C   UNL     1      54.024  27.024  50.632  1.00  0.00     0.000 C 
BRANCH   3   4
ATOM      4  C   UNL     1      53.575  28.468  50.339  1.00  0.00     0.000 C 
BRANCH   4   5
ATOM      5  C   UNL     1      54.618  29.520  50.745  1.00  0.00     0.000 C 
BRANCH   5   6
ATOM      6  C   UNL     1      54.426  30.020  52.187  1.00  0.00     0.000 C 
BRANCH   6   7
ATOM      7  C   UNL     1      53.770  31.413  52.287  1.00  0.00     0.000 C 
BRANCH   7   8
ATOM      8  C   UNL     1      54.580  32.386  53.164  1.00  0.00     0.000 C 
BRANCH   8   9
ATOM      9  C   UNL     1      55.975  31.835  53.506  1.00  0.00     0.000 C 
BRANCH   9  10
ATOM     10  C   UNL     1      56.578  32.514  54.745  1.00  0.00     0.000 C 
BRANCH  10  11
ATOM     11  C   UNL     1      56.113  31.823  56.036  1.00  0.00     0.000 C 
BRANCH  11  12
ATOM     12  C   UNL     1      55.881  30.310  55.858  1.00  0.00     0.000 C 
BRANCH  12  13
ATOM     13  C   UNL     1      56.600  29.413  56.886  1.00  0.00     0.006 C 
BRANCH  13  14
ATOM     14  C   UNL     1      55.889  29.309  58.244  1.00  0.00     0.053 C 
BRANCH  14  15
ATOM     15  C   UNL     1      54.432  28.997  58.091  1.00  0.00     0.041 C 
ATOM     16  O   UNL     1      54.068  27.865  57.675  1.00  0.00    -0.550 OA
ATOM     17  O   UNL     1      53.478  29.965  58.373  1.00  0.00    -0.550 OA
ENDBRANCH  14  15
ENDBRANCH  13  14
ENDBRANCH  12  13
ENDBRANCH  11  12
ENDBRANCH  10  11
ENDBRANCH   9  10
ENDBRANCH   8   9
ENDBRANCH   7   8
ENDBRANCH   6   7
ENDBRANCH   5   6
ENDBRANCH   4   5
ENDBRANCH   3   4
ENDBRANCH   2   3
ENDBRANCH   1   2
BRANCH   1  18
ATOM     18  C   UNL     1      55.729  26.581  52.851  1.00  0.00     0.000 C 
BRANCH  18  19
ATOM     19  C   UNL     1      56.684  27.393  53.744  1.00  0.00     0.000 C 
BRANCH  19  20
ATOM     20  C   UNL     1      58.176  27.031  53.604  1.00  0.00     0.000 C 
BRANCH  20  21
ATOM     21  C   UNL     1      59.039  27.473  54.805  1.00  0.00     0.000 C 
BRANCH  21  22
ATOM     22  C   UNL     1      59.988  28.629  54.442  1.00  0.00     0.000 C 
BRANCH  22  23
ATOM     23  C   UNL     1      59.246  29.942  54.162  1.00  0.00     0.000 C 
BRANCH  23  24
ATOM     24  C   UNL     1      59.983  30.835  53.148  1.00  0.00    -0.000 C 
BRANCH  24  25
ATOM     25  C   UNL     1      59.777  30.358  51.702  1.00  0.00    -0.000 C 
BRANCH  25  26
ATOM     26  C   UNL     1      58.325  29.926  51.430  1.00  0.00    -0.000 C 
BRANCH  26  27
ATOM     27  C   UNL     1      58.139  29.359  50.007  1.00  0.00    -0.000 C 
BRANCH  27  28
ATOM     28  C   UNL     1      59.369  28.593  49.482  1.00  0.00    -0.000 C 
BRANCH  28  29
ATOM     29  C   UNL     1      59.364  27.082  49.781  1.00  0.00    -0.000 C 
BRANCH  29  30
ATOM     30  C   UNL     1      60.435  26.618  50.788  1.00  0.00    -0.000 C 
BRANCH  30  31
ATOM     31  C   UNL     1      61.861  27.093  50.441  1.00  0.00    -0.003 C 
ATOM     32  C   UNL     1      62.492  27.921  51.562  1.00  0.00     0.004 C 
ENDBRANCH  30  31
ENDBRANCH  29  30
ENDBRANCH  28  29
ENDBRANCH  27  28
ENDBRANCH  26  27
ENDBRANCH  25  26
ENDBRANCH  24  25
ENDBRANCH  23  24
ENDBRANCH  22  23
ENDBRANCH  21  22
ENDBRANCH  20  21
ENDBRANCH  19  20
ENDBRANCH  18  19
ENDBRANCH   1  18
TORSDOF 28
ENDMDL
MODEL 3
REMARK VINA RESULT:    -2.727      2.737      6.459
REMARK INTER + INTRA:         -13.301
REMARK INTER:                  -8.194
REMARK INTRA:                  -5.107
REMARK UNBOUND:                -6.111
REMARK SMILES CCCCCCCCCCCCCCCCCCCCCCCCCCCCCC(=O)[O-]
REMARK SMILES IDX 16 1 17 2 18 3 19 4 20 5 21 6 22 7 23 8 24 9 25 10 26 11
REMARK SMILES IDX 27 12 28 13 29 14 30 15 31 16 32 17 15 18 14 19 13 20 12 21
REMARK SMILES IDX 11 22 10 23 9 24 8 25 7 26 6 27 5 28 4 29 3 30 2 31 1 32
REMARK H PARENT
REMARK Flexibility Score: inf
ROOT
ATOM      1  C   UNL     1      54.696  26.365  52.054  1.00  0.00     0.000 C 
ENDROOT
BRANCH   1   2
ATOM      2  C   UNL     1      53.983  26.188  50.702  1.00  0.00     0.000 C 
BRANCH   2   3
ATOM      3  C   UNL     1      53.256  27.441  50.169  1.00  0.00     0.000 C 
BRANCH   3   4
ATOM      4  C   UNL     1      54.010  28.773  50.343  1.00  0.00     0.000 C 
BRANCH   4   5
ATOM      5  C   UNL     1      53.088  29.947  50.708  1.00  0.00     0.000 C 
BRANCH   5   6
ATOM      6  C   UNL     1      53.412  30.549  52.086  1.00  0.00     0.000 C 
BRANCH   6   7
ATOM      7  C   UNL     1      53.129  29.598  53.269  1.00  0.00     0.000 C 
BRANCH   7   8
ATOM      8  C   UNL     1      54.365  29.380  54.160  1.00  0.00     0.000 C 
BRANCH   8   9
ATOM      9  C   UNL     1      55.596  30.143  53.642  1.00  0.00     0.000 C 
BRANCH   9  10
ATOM     10  C   UNL     1      56.852  29.856  54.480  1.00  0.00     0.000 C 
BRANCH  10  11
ATOM     11  C   UNL     1      57.958  30.881  54.186  1.00  0.00     0.000 C 
BRANCH  11  12
ATOM     12  C   UNL     1      57.499  32.008  53.241  1.00  0.00     0.000 C 
BRANCH  12  13
ATOM     13  C   UNL     1      57.262  33.373  53.918  1.00  0.00     0.006 C 
BRANCH  13  14
ATOM     14  C   UNL     1      55.983  34.092  53.464  1.00  0.00     0.053 C 
BRANCH  14  15
ATOM     15  C   UNL     1      54.930  34.089  54.530  1.00  0.00     0.041 C 
ATOM     16  O   UNL     1      54.906  35.002  55.398  1.00  0.00    -0.550 OA
ATOM     17  O   UNL     1      53.998  33.061  54.587  1.00  0.00    -0.550 OA
ENDBRANCH  14  15
ENDBRANCH  13  14
ENDBRANCH  12  13
ENDBRANCH  11  12
ENDBRANCH  10  11
ENDBRANCH   9  10
ENDBRANCH   8   9
ENDBRANCH   7   8
ENDBRANCH   6   7
ENDBRANCH   5   6
ENDBRANCH   4   5
ENDBRANCH   3   4
ENDBRANCH   2   3
ENDBRANCH   1   2
BRANCH   1  18
ATOM     18  C   UNL     1      56.179  25.959  52.002  1.00  0.00     0.000 C 
BRANCH  18  19
ATOM     19  C   UNL     1      57.124  27.173  51.962  1.00  0.00     0.000 C 
BRANCH  19  20
ATOM     20  C   UNL     1      57.299  27.820  50.574  1.00  0.00     0.000 C 
BRANCH  20  21
ATOM     21  C   UNL     1      57.624  29.328  50.626  1.00  0.00     0.000 C 
BRANCH  21  22
ATOM     22  C   UNL     1      58.676  29.731  49.578  1.00  0.00     0.000 C 
BRANCH  22  23
ATOM     23  C   UNL     1      60.078  29.900  50.178  1.00  0.00     0.000 C 
BRANCH  23  24
ATOM     24  C   UNL     1      60.105  29.658  51.698  1.00  0.00    -0.000 C 
BRANCH  24  25
ATOM     25  C   UNL     1      60.786  28.329  52.059  1.00  0.00    -0.000 C 
BRANCH  25  26
ATOM     26  C   UNL     1      61.992  28.026  51.153  1.00  0.00    -0.000 C 
BRANCH  26  27
ATOM     27  C   UNL     1      61.816  26.712  50.361  1.00  0.00    -0.000 C 
BRANCH  27  28
ATOM     28  C   UNL     1      60.363  26.198  50.335  1.00  0.00    -0.000 C 
BRANCH  28  29
ATOM     29  C   UNL     1      60.176  24.766  50.869  1.00  0.00    -0.000 C 
BRANCH  29  30
ATOM     30  C   UNL     1      61.447  23.896  50.847  1.00  0.00    -0.000 C 
BRANCH  30  31
ATOM     31  C   UNL     1      61.185  22.421  50.479  1.00  0.00    -0.003 C 
ATOM     32  C   UNL     1      61.013  22.214  48.973  1.00  0.00     0.004 C 
ENDBRANCH  30  31
ENDBRANCH  29  30
ENDBRANCH  28  29
ENDBRANCH  27  28
ENDBRANCH  26  27
ENDBRANCH  25  26
ENDBRANCH  24  25
ENDBRANCH  23  24
ENDBRANCH  22  23
ENDBRANCH  21  22
ENDBRANCH  20  21
ENDBRANCH  19  20
ENDBRANCH  18  19
ENDBRANCH   1  18
TORSDOF 28
ENDMDL
MODEL 4
REMARK VINA RESULT:    -2.726      4.713      8.136
REMARK INTER + INTRA:         -13.298
REMARK INTER:                  -7.893
REMARK INTRA:                  -5.405
REMARK UNBOUND:                -6.111
REMARK SMILES CCCCCCCCCCCCCCCCCCCCCCCCCCCCCC(=O)[O-]
REMARK SMILES IDX 16 1 17 2 18 3 19 4 20 5 21 6 22 7 23 8 24 9 25 10 26 11
REMARK SMILES IDX 27 12 28 13 29 14 30 15 31 16 32 17 15 18 14 19 13 20 12 21
REMARK SMILES IDX 11 22 10 23 9 24 8 25 7 26 6 27 5 28 4 29 3 30 2 31 1 32
REMARK H PARENT
REMARK Flexibility Score: inf
ROOT
ATOM      1  C   UNL     1      59.578  27.625  49.636  1.00  0.00     0.000 C 
ENDROOT
BRANCH   1   2
ATOM      2  C   UNL     1      59.012  29.053  49.551  1.00  0.00     0.000 C 
BRANCH   2   3
ATOM      3  C   UNL     1      57.739  29.312  50.383  1.00  0.00     0.000 C 
BRANCH   3   4
ATOM      4  C   UNL     1      57.973  29.847  51.809  1.00  0.00     0.000 C 
BRANCH   4   5
ATOM      5  C   UNL     1      59.365  30.468  52.002  1.00  0.00     0.000 C 
BRANCH   5   6
ATOM      6  C   UNL     1      60.111  29.887  53.215  1.00  0.00     0.000 C 
BRANCH   6   7
ATOM      7  C   UNL     1      61.147  28.802  52.855  1.00  0.00     0.000 C 
BRANCH   7   8
ATOM      8  C   UNL     1      60.745  27.407  53.368  1.00  0.00     0.000 C 
BRANCH   8   9
ATOM      9  C   UNL     1      59.448  27.445  54.195  1.00  0.00     0.000 C 
BRANCH   9  10
ATOM     10  C   UNL     1      58.594  26.184  53.991  1.00  0.00     0.000 C 
BRANCH  10  11
ATOM     11  C   UNL     1      57.108  26.543  53.833  1.00  0.00     0.000 C 
BRANCH  11  12
ATOM     12  C   UNL     1      56.342  25.550  52.937  1.00  0.00     0.000 C 
BRANCH  12  13
ATOM     13  C   UNL     1      54.983  26.057  52.413  1.00  0.00     0.006 C 
BRANCH  13  14
ATOM     14  C   UNL     1      54.965  27.547  52.036  1.00  0.00     0.053 C 
BRANCH  14  15
ATOM     15  C   UNL     1      54.358  27.776  50.685  1.00  0.00     0.041 C 
ATOM     16  O   UNL     1      54.142  26.802  49.916  1.00  0.00    -0.550 OA
ATOM     17  O   UNL     1      54.066  29.066  50.262  1.00  0.00    -0.550 OA
ENDBRANCH  14  15
ENDBRANCH  13  14
ENDBRANCH  12  13
ENDBRANCH  11  12
ENDBRANCH  10  11
ENDBRANCH   9  10
ENDBRANCH   8   9
ENDBRANCH   7   8
ENDBRANCH   6   7
ENDBRANCH   5   6
ENDBRANCH   4   5
ENDBRANCH   3   4
ENDBRANCH   2   3
ENDBRANCH   1   2
BRANCH   1  18
ATOM     18  C   UNL     1      58.548  26.607  50.153  1.00  0.00     0.000 C 
BRANCH  18  19
ATOM     19  C   UNL     1      59.206  25.365  50.782  1.00  0.00     0.000 C 
BRANCH  19  20
ATOM     20  C   UNL     1      60.665  25.112  50.354  1.00  0.00     0.000 C 
BRANCH  20  21
ATOM     21  C   UNL     1      61.475  24.277  51.368  1.00  0.00     0.000 C 
BRANCH  21  22
ATOM     22  C   UNL     1      61.755  22.853  50.856  1.00  0.00     0.000 C 
BRANCH  22  23
ATOM     23  C   UNL     1      61.069  22.558  49.516  1.00  0.00     0.000 C 
BRANCH  23  24
ATOM     24  C   UNL     1      60.128  21.342  49.587  1.00  0.00    -0.000 C 
BRANCH  24  25
ATOM     25  C   UNL     1      60.389  20.482  50.834  1.00  0.00    -0.000 C 
BRANCH  25  26
ATOM     26  C   UNL     1      59.642  19.137  50.783  1.00  0.00    -0.000 C 
BRANCH  26  27
ATOM     27  C   UNL     1      58.172  19.299  50.341  1.00  0.00    -0.000 C 
BRANCH  27  28
ATOM     28  C   UNL     1      57.171  19.292  51.513  1.00  0.00    -0.000 C 
BRANCH  28  29
ATOM     29  C   UNL     1      57.772  18.892  52.873  1.00  0.00    -0.000 C 
BRANCH  29  30
ATOM     30  C   UNL     1      58.085  20.072  53.814  1.00  0.00    -0.000 C 
BRANCH  30  31
ATOM     31  C   UNL     1      57.466  21.410  53.361  1.00  0.00    -0.003 C 
ATOM     32  C   UNL     1      58.515  22.507  53.170  1.00  0.00     0.004 C 
ENDBRANCH  30  31
ENDBRANCH  29  30
ENDBRANCH  28  29
ENDBRANCH  27  28
ENDBRANCH  26  27
ENDBRANCH  25  26
ENDBRANCH  24  25
ENDBRANCH  23  24
ENDBRANCH  22  23
ENDBRANCH  21  22
ENDBRANCH  20  21
ENDBRANCH  19  20
ENDBRANCH  18  19
ENDBRANCH   1  18
TORSDOF 28
ENDMDL
MODEL 5
REMARK VINA RESULT:    -2.723      4.361      8.933
REMARK INTER + INTRA:         -13.290
REMARK INTER:                  -8.586
REMARK INTRA:                  -4.705
REMARK UNBOUND:                -6.111
REMARK SMILES CCCCCCCCCCCCCCCCCCCCCCCCCCCCCC(=O)[O-]
REMARK SMILES IDX 16 1 17 2 18 3 19 4 20 5 21 6 22 7 23 8 24 9 25 10 26 11
REMARK SMILES IDX 27 12 28 13 29 14 30 15 31 16 32 17 15 18 14 19 13 20 12 21
REMARK SMILES IDX 11 22 10 23 9 24 8 25 7 26 6 27 5 28 4 29 3 30 2 31 1 32
REMARK H PARENT
REMARK Flexibility Score: inf
ROOT
ATOM      1  C   UNL     1      54.039  28.767  50.378  1.00  0.00     0.000 C 
ENDROOT
BRANCH   1   2
ATOM      2  C   UNL     1      55.113  27.665  50.369  1.00  0.00     0.000 C 
BRANCH   2   3
ATOM      3  C   UNL     1      54.604  26.248  50.029  1.00  0.00     0.000 C 
BRANCH   3   4
ATOM      4  C   UNL     1      53.207  25.894  50.572  1.00  0.00     0.000 C 
BRANCH   4   5
ATOM      5  C   UNL     1      53.253  25.047  51.854  1.00  0.00     0.000 C 
BRANCH   5   6
ATOM      6  C   UNL     1      53.656  25.866  53.092  1.00  0.00     0.000 C 
BRANCH   6   7
ATOM      7  C   UNL     1      54.823  25.255  53.896  1.00  0.00     0.000 C 
BRANCH   7   8
ATOM      8  C   UNL     1      56.126  26.062  53.753  1.00  0.00     0.000 C 
BRANCH   8   9
ATOM      9  C   UNL     1      57.017  25.529  52.618  1.00  0.00     0.000 C 
BRANCH   9  10
ATOM     10  C   UNL     1      58.429  25.171  53.108  1.00  0.00     0.000 C 
BRANCH  10  11
ATOM     11  C   UNL     1      59.150  24.264  52.101  1.00  0.00     0.000 C 
BRANCH  11  12
ATOM     12  C   UNL     1      60.241  23.390  52.751  1.00  0.00     0.000 C 
BRANCH  12  13
ATOM     13  C   UNL     1      61.292  22.823  51.775  1.00  0.00     0.006 C 
BRANCH  13  14
ATOM     14  C   UNL     1      60.928  21.455  51.177  1.00  0.00     0.053 C 
BRANCH  14  15
ATOM     15  C   UNL     1      60.479  21.568  49.752  1.00  0.00     0.041 C 
ATOM     16  O   UNL     1      60.912  22.501  49.025  1.00  0.00    -0.550 OA
ATOM     17  O   UNL     1      59.557  20.666  49.238  1.00  0.00    -0.550 OA
ENDBRANCH  14  15
ENDBRANCH  13  14
ENDBRANCH  12  13
ENDBRANCH  11  12
ENDBRANCH  10  11
ENDBRANCH   9  10
ENDBRANCH   8   9
ENDBRANCH   7   8
ENDBRANCH   6   7
ENDBRANCH   5   6
ENDBRANCH   4   5
ENDBRANCH   3   4
ENDBRANCH   2   3
ENDBRANCH   1   2
BRANCH   1  18
ATOM     18  C   UNL     1      54.339  29.880  51.396  1.00  0.00     0.000 C 
BRANCH  18  19
ATOM     19  C   UNL     1      55.226  29.397  52.558  1.00  0.00     0.000 C 
BRANCH  19  20
ATOM     20  C   UNL     1      56.232  30.438  53.089  1.00  0.00     0.000 C 
BRANCH  20  21
ATOM     21  C   UNL     1      57.683  29.918  53.169  1.00  0.00     0.000 C 
BRANCH  21  22
ATOM     22  C   UNL     1      58.037  29.001  51.984  1.00  0.00     0.000 C 
BRANCH  22  23
ATOM     23  C   UNL     1      58.414  29.784  50.720  1.00  0.00     0.000 C 
BRANCH  23  24
ATOM     24  C   UNL     1      58.900  28.870  49.580  1.00  0.00    -0.000 C 
BRANCH  24  25
ATOM     25  C   UNL     1      58.838  27.383  49.966  1.00  0.00    -0.000 C 
BRANCH  25  26
ATOM     26  C   UNL     1      60.227  26.720  49.962  1.00  0.00    -0.000 C 
BRANCH  26  27
ATOM     27  C   UNL     1      61.270  27.537  50.754  1.00  0.00    -0.000 C 
BRANCH  27  28
ATOM     28  C   UNL     1      62.605  27.722  50.007  1.00  0.00    -0.000 C 
BRANCH  28  29
ATOM     29  C   UNL     1      63.008  29.187  49.759  1.00  0.00    -0.000 C 
BRANCH  29  30
ATOM     30  C   UNL     1      62.220  30.224  50.583  1.00  0.00    -0.000 C 
BRANCH  30  31
ATOM     31  C   UNL     1      62.909  31.601  50.674  1.00  0.00    -0.003 C 
ATOM     32  C   UNL     1      62.375  32.593  49.639  1.00  0.00     0.004 C 
ENDBRANCH  30  31
ENDBRANCH  29  30
ENDBRANCH  28  29
ENDBRANCH  27  28
ENDBRANCH  26  27
ENDBRANCH  25  26
ENDBRANCH  24  25
ENDBRANCH  23  24
ENDBRANCH  22  23
ENDBRANCH  21  22
ENDBRANCH  20  21
ENDBRANCH  19  20
ENDBRANCH  18  19
ENDBRANCH   1  18
TORSDOF 28
ENDMDL
MODEL 6
REMARK VINA RESULT:    -2.701      2.106      5.208
REMARK INTER + INTRA:         -13.233
REMARK INTER:                  -6.759
REMARK INTRA:                  -6.474
REMARK UNBOUND:                -6.111
REMARK SMILES CCCCCCCCCCCCCCCCCCCCCCCCCCCCCC(=O)[O-]
REMARK SMILES IDX 16 1 17 2 18 3 19 4 20 5 21 6 22 7 23 8 24 9 25 10 26 11
REMARK SMILES IDX 27 12 28 13 29 14 30 15 31 16 32 17 15 18 14 19 13 20 12 21
REMARK SMILES IDX 11 22 10 23 9 24 8 25 7 26 6 27 5 28 4 29 3 30 2 31 1 32
REMARK H PARENT
REMARK Flexibility Score: inf
ROOT
ATOM      1  C   UNL     1      59.134  28.897  49.748  1.00  0.00     0.000 C 
ENDROOT
BRANCH   1   2
ATOM      2  C   UNL     1      58.957  27.372  49.644  1.00  0.00     0.000 C 
BRANCH   2   3
ATOM      3  C   UNL     1      60.128  26.530  50.192  1.00  0.00     0.000 C 
BRANCH   3   4
ATOM      4  C   UNL     1      59.730  25.299  51.026  1.00  0.00     0.000 C 
BRANCH   4   5
ATOM      5  C   UNL     1      58.365  25.450  51.716  1.00  0.00     0.000 C 
BRANCH   5   6
ATOM      6  C   UNL     1      58.475  26.062  53.122  1.00  0.00     0.000 C 
BRANCH   6   7
ATOM      7  C   UNL     1      59.846  25.842  53.797  1.00  0.00     0.000 C 
BRANCH   7   8
ATOM      8  C   UNL     1      60.600  27.161  54.046  1.00  0.00     0.000 C 
BRANCH   8   9
ATOM      9  C   UNL     1      59.785  28.388  53.604  1.00  0.00     0.000 C 
BRANCH   9  10
ATOM     10  C   UNL     1      60.680  29.521  53.080  1.00  0.00     0.000 C 
BRANCH  10  11
ATOM     11  C   UNL     1      61.219  30.379  54.235  1.00  0.00     0.000 C 
BRANCH  11  12
ATOM     12  C   UNL     1      60.314  30.347  55.482  1.00  0.00     0.000 C 
BRANCH  12  13
ATOM     13  C   UNL     1      60.118  31.706  56.184  1.00  0.00     0.006 C 
BRANCH  13  14
ATOM     14  C   UNL     1      59.355  31.627  57.515  1.00  0.00     0.053 C 
BRANCH  14  15
ATOM     15  C   UNL     1      58.362  32.740  57.658  1.00  0.00     0.041 C 
ATOM     16  O   UNL     1      57.879  33.014  58.789  1.00  0.00    -0.550 OA
ATOM     17  O   UNL     1      57.944  33.450  56.541  1.00  0.00    -0.550 OA
ENDBRANCH  14  15
ENDBRANCH  13  14
ENDBRANCH  12  13
ENDBRANCH  11  12
ENDBRANCH  10  11
ENDBRANCH   9  10
ENDBRANCH   8   9
ENDBRANCH   7   8
ENDBRANCH   6   7
ENDBRANCH   5   6
ENDBRANCH   4   5
ENDBRANCH   3   4
ENDBRANCH   2   3
ENDBRANCH   1   2
BRANCH   1  18
ATOM     18  C   UNL     1      57.955  29.586  50.455  1.00  0.00     0.000 C 
BRANCH  18  19
ATOM     19  C   UNL     1      56.834  28.601  50.833  1.00  0.00     0.000 C 
BRANCH  19  20
ATOM     20  C   UNL     1      55.404  29.167  50.728  1.00  0.00     0.000 C 
BRANCH  20  21
ATOM     21  C   UNL     1      54.352  28.126  50.291  1.00  0.00     0.000 C 
BRANCH  21  22
ATOM     22  C   UNL     1      54.938  26.705  50.218  1.00  0.00     0.000 C 
BRANCH  22  23
ATOM     23  C   UNL     1      53.893  25.616  50.497  1.00  0.00     0.000 C 
BRANCH  23  24
ATOM     24  C   UNL     1      53.597  25.450  51.999  1.00  0.00    -0.000 C 
BRANCH  24  25
ATOM     25  C   UNL     1      54.883  25.364  52.835  1.00  0.00    -0.000 C 
BRANCH  25  26
ATOM     26  C   UNL     1      54.827  26.257  54.087  1.00  0.00    -0.000 C 
BRANCH  26  27
ATOM     27  C   UNL     1      54.142  27.613  53.810  1.00  0.00    -0.000 C 
BRANCH  27  28
ATOM     28  C   UNL     1      54.744  28.784  54.611  1.00  0.00    -0.000 C 
BRANCH  28  29
ATOM     29  C   UNL     1      56.267  28.951  54.462  1.00  0.00    -0.000 C 
BRANCH  29  30
ATOM     30  C   UNL     1      56.789  30.380  54.708  1.00  0.00    -0.000 C 
BRANCH  30  31
ATOM     31  C   UNL     1      56.681  31.302  53.475  1.00  0.00    -0.003 C 
ATOM     32  C   UNL     1      57.911  32.196  53.302  1.00  0.00     0.004 C 
ENDBRANCH  30  31
ENDBRANCH  29  30
ENDBRANCH  28  29
ENDBRANCH  27  28
ENDBRANCH  26  27
ENDBRANCH  25  26
ENDBRANCH  24  25
ENDBRANCH  23  24
ENDBRANCH  22  23
ENDBRANCH  21  22
ENDBRANCH  20  21
ENDBRANCH  19  20
ENDBRANCH  18  19
ENDBRANCH   1  18
TORSDOF 28
ENDMDL
MODEL 7
REMARK VINA RESULT:    -2.700      2.774      6.485
REMARK INTER + INTRA:         -13.231
REMARK INTER:                  -6.378
REMARK INTRA:                  -6.853
REMARK UNBOUND:                -6.111
REMARK SMILES CCCCCCCCCCCCCCCCCCCCCCCCCCCCCC(=O)[O-]
REMARK SMILES IDX 16 1 17 2 18 3 19 4 20 5 21 6 22 7 23 8 24 9 25 10 26 11
REMARK SMILES IDX 27 12 28 13 29 14 30 15 31 16 32 17 15 18 14 19 13 20 12 21
REMARK SMILES IDX 11 22 10 23 9 24 8 25 7 26 6 27 5 28 4 29 3 30 2 31 1 32
REMARK H PARENT
REMARK Flexibility Score: inf
ROOT
ATOM      1  C   UNL     1      55.299  29.270  50.750  1.00  0.00     0.000 C 
ENDROOT
BRANCH   1   2
ATOM      2  C   UNL     1      54.641  27.890  50.917  1.00  0.00     0.000 C 
BRANCH   2   3
ATOM      3  C   UNL     1      55.447  26.700  50.356  1.00  0.00     0.000 C 
BRANCH   3   4
ATOM      4  C   UNL     1      56.345  25.966  51.370  1.00  0.00     0.000 C 
BRANCH   4   5
ATOM      5  C   UNL     1      55.860  26.107  52.821  1.00  0.00     0.000 C 
BRANCH   5   6
ATOM      6  C   UNL     1      56.984  25.885  53.847  1.00  0.00     0.000 C 
BRANCH   6   7
ATOM      7  C   UNL     1      57.493  27.182  54.512  1.00  0.00     0.000 C 
BRANCH   7   8
ATOM      8  C   UNL     1      58.265  26.913  55.816  1.00  0.00     0.000 C 
BRANCH   8   9
ATOM      9  C   UNL     1      58.558  28.207  56.595  1.00  0.00     0.000 C 
BRANCH   9  10
ATOM     10  C   UNL     1      57.926  29.440  55.930  1.00  0.00     0.000 C 
BRANCH  10  11
ATOM     11  C   UNL     1      58.510  30.739  56.507  1.00  0.00     0.000 C 
BRANCH  11  12
ATOM     12  C   UNL     1      59.172  31.628  55.437  1.00  0.00     0.000 C 
BRANCH  12  13
ATOM     13  C   UNL     1      58.269  31.996  54.242  1.00  0.00     0.006 C 
BRANCH  13  14
ATOM     14  C   UNL     1      58.873  33.039  53.289  1.00  0.00     0.053 C 
BRANCH  14  15
ATOM     15  C   UNL     1      58.381  34.422  53.588  1.00  0.00     0.041 C 
ATOM     16  O   UNL     1      58.405  35.308  52.693  1.00  0.00    -0.550 OA
ATOM     17  O   UNL     1      57.932  34.743  54.862  1.00  0.00    -0.550 OA
ENDBRANCH  14  15
ENDBRANCH  13  14
ENDBRANCH  12  13
ENDBRANCH  11  12
ENDBRANCH  10  11
ENDBRANCH   9  10
ENDBRANCH   8   9
ENDBRANCH   7   8
ENDBRANCH   6   7
ENDBRANCH   5   6
ENDBRANCH   4   5
ENDBRANCH   3   4
ENDBRANCH   2   3
ENDBRANCH   1   2
BRANCH   1  18
ATOM     18  C   UNL     1      56.262  29.613  51.900  1.00  0.00     0.000 C 
BRANCH  18  19
ATOM     19  C   UNL     1      57.740  29.455  51.501  1.00  0.00     0.000 C 
BRANCH  19  20
ATOM     20  C   UNL     1      58.015  29.490  49.984  1.00  0.00     0.000 C 
BRANCH  20  21
ATOM     21  C   UNL     1      59.302  28.747  49.567  1.00  0.00     0.000 C 
BRANCH  21  22
ATOM     22  C   UNL     1      59.144  27.218  49.655  1.00  0.00     0.000 C 
BRANCH  22  23
ATOM     23  C   UNL     1      60.270  26.550  50.454  1.00  0.00     0.000 C 
BRANCH  23  24
ATOM     24  C   UNL     1      60.043  26.627  51.975  1.00  0.00    -0.000 C 
BRANCH  24  25
ATOM     25  C   UNL     1      61.363  26.554  52.759  1.00  0.00    -0.000 C 
BRANCH  25  26
ATOM     26  C   UNL     1      61.423  27.587  53.899  1.00  0.00    -0.000 C 
BRANCH  26  27
ATOM     27  C   UNL     1      60.715  28.908  53.532  1.00  0.00    -0.000 C 
BRANCH  27  28
ATOM     28  C   UNL     1      61.681  30.023  53.086  1.00  0.00    -0.000 C 
BRANCH  28  29
ATOM     29  C   UNL     1      61.313  30.701  51.753  1.00  0.00    -0.000 C 
BRANCH  29  30
ATOM     30  C   UNL     1      62.337  30.499  50.620  1.00  0.00    -0.000 C 
BRANCH  30  31
ATOM     31  C   UNL     1      62.992  29.102  50.614  1.00  0.00    -0.003 C 
ATOM     32  C   UNL     1      63.179  28.548  49.200  1.00  0.00     0.004 C 
ENDBRANCH  30  31
ENDBRANCH  29  30
ENDBRANCH  28  29
ENDBRANCH  27  28
ENDBRANCH  26  27
ENDBRANCH  25  26
ENDBRANCH  24  25
ENDBRANCH  23  24
ENDBRANCH  22  23
ENDBRANCH  21  22
ENDBRANCH  20  21
ENDBRANCH  19  20
ENDBRANCH  18  19
ENDBRANCH   1  18
TORSDOF 28
ENDMDL
MODEL 8
REMARK VINA RESULT:    -2.689      2.223      5.496
REMARK INTER + INTRA:         -13.201
REMARK INTER:                  -6.898
REMARK INTRA:                  -6.303
REMARK UNBOUND:                -6.111
REMARK SMILES CCCCCCCCCCCCCCCCCCCCCCCCCCCCCC(=O)[O-]
REMARK SMILES IDX 16 1 17 2 18 3 19 4 20 5 21 6 22 7 23 8 24 9 25 10 26 11
REMARK SMILES IDX 27 12 28 13 29 14 30 15 31 16 32 17 15 18 14 19 13 20 12 21
REMARK SMILES IDX 11 22 10 23 9 24 8 25 7 26 6 27 5 28 4 29 3 30 2 31 1 32
REMARK H PARENT
REMARK Flexibility Score: inf
ROOT
ATOM      1  C   UNL     1      54.824  27.265  50.345  1.00  0.00     0.000 C 
ENDROOT
BRANCH   1   2
ATOM      2  C   UNL     1      55.077  26.271  51.493  1.00  0.00     0.000 C 
BRANCH   2   3
ATOM      3  C   UNL     1      53.856  25.966  52.386  1.00  0.00     0.000 C 
BRANCH   3   4
ATOM      4  C   UNL     1      53.792  26.743  53.714  1.00  0.00     0.000 C 
BRANCH   4   5
ATOM      5  C   UNL     1      54.878  26.321  54.715  1.00  0.00     0.000 C 
BRANCH   5   6
ATOM      6  C   UNL     1      55.554  27.522  55.399  1.00  0.00     0.000 C 
BRANCH   6   7
ATOM      7  C   UNL     1      54.615  28.331  56.319  1.00  0.00     0.000 C 
BRANCH   7   8
ATOM      8  C   UNL     1      55.057  29.797  56.472  1.00  0.00     0.000 C 
BRANCH   8   9
ATOM      9  C   UNL     1      55.856  30.031  57.766  1.00  0.00     0.000 C 
BRANCH   9  10
ATOM     10  C   UNL     1      57.174  30.776  57.507  1.00  0.00     0.000 C 
BRANCH  10  11
ATOM     11  C   UNL     1      57.582  30.681  56.029  1.00  0.00     0.000 C 
BRANCH  11  12
ATOM     12  C   UNL     1      58.329  31.933  55.530  1.00  0.00     0.000 C 
BRANCH  12  13
ATOM     13  C   UNL     1      57.586  33.268  55.746  1.00  0.00     0.006 C 
BRANCH  13  14
ATOM     14  C   UNL     1      56.355  33.460  54.848  1.00  0.00     0.053 C 
BRANCH  14  15
ATOM     15  C   UNL     1      55.076  33.386  55.626  1.00  0.00     0.041 C 
ATOM     16  O   UNL     1      53.987  33.170  55.032  1.00  0.00    -0.550 OA
ATOM     17  O   UNL     1      55.082  33.591  56.999  1.00  0.00    -0.550 OA
ENDBRANCH  14  15
ENDBRANCH  13  14
ENDBRANCH  12  13
ENDBRANCH  11  12
ENDBRANCH  10  11
ENDBRANCH   9  10
ENDBRANCH   8   9
ENDBRANCH   7   8
ENDBRANCH   6   7
ENDBRANCH   5   6
ENDBRANCH   4   5
ENDBRANCH   3   4
ENDBRANCH   2   3
ENDBRANCH   1   2
BRANCH   1  18
ATOM     18  C   UNL     1      53.330  27.558  50.130  1.00  0.00     0.000 C 
BRANCH  18  19
ATOM     19  C   UNL     1      52.971  29.031  50.398  1.00  0.00     0.000 C 
BRANCH  19  20
ATOM     20  C   UNL     1      54.147  29.918  50.852  1.00  0.00     0.000 C 
BRANCH  20  21
ATOM     21  C   UNL     1      54.176  30.185  52.372  1.00  0.00     0.000 C 
BRANCH  21  22
ATOM     22  C   UNL     1      55.581  30.572  52.867  1.00  0.00     0.000 C 
BRANCH  22  23
ATOM     23  C   UNL     1      56.623  29.476  52.612  1.00  0.00     0.000 C 
BRANCH  23  24
ATOM     24  C   UNL     1      57.817  29.975  51.777  1.00  0.00    -0.000 C 
BRANCH  24  25
ATOM     25  C   UNL     1      57.803  29.402  50.351  1.00  0.00    -0.000 C 
BRANCH  25  26
ATOM     26  C   UNL     1      59.221  29.246  49.771  1.00  0.00    -0.000 C 
BRANCH  26  27
ATOM     27  C   UNL     1      59.872  27.904  50.165  1.00  0.00    -0.000 C 
BRANCH  27  28
ATOM     28  C   UNL     1      58.986  26.678  49.870  1.00  0.00    -0.000 C 
BRANCH  28  29
ATOM     29  C   UNL     1      58.671  25.800  51.096  1.00  0.00    -0.000 C 
BRANCH  29  30
ATOM     30  C   UNL     1      58.820  26.509  52.456  1.00  0.00    -0.000 C 
BRANCH  30  31
ATOM     31  C   UNL     1      58.437  25.628  53.662  1.00  0.00    -0.003 C 
ATOM     32  C   UNL     1      57.698  24.354  53.246  1.00  0.00     0.004 C 
ENDBRANCH  30  31
ENDBRANCH  29  30
ENDBRANCH  28  29
ENDBRANCH  27  28
ENDBRANCH  26  27
ENDBRANCH  25  26
ENDBRANCH  24  25
ENDBRANCH  23  24
ENDBRANCH  22  23
ENDBRANCH  21  22
ENDBRANCH  20  21
ENDBRANCH  19  20
ENDBRANCH  18  19
ENDBRANCH   1  18
TORSDOF 28
ENDMDL
MODEL 9
REMARK VINA RESULT:    -2.673      1.510      5.218
REMARK INTER + INTRA:         -13.158
REMARK INTER:                  -7.191
REMARK INTRA:                  -5.968
REMARK UNBOUND:                -6.111
REMARK SMILES CCCCCCCCCCCCCCCCCCCCCCCCCCCCCC(=O)[O-]
REMARK SMILES IDX 16 1 17 2 18 3 19 4 20 5 21 6 22 7 23 8 24 9 25 10 26 11
REMARK SMILES IDX 27 12 28 13 29 14 30 15 31 16 32 17 15 18 14 19 13 20 12 21
REMARK SMILES IDX 11 22 10 23 9 24 8 25 7 26 6 27 5 28 4 29 3 30 2 31 1 32
REMARK H PARENT
REMARK Flexibility Score: inf
ROOT
ATOM      1  C   UNL     1      56.591  26.289  52.066  1.00  0.00     0.000 C 
ENDROOT
BRANCH   1   2
ATOM      2  C   UNL     1      58.096  26.001  51.926  1.00  0.00     0.000 C 
BRANCH   2   3
ATOM      3  C   UNL     1      58.652  26.067  50.487  1.00  0.00     0.000 C 
BRANCH   3   4
ATOM      4  C   UNL     1      60.133  26.469  50.364  1.00  0.00     0.000 C 
BRANCH   4   5
ATOM      5  C   UNL     1      60.336  27.834  49.688  1.00  0.00     0.000 C 
BRANCH   5   6
ATOM      6  C   UNL     1      59.009  28.555  49.397  1.00  0.00     0.000 C 
BRANCH   6   7
ATOM      7  C   UNL     1      58.913  29.968  50.011  1.00  0.00     0.000 C 
BRANCH   7   8
ATOM      8  C   UNL     1      58.432  29.945  51.473  1.00  0.00     0.000 C 
BRANCH   8   9
ATOM      9  C   UNL     1      59.583  30.176  52.467  1.00  0.00     0.000 C 
BRANCH   9  10
ATOM     10  C   UNL     1      59.941  28.901  53.246  1.00  0.00     0.000 C 
BRANCH  10  11
ATOM     11  C   UNL     1      60.420  29.237  54.667  1.00  0.00     0.000 C 
BRANCH  11  12
ATOM     12  C   UNL     1      60.370  30.746  54.977  1.00  0.00     0.000 C 
BRANCH  12  13
ATOM     13  C   UNL     1      60.759  31.130  56.419  1.00  0.00     0.006 C 
BRANCH  13  14
ATOM     14  C   UNL     1      59.683  30.817  57.470  1.00  0.00     0.053 C 
BRANCH  14  15
ATOM     15  C   UNL     1      60.283  30.444  58.792  1.00  0.00     0.041 C 
ATOM     16  O   UNL     1      59.537  30.169  59.769  1.00  0.00    -0.550 OA
ATOM     17  O   UNL     1      61.662  30.434  58.954  1.00  0.00    -0.550 OA
ENDBRANCH  14  15
ENDBRANCH  13  14
ENDBRANCH  12  13
ENDBRANCH  11  12
ENDBRANCH  10  11
ENDBRANCH   9  10
ENDBRANCH   8   9
ENDBRANCH   7   8
ENDBRANCH   6   7
ENDBRANCH   5   6
ENDBRANCH   4   5
ENDBRANCH   3   4
ENDBRANCH   2   3
ENDBRANCH   1   2
BRANCH   1  18
ATOM     18  C   UNL     1      55.934  26.684  50.733  1.00  0.00     0.000 C 
BRANCH  18  19
ATOM     19  C   UNL     1      55.506  28.162  50.699  1.00  0.00     0.000 C 
BRANCH  19  20
ATOM     20  C   UNL     1      54.035  28.407  50.307  1.00  0.00     0.000 C 
BRANCH  20  21
ATOM     21  C   UNL     1      53.525  29.821  50.657  1.00  0.00     0.000 C 
BRANCH  21  22
ATOM     22  C   UNL     1      54.254  30.417  51.874  1.00  0.00     0.000 C 
BRANCH  22  23
ATOM     23  C   UNL     1      53.415  30.360  53.157  1.00  0.00     0.000 C 
BRANCH  23  24
ATOM     24  C   UNL     1      54.275  30.182  54.421  1.00  0.00    -0.000 C 
BRANCH  24  25
ATOM     25  C   UNL     1      55.583  29.430  54.128  1.00  0.00    -0.000 C 
BRANCH  25  26
ATOM     26  C   UNL     1      56.775  30.003  54.915  1.00  0.00    -0.000 C 
BRANCH  26  27
ATOM     27  C   UNL     1      56.620  31.512  55.200  1.00  0.00    -0.000 C 
BRANCH  27  28
ATOM     28  C   UNL     1      57.188  32.412  54.085  1.00  0.00    -0.000 C 
BRANCH  28  29
ATOM     29  C   UNL     1      56.477  33.769  53.926  1.00  0.00    -0.000 C 
BRANCH  29  30
ATOM     30  C   UNL     1      55.102  33.702  53.235  1.00  0.00    -0.000 C 
BRANCH  30  31
ATOM     31  C   UNL     1      53.915  33.961  54.185  1.00  0.00    -0.003 C 
ATOM     32  C   UNL     1      54.366  34.367  55.590  1.00  0.00     0.004 C 
ENDBRANCH  30  31
ENDBRANCH  29  30
ENDBRANCH  28  29
ENDBRANCH  27  28
ENDBRANCH  26  27
ENDBRANCH  25  26
ENDBRANCH  24  25
ENDBRANCH  23  24
ENDBRANCH  22  23
ENDBRANCH  21  22
ENDBRANCH  20  21
ENDBRANCH  19  20
ENDBRANCH  18  19
ENDBRANCH   1  18
TORSDOF 28
ENDMDL
