MODEL 1
REMARK VINA RESULT:    -6.015      0.000      0.000
REMARK INTER + INTRA:          -7.169
REMARK INTER:                  -7.070
REMARK INTRA:                  -0.099
REMARK UNBOUND:                -0.099
REMARK SMILES O=c1c(O)c(-c2ccc(O)cc2)oc2cc(O)cc(O)c12
REMARK SMILES IDX 5 1 3 2 2 3 1 4 21 5 19 6 18 7 16 8 15 9 14 10 13 11 6 12
REMARK SMILES IDX 7 13 8 14 9 15 12 16 11 17 10 18 4 20 20 22 17 24
REMARK H PARENT 10 19 4 21 20 23 17 25
REMARK Flexibility Score: inf
ROOT
ATOM      1  C   UNL     1      31.008 -91.905  37.634  1.00  0.00     0.180 A 
ATOM      2  C   UNL     1      29.777 -92.503  37.316  1.00  0.00     0.208 A 
ATOM      3  C   UNL     1      29.644 -93.896  37.439  1.00  0.00     0.238 A 
ATOM      4  O   UNL     1      28.523 -94.419  37.205  1.00  0.00    -0.285 OA
ATOM      5  C   UNL     1      30.748 -94.674  37.862  1.00  0.00     0.111 A 
ATOM      6  C   UNL     1      30.739 -96.095  37.983  1.00  0.00     0.134 A 
ATOM      7  C   UNL     1      31.847 -96.749  38.536  1.00  0.00     0.093 A 
ATOM      8  C   UNL     1      32.989 -96.038  38.911  1.00  0.00     0.123 A 
ATOM      9  C   UNL     1      33.030 -94.656  38.742  1.00  0.00     0.094 A 
ATOM     10  C   UNL     1      31.927 -93.972  38.226  1.00  0.00     0.146 A 
ATOM     11  O   UNL     1      32.004 -92.653  38.091  1.00  0.00    -0.452 OA
ENDROOT
BRANCH   1  12
ATOM     12  C   UNL     1      31.232 -90.446  37.505  1.00  0.00     0.021 A 
ATOM     13  C   UNL     1      30.487 -89.520  38.259  1.00  0.00     0.016 A 
ATOM     14  C   UNL     1      30.700 -88.148  38.103  1.00  0.00     0.047 A 
ATOM     15  C   UNL     1      31.647 -87.682  37.183  1.00  0.00     0.115 A 
ATOM     16  C   UNL     1      32.165 -89.970  36.569  1.00  0.00     0.016 A 
ATOM     17  C   UNL     1      32.376 -88.596  36.416  1.00  0.00     0.047 A 
BRANCH  15  18
ATOM     18  O   UNL     1      31.867 -86.316  37.020  1.00  0.00    -0.508 OA
ATOM     19  H   UNL     1      32.453 -85.959  36.275  1.00  0.00     0.293 HD
ENDBRANCH  15  18
ENDBRANCH   1  12
BRANCH   2  20
ATOM     20  O   UNL     1      28.692 -91.714  36.921  1.00  0.00    -0.502 OA
ATOM     21  H   UNL     1      28.372 -90.919  37.461  1.00  0.00     0.293 HD
ENDBRANCH   2  20
BRANCH   6  22
ATOM     22  O   UNL     1      29.685 -96.908  37.553  1.00  0.00    -0.507 OA
ATOM     23  H   UNL     1      29.688 -97.916  37.581  1.00  0.00     0.293 HD
ENDBRANCH   6  22
BRANCH   8  24
ATOM     24  O   UNL     1      34.094 -96.697  39.446  1.00  0.00    -0.508 OA
ATOM     25  H   UNL     1      34.727 -96.234  40.088  1.00  0.00     0.293 HD
ENDBRANCH   8  24
TORSDOF 5
ENDMDL
MODEL 2
REMARK VINA RESULT:    -5.751      9.604     10.828
REMARK INTER + INTRA:          -6.859
REMARK INTER:                  -6.561
REMARK INTRA:                  -0.298
REMARK UNBOUND:                -0.099
REMARK SMILES O=c1c(O)c(-c2ccc(O)cc2)oc2cc(O)cc(O)c12
REMARK SMILES IDX 5 1 3 2 2 3 1 4 21 5 19 6 18 7 16 8 15 9 14 10 13 11 6 12
REMARK SMILES IDX 7 13 8 14 9 15 12 16 11 17 10 18 4 20 20 22 17 24
REMARK H PARENT 10 19 4 21 20 23 17 25
REMARK Flexibility Score: inf
ROOT
ATOM      1  C   UNL     1      36.083 -95.173  29.758  1.00  0.00     0.180 A 
ATOM      2  C   UNL     1      37.137 -95.589  28.926  1.00  0.00     0.208 A 
ATOM      3  C   UNL     1      38.449 -95.562  29.424  1.00  0.00     0.238 A 
ATOM      4  O   UNL     1      39.382 -95.987  28.693  1.00  0.00    -0.285 OA
ATOM      5  C   UNL     1      38.694 -95.104  30.741  1.00  0.00     0.111 A 
ATOM      6  C   UNL     1      39.986 -94.997  31.335  1.00  0.00     0.134 A 
ATOM      7  C   UNL     1      40.099 -94.656  32.688  1.00  0.00     0.093 A 
ATOM      8  C   UNL     1      38.969 -94.355  33.452  1.00  0.00     0.123 A 
ATOM      9  C   UNL     1      37.707 -94.400  32.865  1.00  0.00     0.094 A 
ATOM     10  C   UNL     1      37.559 -94.771  31.526  1.00  0.00     0.146 A 
ATOM     11  O   UNL     1      36.337 -94.812  31.010  1.00  0.00    -0.452 OA
ENDROOT
BRANCH   1  12
ATOM     12  C   UNL     1      34.676 -95.149  29.295  1.00  0.00     0.021 A 
ATOM     13  C   UNL     1      34.145 -94.036  28.618  1.00  0.00     0.016 A 
ATOM     14  C   UNL     1      32.807 -94.027  28.213  1.00  0.00     0.047 A 
ATOM     15  C   UNL     1      31.980 -95.123  28.491  1.00  0.00     0.115 A 
ATOM     16  C   UNL     1      33.834 -96.234  29.589  1.00  0.00     0.016 A 
ATOM     17  C   UNL     1      32.496 -96.224  29.182  1.00  0.00     0.047 A 
BRANCH  15  18
ATOM     18  O   UNL     1      30.645 -95.124  28.091  1.00  0.00    -0.508 OA
ATOM     19  H   UNL     1      30.360 -95.517  27.202  1.00  0.00     0.293 HD
ENDBRANCH  15  18
ENDBRANCH   1  12
BRANCH   2  20
ATOM     20  O   UNL     1      36.871 -96.058  27.636  1.00  0.00    -0.502 OA
ATOM     21  H   UNL     1      37.593 -96.437  27.035  1.00  0.00     0.293 HD
ENDBRANCH   2  20
BRANCH   6  22
ATOM     22  O   UNL     1      41.184 -95.185  30.637  1.00  0.00    -0.507 OA
ATOM     23  H   UNL     1      41.503 -96.069  30.271  1.00  0.00     0.293 HD
ENDBRANCH   6  22
BRANCH   8  24
ATOM     24  O   UNL     1      39.090 -94.002  34.794  1.00  0.00    -0.508 OA
ATOM     25  H   UNL     1      39.647 -93.205  35.083  1.00  0.00     0.293 HD
ENDBRANCH   8  24
TORSDOF 5
ENDMDL
MODEL 3
REMARK VINA RESULT:    -5.687      1.484      3.164
REMARK INTER + INTRA:          -6.783
REMARK INTER:                  -6.705
REMARK INTRA:                  -0.078
REMARK UNBOUND:                -0.099
REMARK SMILES O=c1c(O)c(-c2ccc(O)cc2)oc2cc(O)cc(O)c12
REMARK SMILES IDX 5 1 3 2 2 3 1 4 21 5 19 6 18 7 16 8 15 9 14 10 13 11 6 12
REMARK SMILES IDX 7 13 8 14 9 15 12 16 11 17 10 18 4 20 20 22 17 24
REMARK H PARENT 10 19 4 21 20 23 17 25
REMARK Flexibility Score: inf
ROOT
ATOM      1  C   UNL     1      30.619 -92.206  37.628  1.00  0.00     0.180 A 
ATOM      2  C   UNL     1      31.872 -92.776  37.910  1.00  0.00     0.208 A 
ATOM      3  C   UNL     1      31.961 -94.163  38.105  1.00  0.00     0.238 A 
ATOM      4  O   UNL     1      33.095 -94.674  38.303  1.00  0.00    -0.285 OA
ATOM      5  C   UNL     1      30.794 -94.961  38.032  1.00  0.00     0.111 A 
ATOM      6  C   UNL     1      30.761 -96.371  38.252  1.00  0.00     0.134 A 
ATOM      7  C   UNL     1      29.574 -97.078  38.025  1.00  0.00     0.093 A 
ATOM      8  C   UNL     1      28.403 -96.416  37.649  1.00  0.00     0.123 A 
ATOM      9  C   UNL     1      28.410 -95.033  37.489  1.00  0.00     0.094 A 
ATOM     10  C   UNL     1      29.588 -94.304  37.674  1.00  0.00     0.146 A 
ATOM     11  O   UNL     1      29.554 -92.989  37.501  1.00  0.00    -0.452 OA
ENDROOT
BRANCH   1  12
ATOM     12  C   UNL     1      30.441 -90.748  37.436  1.00  0.00     0.021 A 
ATOM     13  C   UNL     1      31.114 -90.056  36.411  1.00  0.00     0.016 A 
ATOM     14  C   UNL     1      30.948 -88.676  36.263  1.00  0.00     0.047 A 
ATOM     15  C   UNL     1      30.123 -87.967  37.146  1.00  0.00     0.115 A 
ATOM     16  C   UNL     1      29.632 -90.026  38.328  1.00  0.00     0.016 A 
ATOM     17  C   UNL     1      29.468 -88.646  38.179  1.00  0.00     0.047 A 
BRANCH  15  18
ATOM     18  O   UNL     1      29.951 -86.592  37.007  1.00  0.00    -0.508 OA
ATOM     19  H   UNL     1      29.033 -86.166  37.051  1.00  0.00     0.293 HD
ENDBRANCH  15  18
ENDBRANCH   1  12
BRANCH   2  20
ATOM     20  O   UNL     1      33.016 -91.973  37.956  1.00  0.00    -0.502 OA
ATOM     21  H   UNL     1      33.564 -91.758  37.132  1.00  0.00     0.293 HD
ENDBRANCH   2  20
BRANCH   6  22
ATOM     22  O   UNL     1      31.851 -97.113  38.717  1.00  0.00    -0.507 OA
ATOM     23  H   UNL     1      32.780 -97.078  38.326  1.00  0.00     0.293 HD
ENDBRANCH   6  22
BRANCH   8  24
ATOM     24  O   UNL     1      27.221 -97.125  37.441  1.00  0.00    -0.508 OA
ATOM     25  H   UNL     1      27.231 -98.098  37.159  1.00  0.00     0.293 HD
ENDBRANCH   8  24
TORSDOF 5
ENDMDL
MODEL 4
REMARK VINA RESULT:    -5.639      9.504     10.927
REMARK INTER + INTRA:          -6.727
REMARK INTER:                  -6.631
REMARK INTRA:                  -0.096
REMARK UNBOUND:                -0.099
REMARK SMILES O=c1c(O)c(-c2ccc(O)cc2)oc2cc(O)cc(O)c12
REMARK SMILES IDX 5 1 3 2 2 3 1 4 21 5 19 6 18 7 16 8 15 9 14 10 13 11 6 12
REMARK SMILES IDX 7 13 8 14 9 15 12 16 11 17 10 18 4 20 20 22 17 24
REMARK H PARENT 10 19 4 21 20 23 17 25
REMARK Flexibility Score: inf
ROOT
ATOM      1  C   UNL     1      37.445 -95.133  31.020  1.00  0.00     0.180 A 
ATOM      2  C   UNL     1      38.100 -95.752  29.942  1.00  0.00     0.208 A 
ATOM      3  C   UNL     1      37.416 -95.901  28.725  1.00  0.00     0.238 A 
ATOM      4  O   UNL     1      38.028 -96.407  27.747  1.00  0.00    -0.285 OA
ATOM      5  C   UNL     1      36.082 -95.445  28.606  1.00  0.00     0.111 A 
ATOM      6  C   UNL     1      35.281 -95.582  27.434  1.00  0.00     0.134 A 
ATOM      7  C   UNL     1      34.018 -94.977  27.385  1.00  0.00     0.093 A 
ATOM      8  C   UNL     1      33.503 -94.298  28.491  1.00  0.00     0.123 A 
ATOM      9  C   UNL     1      34.253 -94.211  29.661  1.00  0.00     0.094 A 
ATOM     10  C   UNL     1      35.531 -94.772  29.728  1.00  0.00     0.146 A 
ATOM     11  O   UNL     1      36.217 -94.657  30.858  1.00  0.00    -0.452 OA
ENDROOT
BRANCH   1  12
ATOM     12  C   UNL     1      38.092 -94.962  32.342  1.00  0.00     0.021 A 
ATOM     13  C   UNL     1      37.557 -95.553  33.502  1.00  0.00     0.016 A 
ATOM     14  C   UNL     1      38.172 -95.358  34.742  1.00  0.00     0.047 A 
ATOM     15  C   UNL     1      39.318 -94.558  34.843  1.00  0.00     0.115 A 
ATOM     16  C   UNL     1      39.229 -94.145  32.455  1.00  0.00     0.016 A 
ATOM     17  C   UNL     1      39.842 -93.951  33.697  1.00  0.00     0.047 A 
BRANCH  15  18
ATOM     18  O   UNL     1      39.938 -94.357  36.074  1.00  0.00    -0.508 OA
ATOM     19  H   UNL     1      40.642 -93.641  36.201  1.00  0.00     0.293 HD
ENDBRANCH  15  18
ENDBRANCH   1  12
BRANCH   2  20
ATOM     20  O   UNL     1      39.426 -96.175  30.074  1.00  0.00    -0.502 OA
ATOM     21  H   UNL     1      40.116 -95.649  30.597  1.00  0.00     0.293 HD
ENDBRANCH   2  20
BRANCH   6  22
ATOM     22  O   UNL     1      35.663 -96.318  26.308  1.00  0.00    -0.507 OA
ATOM     23  H   UNL     1      35.730 -97.323  26.274  1.00  0.00     0.293 HD
ENDBRANCH   6  22
BRANCH   8  24
ATOM     24  O   UNL     1      32.239 -93.713  28.441  1.00  0.00    -0.508 OA
ATOM     25  H   UNL     1      31.930 -93.190  27.630  1.00  0.00     0.293 HD
ENDBRANCH   8  24
TORSDOF 5
ENDMDL
MODEL 5
REMARK VINA RESULT:    -5.549      7.916     10.300
REMARK INTER + INTRA:          -6.621
REMARK INTER:                  -6.457
REMARK INTRA:                  -0.164
REMARK UNBOUND:                -0.099
REMARK SMILES O=c1c(O)c(-c2ccc(O)cc2)oc2cc(O)cc(O)c12
REMARK SMILES IDX 5 1 3 2 2 3 1 4 21 5 19 6 18 7 16 8 15 9 14 10 13 11 6 12
REMARK SMILES IDX 7 13 8 14 9 15 12 16 11 17 10 18 4 20 20 22 17 24
REMARK H PARENT 10 19 4 21 20 23 17 25
REMARK Flexibility Score: inf
ROOT
ATOM      1  C   UNL     1      39.952 -95.048  35.206  1.00  0.00     0.180 A 
ATOM      2  C   UNL     1      41.016 -94.696  36.053  1.00  0.00     0.208 A 
ATOM      3  C   UNL     1      40.823 -94.744  37.444  1.00  0.00     0.238 A 
ATOM      4  O   UNL     1      41.797 -94.480  38.197  1.00  0.00    -0.285 OA
ATOM      5  C   UNL     1      39.566 -95.127  37.968  1.00  0.00     0.111 A 
ATOM      6  C   UNL     1      39.247 -95.171  39.358  1.00  0.00     0.134 A 
ATOM      7  C   UNL     1      38.013 -95.690  39.768  1.00  0.00     0.093 A 
ATOM      8  C   UNL     1      37.061 -96.105  38.834  1.00  0.00     0.123 A 
ATOM      9  C   UNL     1      37.340 -96.010  37.473  1.00  0.00     0.094 A 
ATOM     10  C   UNL     1      38.576 -95.530  37.034  1.00  0.00     0.146 A 
ATOM     11  O   UNL     1      38.805 -95.467  35.728  1.00  0.00    -0.452 OA
ENDROOT
BRANCH   1  12
ATOM     12  C   UNL     1      40.070 -94.999  33.730  1.00  0.00     0.021 A 
ATOM     13  C   UNL     1      39.343 -94.067  32.967  1.00  0.00     0.016 A 
ATOM     14  C   UNL     1      39.453 -94.055  31.573  1.00  0.00     0.047 A 
ATOM     15  C   UNL     1      40.278 -94.983  30.924  1.00  0.00     0.115 A 
ATOM     16  C   UNL     1      40.879 -95.939  33.069  1.00  0.00     0.016 A 
ATOM     17  C   UNL     1      40.987 -95.925  31.676  1.00  0.00     0.047 A 
BRANCH  15  18
ATOM     18  O   UNL     1      40.396 -94.980  29.536  1.00  0.00    -0.508 OA
ATOM     19  H   UNL     1      40.837 -95.744  29.040  1.00  0.00     0.293 HD
ENDBRANCH  15  18
ENDBRANCH   1  12
BRANCH   2  20
ATOM     20  O   UNL     1      42.256 -94.342  35.515  1.00  0.00    -0.502 OA
ATOM     21  H   UNL     1      42.370 -94.057  34.549  1.00  0.00     0.293 HD
ENDBRANCH   2  20
BRANCH   6  22
ATOM     22  O   UNL     1      40.090 -94.695  40.367  1.00  0.00    -0.507 OA
ATOM     23  H   UNL     1      41.093 -94.795  40.373  1.00  0.00     0.293 HD
ENDBRANCH   6  22
BRANCH   8  24
ATOM     24  O   UNL     1      35.828 -96.606  39.249  1.00  0.00    -0.508 OA
ATOM     25  H   UNL     1      35.011 -96.010  39.319  1.00  0.00     0.293 HD
ENDBRANCH   8  24
TORSDOF 5
ENDMDL
MODEL 6
REMARK VINA RESULT:    -5.293      9.218     10.654
REMARK INTER + INTRA:          -6.320
REMARK INTER:                  -6.071
REMARK INTRA:                  -0.249
REMARK UNBOUND:                -0.099
REMARK SMILES O=c1c(O)c(-c2ccc(O)cc2)oc2cc(O)cc(O)c12
REMARK SMILES IDX 5 1 3 2 2 3 1 4 21 5 19 6 18 7 16 8 15 9 14 10 13 11 6 12
REMARK SMILES IDX 7 13 8 14 9 15 12 16 11 17 10 18 4 20 20 22 17 24
REMARK H PARENT 10 19 4 21 20 23 17 25
REMARK Flexibility Score: inf
ROOT
ATOM      1  C   UNL     1      30.959 -95.604  29.078  1.00  0.00     0.180 A 
ATOM      2  C   UNL     1      30.486 -95.792  30.387  1.00  0.00     0.208 A 
ATOM      3  C   UNL     1      29.111 -95.988  30.593  1.00  0.00     0.238 A 
ATOM      4  O   UNL     1      28.701 -96.211  31.763  1.00  0.00    -0.285 OA
ATOM      5  C   UNL     1      28.225 -95.979  29.489  1.00  0.00     0.111 A 
ATOM      6  C   UNL     1      26.810 -96.128  29.585  1.00  0.00     0.134 A 
ATOM      7  C   UNL     1      26.045 -96.233  28.417  1.00  0.00     0.093 A 
ATOM      8  C   UNL     1      26.638 -96.129  27.156  1.00  0.00     0.123 A 
ATOM      9  C   UNL     1      28.012 -95.924  27.053  1.00  0.00     0.094 A 
ATOM     10  C   UNL     1      28.806 -95.851  28.201  1.00  0.00     0.146 A 
ATOM     11  O   UNL     1      30.113 -95.665  28.057  1.00  0.00    -0.452 OA
ENDROOT
BRANCH   1  12
ATOM     12  C   UNL     1      32.391 -95.365  28.784  1.00  0.00     0.021 A 
ATOM     13  C   UNL     1      32.873 -94.079  28.475  1.00  0.00     0.016 A 
ATOM     14  C   UNL     1      34.224 -93.883  28.178  1.00  0.00     0.047 A 
ATOM     15  C   UNL     1      35.109 -94.970  28.170  1.00  0.00     0.115 A 
ATOM     16  C   UNL     1      33.281 -96.452  28.753  1.00  0.00     0.016 A 
ATOM     17  C   UNL     1      34.633 -96.253  28.456  1.00  0.00     0.047 A 
BRANCH  15  18
ATOM     18  O   UNL     1      36.458 -94.785  27.876  1.00  0.00    -0.508 OA
ATOM     19  H   UNL     1      36.765 -94.513  26.950  1.00  0.00     0.293 HD
ENDBRANCH  15  18
ENDBRANCH   1  12
BRANCH   2  20
ATOM     20  O   UNL     1      31.381 -95.820  31.461  1.00  0.00    -0.502 OA
ATOM     21  H   UNL     1      32.331 -96.161  31.370  1.00  0.00     0.293 HD
ENDBRANCH   2  20
BRANCH   6  22
ATOM     22  O   UNL     1      26.107 -96.150  30.794  1.00  0.00    -0.507 OA
ATOM     23  H   UNL     1      25.113 -96.011  30.884  1.00  0.00     0.293 HD
ENDBRANCH   6  22
BRANCH   8  24
ATOM     24  O   UNL     1      25.869 -96.219  25.998  1.00  0.00    -0.508 OA
ATOM     25  H   UNL     1      25.128 -96.905  25.907  1.00  0.00     0.293 HD
ENDBRANCH   8  24
TORSDOF 5
ENDMDL
MODEL 7
REMARK VINA RESULT:    -5.030     15.325     16.757
REMARK INTER + INTRA:          -6.010
REMARK INTER:                  -5.931
REMARK INTRA:                  -0.079
REMARK UNBOUND:                -0.099
REMARK SMILES O=c1c(O)c(-c2ccc(O)cc2)oc2cc(O)cc(O)c12
REMARK SMILES IDX 5 1 3 2 2 3 1 4 21 5 19 6 18 7 16 8 15 9 14 10 13 11 6 12
REMARK SMILES IDX 7 13 8 14 9 15 12 16 11 17 10 18 4 20 20 22 17 24
REMARK H PARENT 10 19 4 21 20 23 17 25
REMARK Flexibility Score: inf
ROOT
ATOM      1  C   UNL     1      37.377 -77.799  37.694  1.00  0.00     0.180 A 
ATOM      2  C   UNL     1      37.931 -77.629  36.414  1.00  0.00     0.208 A 
ATOM      3  C   UNL     1      37.072 -77.530  35.308  1.00  0.00     0.238 A 
ATOM      4  O   UNL     1      37.573 -77.323  34.171  1.00  0.00    -0.285 OA
ATOM      5  C   UNL     1      35.672 -77.618  35.493  1.00  0.00     0.111 A 
ATOM      6  C   UNL     1      34.711 -77.570  34.440  1.00  0.00     0.134 A 
ATOM      7  C   UNL     1      33.346 -77.535  34.750  1.00  0.00     0.093 A 
ATOM      8  C   UNL     1      32.907 -77.612  36.074  1.00  0.00     0.123 A 
ATOM      9  C   UNL     1      33.836 -77.718  37.106  1.00  0.00     0.094 A 
ATOM     10  C   UNL     1      35.206 -77.720  36.830  1.00  0.00     0.146 A 
ATOM     11  O   UNL     1      36.058 -77.812  37.843  1.00  0.00    -0.452 OA
ENDROOT
BRANCH   1  12
ATOM     12  C   UNL     1      38.218 -77.937  38.905  1.00  0.00     0.021 A 
ATOM     13  C   UNL     1      38.157 -79.087  39.714  1.00  0.00     0.016 A 
ATOM     14  C   UNL     1      38.943 -79.184  40.866  1.00  0.00     0.047 A 
ATOM     15  C   UNL     1      39.789 -78.129  41.232  1.00  0.00     0.115 A 
ATOM     16  C   UNL     1      39.053 -76.875  39.292  1.00  0.00     0.016 A 
ATOM     17  C   UNL     1      39.839 -76.975  40.444  1.00  0.00     0.047 A 
BRANCH  15  18
ATOM     18  O   UNL     1      40.577 -78.216  42.378  1.00  0.00    -0.508 OA
ATOM     19  H   UNL     1      41.002 -77.395  42.792  1.00  0.00     0.293 HD
ENDBRANCH  15  18
ENDBRANCH   1  12
BRANCH   2  20
ATOM     20  O   UNL     1      39.316 -77.523  36.256  1.00  0.00    -0.502 OA
ATOM     21  H   UNL     1      39.748 -77.327  35.361  1.00  0.00     0.293 HD
ENDBRANCH   2  20
BRANCH   6  22
ATOM     22  O   UNL     1      35.041 -77.584  33.081  1.00  0.00    -0.507 OA
ATOM     23  H   UNL     1      35.083 -76.767  32.491  1.00  0.00     0.293 HD
ENDBRANCH   6  22
BRANCH   8  24
ATOM     24  O   UNL     1      31.547 -77.592  36.375  1.00  0.00    -0.508 OA
ATOM     25  H   UNL     1      30.872 -77.169  35.748  1.00  0.00     0.293 HD
ENDBRANCH   8  24
TORSDOF 5
ENDMDL
MODEL 8
REMARK VINA RESULT:    -4.997     10.283     11.640
REMARK INTER + INTRA:          -5.972
REMARK INTER:                  -5.685
REMARK INTRA:                  -0.288
REMARK UNBOUND:                -0.099
REMARK SMILES O=c1c(O)c(-c2ccc(O)cc2)oc2cc(O)cc(O)c12
REMARK SMILES IDX 5 1 3 2 2 3 1 4 21 5 19 6 18 7 16 8 15 9 14 10 13 11 6 12
REMARK SMILES IDX 7 13 8 14 9 15 12 16 11 17 10 18 4 20 20 22 17 24
REMARK H PARENT 10 19 4 21 20 23 17 25
REMARK Flexibility Score: inf
ROOT
ATOM      1  C   UNL     1      39.949 -95.005  31.311  1.00  0.00     0.180 A 
ATOM      2  C   UNL     1      38.600 -95.194  31.654  1.00  0.00     0.208 A 
ATOM      3  C   UNL     1      38.246 -95.262  33.012  1.00  0.00     0.238 A 
ATOM      4  O   UNL     1      37.029 -95.376  33.314  1.00  0.00    -0.285 OA
ATOM      5  C   UNL     1      39.247 -95.155  34.007  1.00  0.00     0.111 A 
ATOM      6  C   UNL     1      39.008 -95.250  35.410  1.00  0.00     0.134 A 
ATOM      7  C   UNL     1      40.053 -95.000  36.308  1.00  0.00     0.093 A 
ATOM      8  C   UNL     1      41.343 -94.723  35.851  1.00  0.00     0.123 A 
ATOM      9  C   UNL     1      41.600 -94.687  34.483  1.00  0.00     0.094 A 
ATOM     10  C   UNL     1      40.570 -94.897  33.563  1.00  0.00     0.146 A 
ATOM     11  O   UNL     1      40.855 -94.843  32.267  1.00  0.00    -0.452 OA
ENDROOT
BRANCH   1  12
ATOM     12  C   UNL     1      40.403 -94.948  29.902  1.00  0.00     0.021 A 
ATOM     13  C   UNL     1      40.481 -93.728  29.205  1.00  0.00     0.016 A 
ATOM     14  C   UNL     1      40.889 -93.702  27.868  1.00  0.00     0.047 A 
ATOM     15  C   UNL     1      41.211 -94.895  27.206  1.00  0.00     0.115 A 
ATOM     16  C   UNL     1      40.707 -96.141  29.225  1.00  0.00     0.016 A 
ATOM     17  C   UNL     1      41.116 -96.112  27.888  1.00  0.00     0.047 A 
BRANCH  15  18
ATOM     18  O   UNL     1      41.620 -94.880  25.875  1.00  0.00    -0.508 OA
ATOM     19  H   UNL     1      40.986 -95.125  25.124  1.00  0.00     0.293 HD
ENDBRANCH  15  18
ENDBRANCH   1  12
BRANCH   2  20
ATOM     20  O   UNL     1      37.624 -95.274  30.656  1.00  0.00    -0.502 OA
ATOM     21  H   UNL     1      37.853 -95.259  29.670  1.00  0.00     0.293 HD
ENDBRANCH   2  20
BRANCH   6  22
ATOM     22  O   UNL     1      37.778 -95.612  35.969  1.00  0.00    -0.507 OA
ATOM     23  H   UNL     1      37.033 -96.074  35.471  1.00  0.00     0.293 HD
ENDBRANCH   6  22
BRANCH   8  24
ATOM     24  O   UNL     1      42.382 -94.491  36.751  1.00  0.00    -0.508 OA
ATOM     25  H   UNL     1      42.449 -95.000  37.625  1.00  0.00     0.293 HD
ENDBRANCH   8  24
TORSDOF 5
ENDMDL
MODEL 9
REMARK VINA RESULT:    -4.801      9.604     11.213
REMARK INTER + INTRA:          -5.742
REMARK INTER:                  -5.731
REMARK INTRA:                  -0.011
REMARK UNBOUND:                -0.099
REMARK SMILES O=c1c(O)c(-c2ccc(O)cc2)oc2cc(O)cc(O)c12
REMARK SMILES IDX 5 1 3 2 2 3 1 4 21 5 19 6 18 7 16 8 15 9 14 10 13 11 6 12
REMARK SMILES IDX 7 13 8 14 9 15 12 16 11 17 10 18 4 20 20 22 17 24
REMARK H PARENT 10 19 4 21 20 23 17 25
REMARK Flexibility Score: inf
ROOT
ATOM      1  C   UNL     1      39.230 -95.078  33.237  1.00  0.00     0.180 A 
ATOM      2  C   UNL     1      38.043 -94.921  32.501  1.00  0.00     0.208 A 
ATOM      3  C   UNL     1      38.098 -94.988  31.100  1.00  0.00     0.238 A 
ATOM      4  O   UNL     1      37.023 -94.902  30.449  1.00  0.00    -0.285 OA
ATOM      5  C   UNL     1      39.339 -95.195  30.452  1.00  0.00     0.111 A 
ATOM      6  C   UNL     1      39.517 -95.240  29.037  1.00  0.00     0.134 A 
ATOM      7  C   UNL     1      40.767 -95.580  28.508  1.00  0.00     0.093 A 
ATOM      8  C   UNL     1      41.863 -95.813  29.343  1.00  0.00     0.123 A 
ATOM      9  C   UNL     1      41.713 -95.713  30.724  1.00  0.00     0.094 A 
ATOM     10  C   UNL     1      40.469 -95.411  31.282  1.00  0.00     0.146 A 
ATOM     11  O   UNL     1      40.368 -95.336  32.604  1.00  0.00    -0.452 OA
ENDROOT
BRANCH   1  12
ATOM     12  C   UNL     1      39.257 -94.995  34.716  1.00  0.00     0.021 A 
ATOM     13  C   UNL     1      40.119 -94.106  35.385  1.00  0.00     0.016 A 
ATOM     14  C   UNL     1      40.143 -94.062  36.782  1.00  0.00     0.047 A 
ATOM     15  C   UNL     1      39.320 -94.916  37.528  1.00  0.00     0.115 A 
ATOM     16  C   UNL     1      38.451 -95.862  35.472  1.00  0.00     0.016 A 
ATOM     17  C   UNL     1      38.477 -95.816  36.869  1.00  0.00     0.047 A 
BRANCH  15  18
ATOM     18  O   UNL     1      39.337 -94.880  38.921  1.00  0.00    -0.508 OA
ATOM     19  H   UNL     1      39.933 -95.495  39.459  1.00  0.00     0.293 HD
ENDBRANCH  15  18
ENDBRANCH   1  12
BRANCH   2  20
ATOM     20  O   UNL     1      36.825 -94.740  33.162  1.00  0.00    -0.502 OA
ATOM     21  H   UNL     1      36.263 -93.905  33.048  1.00  0.00     0.293 HD
ENDBRANCH   2  20
BRANCH   6  22
ATOM     22  O   UNL     1      38.511 -94.933  28.114  1.00  0.00    -0.507 OA
ATOM     23  H   UNL     1      38.191 -95.553  27.386  1.00  0.00     0.293 HD
ENDBRANCH   6  22
BRANCH   8  24
ATOM     24  O   UNL     1      43.109 -96.136  28.809  1.00  0.00    -0.508 OA
ATOM     25  H   UNL     1      43.767 -96.717  29.315  1.00  0.00     0.293 HD
ENDBRANCH   8  24
TORSDOF 5
ENDMDL
