MODEL 1
REMARK VINA RESULT:    -2.720      0.000      0.000
REMARK INTER + INTRA:          -5.498
REMARK INTER:                  -4.628
REMARK INTRA:                  -0.870
REMARK UNBOUND:                -0.870
REMARK SMILES CCCCCCCCCCCCCC(=O)[O-]
REMARK SMILES IDX 8 1 9 2 10 3 11 4 12 5 13 6 14 7 15 8 16 9 7 10 6 11 5 12
REMARK SMILES IDX 4 13 3 14 2 15 1 16
REMARK H PARENT
REMARK Flexibility Score: inf
ROOT
ATOM      1  C   UNL     1      27.618  64.702  17.909  1.00  0.00     0.000 C 
ENDROOT
BRANCH   1   2
ATOM      2  C   UNL     1      27.537  66.054  18.627  1.00  0.00     0.000 C 
BRANCH   2   3
ATOM      3  C   UNL     1      28.540  66.125  19.788  1.00  0.00     0.000 C 
BRANCH   3   4
ATOM      4  C   UNL     1      29.881  65.446  19.443  1.00  0.00     0.000 C 
BRANCH   4   5
ATOM      5  C   UNL     1      30.972  65.657  20.507  1.00  0.00     0.006 C 
BRANCH   5   6
ATOM      6  C   UNL     1      30.400  65.992  21.889  1.00  0.00     0.053 C 
BRANCH   6   7
ATOM      7  C   UNL     1      31.278  65.439  22.966  1.00  0.00     0.041 C 
ATOM      8  O   UNL     1      32.431  65.015  22.689  1.00  0.00    -0.550 OA
ATOM      9  O   UNL     1      30.805  65.346  24.269  1.00  0.00    -0.550 OA
ENDBRANCH   6   7
ENDBRANCH   5   6
ENDBRANCH   4   5
ENDBRANCH   3   4
ENDBRANCH   2   3
ENDBRANCH   1   2
BRANCH   1  10
ATOM     10  C   UNL     1      27.649  64.887  16.387  1.00  0.00     0.000 C 
BRANCH  10  11
ATOM     11  C   UNL     1      28.915  65.641  15.952  1.00  0.00    -0.000 C 
BRANCH  11  12
ATOM     12  C   UNL     1      30.186  64.785  16.066  1.00  0.00    -0.000 C 
BRANCH  12  13
ATOM     13  C   UNL     1      30.450  63.950  14.800  1.00  0.00    -0.000 C 
BRANCH  13  14
ATOM     14  C   UNL     1      31.689  63.045  14.929  1.00  0.00    -0.000 C 
BRANCH  14  15
ATOM     15  C   UNL     1      32.722  63.501  15.974  1.00  0.00    -0.003 C 
ATOM     16  C   UNL     1      33.043  62.423  17.009  1.00  0.00     0.004 C 
ENDBRANCH  14  15
ENDBRANCH  13  14
ENDBRANCH  12  13
ENDBRANCH  11  12
ENDBRANCH  10  11
ENDBRANCH   1  10
TORSDOF 12
ENDMDL
MODEL 2
REMARK VINA RESULT:    -2.615     12.404     14.641
REMARK INTER + INTRA:          -5.321
REMARK INTER:                  -4.608
REMARK INTRA:                  -0.712
REMARK UNBOUND:                -0.870
REMARK SMILES CCCCCCCCCCCCCC(=O)[O-]
REMARK SMILES IDX 8 1 9 2 10 3 11 4 12 5 13 6 14 7 15 8 16 9 7 10 6 11 5 12
REMARK SMILES IDX 4 13 3 14 2 15 1 16
REMARK H PARENT
REMARK Flexibility Score: inf
ROOT
ATOM      1  C   UNL     1      16.589  64.761  17.080  1.00  0.00     0.000 C 
ENDROOT
BRANCH   1   2
ATOM      2  C   UNL     1      15.262  64.601  17.832  1.00  0.00     0.000 C 
BRANCH   2   3
ATOM      3  C   UNL     1      14.081  65.084  16.977  1.00  0.00     0.000 C 
BRANCH   3   4
ATOM      4  C   UNL     1      13.847  64.187  15.744  1.00  0.00     0.000 C 
BRANCH   4   5
ATOM      5  C   UNL     1      12.928  64.820  14.685  1.00  0.00     0.006 C 
BRANCH   5   6
ATOM      6  C   UNL     1      13.685  65.710  13.693  1.00  0.00     0.053 C 
BRANCH   6   7
ATOM      7  C   UNL     1      14.638  64.892  12.880  1.00  0.00     0.041 C 
ATOM      8  O   UNL     1      15.836  65.258  12.752  1.00  0.00    -0.550 OA
ATOM      9  O   UNL     1      14.192  63.752  12.224  1.00  0.00    -0.550 OA
ENDBRANCH   6   7
ENDBRANCH   5   6
ENDBRANCH   4   5
ENDBRANCH   3   4
ENDBRANCH   2   3
ENDBRANCH   1   2
BRANCH   1  10
ATOM     10  C   UNL     1      16.616  66.069  16.281  1.00  0.00     0.000 C 
BRANCH  10  11
ATOM     11  C   UNL     1      17.831  66.114  15.342  1.00  0.00    -0.000 C 
BRANCH  11  12
ATOM     12  C   UNL     1      19.112  65.579  16.001  1.00  0.00    -0.000 C 
BRANCH  12  13
ATOM     13  C   UNL     1      20.370  65.859  15.159  1.00  0.00    -0.000 C 
BRANCH  13  14
ATOM     14  C   UNL     1      21.618  66.125  16.020  1.00  0.00    -0.000 C 
BRANCH  14  15
ATOM     15  C   UNL     1      22.757  65.105  15.848  1.00  0.00    -0.003 C 
ATOM     16  C   UNL     1      24.117  65.644  16.294  1.00  0.00     0.004 C 
ENDBRANCH  14  15
ENDBRANCH  13  14
ENDBRANCH  12  13
ENDBRANCH  11  12
ENDBRANCH  10  11
ENDBRANCH   1  10
TORSDOF 12
ENDMDL
MODEL 3
REMARK VINA RESULT:    -2.606      3.092      5.321
REMARK INTER + INTRA:          -5.305
REMARK INTER:                  -4.248
REMARK INTRA:                  -1.057
REMARK UNBOUND:                -0.870
REMARK SMILES CCCCCCCCCCCCCC(=O)[O-]
REMARK SMILES IDX 8 1 9 2 10 3 11 4 12 5 13 6 14 7 15 8 16 9 7 10 6 11 5 12
REMARK SMILES IDX 4 13 3 14 2 15 1 16
REMARK H PARENT
REMARK Flexibility Score: inf
ROOT
ATOM      1  C   UNL     1      27.515  65.013  18.453  1.00  0.00     0.000 C 
ENDROOT
BRANCH   1   2
ATOM      2  C   UNL     1      27.199  65.634  17.086  1.00  0.00     0.000 C 
BRANCH   2   3
ATOM      3  C   UNL     1      28.452  65.678  16.197  1.00  0.00     0.000 C 
BRANCH   3   4
ATOM      4  C   UNL     1      28.805  64.294  15.617  1.00  0.00     0.000 C 
BRANCH   4   5
ATOM      5  C   UNL     1      30.251  64.193  15.099  1.00  0.00     0.006 C 
BRANCH   5   6
ATOM      6  C   UNL     1      31.269  63.946  16.217  1.00  0.00     0.053 C 
BRANCH   6   7
ATOM      7  C   UNL     1      32.409  63.119  15.713  1.00  0.00     0.041 C 
ATOM      8  O   UNL     1      33.069  62.398  16.506  1.00  0.00    -0.550 OA
ATOM      9  O   UNL     1      32.776  63.184  14.374  1.00  0.00    -0.550 OA
ENDBRANCH   6   7
ENDBRANCH   5   6
ENDBRANCH   4   5
ENDBRANCH   3   4
ENDBRANCH   2   3
ENDBRANCH   1   2
BRANCH   1  10
ATOM     10  C   UNL     1      27.536  66.082  19.552  1.00  0.00     0.000 C 
BRANCH  10  11
ATOM     11  C   UNL     1      28.831  65.998  20.373  1.00  0.00    -0.000 C 
BRANCH  11  12
ATOM     12  C   UNL     1      30.089  65.913  19.494  1.00  0.00    -0.000 C 
BRANCH  12  13
ATOM     13  C   UNL     1      31.300  65.337  20.249  1.00  0.00    -0.000 C 
BRANCH  13  14
ATOM     14  C   UNL     1      31.647  63.902  19.816  1.00  0.00    -0.000 C 
BRANCH  14  15
ATOM     15  C   UNL     1      32.375  63.059  20.878  1.00  0.00    -0.003 C 
ATOM     16  C   UNL     1      32.353  61.561  20.573  1.00  0.00     0.004 C 
ENDBRANCH  14  15
ENDBRANCH  13  14
ENDBRANCH  12  13
ENDBRANCH  11  12
ENDBRANCH  10  11
ENDBRANCH   1  10
TORSDOF 12
ENDMDL
MODEL 4
REMARK VINA RESULT:    -2.544      1.524      1.944
REMARK INTER + INTRA:          -5.199
REMARK INTER:                  -3.948
REMARK INTRA:                  -1.251
REMARK UNBOUND:                -0.870
REMARK SMILES CCCCCCCCCCCCCC(=O)[O-]
REMARK SMILES IDX 8 1 9 2 10 3 11 4 12 5 13 6 14 7 15 8 16 9 7 10 6 11 5 12
REMARK SMILES IDX 4 13 3 14 2 15 1 16
REMARK H PARENT
REMARK Flexibility Score: inf
ROOT
ATOM      1  C   UNL     1      28.300  64.987  18.171  1.00  0.00     0.000 C 
ENDROOT
BRANCH   1   2
ATOM      2  C   UNL     1      28.624  66.125  19.147  1.00  0.00     0.000 C 
BRANCH   2   3
ATOM      3  C   UNL     1      29.498  65.626  20.308  1.00  0.00     0.000 C 
BRANCH   3   4
ATOM      4  C   UNL     1      30.970  66.065  20.161  1.00  0.00     0.000 C 
BRANCH   4   5
ATOM      5  C   UNL     1      31.834  65.070  19.366  1.00  0.00     0.006 C 
BRANCH   5   6
ATOM      6  C   UNL     1      31.549  63.609  19.730  1.00  0.00     0.053 C 
BRANCH   6   7
ATOM      7  C   UNL     1      32.567  63.105  20.704  1.00  0.00     0.041 C 
ATOM      8  O   UNL     1      33.089  61.971  20.546  1.00  0.00    -0.550 OA
ATOM      9  O   UNL     1      32.902  63.868  21.816  1.00  0.00    -0.550 OA
ENDBRANCH   6   7
ENDBRANCH   5   6
ENDBRANCH   4   5
ENDBRANCH   3   4
ENDBRANCH   2   3
ENDBRANCH   1   2
BRANCH   1  10
ATOM     10  C   UNL     1      27.971  65.534  16.777  1.00  0.00     0.000 C 
BRANCH  10  11
ATOM     11  C   UNL     1      29.254  65.797  15.974  1.00  0.00    -0.000 C 
BRANCH  11  12
ATOM     12  C   UNL     1      30.298  64.680  16.139  1.00  0.00    -0.000 C 
BRANCH  12  13
ATOM     13  C   UNL     1      30.212  63.622  15.026  1.00  0.00    -0.000 C 
BRANCH  13  14
ATOM     14  C   UNL     1      31.594  63.141  14.550  1.00  0.00    -0.000 C 
BRANCH  14  15
ATOM     15  C   UNL     1      32.774  63.566  15.441  1.00  0.00    -0.003 C 
ATOM     16  C   UNL     1      32.996  62.630  16.629  1.00  0.00     0.004 C 
ENDBRANCH  14  15
ENDBRANCH  13  14
ENDBRANCH  12  13
ENDBRANCH  11  12
ENDBRANCH  10  11
ENDBRANCH   1  10
TORSDOF 12
ENDMDL
MODEL 5
REMARK VINA RESULT:    -2.502      3.182      6.743
REMARK INTER + INTRA:          -5.127
REMARK INTER:                  -3.850
REMARK INTRA:                  -1.277
REMARK UNBOUND:                -0.870
REMARK SMILES CCCCCCCCCCCCCC(=O)[O-]
REMARK SMILES IDX 8 1 9 2 10 3 11 4 12 5 13 6 14 7 15 8 16 9 7 10 6 11 5 12
REMARK SMILES IDX 4 13 3 14 2 15 1 16
REMARK H PARENT
REMARK Flexibility Score: inf
ROOT
ATOM      1  C   UNL     1      32.536  61.878  19.811  1.00  0.00     0.000 C 
ENDROOT
BRANCH   1   2
ATOM      2  C   UNL     1      33.052  62.790  18.691  1.00  0.00     0.000 C 
BRANCH   2   3
ATOM      3  C   UNL     1      33.123  64.252  19.157  1.00  0.00     0.000 C 
BRANCH   3   4
ATOM      4  C   UNL     1      32.472  65.219  18.146  1.00  0.00     0.000 C 
BRANCH   4   5
ATOM      5  C   UNL     1      31.202  64.656  17.484  1.00  0.00     0.006 C 
BRANCH   5   6
ATOM      6  C   UNL     1      30.180  65.743  17.136  1.00  0.00     0.053 C 
BRANCH   6   7
ATOM      7  C   UNL     1      28.814  65.344  17.597  1.00  0.00     0.041 C 
ATOM      8  O   UNL     1      28.499  65.450  18.811  1.00  0.00    -0.550 OA
ATOM      9  O   UNL     1      27.905  64.807  16.694  1.00  0.00    -0.550 OA
ENDBRANCH   6   7
ENDBRANCH   5   6
ENDBRANCH   4   5
ENDBRANCH   3   4
ENDBRANCH   2   3
ENDBRANCH   1   2
BRANCH   1  10
ATOM     10  C   UNL     1      32.262  62.678  21.090  1.00  0.00     0.000 C 
BRANCH  10  11
ATOM     11  C   UNL     1      32.988  62.055  22.292  1.00  0.00    -0.000 C 
BRANCH  11  12
ATOM     12  C   UNL     1      33.122  63.028  23.475  1.00  0.00    -0.000 C 
BRANCH  12  13
ATOM     13  C   UNL     1      32.703  64.463  23.109  1.00  0.00    -0.000 C 
BRANCH  13  14
ATOM     14  C   UNL     1      31.643  65.038  24.065  1.00  0.00    -0.000 C 
BRANCH  14  15
ATOM     15  C   UNL     1      30.447  65.718  23.378  1.00  0.00    -0.003 C 
ATOM     16  C   UNL     1      30.638  65.888  21.870  1.00  0.00     0.004 C 
ENDBRANCH  14  15
ENDBRANCH  13  14
ENDBRANCH  12  13
ENDBRANCH  11  12
ENDBRANCH  10  11
ENDBRANCH   1  10
TORSDOF 12
ENDMDL
MODEL 6
REMARK VINA RESULT:    -2.388      8.244     10.909
REMARK INTER + INTRA:          -4.934
REMARK INTER:                  -4.610
REMARK INTRA:                  -0.324
REMARK UNBOUND:                -0.870
REMARK SMILES CCCCCCCCCCCCCC(=O)[O-]
REMARK SMILES IDX 8 1 9 2 10 3 11 4 12 5 13 6 14 7 15 8 16 9 7 10 6 11 5 12
REMARK SMILES IDX 4 13 3 14 2 15 1 16
REMARK H PARENT
REMARK Flexibility Score: inf
ROOT
ATOM      1  C   UNL     1      20.974  65.489  16.288  1.00  0.00     0.000 C 
ENDROOT
BRANCH   1   2
ATOM      2  C   UNL     1      22.380  65.979  15.918  1.00  0.00     0.000 C 
BRANCH   2   3
ATOM      3  C   UNL     1      23.453  64.984  16.383  1.00  0.00     0.000 C 
BRANCH   3   4
ATOM      4  C   UNL     1      24.797  65.192  15.654  1.00  0.00     0.000 C 
BRANCH   4   5
ATOM      5  C   UNL     1      25.899  65.784  16.550  1.00  0.00     0.006 C 
BRANCH   5   6
ATOM      6  C   UNL     1      27.227  65.027  16.440  1.00  0.00     0.053 C 
BRANCH   6   7
ATOM      7  C   UNL     1      27.986  65.113  17.726  1.00  0.00     0.041 C 
ATOM      8  O   UNL     1      27.381  65.343  18.805  1.00  0.00    -0.550 OA
ATOM      9  O   UNL     1      29.370  64.988  17.726  1.00  0.00    -0.550 OA
ENDBRANCH   6   7
ENDBRANCH   5   6
ENDBRANCH   4   5
ENDBRANCH   3   4
ENDBRANCH   2   3
ENDBRANCH   1   2
BRANCH   1  10
ATOM     10  C   UNL     1      19.915  66.103  15.365  1.00  0.00     0.000 C 
BRANCH  10  11
ATOM     11  C   UNL     1      18.539  66.123  16.047  1.00  0.00    -0.000 C 
BRANCH  11  12
ATOM     12  C   UNL     1      17.377  66.064  15.041  1.00  0.00    -0.000 C 
BRANCH  12  13
ATOM     13  C   UNL     1      16.000  66.125  15.727  1.00  0.00    -0.000 C 
BRANCH  13  14
ATOM     14  C   UNL     1      15.900  65.195  16.949  1.00  0.00    -0.000 C 
BRANCH  14  15
ATOM     15  C   UNL     1      14.569  64.435  17.082  1.00  0.00    -0.003 C 
ATOM     16  C   UNL     1      13.345  65.328  16.873  1.00  0.00     0.004 C 
ENDBRANCH  14  15
ENDBRANCH  13  14
ENDBRANCH  12  13
ENDBRANCH  11  12
ENDBRANCH  10  11
ENDBRANCH   1  10
TORSDOF 12
ENDMDL
MODEL 7
REMARK VINA RESULT:    -2.301      2.622      5.317
REMARK INTER + INTRA:          -4.786
REMARK INTER:                  -4.404
REMARK INTRA:                  -0.383
REMARK UNBOUND:                -0.870
REMARK SMILES CCCCCCCCCCCCCC(=O)[O-]
REMARK SMILES IDX 8 1 9 2 10 3 11 4 12 5 13 6 14 7 15 8 16 9 7 10 6 11 5 12
REMARK SMILES IDX 4 13 3 14 2 15 1 16
REMARK H PARENT
REMARK Flexibility Score: inf
ROOT
ATOM      1  C   UNL     1      30.899  62.933  14.736  1.00  0.00     0.000 C 
ENDROOT
BRANCH   1   2
ATOM      2  C   UNL     1      32.297  63.501  15.011  1.00  0.00     0.000 C 
BRANCH   2   3
ATOM      3  C   UNL     1      33.026  62.681  16.086  1.00  0.00     0.000 C 
BRANCH   3   4
ATOM      4  C   UNL     1      32.724  63.189  17.511  1.00  0.00     0.000 C 
BRANCH   4   5
ATOM      5  C   UNL     1      33.125  62.197  18.617  1.00  0.00     0.006 C 
BRANCH   5   6
ATOM      6  C   UNL     1      32.520  62.548  19.981  1.00  0.00     0.053 C 
BRANCH   6   7
ATOM      7  C   UNL     1      32.653  61.395  20.925  1.00  0.00     0.041 C 
ATOM      8  O   UNL     1      32.549  60.214  20.501  1.00  0.00    -0.550 OA
ATOM      9  O   UNL     1      32.843  61.625  22.281  1.00  0.00    -0.550 OA
ENDBRANCH   6   7
ENDBRANCH   5   6
ENDBRANCH   4   5
ENDBRANCH   3   4
ENDBRANCH   2   3
ENDBRANCH   1   2
BRANCH   1  10
ATOM     10  C   UNL     1      29.812  63.964  15.059  1.00  0.00     0.000 C 
BRANCH  10  11
ATOM     11  C   UNL     1      30.184  64.783  16.304  1.00  0.00    -0.000 C 
BRANCH  11  12
ATOM     12  C   UNL     1      28.960  65.158  17.156  1.00  0.00    -0.000 C 
BRANCH  12  13
ATOM     13  C   UNL     1      27.686  65.335  16.312  1.00  0.00    -0.000 C 
BRANCH  13  14
ATOM     14  C   UNL     1      26.430  65.577  17.170  1.00  0.00    -0.000 C 
BRANCH  14  15
ATOM     15  C   UNL     1      25.214  66.125  16.403  1.00  0.00    -0.003 C 
ATOM     16  C   UNL     1      24.327  65.025  15.820  1.00  0.00     0.004 C 
ENDBRANCH  14  15
ENDBRANCH  13  14
ENDBRANCH  12  13
ENDBRANCH  11  12
ENDBRANCH  10  11
ENDBRANCH   1  10
TORSDOF 12
ENDMDL
MODEL 8
REMARK VINA RESULT:    -2.241      2.604      6.075
REMARK INTER + INTRA:          -4.684
REMARK INTER:                  -4.087
REMARK INTRA:                  -0.597
REMARK UNBOUND:                -0.870
REMARK SMILES CCCCCCCCCCCCCC(=O)[O-]
REMARK SMILES IDX 8 1 9 2 10 3 11 4 12 5 13 6 14 7 15 8 16 9 7 10 6 11 5 12
REMARK SMILES IDX 4 13 3 14 2 15 1 16
REMARK H PARENT
REMARK Flexibility Score: inf
ROOT
ATOM      1  C   UNL     1      27.511  64.812  18.144  1.00  0.00     0.000 C 
ENDROOT
BRANCH   1   2
ATOM      2  C   UNL     1      28.145  65.137  16.786  1.00  0.00     0.000 C 
BRANCH   2   3
ATOM      3  C   UNL     1      29.578  64.591  16.700  1.00  0.00     0.000 C 
BRANCH   3   4
ATOM      4  C   UNL     1      30.096  64.535  15.248  1.00  0.00     0.000 C 
BRANCH   4   5
ATOM      5  C   UNL     1      30.763  63.197  14.882  1.00  0.00     0.006 C 
BRANCH   5   6
ATOM      6  C   UNL     1      32.293  63.283  14.848  1.00  0.00     0.053 C 
BRANCH   6   7
ATOM      7  C   UNL     1      32.850  63.244  16.235  1.00  0.00     0.041 C 
ATOM      8  O   UNL     1      33.125  64.314  16.838  1.00  0.00    -0.550 OA
ATOM      9  O   UNL     1      33.112  62.024  16.844  1.00  0.00    -0.550 OA
ENDBRANCH   6   7
ENDBRANCH   5   6
ENDBRANCH   4   5
ENDBRANCH   3   4
ENDBRANCH   2   3
ENDBRANCH   1   2
BRANCH   1  10
ATOM     10  C   UNL     1      27.227  66.091  18.940  1.00  0.00     0.000 C 
BRANCH  10  11
ATOM     11  C   UNL     1      27.765  65.977  20.374  1.00  0.00    -0.000 C 
BRANCH  11  12
ATOM     12  C   UNL     1      29.297  66.088  20.444  1.00  0.00    -0.000 C 
BRANCH  12  13
ATOM     13  C   UNL     1      29.822  66.103  21.891  1.00  0.00    -0.000 C 
BRANCH  13  14
ATOM     14  C   UNL     1      31.344  65.894  21.976  1.00  0.00    -0.000 C 
BRANCH  14  15
ATOM     15  C   UNL     1      31.888  65.643  23.393  1.00  0.00    -0.003 C 
ATOM     16  C   UNL     1      30.841  65.860  24.485  1.00  0.00     0.004 C 
ENDBRANCH  14  15
ENDBRANCH  13  14
ENDBRANCH  12  13
ENDBRANCH  11  12
ENDBRANCH  10  11
ENDBRANCH   1  10
TORSDOF 12
ENDMDL
MODEL 9
REMARK VINA RESULT:    -1.813     11.371     13.411
REMARK INTER + INTRA:          -3.956
REMARK INTER:                  -3.490
REMARK INTRA:                  -0.466
REMARK UNBOUND:                -0.870
REMARK SMILES CCCCCCCCCCCCCC(=O)[O-]
REMARK SMILES IDX 8 1 9 2 10 3 11 4 12 5 13 6 14 7 15 8 16 9 7 10 6 11 5 12
REMARK SMILES IDX 4 13 3 14 2 15 1 16
REMARK H PARENT
REMARK Flexibility Score: inf
ROOT
ATOM      1  C   UNL     1      18.542  65.583  16.534  1.00  0.00     0.000 C 
ENDROOT
BRANCH   1   2
ATOM      2  C   UNL     1      17.021  65.628  16.346  1.00  0.00     0.000 C 
BRANCH   2   3
ATOM      3  C   UNL     1      16.296  65.013  17.553  1.00  0.00     0.000 C 
BRANCH   3   4
ATOM      4  C   UNL     1      14.852  64.590  17.213  1.00  0.00     0.000 C 
BRANCH   4   5
ATOM      5  C   UNL     1      14.271  65.310  15.984  1.00  0.00     0.006 C 
BRANCH   5   6
ATOM      6  C   UNL     1      13.500  64.370  15.050  1.00  0.00     0.053 C 
BRANCH   6   7
ATOM      7  C   UNL     1      14.065  64.428  13.667  1.00  0.00     0.041 C 
ATOM      8  O   UNL     1      14.915  65.306  13.366  1.00  0.00    -0.550 OA
ATOM      9  O   UNL     1      13.616  63.543  12.695  1.00  0.00    -0.550 OA
ENDBRANCH   6   7
ENDBRANCH   5   6
ENDBRANCH   4   5
ENDBRANCH   3   4
ENDBRANCH   2   3
ENDBRANCH   1   2
BRANCH   1  10
ATOM     10  C   UNL     1      19.261  65.468  15.185  1.00  0.00     0.000 C 
BRANCH  10  11
ATOM     11  C   UNL     1      20.649  66.125  15.245  1.00  0.00    -0.000 C 
BRANCH  11  12
ATOM     12  C   UNL     1      21.676  65.276  16.012  1.00  0.00    -0.000 C 
BRANCH  12  13
ATOM     13  C   UNL     1      22.942  66.070  16.378  1.00  0.00    -0.000 C 
BRANCH  13  14
ATOM     14  C   UNL     1      24.239  65.342  15.979  1.00  0.00    -0.000 C 
BRANCH  14  15
ATOM     15  C   UNL     1      25.536  66.008  16.469  1.00  0.00    -0.003 C 
ATOM     16  C   UNL     1      26.733  65.057  16.477  1.00  0.00     0.004 C 
ENDBRANCH  14  15
ENDBRANCH  13  14
ENDBRANCH  12  13
ENDBRANCH  11  12
ENDBRANCH  10  11
ENDBRANCH   1  10
TORSDOF 12
ENDMDL
