MODEL 1
REMARK VINA RESULT:    -6.240      0.000      0.000
REMARK INTER + INTRA:          -8.065
REMARK INTER:                  -7.699
REMARK INTRA:                  -0.366
REMARK UNBOUND:                -0.366
REMARK SMILES Oc1cc(O)c2cc(O)c(-c3cc(O)c(O)c(O)c3)[o+]c2c1
REMARK SMILES IDX 10 1 20 2 21 3 22 4 2 5 3 6 4 7 6 8 7 9 8 10 11 11 12 12
REMARK SMILES IDX 13 13 19 14 15 15 17 16 14 17 16 19 18 21 9 23 1 25 5 27
REMARK H PARENT 14 18 16 20 18 22 9 24 1 26 5 28
REMARK Flexibility Score: inf
ROOT
ATOM      1  C   UNL     1      20.046   0.617  30.273  1.00  0.00     0.402 A 
ATOM      2  O   UNL     1      19.791  -0.689  30.305  1.00  0.00    -0.202 OA
ATOM      3  C   UNL     1      18.932  -1.244  31.152  1.00  0.00     0.368 A 
ATOM      4  C   UNL     1      18.729  -2.626  31.106  1.00  0.00     0.162 A 
ATOM      5  C   UNL     1      17.828  -3.237  31.983  1.00  0.00     0.128 A 
ATOM      6  C   UNL     1      17.127  -2.462  32.910  1.00  0.00     0.093 A 
ATOM      7  C   UNL     1      17.312  -1.075  32.977  1.00  0.00     0.136 A 
ATOM      8  C   UNL     1      18.227  -0.451  32.090  1.00  0.00     0.125 A 
ATOM      9  C   UNL     1      18.486   0.929  32.092  1.00  0.00     0.078 A 
ATOM     10  C   UNL     1      19.406   1.472  31.191  1.00  0.00     0.223 A 
ENDROOT
BRANCH   1  11
ATOM     11  C   UNL     1      21.017   1.118  29.275  1.00  0.00     0.091 A 
ATOM     12  C   UNL     1      22.391   0.929  29.494  1.00  0.00     0.068 A 
ATOM     13  C   UNL     1      23.331   1.373  28.560  1.00  0.00     0.162 A 
ATOM     14  C   UNL     1      20.594   1.730  28.084  1.00  0.00     0.068 A 
ATOM     15  C   UNL     1      22.903   2.003  27.379  1.00  0.00     0.200 A 
ATOM     16  C   UNL     1      21.529   2.177  27.140  1.00  0.00     0.162 A 
BRANCH  13  17
ATOM     17  O   UNL     1      24.688   1.179  28.822  1.00  0.00    -0.504 OA
ATOM     18  H   UNL     1      25.321   0.796  28.130  1.00  0.00     0.293 HD
ENDBRANCH  13  17
BRANCH  15  19
ATOM     19  O   UNL     1      23.848   2.447  26.452  1.00  0.00    -0.502 OA
ATOM     20  H   UNL     1      23.767   2.251  25.462  1.00  0.00     0.293 HD
ENDBRANCH  15  19
BRANCH  16  21
ATOM     21  O   UNL     1      21.097   2.788  25.964  1.00  0.00    -0.504 OA
ATOM     22  H   UNL     1      21.026   2.275  25.093  1.00  0.00     0.293 HD
ENDBRANCH  16  21
ENDBRANCH   1  11
BRANCH  10  23
ATOM     23  O   UNL     1      19.700   2.835  31.226  1.00  0.00    -0.500 OA
ATOM     24  H   UNL     1      19.109   3.495  31.717  1.00  0.00     0.294 HD
ENDBRANCH  10  23
BRANCH   5  25
ATOM     25  O   UNL     1      17.621  -4.613  31.944  1.00  0.00    -0.507 OA
ATOM     26  H   UNL     1      16.891  -5.024  31.373  1.00  0.00     0.293 HD
ENDBRANCH   5  25
BRANCH   7  27
ATOM     27  O   UNL     1      16.570  -0.372  33.929  1.00  0.00    -0.507 OA
ATOM     28  H   UNL     1      15.828  -0.773  34.484  1.00  0.00     0.293 HD
ENDBRANCH   7  27
TORSDOF 7
ENDMDL
MODEL 2
REMARK VINA RESULT:    -6.193      0.364      1.831
REMARK INTER + INTRA:          -8.007
REMARK INTER:                  -7.641
REMARK INTRA:                  -0.366
REMARK UNBOUND:                -0.366
REMARK SMILES Oc1cc(O)c2cc(O)c(-c3cc(O)c(O)c(O)c3)[o+]c2c1
REMARK SMILES IDX 10 1 20 2 21 3 22 4 2 5 3 6 4 7 6 8 7 9 8 10 11 11 12 12
REMARK SMILES IDX 13 13 19 14 15 15 17 16 14 17 16 19 18 21 9 23 1 25 5 27
REMARK H PARENT 14 18 16 20 18 22 9 24 1 26 5 28
REMARK Flexibility Score: inf
ROOT
ATOM      1  C   UNL     1      19.910   0.451  30.517  1.00  0.00     0.402 A 
ATOM      2  O   UNL     1      19.576  -0.835  30.453  1.00  0.00    -0.202 OA
ATOM      3  C   UNL     1      18.686  -1.399  31.262  1.00  0.00     0.368 A 
ATOM      4  C   UNL     1      18.398  -2.759  31.114  1.00  0.00     0.162 A 
ATOM      5  C   UNL     1      17.464  -3.378  31.948  1.00  0.00     0.128 A 
ATOM      6  C   UNL     1      16.815  -2.634  32.936  1.00  0.00     0.093 A 
ATOM      7  C   UNL     1      17.084  -1.270  33.106  1.00  0.00     0.136 A 
ATOM      8  C   UNL     1      18.034  -0.638  32.262  1.00  0.00     0.125 A 
ATOM      9  C   UNL     1      18.377   0.720  32.366  1.00  0.00     0.078 A 
ATOM     10  C   UNL     1      19.327   1.272  31.501  1.00  0.00     0.223 A 
ENDROOT
BRANCH   1  11
ATOM     11  C   UNL     1      20.908   0.966  29.553  1.00  0.00     0.091 A 
ATOM     12  C   UNL     1      20.472   1.648  28.407  1.00  0.00     0.068 A 
ATOM     13  C   UNL     1      21.392   2.163  27.488  1.00  0.00     0.162 A 
ATOM     14  C   UNL     1      22.287   0.836  29.788  1.00  0.00     0.068 A 
ATOM     15  C   UNL     1      22.770   2.012  27.717  1.00  0.00     0.200 A 
ATOM     16  C   UNL     1      23.218   1.351  28.874  1.00  0.00     0.162 A 
BRANCH  13  17
ATOM     17  O   UNL     1      20.917   2.822  26.354  1.00  0.00    -0.504 OA
ATOM     18  H   UNL     1      20.324   3.641  26.415  1.00  0.00     0.293 HD
ENDBRANCH  13  17
BRANCH  15  19
ATOM     19  O   UNL     1      23.683   2.526  26.794  1.00  0.00    -0.502 OA
ATOM     20  H   UNL     1      24.659   2.256  26.792  1.00  0.00     0.293 HD
ENDBRANCH  15  19
BRANCH  16  21
ATOM     21  O   UNL     1      24.584   1.210  29.113  1.00  0.00    -0.504 OA
ATOM     22  H   UNL     1      25.144   0.531  28.613  1.00  0.00     0.293 HD
ENDBRANCH  16  21
ENDBRANCH   1  11
BRANCH  10  23
ATOM     23  O   UNL     1      19.704   2.608  31.637  1.00  0.00    -0.500 OA
ATOM     24  H   UNL     1      19.590   3.107  32.512  1.00  0.00     0.294 HD
ENDBRANCH  10  23
BRANCH   5  25
ATOM     25  O   UNL     1      17.173  -4.733  31.807  1.00  0.00    -0.507 OA
ATOM     26  H   UNL     1      17.129  -5.352  32.608  1.00  0.00     0.293 HD
ENDBRANCH   5  25
BRANCH   7  27
ATOM     27  O   UNL     1      16.389  -0.597  34.113  1.00  0.00    -0.507 OA
ATOM     28  H   UNL     1      16.555   0.364  34.377  1.00  0.00     0.293 HD
ENDBRANCH   7  27
TORSDOF 7
ENDMDL
MODEL 3
REMARK VINA RESULT:    -5.589      2.317      4.366
REMARK INTER + INTRA:          -7.262
REMARK INTER:                  -7.158
REMARK INTRA:                  -0.104
REMARK UNBOUND:                -0.366
REMARK SMILES Oc1cc(O)c2cc(O)c(-c3cc(O)c(O)c(O)c3)[o+]c2c1
REMARK SMILES IDX 10 1 20 2 21 3 22 4 2 5 3 6 4 7 6 8 7 9 8 10 11 11 12 12
REMARK SMILES IDX 13 13 19 14 15 15 17 16 14 17 16 19 18 21 9 23 1 25 5 27
REMARK H PARENT 14 18 16 20 18 22 9 24 1 26 5 28
REMARK Flexibility Score: inf
ROOT
ATOM      1  C   UNL     1      17.982  -1.403  31.431  1.00  0.00     0.402 A 
ATOM      2  O   UNL     1      17.493  -1.520  32.663  1.00  0.00    -0.202 OA
ATOM      3  C   UNL     1      16.721  -2.531  33.050  1.00  0.00     0.368 A 
ATOM      4  C   UNL     1      16.259  -2.567  34.368  1.00  0.00     0.162 A 
ATOM      5  C   UNL     1      15.449  -3.620  34.803  1.00  0.00     0.128 A 
ATOM      6  C   UNL     1      15.100  -4.640  33.915  1.00  0.00     0.093 A 
ATOM      7  C   UNL     1      15.551  -4.628  32.589  1.00  0.00     0.136 A 
ATOM      8  C   UNL     1      16.371  -3.560  32.142  1.00  0.00     0.125 A 
ATOM      9  C   UNL     1      16.859  -3.457  30.830  1.00  0.00     0.078 A 
ATOM     10  C   UNL     1      17.659  -2.372  30.461  1.00  0.00     0.223 A 
ENDROOT
BRANCH   1  11
ATOM     11  C   UNL     1      18.838  -0.236  31.124  1.00  0.00     0.091 A 
ATOM     12  C   UNL     1      18.416   1.047  31.503  1.00  0.00     0.068 A 
ATOM     13  C   UNL     1      19.213   2.167  31.244  1.00  0.00     0.162 A 
ATOM     14  C   UNL     1      20.092  -0.390  30.511  1.00  0.00     0.068 A 
ATOM     15  C   UNL     1      20.459   2.010  30.612  1.00  0.00     0.200 A 
ATOM     16  C   UNL     1      20.900   0.726  30.249  1.00  0.00     0.162 A 
BRANCH  13  17
ATOM     17  O   UNL     1      18.752   3.427  31.624  1.00  0.00    -0.504 OA
ATOM     18  H   UNL     1      17.896   3.823  31.253  1.00  0.00     0.293 HD
ENDBRANCH  13  17
BRANCH  15  19
ATOM     19  O   UNL     1      21.247   3.133  30.354  1.00  0.00    -0.502 OA
ATOM     20  H   UNL     1      21.112   4.011  30.839  1.00  0.00     0.293 HD
ENDBRANCH  15  19
BRANCH  16  21
ATOM     21  O   UNL     1      22.140   0.562  29.634  1.00  0.00    -0.504 OA
ATOM     22  H   UNL     1      22.226   0.454  28.630  1.00  0.00     0.293 HD
ENDBRANCH  16  21
ENDBRANCH   1  11
BRANCH  10  23
ATOM     23  O   UNL     1      18.102  -2.244  29.145  1.00  0.00    -0.500 OA
ATOM     24  H   UNL     1      19.033  -1.908  28.926  1.00  0.00     0.294 HD
ENDBRANCH  10  23
BRANCH   5  25
ATOM     25  O   UNL     1      14.983  -3.662  36.115  1.00  0.00    -0.507 OA
ATOM     26  H   UNL     1      14.609  -4.513  36.517  1.00  0.00     0.293 HD
ENDBRANCH   5  25
BRANCH   7  27
ATOM     27  O   UNL     1      15.161  -5.688  31.767  1.00  0.00    -0.507 OA
ATOM     28  H   UNL     1      15.338  -5.735  30.774  1.00  0.00     0.293 HD
ENDBRANCH   7  27
TORSDOF 7
ENDMDL
MODEL 4
REMARK VINA RESULT:    -5.513      2.267      7.485
REMARK INTER + INTRA:          -7.167
REMARK INTER:                  -6.868
REMARK INTRA:                  -0.300
REMARK UNBOUND:                -0.366
REMARK SMILES Oc1cc(O)c2cc(O)c(-c3cc(O)c(O)c(O)c3)[o+]c2c1
REMARK SMILES IDX 10 1 20 2 21 3 22 4 2 5 3 6 4 7 6 8 7 9 8 10 11 11 12 12
REMARK SMILES IDX 13 13 19 14 15 15 17 16 14 17 16 19 18 21 9 23 1 25 5 27
REMARK H PARENT 14 18 16 20 18 22 9 24 1 26 5 28
REMARK Flexibility Score: inf
ROOT
ATOM      1  C   UNL     1      21.009   0.160  28.304  1.00  0.00     0.402 A 
ATOM      2  O   UNL     1      20.873   0.959  27.249  1.00  0.00    -0.202 OA
ATOM      3  C   UNL     1      21.693   0.934  26.203  1.00  0.00     0.368 A 
ATOM      4  C   UNL     1      21.465   1.811  25.140  1.00  0.00     0.162 A 
ATOM      5  C   UNL     1      22.310   1.804  24.026  1.00  0.00     0.128 A 
ATOM      6  C   UNL     1      23.386   0.915  23.976  1.00  0.00     0.093 A 
ATOM      7  C   UNL     1      23.636   0.026  25.029  1.00  0.00     0.136 A 
ATOM      8  C   UNL     1      22.783   0.031  26.162  1.00  0.00     0.125 A 
ATOM      9  C   UNL     1      22.963  -0.815  27.269  1.00  0.00     0.078 A 
ATOM     10  C   UNL     1      22.083  -0.749  28.354  1.00  0.00     0.223 A 
ENDROOT
BRANCH   1  11
ATOM     11  C   UNL     1      20.024   0.276  29.403  1.00  0.00     0.091 A 
ATOM     12  C   UNL     1      19.092  -0.753  29.604  1.00  0.00     0.068 A 
ATOM     13  C   UNL     1      18.162  -0.681  30.647  1.00  0.00     0.162 A 
ATOM     14  C   UNL     1      20.038   1.368  30.286  1.00  0.00     0.068 A 
ATOM     15  C   UNL     1      18.167   0.424  31.515  1.00  0.00     0.200 A 
ATOM     16  C   UNL     1      19.112   1.449  31.335  1.00  0.00     0.162 A 
BRANCH  13  17
ATOM     17  O   UNL     1      17.243  -1.718  30.805  1.00  0.00    -0.504 OA
ATOM     18  H   UNL     1      16.844  -2.211  30.015  1.00  0.00     0.293 HD
ENDBRANCH  13  17
BRANCH  15  19
ATOM     19  O   UNL     1      17.234   0.491  32.552  1.00  0.00    -0.502 OA
ATOM     20  H   UNL     1      17.374   1.074  33.367  1.00  0.00     0.293 HD
ENDBRANCH  15  19
BRANCH  16  21
ATOM     21  O   UNL     1      19.131   2.541  32.202  1.00  0.00    -0.504 OA
ATOM     22  H   UNL     1      19.540   2.478  33.126  1.00  0.00     0.293 HD
ENDBRANCH  16  21
ENDBRANCH   1  11
BRANCH  10  23
ATOM     23  O   UNL     1      22.291  -1.554  29.473  1.00  0.00    -0.500 OA
ATOM     24  H   UNL     1      22.688  -2.483  29.395  1.00  0.00     0.294 HD
ENDBRANCH  10  23
BRANCH   5  25
ATOM     25  O   UNL     1      22.090   2.676  22.963  1.00  0.00    -0.507 OA
ATOM     26  H   UNL     1      22.787   2.819  22.242  1.00  0.00     0.293 HD
ENDBRANCH   5  25
BRANCH   7  27
ATOM     27  O   UNL     1      24.731  -0.833  24.900  1.00  0.00    -0.507 OA
ATOM     28  H   UNL     1      25.340  -1.099  25.660  1.00  0.00     0.293 HD
ENDBRANCH   7  27
TORSDOF 7
ENDMDL
MODEL 5
REMARK VINA RESULT:    -5.498      1.633      7.011
REMARK INTER + INTRA:          -7.149
REMARK INTER:                  -6.774
REMARK INTRA:                  -0.375
REMARK UNBOUND:                -0.366
REMARK SMILES Oc1cc(O)c2cc(O)c(-c3cc(O)c(O)c(O)c3)[o+]c2c1
REMARK SMILES IDX 10 1 20 2 21 3 22 4 2 5 3 6 4 7 6 8 7 9 8 10 11 11 12 12
REMARK SMILES IDX 13 13 19 14 15 15 17 16 14 17 16 19 18 21 9 23 1 25 5 27
REMARK H PARENT 14 18 16 20 18 22 9 24 1 26 5 28
REMARK Flexibility Score: inf
ROOT
ATOM      1  C   UNL     1      18.360  -1.468  31.583  1.00  0.00     0.402 A 
ATOM      2  O   UNL     1      19.323  -1.140  30.725  1.00  0.00    -0.202 OA
ATOM      3  C   UNL     1      19.688   0.114  30.483  1.00  0.00     0.368 A 
ATOM      4  C   UNL     1      20.714   0.358  29.566  1.00  0.00     0.162 A 
ATOM      5  C   UNL     1      21.122   1.667  29.294  1.00  0.00     0.128 A 
ATOM      6  C   UNL     1      20.500   2.737  29.942  1.00  0.00     0.093 A 
ATOM      7  C   UNL     1      19.470   2.520  30.866  1.00  0.00     0.136 A 
ATOM      8  C   UNL     1      19.051   1.193  31.143  1.00  0.00     0.125 A 
ATOM      9  C   UNL     1      18.020   0.880  32.043  1.00  0.00     0.078 A 
ATOM     10  C   UNL     1      17.658  -0.453  32.262  1.00  0.00     0.223 A 
ENDROOT
BRANCH   1  11
ATOM     11  C   UNL     1      18.050  -2.902  31.775  1.00  0.00     0.091 A 
ATOM     12  C   UNL     1      18.742  -3.632  32.753  1.00  0.00     0.068 A 
ATOM     13  C   UNL     1      18.457  -4.984  32.972  1.00  0.00     0.162 A 
ATOM     14  C   UNL     1      17.038  -3.538  31.037  1.00  0.00     0.068 A 
ATOM     15  C   UNL     1      17.457  -5.621  32.216  1.00  0.00     0.200 A 
ATOM     16  C   UNL     1      16.743  -4.892  31.249  1.00  0.00     0.162 A 
BRANCH  13  17
ATOM     17  O   UNL     1      19.176  -5.678  33.944  1.00  0.00    -0.504 OA
ATOM     18  H   UNL     1      18.772  -5.929  34.838  1.00  0.00     0.293 HD
ENDBRANCH  13  17
BRANCH  15  19
ATOM     19  O   UNL     1      17.180  -6.971  32.437  1.00  0.00    -0.502 OA
ATOM     20  H   UNL     1      17.912  -7.654  32.592  1.00  0.00     0.293 HD
ENDBRANCH  15  19
BRANCH  16  21
ATOM     21  O   UNL     1      15.741  -5.514  30.506  1.00  0.00    -0.504 OA
ATOM     22  H   UNL     1      15.239  -6.319  30.860  1.00  0.00     0.293 HD
ENDBRANCH  16  21
ENDBRANCH   1  11
BRANCH  10  23
ATOM     23  O   UNL     1      16.601  -0.760  33.118  1.00  0.00    -0.500 OA
ATOM     24  H   UNL     1      16.749  -1.249  33.993  1.00  0.00     0.294 HD
ENDBRANCH  10  23
BRANCH   5  25
ATOM     25  O   UNL     1      22.143   1.917  28.381  1.00  0.00    -0.507 OA
ATOM     26  H   UNL     1      23.086   1.579  28.534  1.00  0.00     0.293 HD
ENDBRANCH   5  25
BRANCH   7  27
ATOM     27  O   UNL     1      18.903   3.643  31.474  1.00  0.00    -0.507 OA
ATOM     28  H   UNL     1      18.993   3.866  32.455  1.00  0.00     0.293 HD
ENDBRANCH   7  27
TORSDOF 7
ENDMDL
MODEL 6
REMARK VINA RESULT:    -5.428      2.253      7.166
REMARK INTER + INTRA:          -7.063
REMARK INTER:                  -7.242
REMARK INTRA:                   0.179
REMARK UNBOUND:                -0.366
REMARK SMILES Oc1cc(O)c2cc(O)c(-c3cc(O)c(O)c(O)c3)[o+]c2c1
REMARK SMILES IDX 10 1 20 2 21 3 22 4 2 5 3 6 4 7 6 8 7 9 8 10 11 11 12 12
REMARK SMILES IDX 13 13 19 14 15 15 17 16 14 17 16 19 18 21 9 23 1 25 5 27
REMARK H PARENT 14 18 16 20 18 22 9 24 1 26 5 28
REMARK Flexibility Score: inf
ROOT
ATOM      1  C   UNL     1      21.148   0.874  28.455  1.00  0.00     0.402 A 
ATOM      2  O   UNL     1      20.858   0.372  27.257  1.00  0.00    -0.202 OA
ATOM      3  C   UNL     1      21.694   0.414  26.226  1.00  0.00     0.368 A 
ATOM      4  C   UNL     1      21.300  -0.143  25.007  1.00  0.00     0.162 A 
ATOM      5  C   UNL     1      22.160  -0.116  23.907  1.00  0.00     0.128 A 
ATOM      6  C   UNL     1      23.422   0.471  24.026  1.00  0.00     0.093 A 
ATOM      7  C   UNL     1      23.843   1.036  25.236  1.00  0.00     0.136 A 
ATOM      8  C   UNL     1      22.971   1.013  26.355  1.00  0.00     0.125 A 
ATOM      9  C   UNL     1      23.301   1.566  27.603  1.00  0.00     0.078 A 
ATOM     10  C   UNL     1      22.387   1.510  28.660  1.00  0.00     0.223 A 
ENDROOT
BRANCH   1  11
ATOM     11  C   UNL     1      20.136   0.757  29.528  1.00  0.00     0.091 A 
ATOM     12  C   UNL     1      19.979   1.807  30.445  1.00  0.00     0.068 A 
ATOM     13  C   UNL     1      19.017   1.734  31.458  1.00  0.00     0.162 A 
ATOM     14  C   UNL     1      19.289  -0.360  29.617  1.00  0.00     0.068 A 
ATOM     15  C   UNL     1      18.185   0.605  31.555  1.00  0.00     0.200 A 
ATOM     16  C   UNL     1      18.320  -0.442  30.627  1.00  0.00     0.162 A 
BRANCH  13  17
ATOM     17  O   UNL     1      18.901   2.793  32.358  1.00  0.00    -0.504 OA
ATOM     18  H   UNL     1      19.674   3.093  32.940  1.00  0.00     0.293 HD
ENDBRANCH  13  17
BRANCH  15  19
ATOM     19  O   UNL     1      17.230   0.538  32.570  1.00  0.00    -0.502 OA
ATOM     20  H   UNL     1      17.269   1.132  33.389  1.00  0.00     0.293 HD
ENDBRANCH  15  19
BRANCH  16  21
ATOM     21  O   UNL     1      17.489  -1.558  30.709  1.00  0.00    -0.504 OA
ATOM     22  H   UNL     1      16.480  -1.471  30.698  1.00  0.00     0.293 HD
ENDBRANCH  16  21
ENDBRANCH   1  11
BRANCH  10  23
ATOM     23  O   UNL     1      22.696   2.103  29.884  1.00  0.00    -0.500 OA
ATOM     24  H   UNL     1      22.203   1.855  30.735  1.00  0.00     0.294 HD
ENDBRANCH  10  23
BRANCH   5  25
ATOM     25  O   UNL     1      21.773  -0.669  22.688  1.00  0.00    -0.507 OA
ATOM     26  H   UNL     1      21.286  -0.122  21.988  1.00  0.00     0.293 HD
ENDBRANCH   5  25
BRANCH   7  27
ATOM     27  O   UNL     1      25.121   1.600  25.274  1.00  0.00    -0.507 OA
ATOM     28  H   UNL     1      25.759   1.513  26.051  1.00  0.00     0.293 HD
ENDBRANCH   7  27
TORSDOF 7
ENDMDL
MODEL 7
REMARK VINA RESULT:    -5.404      2.312      3.819
REMARK INTER + INTRA:          -7.034
REMARK INTER:                  -6.877
REMARK INTRA:                  -0.157
REMARK UNBOUND:                -0.366
REMARK SMILES Oc1cc(O)c2cc(O)c(-c3cc(O)c(O)c(O)c3)[o+]c2c1
REMARK SMILES IDX 10 1 20 2 21 3 22 4 2 5 3 6 4 7 6 8 7 9 8 10 11 11 12 12
REMARK SMILES IDX 13 13 19 14 15 15 17 16 14 17 16 19 18 21 9 23 1 25 5 27
REMARK H PARENT 14 18 16 20 18 22 9 24 1 26 5 28
REMARK Flexibility Score: inf
ROOT
ATOM      1  C   UNL     1      21.922   0.651  28.573  1.00  0.00     0.402 A 
ATOM      2  O   UNL     1      20.918  -0.098  29.022  1.00  0.00    -0.202 OA
ATOM      3  C   UNL     1      20.112   0.277  30.009  1.00  0.00     0.368 A 
ATOM      4  C   UNL     1      19.082  -0.578  30.409  1.00  0.00     0.162 A 
ATOM      5  C   UNL     1      18.217  -0.208  31.442  1.00  0.00     0.128 A 
ATOM      6  C   UNL     1      18.383   1.025  32.079  1.00  0.00     0.093 A 
ATOM      7  C   UNL     1      19.407   1.901  31.697  1.00  0.00     0.136 A 
ATOM      8  C   UNL     1      20.289   1.528  30.650  1.00  0.00     0.125 A 
ATOM      9  C   UNL     1      21.350   2.335  30.210  1.00  0.00     0.078 A 
ATOM     10  C   UNL     1      22.182   1.898  29.175  1.00  0.00     0.223 A 
ENDROOT
BRANCH   1  11
ATOM     11  C   UNL     1      22.744   0.127  27.460  1.00  0.00     0.091 A 
ATOM     12  C   UNL     1      22.859   0.873  26.277  1.00  0.00     0.068 A 
ATOM     13  C   UNL     1      23.645   0.413  25.216  1.00  0.00     0.162 A 
ATOM     14  C   UNL     1      23.459  -1.076  27.582  1.00  0.00     0.068 A 
ATOM     15  C   UNL     1      24.343  -0.801  25.335  1.00  0.00     0.200 A 
ATOM     16  C   UNL     1      24.252  -1.544  26.524  1.00  0.00     0.162 A 
BRANCH  13  17
ATOM     17  O   UNL     1      23.722   1.177  24.051  1.00  0.00    -0.504 OA
ATOM     18  H   UNL     1      23.755   0.755  23.131  1.00  0.00     0.293 HD
ENDBRANCH  13  17
BRANCH  15  19
ATOM     19  O   UNL     1      25.123  -1.255  24.270  1.00  0.00    -0.502 OA
ATOM     20  H   UNL     1      25.982  -0.796  23.996  1.00  0.00     0.293 HD
ENDBRANCH  15  19
BRANCH  16  21
ATOM     21  O   UNL     1      24.953  -2.742  26.654  1.00  0.00    -0.504 OA
ATOM     22  H   UNL     1      24.917  -3.289  27.506  1.00  0.00     0.293 HD
ENDBRANCH  16  21
ENDBRANCH   1  11
BRANCH  10  23
ATOM     23  O   UNL     1      23.265   2.677  28.770  1.00  0.00    -0.500 OA
ATOM     24  H   UNL     1      24.186   2.278  28.631  1.00  0.00     0.294 HD
ENDBRANCH  10  23
BRANCH   5  25
ATOM     25  O   UNL     1      17.189  -1.056  31.846  1.00  0.00    -0.507 OA
ATOM     26  H   UNL     1      16.262  -0.703  32.056  1.00  0.00     0.293 HD
ENDBRANCH   5  25
BRANCH   7  27
ATOM     27  O   UNL     1      19.502   3.116  32.381  1.00  0.00    -0.507 OA
ATOM     28  H   UNL     1      19.194   3.261  33.331  1.00  0.00     0.293 HD
ENDBRANCH   7  27
TORSDOF 7
ENDMDL
MODEL 8
REMARK VINA RESULT:    -5.360      1.113      3.212
REMARK INTER + INTRA:          -6.980
REMARK INTER:                  -6.604
REMARK INTRA:                  -0.375
REMARK UNBOUND:                -0.366
REMARK SMILES Oc1cc(O)c2cc(O)c(-c3cc(O)c(O)c(O)c3)[o+]c2c1
REMARK SMILES IDX 10 1 20 2 21 3 22 4 2 5 3 6 4 7 6 8 7 9 8 10 11 11 12 12
REMARK SMILES IDX 13 13 19 14 15 15 17 16 14 17 16 19 18 21 9 23 1 25 5 27
REMARK H PARENT 14 18 16 20 18 22 9 24 1 26 5 28
REMARK Flexibility Score: inf
ROOT
ATOM      1  C   UNL     1      20.259  -0.853  29.613  1.00  0.00     0.402 A 
ATOM      2  O   UNL     1      19.535  -0.363  30.616  1.00  0.00    -0.202 OA
ATOM      3  C   UNL     1      18.707  -1.101  31.347  1.00  0.00     0.368 A 
ATOM      4  C   UNL     1      17.991  -0.496  32.383  1.00  0.00     0.162 A 
ATOM      5  C   UNL     1      17.116  -1.249  33.170  1.00  0.00     0.128 A 
ATOM      6  C   UNL     1      16.955  -2.614  32.920  1.00  0.00     0.093 A 
ATOM      7  C   UNL     1      17.661  -3.245  31.888  1.00  0.00     0.136 A 
ATOM      8  C   UNL     1      18.549  -2.484  31.085  1.00  0.00     0.125 A 
ATOM      9  C   UNL     1      19.288  -3.028  30.022  1.00  0.00     0.078 A 
ATOM     10  C   UNL     1      20.141  -2.213  29.270  1.00  0.00     0.223 A 
ENDROOT
BRANCH   1  11
ATOM     11  C   UNL     1      21.154   0.069  28.879  1.00  0.00     0.091 A 
ATOM     12  C   UNL     1      20.613   0.933  27.914  1.00  0.00     0.068 A 
ATOM     13  C   UNL     1      21.431   1.829  27.218  1.00  0.00     0.162 A 
ATOM     14  C   UNL     1      22.527   0.140  29.166  1.00  0.00     0.068 A 
ATOM     15  C   UNL     1      22.808   1.881  27.495  1.00  0.00     0.200 A 
ATOM     16  C   UNL     1      23.355   1.036  28.476  1.00  0.00     0.162 A 
BRANCH  13  17
ATOM     17  O   UNL     1      20.857   2.661  26.257  1.00  0.00    -0.504 OA
ATOM     18  H   UNL     1      20.106   3.303  26.478  1.00  0.00     0.293 HD
ENDBRANCH  13  17
BRANCH  15  19
ATOM     19  O   UNL     1      23.619   2.776  26.794  1.00  0.00    -0.502 OA
ATOM     20  H   UNL     1      24.518   3.081  27.147  1.00  0.00     0.293 HD
ENDBRANCH  15  19
BRANCH  16  21
ATOM     21  O   UNL     1      24.718   1.093  28.764  1.00  0.00    -0.504 OA
ATOM     22  H   UNL     1      25.056   1.203  29.713  1.00  0.00     0.293 HD
ENDBRANCH  16  21
ENDBRANCH   1  11
BRANCH  10  23
ATOM     23  O   UNL     1      20.836  -2.742  28.183  1.00  0.00    -0.500 OA
ATOM     24  H   UNL     1      20.947  -3.742  28.057  1.00  0.00     0.294 HD
ENDBRANCH  10  23
BRANCH   5  25
ATOM     25  O   UNL     1      16.398  -0.653  34.204  1.00  0.00    -0.507 OA
ATOM     26  H   UNL     1      16.756   0.155  34.700  1.00  0.00     0.293 HD
ENDBRANCH   5  25
BRANCH   7  27
ATOM     27  O   UNL     1      17.448  -4.614  31.705  1.00  0.00    -0.507 OA
ATOM     28  H   UNL     1      17.746  -5.134  30.893  1.00  0.00     0.293 HD
ENDBRANCH   7  27
TORSDOF 7
ENDMDL
