MODEL 1
REMARK VINA RESULT:    -4.326      0.000      0.000
REMARK INTER + INTRA:         -13.657
REMARK INTER:                  -9.890
REMARK INTRA:                  -3.767
REMARK UNBOUND:                -3.767
REMARK SMILES CCCCCCCCCCCCCCCCCCCCCCCC(=O)[O-]
REMARK SMILES IDX 13 1 14 2 15 3 16 4 17 5 18 6 19 7 20 8 21 9 22 10 23 11
REMARK SMILES IDX 24 12 25 13 26 14 12 15 11 16 10 17 9 18 8 19 7 20 6 21 5 22
REMARK SMILES IDX 4 23 3 24 2 25 1 26
REMARK H PARENT
REMARK Flexibility Score: inf
ROOT
ATOM      1  C   UNL     1      35.660  76.622  10.851  1.00  0.00     0.000 C 
ENDROOT
BRANCH   1   2
ATOM      2  C   UNL     1      34.650  77.780  10.754  1.00  0.00     0.000 C 
BRANCH   2   3
ATOM      3  C   UNL     1      33.891  77.798   9.420  1.00  0.00     0.000 C 
BRANCH   3   4
ATOM      4  C   UNL     1      32.383  77.969   9.649  1.00  0.00     0.000 C 
BRANCH   4   5
ATOM      5  C   UNL     1      32.046  78.528  11.044  1.00  0.00     0.000 C 
BRANCH   5   6
ATOM      6  C   UNL     1      31.062  77.678  11.868  1.00  0.00     0.000 C 
BRANCH   6   7
ATOM      7  C   UNL     1      31.156  77.952  13.379  1.00  0.00     0.000 C 
BRANCH   7   8
ATOM      8  C   UNL     1      32.605  77.944  13.894  1.00  0.00     0.000 C 
BRANCH   8   9
ATOM      9  C   UNL     1      32.875  79.060  14.919  1.00  0.00     0.000 C 
BRANCH   9  10
ATOM     10  C   UNL     1      31.973  80.290  14.707  1.00  0.00     0.006 C 
BRANCH  10  11
ATOM     11  C   UNL     1      31.305  80.813  15.989  1.00  0.00     0.053 C 
BRANCH  11  12
ATOM     12  C   UNL     1      32.234  81.670  16.794  1.00  0.00     0.041 C 
ATOM     13  O   UNL     1      32.902  82.579  16.236  1.00  0.00    -0.550 OA
ATOM     14  O   UNL     1      32.331  81.487  18.168  1.00  0.00    -0.550 OA
ENDBRANCH  11  12
ENDBRANCH  10  11
ENDBRANCH   9  10
ENDBRANCH   8   9
ENDBRANCH   7   8
ENDBRANCH   6   7
ENDBRANCH   5   6
ENDBRANCH   4   5
ENDBRANCH   3   4
ENDBRANCH   2   3
ENDBRANCH   1   2
BRANCH   1  15
ATOM     15  C   UNL     1      35.701  75.687   9.626  1.00  0.00     0.000 C 
BRANCH  15  16
ATOM     16  C   UNL     1      37.090  75.508   8.986  1.00  0.00     0.000 C 
BRANCH  16  17
ATOM     17  C   UNL     1      37.035  74.775   7.638  1.00  0.00     0.000 C 
BRANCH  17  18
ATOM     18  C   UNL     1      35.671  74.962   6.964  1.00  0.00    -0.000 C 
BRANCH  18  19
ATOM     19  C   UNL     1      35.088  73.617   6.516  1.00  0.00    -0.000 C 
BRANCH  19  20
ATOM     20  C   UNL     1      33.553  73.649   6.529  1.00  0.00    -0.000 C 
BRANCH  20  21
ATOM     21  C   UNL     1      32.993  74.941   7.145  1.00  0.00    -0.000 C 
BRANCH  21  22
ATOM     22  C   UNL     1      31.916  74.670   8.210  1.00  0.00    -0.000 C 
BRANCH  22  23
ATOM     23  C   UNL     1      31.904  73.207   8.684  1.00  0.00    -0.000 C 
BRANCH  23  24
ATOM     24  C   UNL     1      32.339  73.059  10.151  1.00  0.00    -0.000 C 
BRANCH  24  25
ATOM     25  C   UNL     1      32.436  74.411  10.876  1.00  0.00    -0.003 C 
ATOM     26  C   UNL     1      33.207  74.322  12.194  1.00  0.00     0.004 C 
ENDBRANCH  24  25
ENDBRANCH  23  24
ENDBRANCH  22  23
ENDBRANCH  21  22
ENDBRANCH  20  21
ENDBRANCH  19  20
ENDBRANCH  18  19
ENDBRANCH  17  18
ENDBRANCH  16  17
ENDBRANCH  15  16
ENDBRANCH   1  15
TORSDOF 22
ENDMDL
MODEL 2
REMARK VINA RESULT:    -4.257      3.685      8.192
REMARK INTER + INTRA:         -13.499
REMARK INTER:                  -9.735
REMARK INTRA:                  -3.765
REMARK UNBOUND:                -3.767
REMARK SMILES CCCCCCCCCCCCCCCCCCCCCCCC(=O)[O-]
REMARK SMILES IDX 13 1 14 2 15 3 16 4 17 5 18 6 19 7 20 8 21 9 22 10 23 11
REMARK SMILES IDX 24 12 25 13 26 14 12 15 11 16 10 17 9 18 8 19 7 20 6 21 5 22
REMARK SMILES IDX 4 23 3 24 2 25 1 26
REMARK H PARENT
REMARK Flexibility Score: inf
ROOT
ATOM      1  C   UNL     1      34.405  78.210  10.318  1.00  0.00     0.000 C 
ENDROOT
BRANCH   1   2
ATOM      2  C   UNL     1      35.244  77.247  11.176  1.00  0.00     0.000 C 
BRANCH   2   3
ATOM      3  C   UNL     1      34.911  75.771  10.914  1.00  0.00     0.000 C 
BRANCH   3   4
ATOM      4  C   UNL     1      33.762  75.300  11.817  1.00  0.00     0.000 C 
BRANCH   4   5
ATOM      5  C   UNL     1      33.205  73.922  11.412  1.00  0.00     0.000 C 
BRANCH   5   6
ATOM      6  C   UNL     1      31.671  73.845  11.299  1.00  0.00     0.000 C 
BRANCH   6   7
ATOM      7  C   UNL     1      31.180  73.809   9.841  1.00  0.00     0.000 C 
BRANCH   7   8
ATOM      8  C   UNL     1      32.302  74.104   8.831  1.00  0.00     0.000 C 
BRANCH   8   9
ATOM      9  C   UNL     1      32.624  72.895   7.935  1.00  0.00     0.000 C 
BRANCH   9  10
ATOM     10  C   UNL     1      33.710  73.206   6.888  1.00  0.00     0.006 C 
BRANCH  10  11
ATOM     11  C   UNL     1      34.350  74.596   7.035  1.00  0.00     0.053 C 
BRANCH  11  12
ATOM     12  C   UNL     1      35.846  74.532   6.983  1.00  0.00     0.041 C 
ATOM     13  O   UNL     1      36.539  75.307   7.693  1.00  0.00    -0.550 OA
ATOM     14  O   UNL     1      36.473  73.587   6.180  1.00  0.00    -0.550 OA
ENDBRANCH  11  12
ENDBRANCH  10  11
ENDBRANCH   9  10
ENDBRANCH   8   9
ENDBRANCH   7   8
ENDBRANCH   6   7
ENDBRANCH   5   6
ENDBRANCH   4   5
ENDBRANCH   3   4
ENDBRANCH   2   3
ENDBRANCH   1   2
BRANCH   1  15
ATOM     15  C   UNL     1      33.793  77.588   9.046  1.00  0.00     0.000 C 
BRANCH  15  16
ATOM     16  C   UNL     1      32.264  77.719   8.926  1.00  0.00     0.000 C 
BRANCH  16  17
ATOM     17  C   UNL     1      31.627  78.412  10.138  1.00  0.00     0.000 C 
BRANCH  17  18
ATOM     18  C   UNL     1      30.669  77.468  10.872  1.00  0.00    -0.000 C 
BRANCH  18  19
ATOM     19  C   UNL     1      30.844  77.575  12.391  1.00  0.00    -0.000 C 
BRANCH  19  20
ATOM     20  C   UNL     1      31.816  78.706  12.756  1.00  0.00    -0.000 C 
BRANCH  20  21
ATOM     21  C   UNL     1      32.830  78.290  13.833  1.00  0.00    -0.000 C 
BRANCH  21  22
ATOM     22  C   UNL     1      32.750  79.170  15.093  1.00  0.00    -0.000 C 
BRANCH  22  23
ATOM     23  C   UNL     1      31.740  80.320  14.950  1.00  0.00    -0.000 C 
BRANCH  23  24
ATOM     24  C   UNL     1      31.201  80.805  16.306  1.00  0.00    -0.000 C 
BRANCH  24  25
ATOM     25  C   UNL     1      32.217  81.673  17.067  1.00  0.00    -0.003 C 
ATOM     26  C   UNL     1      32.843  82.758  16.191  1.00  0.00     0.004 C 
ENDBRANCH  24  25
ENDBRANCH  23  24
ENDBRANCH  22  23
ENDBRANCH  21  22
ENDBRANCH  20  21
ENDBRANCH  19  20
ENDBRANCH  18  19
ENDBRANCH  17  18
ENDBRANCH  16  17
ENDBRANCH  15  16
ENDBRANCH   1  15
TORSDOF 22
ENDMDL
MODEL 3
REMARK VINA RESULT:    -4.220      1.385      3.052
REMARK INTER + INTRA:         -13.414
REMARK INTER:                  -9.968
REMARK INTRA:                  -3.447
REMARK UNBOUND:                -3.767
REMARK SMILES CCCCCCCCCCCCCCCCCCCCCCCC(=O)[O-]
REMARK SMILES IDX 13 1 14 2 15 3 16 4 17 5 18 6 19 7 20 8 21 9 22 10 23 11
REMARK SMILES IDX 24 12 25 13 26 14 12 15 11 16 10 17 9 18 8 19 7 20 6 21 5 22
REMARK SMILES IDX 4 23 3 24 2 25 1 26
REMARK H PARENT
REMARK Flexibility Score: inf
ROOT
ATOM      1  C   UNL     1      32.818  75.734   7.469  1.00  0.00     0.000 C 
ENDROOT
BRANCH   1   2
ATOM      2  C   UNL     1      32.049  76.237   8.704  1.00  0.00     0.000 C 
BRANCH   2   3
ATOM      3  C   UNL     1      31.448  77.635   8.504  1.00  0.00     0.000 C 
BRANCH   3   4
ATOM      4  C   UNL     1      31.017  78.244   9.846  1.00  0.00     0.000 C 
BRANCH   4   5
ATOM      5  C   UNL     1      32.206  78.552  10.776  1.00  0.00     0.000 C 
BRANCH   5   6
ATOM      6  C   UNL     1      31.831  78.829  12.244  1.00  0.00     0.000 C 
BRANCH   6   7
ATOM      7  C   UNL     1      33.000  78.585  13.214  1.00  0.00     0.000 C 
BRANCH   7   8
ATOM      8  C   UNL     1      32.556  77.900  14.518  1.00  0.00     0.000 C 
BRANCH   8   9
ATOM      9  C   UNL     1      33.064  78.632  15.773  1.00  0.00     0.000 C 
BRANCH   9  10
ATOM     10  C   UNL     1      31.958  79.442  16.475  1.00  0.00     0.006 C 
BRANCH  10  11
ATOM     11  C   UNL     1      32.384  80.855  16.905  1.00  0.00     0.053 C 
BRANCH  11  12
ATOM     12  C   UNL     1      32.172  81.859  15.814  1.00  0.00     0.041 C 
ATOM     13  O   UNL     1      31.428  81.586  14.835  1.00  0.00    -0.550 OA
ATOM     14  O   UNL     1      32.766  83.112  15.899  1.00  0.00    -0.550 OA
ENDBRANCH  11  12
ENDBRANCH  10  11
ENDBRANCH   9  10
ENDBRANCH   8   9
ENDBRANCH   7   8
ENDBRANCH   6   7
ENDBRANCH   5   6
ENDBRANCH   4   5
ENDBRANCH   3   4
ENDBRANCH   2   3
ENDBRANCH   1   2
BRANCH   1  15
ATOM     15  C   UNL     1      33.987  74.776   7.772  1.00  0.00     0.000 C 
BRANCH  15  16
ATOM     16  C   UNL     1      35.382  75.427   7.772  1.00  0.00     0.000 C 
BRANCH  16  17
ATOM     17  C   UNL     1      35.986  75.542   9.179  1.00  0.00     0.000 C 
BRANCH  17  18
ATOM     18  C   UNL     1      35.381  76.725   9.943  1.00  0.00    -0.000 C 
BRANCH  18  19
ATOM     19  C   UNL     1      35.065  76.342  11.393  1.00  0.00    -0.000 C 
BRANCH  19  20
ATOM     20  C   UNL     1      34.280  75.024  11.457  1.00  0.00    -0.000 C 
BRANCH  20  21
ATOM     21  C   UNL     1      32.885  75.196  12.079  1.00  0.00    -0.000 C 
BRANCH  21  22
ATOM     22  C   UNL     1      31.919  74.064  11.687  1.00  0.00    -0.000 C 
BRANCH  22  23
ATOM     23  C   UNL     1      32.567  73.026  10.756  1.00  0.00    -0.000 C 
BRANCH  23  24
ATOM     24  C   UNL     1      31.537  72.291   9.883  1.00  0.00    -0.000 C 
BRANCH  24  25
ATOM     25  C   UNL     1      31.951  70.841   9.579  1.00  0.00    -0.003 C 
ATOM     26  C   UNL     1      32.647  70.697   8.225  1.00  0.00     0.004 C 
ENDBRANCH  24  25
ENDBRANCH  23  24
ENDBRANCH  22  23
ENDBRANCH  21  22
ENDBRANCH  20  21
ENDBRANCH  19  20
ENDBRANCH  18  19
ENDBRANCH  17  18
ENDBRANCH  16  17
ENDBRANCH  15  16
ENDBRANCH   1  15
TORSDOF 22
ENDMDL
MODEL 4
REMARK VINA RESULT:    -4.219      1.443      4.374
REMARK INTER + INTRA:         -13.412
REMARK INTER:                  -9.306
REMARK INTRA:                  -4.106
REMARK UNBOUND:                -3.767
REMARK SMILES CCCCCCCCCCCCCCCCCCCCCCCC(=O)[O-]
REMARK SMILES IDX 13 1 14 2 15 3 16 4 17 5 18 6 19 7 20 8 21 9 22 10 23 11
REMARK SMILES IDX 24 12 25 13 26 14 12 15 11 16 10 17 9 18 8 19 7 20 6 21 5 22
REMARK SMILES IDX 4 23 3 24 2 25 1 26
REMARK H PARENT
REMARK Flexibility Score: inf
ROOT
ATOM      1  C   UNL     1      31.408  76.427   8.501  1.00  0.00     0.000 C 
ENDROOT
BRANCH   1   2
ATOM      2  C   UNL     1      31.244  75.435   9.667  1.00  0.00     0.000 C 
BRANCH   2   3
ATOM      3  C   UNL     1      32.280  74.302   9.635  1.00  0.00     0.000 C 
BRANCH   3   4
ATOM      4  C   UNL     1      32.572  73.786  11.051  1.00  0.00     0.000 C 
BRANCH   4   5
ATOM      5  C   UNL     1      32.043  74.723  12.154  1.00  0.00     0.000 C 
BRANCH   5   6
ATOM      6  C   UNL     1      30.867  74.165  12.977  1.00  0.00     0.000 C 
BRANCH   6   7
ATOM      7  C   UNL     1      29.997  75.270  13.601  1.00  0.00     0.000 C 
BRANCH   7   8
ATOM      8  C   UNL     1      30.721  76.626  13.670  1.00  0.00     0.000 C 
BRANCH   8   9
ATOM      9  C   UNL     1      30.209  77.512  14.819  1.00  0.00     0.000 C 
BRANCH   9  10
ATOM     10  C   UNL     1      30.206  79.009  14.456  1.00  0.00     0.006 C 
BRANCH  10  11
ATOM     11  C   UNL     1      31.607  79.628  14.319  1.00  0.00     0.053 C 
BRANCH  11  12
ATOM     12  C   UNL     1      32.055  80.285  15.589  1.00  0.00     0.041 C 
ATOM     13  O   UNL     1      31.917  81.526  15.744  1.00  0.00    -0.550 OA
ATOM     14  O   UNL     1      32.591  79.517  16.615  1.00  0.00    -0.550 OA
ENDBRANCH  11  12
ENDBRANCH  10  11
ENDBRANCH   9  10
ENDBRANCH   8   9
ENDBRANCH   7   8
ENDBRANCH   6   7
ENDBRANCH   5   6
ENDBRANCH   4   5
ENDBRANCH   3   4
ENDBRANCH   2   3
ENDBRANCH   1   2
BRANCH   1  15
ATOM     15  C   UNL     1      31.611  77.897   8.919  1.00  0.00     0.000 C 
BRANCH  15  16
ATOM     16  C   UNL     1      31.458  78.176  10.425  1.00  0.00     0.000 C 
BRANCH  16  17
ATOM     17  C   UNL     1      32.675  78.893  11.026  1.00  0.00     0.000 C 
BRANCH  17  18
ATOM     18  C   UNL     1      33.635  77.894  11.682  1.00  0.00    -0.000 C 
BRANCH  18  19
ATOM     19  C   UNL     1      34.898  77.703  10.834  1.00  0.00    -0.000 C 
BRANCH  19  20
ATOM     20  C   UNL     1      35.342  76.233  10.829  1.00  0.00    -0.000 C 
BRANCH  20  21
ATOM     21  C   UNL     1      35.761  75.747   9.433  1.00  0.00    -0.000 C 
BRANCH  21  22
ATOM     22  C   UNL     1      34.964  76.425   8.305  1.00  0.00    -0.000 C 
BRANCH  22  23
ATOM     23  C   UNL     1      34.754  75.507   7.090  1.00  0.00    -0.000 C 
BRANCH  23  24
ATOM     24  C   UNL     1      36.007  74.683   6.749  1.00  0.00    -0.000 C 
BRANCH  24  25
ATOM     25  C   UNL     1      35.662  73.294   6.186  1.00  0.00    -0.003 C 
ATOM     26  C   UNL     1      34.259  72.829   6.576  1.00  0.00     0.004 C 
ENDBRANCH  24  25
ENDBRANCH  23  24
ENDBRANCH  22  23
ENDBRANCH  21  22
ENDBRANCH  20  21
ENDBRANCH  19  20
ENDBRANCH  18  19
ENDBRANCH  17  18
ENDBRANCH  16  17
ENDBRANCH  15  16
ENDBRANCH   1  15
TORSDOF 22
ENDMDL
MODEL 5
REMARK VINA RESULT:    -4.186      1.476      2.168
REMARK INTER + INTRA:         -13.336
REMARK INTER:                  -9.668
REMARK INTRA:                  -3.668
REMARK UNBOUND:                -3.767
REMARK SMILES CCCCCCCCCCCCCCCCCCCCCCCC(=O)[O-]
REMARK SMILES IDX 13 1 14 2 15 3 16 4 17 5 18 6 19 7 20 8 21 9 22 10 23 11
REMARK SMILES IDX 24 12 25 13 26 14 12 15 11 16 10 17 9 18 8 19 7 20 6 21 5 22
REMARK SMILES IDX 4 23 3 24 2 25 1 26
REMARK H PARENT
REMARK Flexibility Score: inf
ROOT
ATOM      1  C   UNL     1      35.751  75.736  10.220  1.00  0.00     0.000 C 
ENDROOT
BRANCH   1   2
ATOM      2  C   UNL     1      35.848  77.094  10.939  1.00  0.00     0.000 C 
BRANCH   2   3
ATOM      3  C   UNL     1      34.607  77.972  10.723  1.00  0.00     0.000 C 
BRANCH   3   4
ATOM      4  C   UNL     1      33.774  78.069  12.009  1.00  0.00     0.000 C 
BRANCH   4   5
ATOM      5  C   UNL     1      32.399  78.726  11.787  1.00  0.00     0.000 C 
BRANCH   5   6
ATOM      6  C   UNL     1      31.286  78.250  12.740  1.00  0.00     0.000 C 
BRANCH   6   7
ATOM      7  C   UNL     1      31.817  77.370  13.885  1.00  0.00     0.000 C 
BRANCH   7   8
ATOM      8  C   UNL     1      30.962  77.477  15.160  1.00  0.00     0.000 C 
BRANCH   8   9
ATOM      9  C   UNL     1      31.764  77.989  16.369  1.00  0.00     0.000 C 
BRANCH   9  10
ATOM     10  C   UNL     1      32.775  79.086  15.987  1.00  0.00     0.006 C 
BRANCH  10  11
ATOM     11  C   UNL     1      32.503  80.452  16.638  1.00  0.00     0.053 C 
BRANCH  11  12
ATOM     12  C   UNL     1      31.951  81.440  15.656  1.00  0.00     0.041 C 
ATOM     13  O   UNL     1      32.417  82.608  15.601  1.00  0.00    -0.550 OA
ATOM     14  O   UNL     1      30.947  81.056  14.775  1.00  0.00    -0.550 OA
ENDBRANCH  11  12
ENDBRANCH  10  11
ENDBRANCH   9  10
ENDBRANCH   8   9
ENDBRANCH   7   8
ENDBRANCH   6   7
ENDBRANCH   5   6
ENDBRANCH   4   5
ENDBRANCH   3   4
ENDBRANCH   2   3
ENDBRANCH   1   2
BRANCH   1  15
ATOM     15  C   UNL     1      36.749  75.537   9.062  1.00  0.00     0.000 C 
BRANCH  15  16
ATOM     16  C   UNL     1      36.115  75.153   7.712  1.00  0.00     0.000 C 
BRANCH  16  17
ATOM     17  C   UNL     1      34.789  75.879   7.448  1.00  0.00     0.000 C 
BRANCH  17  18
ATOM     18  C   UNL     1      33.789  74.960   6.738  1.00  0.00    -0.000 C 
BRANCH  18  19
ATOM     19  C   UNL     1      32.356  75.240   7.203  1.00  0.00    -0.000 C 
BRANCH  19  20
ATOM     20  C   UNL     1      32.314  76.424   8.180  1.00  0.00    -0.000 C 
BRANCH  20  21
ATOM     21  C   UNL     1      31.692  76.052   9.535  1.00  0.00    -0.000 C 
BRANCH  21  22
ATOM     22  C   UNL     1      31.669  74.532   9.778  1.00  0.00    -0.000 C 
BRANCH  22  23
ATOM     23  C   UNL     1      32.739  74.076  10.783  1.00  0.00    -0.000 C 
BRANCH  23  24
ATOM     24  C   UNL     1      32.249  74.140  12.239  1.00  0.00    -0.000 C 
BRANCH  24  25
ATOM     25  C   UNL     1      30.719  74.033  12.350  1.00  0.00    -0.003 C 
ATOM     26  C   UNL     1      30.250  73.698  13.766  1.00  0.00     0.004 C 
ENDBRANCH  24  25
ENDBRANCH  23  24
ENDBRANCH  22  23
ENDBRANCH  21  22
ENDBRANCH  20  21
ENDBRANCH  19  20
ENDBRANCH  18  19
ENDBRANCH  17  18
ENDBRANCH  16  17
ENDBRANCH  15  16
ENDBRANCH   1  15
TORSDOF 22
ENDMDL
MODEL 6
REMARK VINA RESULT:    -4.179      3.626      5.374
REMARK INTER + INTRA:         -13.322
REMARK INTER:                  -8.983
REMARK INTRA:                  -4.339
REMARK UNBOUND:                -3.767
REMARK SMILES CCCCCCCCCCCCCCCCCCCCCCCC(=O)[O-]
REMARK SMILES IDX 13 1 14 2 15 3 16 4 17 5 18 6 19 7 20 8 21 9 22 10 23 11
REMARK SMILES IDX 24 12 25 13 26 14 12 15 11 16 10 17 9 18 8 19 7 20 6 21 5 22
REMARK SMILES IDX 4 23 3 24 2 25 1 26
REMARK H PARENT
REMARK Flexibility Score: inf
ROOT
ATOM      1  C   UNL     1      34.274  78.008  10.272  1.00  0.00     0.000 C 
ENDROOT
BRANCH   1   2
ATOM      2  C   UNL     1      33.123  78.656  11.063  1.00  0.00     0.000 C 
BRANCH   2   3
ATOM      3  C   UNL     1      32.919  78.022  12.446  1.00  0.00     0.000 C 
BRANCH   3   4
ATOM      4  C   UNL     1      31.480  77.514  12.610  1.00  0.00     0.000 C 
BRANCH   4   5
ATOM      5  C   UNL     1      31.397  75.986  12.779  1.00  0.00     0.000 C 
BRANCH   5   6
ATOM      6  C   UNL     1      32.696  75.222  12.461  1.00  0.00     0.000 C 
BRANCH   6   7
ATOM      7  C   UNL     1      32.477  74.048  11.491  1.00  0.00     0.000 C 
BRANCH   7   8
ATOM      8  C   UNL     1      32.785  74.420  10.030  1.00  0.00     0.000 C 
BRANCH   8   9
ATOM      9  C   UNL     1      31.527  74.838   9.249  1.00  0.00     0.000 C 
BRANCH   9  10
ATOM     10  C   UNL     1      31.745  76.114   8.414  1.00  0.00     0.006 C 
BRANCH  10  11
ATOM     11  C   UNL     1      30.728  77.233   8.691  1.00  0.00     0.053 C 
BRANCH  11  12
ATOM     12  C   UNL     1      29.767  77.409   7.555  1.00  0.00     0.041 C 
ATOM     13  O   UNL     1      29.534  76.456   6.767  1.00  0.00    -0.550 OA
ATOM     14  O   UNL     1      29.100  78.617   7.392  1.00  0.00    -0.550 OA
ENDBRANCH  11  12
ENDBRANCH  10  11
ENDBRANCH   9  10
ENDBRANCH   8   9
ENDBRANCH   7   8
ENDBRANCH   6   7
ENDBRANCH   5   6
ENDBRANCH   4   5
ENDBRANCH   3   4
ENDBRANCH   2   3
ENDBRANCH   1   2
BRANCH   1  15
ATOM     15  C   UNL     1      35.385  77.377  11.136  1.00  0.00     0.000 C 
BRANCH  15  16
ATOM     16  C   UNL     1      36.371  76.472  10.374  1.00  0.00     0.000 C 
BRANCH  16  17
ATOM     17  C   UNL     1      35.771  75.888   9.088  1.00  0.00     0.000 C 
BRANCH  17  18
ATOM     18  C   UNL     1      36.838  75.158   8.265  1.00  0.00    -0.000 C 
BRANCH  18  19
ATOM     19  C   UNL     1      36.309  74.794   6.873  1.00  0.00    -0.000 C 
BRANCH  19  20
ATOM     20  C   UNL     1      34.833  75.191   6.723  1.00  0.00    -0.000 C 
BRANCH  20  21
ATOM     21  C   UNL     1      33.980  74.076   6.098  1.00  0.00    -0.000 C 
BRANCH  21  22
ATOM     22  C   UNL     1      34.013  72.776   6.921  1.00  0.00    -0.000 C 
BRANCH  22  23
ATOM     23  C   UNL     1      32.672  72.024   6.897  1.00  0.00    -0.000 C 
BRANCH  23  24
ATOM     24  C   UNL     1      32.823  70.534   7.247  1.00  0.00    -0.000 C 
BRANCH  24  25
ATOM     25  C   UNL     1      33.007  70.300   8.756  1.00  0.00    -0.003 C 
ATOM     26  C   UNL     1      31.873  70.898   9.590  1.00  0.00     0.004 C 
ENDBRANCH  24  25
ENDBRANCH  23  24
ENDBRANCH  22  23
ENDBRANCH  21  22
ENDBRANCH  20  21
ENDBRANCH  19  20
ENDBRANCH  18  19
ENDBRANCH  17  18
ENDBRANCH  16  17
ENDBRANCH  15  16
ENDBRANCH   1  15
TORSDOF 22
ENDMDL
MODEL 7
REMARK VINA RESULT:    -4.172      1.093      3.116
REMARK INTER + INTRA:         -13.304
REMARK INTER:                  -9.733
REMARK INTRA:                  -3.571
REMARK UNBOUND:                -3.767
REMARK SMILES CCCCCCCCCCCCCCCCCCCCCCCC(=O)[O-]
REMARK SMILES IDX 13 1 14 2 15 3 16 4 17 5 18 6 19 7 20 8 21 9 22 10 23 11
REMARK SMILES IDX 24 12 25 13 26 14 12 15 11 16 10 17 9 18 8 19 7 20 6 21 5 22
REMARK SMILES IDX 4 23 3 24 2 25 1 26
REMARK H PARENT
REMARK Flexibility Score: inf
ROOT
ATOM      1  C   UNL     1      34.261  78.016  10.305  1.00  0.00     0.000 C 
ENDROOT
BRANCH   1   2
ATOM      2  C   UNL     1      33.648  77.776   8.913  1.00  0.00     0.000 C 
BRANCH   2   3
ATOM      3  C   UNL     1      32.115  77.852   8.916  1.00  0.00     0.000 C 
BRANCH   3   4
ATOM      4  C   UNL     1      31.607  78.631  10.138  1.00  0.00     0.000 C 
BRANCH   4   5
ATOM      5  C   UNL     1      30.664  77.801  11.029  1.00  0.00     0.000 C 
BRANCH   5   6
ATOM      6  C   UNL     1      31.103  77.670  12.500  1.00  0.00     0.000 C 
BRANCH   6   7
ATOM      7  C   UNL     1      31.984  78.842  12.967  1.00  0.00     0.000 C 
BRANCH   7   8
ATOM      8  C   UNL     1      32.451  78.688  14.425  1.00  0.00     0.000 C 
BRANCH   8   9
ATOM      9  C   UNL     1      31.511  79.386  15.423  1.00  0.00     0.000 C 
BRANCH   9  10
ATOM     10  C   UNL     1      31.650  80.920  15.395  1.00  0.00     0.006 C 
BRANCH  10  11
ATOM     11  C   UNL     1      32.456  81.503  16.566  1.00  0.00     0.053 C 
BRANCH  11  12
ATOM     12  C   UNL     1      31.777  81.274  17.882  1.00  0.00     0.041 C 
ATOM     13  O   UNL     1      32.332  80.574  18.769  1.00  0.00    -0.550 OA
ATOM     14  O   UNL     1      30.548  81.867  18.141  1.00  0.00    -0.550 OA
ENDBRANCH  11  12
ENDBRANCH  10  11
ENDBRANCH   9  10
ENDBRANCH   8   9
ENDBRANCH   7   8
ENDBRANCH   6   7
ENDBRANCH   5   6
ENDBRANCH   4   5
ENDBRANCH   3   4
ENDBRANCH   2   3
ENDBRANCH   1   2
BRANCH   1  15
ATOM     15  C   UNL     1      35.492  77.149  10.635  1.00  0.00     0.000 C 
BRANCH  15  16
ATOM     16  C   UNL     1      35.183  75.684  10.993  1.00  0.00     0.000 C 
BRANCH  16  17
ATOM     17  C   UNL     1      33.811  75.510  11.660  1.00  0.00     0.000 C 
BRANCH  17  18
ATOM     18  C   UNL     1      33.538  74.036  11.981  1.00  0.00    -0.000 C 
BRANCH  18  19
ATOM     19  C   UNL     1      32.277  73.541  11.264  1.00  0.00    -0.000 C 
BRANCH  19  20
ATOM     20  C   UNL     1      31.855  74.513  10.153  1.00  0.00    -0.000 C 
BRANCH  20  21
ATOM     21  C   UNL     1      31.528  73.798   8.833  1.00  0.00    -0.000 C 
BRANCH  21  22
ATOM     22  C   UNL     1      32.302  74.382   7.637  1.00  0.00    -0.000 C 
BRANCH  22  23
ATOM     23  C   UNL     1      33.823  74.388   7.859  1.00  0.00    -0.000 C 
BRANCH  23  24
ATOM     24  C   UNL     1      34.589  75.016   6.684  1.00  0.00    -0.000 C 
BRANCH  24  25
ATOM     25  C   UNL     1      36.066  74.588   6.648  1.00  0.00    -0.003 C 
ATOM     26  C   UNL     1      36.847  75.056   7.876  1.00  0.00     0.004 C 
ENDBRANCH  24  25
ENDBRANCH  23  24
ENDBRANCH  22  23
ENDBRANCH  21  22
ENDBRANCH  20  21
ENDBRANCH  19  20
ENDBRANCH  18  19
ENDBRANCH  17  18
ENDBRANCH  16  17
ENDBRANCH  15  16
ENDBRANCH   1  15
TORSDOF 22
ENDMDL
MODEL 8
REMARK VINA RESULT:    -4.158      2.578      5.883
REMARK INTER + INTRA:         -13.273
REMARK INTER:                  -9.148
REMARK INTRA:                  -4.124
REMARK UNBOUND:                -3.767
REMARK SMILES CCCCCCCCCCCCCCCCCCCCCCCC(=O)[O-]
REMARK SMILES IDX 13 1 14 2 15 3 16 4 17 5 18 6 19 7 20 8 21 9 22 10 23 11
REMARK SMILES IDX 24 12 25 13 26 14 12 15 11 16 10 17 9 18 8 19 7 20 6 21 5 22
REMARK SMILES IDX 4 23 3 24 2 25 1 26
REMARK H PARENT
REMARK Flexibility Score: inf
ROOT
ATOM      1  C   UNL     1      32.037  77.757  15.620  1.00  0.00     0.000 C 
ENDROOT
BRANCH   1   2
ATOM      2  C   UNL     1      33.087  78.834  15.296  1.00  0.00     0.000 C 
BRANCH   2   3
ATOM      3  C   UNL     1      32.618  80.251  15.657  1.00  0.00     0.000 C 
BRANCH   3   4
ATOM      4  C   UNL     1      31.521  80.728  14.695  1.00  0.00     0.000 C 
BRANCH   4   5
ATOM      5  C   UNL     1      30.221  81.131  15.417  1.00  0.00     0.000 C 
BRANCH   5   6
ATOM      6  C   UNL     1      29.102  80.073  15.385  1.00  0.00     0.000 C 
BRANCH   6   7
ATOM      7  C   UNL     1      28.898  79.379  16.743  1.00  0.00     0.000 C 
BRANCH   7   8
ATOM      8  C   UNL     1      29.599  80.116  17.897  1.00  0.00     0.000 C 
BRANCH   8   9
ATOM      9  C   UNL     1      30.599  79.221  18.649  1.00  0.00     0.000 C 
BRANCH   9  10
ATOM     10  C   UNL     1      31.757  80.022  19.275  1.00  0.00     0.006 C 
BRANCH  10  11
ATOM     11  C   UNL     1      31.421  81.493  19.569  1.00  0.00     0.053 C 
BRANCH  11  12
ATOM     12  C   UNL     1      30.968  81.691  20.984  1.00  0.00     0.041 C 
ATOM     13  O   UNL     1      31.733  82.232  21.825  1.00  0.00    -0.550 OA
ATOM     14  O   UNL     1      29.686  81.313  21.361  1.00  0.00    -0.550 OA
ENDBRANCH  11  12
ENDBRANCH  10  11
ENDBRANCH   9  10
ENDBRANCH   8   9
ENDBRANCH   7   8
ENDBRANCH   6   7
ENDBRANCH   5   6
ENDBRANCH   4   5
ENDBRANCH   3   4
ENDBRANCH   2   3
ENDBRANCH   1   2
BRANCH   1  15
ATOM     15  C   UNL     1      31.553  76.932  14.411  1.00  0.00     0.000 C 
BRANCH  15  16
ATOM     16  C   UNL     1      30.046  76.614  14.398  1.00  0.00     0.000 C 
BRANCH  16  17
ATOM     17  C   UNL     1      29.343  77.113  13.128  1.00  0.00     0.000 C 
BRANCH  17  18
ATOM     18  C   UNL     1      30.208  78.137  12.385  1.00  0.00    -0.000 C 
BRANCH  18  19
ATOM     19  C   UNL     1      30.572  77.637  10.982  1.00  0.00    -0.000 C 
BRANCH  19  20
ATOM     20  C   UNL     1      31.772  78.409  10.415  1.00  0.00    -0.000 C 
BRANCH  20  21
ATOM     21  C   UNL     1      32.731  78.900  11.511  1.00  0.00    -0.000 C 
BRANCH  21  22
ATOM     22  C   UNL     1      33.870  77.902  11.790  1.00  0.00    -0.000 C 
BRANCH  22  23
ATOM     23  C   UNL     1      34.846  77.771  10.610  1.00  0.00    -0.000 C 
BRANCH  23  24
ATOM     24  C   UNL     1      35.444  76.358  10.492  1.00  0.00    -0.000 C 
BRANCH  24  25
ATOM     25  C   UNL     1      35.542  75.881   9.033  1.00  0.00    -0.003 C 
ATOM     26  C   UNL     1      34.393  76.394   8.165  1.00  0.00     0.004 C 
ENDBRANCH  24  25
ENDBRANCH  23  24
ENDBRANCH  22  23
ENDBRANCH  21  22
ENDBRANCH  20  21
ENDBRANCH  19  20
ENDBRANCH  18  19
ENDBRANCH  17  18
ENDBRANCH  16  17
ENDBRANCH  15  16
ENDBRANCH   1  15
TORSDOF 22
ENDMDL
MODEL 9
REMARK VINA RESULT:    -4.142     11.169     13.695
REMARK INTER + INTRA:         -13.236
REMARK INTER:                  -9.047
REMARK INTRA:                  -4.189
REMARK UNBOUND:                -3.767
REMARK SMILES CCCCCCCCCCCCCCCCCCCCCCCC(=O)[O-]
REMARK SMILES IDX 13 1 14 2 15 3 16 4 17 5 18 6 19 7 20 8 21 9 22 10 23 11
REMARK SMILES IDX 24 12 25 13 26 14 12 15 11 16 10 17 9 18 8 19 7 20 6 21 5 22
REMARK SMILES IDX 4 23 3 24 2 25 1 26
REMARK H PARENT
REMARK Flexibility Score: inf
ROOT
ATOM      1  C   UNL     1      44.476  74.815  14.412  1.00  0.00     0.000 C 
ENDROOT
BRANCH   1   2
ATOM      2  C   UNL     1      43.788  75.149  13.076  1.00  0.00     0.000 C 
BRANCH   2   3
ATOM      3  C   UNL     1      44.477  74.492  11.871  1.00  0.00     0.000 C 
BRANCH   3   4
ATOM      4  C   UNL     1      45.249  75.532  11.047  1.00  0.00     0.000 C 
BRANCH   4   5
ATOM      5  C   UNL     1      46.658  75.813  11.602  1.00  0.00     0.000 C 
BRANCH   5   6
ATOM      6  C   UNL     1      46.794  77.117  12.411  1.00  0.00     0.000 C 
BRANCH   6   7
ATOM      7  C   UNL     1      47.528  76.916  13.749  1.00  0.00     0.000 C 
BRANCH   7   8
ATOM      8  C   UNL     1      46.842  77.645  14.917  1.00  0.00     0.000 C 
BRANCH   8   9
ATOM      9  C   UNL     1      47.413  77.236  16.286  1.00  0.00     0.000 C 
BRANCH   9  10
ATOM     10  C   UNL     1      46.431  76.375  17.103  1.00  0.00     0.006 C 
BRANCH  10  11
ATOM     11  C   UNL     1      47.092  75.546  18.217  1.00  0.00     0.053 C 
BRANCH  11  12
ATOM     12  C   UNL     1      46.658  75.992  19.579  1.00  0.00     0.041 C 
ATOM     13  O   UNL     1      45.615  76.685  19.718  1.00  0.00    -0.550 OA
ATOM     14  O   UNL     1      47.384  75.609  20.700  1.00  0.00    -0.550 OA
ENDBRANCH  11  12
ENDBRANCH  10  11
ENDBRANCH   9  10
ENDBRANCH   8   9
ENDBRANCH   7   8
ENDBRANCH   6   7
ENDBRANCH   5   6
ENDBRANCH   4   5
ENDBRANCH   3   4
ENDBRANCH   2   3
ENDBRANCH   1   2
BRANCH   1  15
ATOM     15  C   UNL     1      45.263  73.490  14.428  1.00  0.00     0.000 C 
BRANCH  15  16
ATOM     16  C   UNL     1      46.748  73.616  14.814  1.00  0.00     0.000 C 
BRANCH  16  17
ATOM     17  C   UNL     1      47.682  72.892  13.833  1.00  0.00     0.000 C 
BRANCH  17  18
ATOM     18  C   UNL     1      46.903  71.906  12.957  1.00  0.00    -0.000 C 
BRANCH  18  19
ATOM     19  C   UNL     1      47.449  71.891  11.524  1.00  0.00    -0.000 C 
BRANCH  19  20
ATOM     20  C   UNL     1      46.312  71.741  10.502  1.00  0.00    -0.000 C 
BRANCH  20  21
ATOM     21  C   UNL     1      46.814  71.773   9.050  1.00  0.00    -0.000 C 
BRANCH  21  22
ATOM     22  C   UNL     1      46.992  73.207   8.518  1.00  0.00    -0.000 C 
BRANCH  22  23
ATOM     23  C   UNL     1      45.777  73.697   7.714  1.00  0.00    -0.000 C 
BRANCH  23  24
ATOM     24  C   UNL     1      45.006  72.546   7.047  1.00  0.00    -0.000 C 
BRANCH  24  25
ATOM     25  C   UNL     1      43.502  72.582   7.367  1.00  0.00    -0.003 C 
ATOM     26  C   UNL     1      43.198  73.253   8.707  1.00  0.00     0.004 C 
ENDBRANCH  24  25
ENDBRANCH  23  24
ENDBRANCH  22  23
ENDBRANCH  21  22
ENDBRANCH  20  21
ENDBRANCH  19  20
ENDBRANCH  18  19
ENDBRANCH  17  18
ENDBRANCH  16  17
ENDBRANCH  15  16
ENDBRANCH   1  15
TORSDOF 22
ENDMDL
