MODEL 1
REMARK VINA RESULT:    -3.707      0.000      0.000
REMARK INTER + INTRA:          -3.815
REMARK INTER:                  -3.815
REMARK INTRA:                   0.000
REMARK UNBOUND:                 0.000
REMARK SMILES CC1(C)[C@@H]2CC[C@@](C)(C2)[C@@H]1O
REMARK SMILES IDX 1 1 2 2 4 3 5 4 6 5 7 6 9 7 10 8 8 9 3 10 11 11
REMARK H PARENT 11 12
REMARK Flexibility Score: inf
ROOT
ATOM      1  C   UNL     1       8.079   3.785  -2.559  1.00  0.00     0.014 C 
ATOM      2  C   UNL     1       6.891   3.120  -1.824  1.00  0.00    -0.006 C 
ATOM      3  C   UNL     1       6.972   1.560  -1.968  1.00  0.00    -0.002 C 
ATOM      4  C   UNL     1       5.672   0.887  -1.481  1.00  0.00     0.005 C 
ATOM      5  C   UNL     1       5.700   1.148   0.033  1.00  0.00     0.010 C 
ATOM      6  C   UNL     1       7.071   1.837   0.236  1.00  0.00    -0.006 C 
ATOM      7  C   UNL     1       7.907   1.170  -0.835  1.00  0.00     0.013 C 
ATOM      8  C   UNL     1       7.021   3.300  -0.274  1.00  0.00     0.126 C 
ATOM      9  C   UNL     1       7.636   1.690   1.652  1.00  0.00     0.014 C 
ATOM     10  C   UNL     1       5.588   3.722  -2.412  1.00  0.00     0.014 C 
ENDROOT
BRANCH   8  11
ATOM     11  O   UNL     1       5.953   4.007   0.305  1.00  0.00    -0.392 OA
ATOM     12  H   UNL     1       5.714   4.728  -0.333  1.00  0.00     0.211 HD
ENDBRANCH   8  11
TORSDOF 1
ENDMDL
MODEL 2
REMARK VINA RESULT:    -3.683      1.403      2.189
REMARK INTER + INTRA:          -3.791
REMARK INTER:                  -3.791
REMARK INTRA:                   0.000
REMARK UNBOUND:                 0.000
REMARK SMILES CC1(C)[C@@H]2CC[C@@](C)(C2)[C@@H]1O
REMARK SMILES IDX 1 1 2 2 4 3 5 4 6 5 7 6 9 7 10 8 8 9 3 10 11 11
REMARK H PARENT 11 12
REMARK Flexibility Score: inf
ROOT
ATOM      1  C   UNL     1       7.789   0.309  -2.442  1.00  0.00     0.014 C 
ATOM      2  C   UNL     1       7.470   1.653  -1.745  1.00  0.00    -0.006 C 
ATOM      3  C   UNL     1       6.007   1.634  -1.181  1.00  0.00    -0.002 C 
ATOM      4  C   UNL     1       5.569   3.041  -0.721  1.00  0.00     0.005 C 
ATOM      5  C   UNL     1       6.463   3.293   0.503  1.00  0.00     0.010 C 
ATOM      6  C   UNL     1       7.218   1.951   0.656  1.00  0.00    -0.006 C 
ATOM      7  C   UNL     1       6.180   0.962   0.171  1.00  0.00     0.013 C 
ATOM      8  C   UNL     1       8.311   1.817  -0.435  1.00  0.00     0.126 C 
ATOM      9  C   UNL     1       7.721   1.681   2.078  1.00  0.00     0.014 C 
ATOM     10  C   UNL     1       7.711   2.781  -2.783  1.00  0.00     0.014 C 
ENDROOT
BRANCH   8  11
ATOM     11  O   UNL     1       9.162   2.935  -0.444  1.00  0.00    -0.392 OA
ATOM     12  H   UNL     1       8.855   3.528   0.290  1.00  0.00     0.211 HD
ENDBRANCH   8  11
TORSDOF 1
ENDMDL
MODEL 3
REMARK VINA RESULT:    -3.632      0.928      3.318
REMARK INTER + INTRA:          -3.738
REMARK INTER:                  -3.738
REMARK INTRA:                   0.000
REMARK UNBOUND:                 0.000
REMARK SMILES CC1(C)[C@@H]2CC[C@@](C)(C2)[C@@H]1O
REMARK SMILES IDX 1 1 2 2 4 3 5 4 6 5 7 6 9 7 10 8 8 9 3 10 11 11
REMARK H PARENT 11 12
REMARK Flexibility Score: inf
ROOT
ATOM      1  C   UNL     1       5.346   0.591  -0.012  1.00  0.00     0.014 C 
ATOM      2  C   UNL     1       6.382   1.704  -0.301  1.00  0.00    -0.006 C 
ATOM      3  C   UNL     1       7.135   1.404  -1.644  1.00  0.00    -0.002 C 
ATOM      4  C   UNL     1       8.348   2.340  -1.823  1.00  0.00     0.005 C 
ATOM      5  C   UNL     1       7.691   3.713  -2.034  1.00  0.00     0.010 C 
ATOM      6  C   UNL     1       6.182   3.369  -2.064  1.00  0.00    -0.006 C 
ATOM      7  C   UNL     1       6.198   1.990  -2.688  1.00  0.00     0.013 C 
ATOM      8  C   UNL     1       5.670   3.058  -0.634  1.00  0.00     0.126 C 
ATOM      9  C   UNL     1       5.328   4.388  -2.823  1.00  0.00     0.014 C 
ATOM     10  C   UNL     1       7.328   1.784   0.926  1.00  0.00     0.014 C 
ENDROOT
BRANCH   8  11
ATOM     11  O   UNL     1       5.986   4.097   0.258  1.00  0.00    -0.392 OA
ATOM     12  H   UNL     1       5.815   3.746   1.170  1.00  0.00     0.211 HD
ENDBRANCH   8  11
TORSDOF 1
ENDMDL
MODEL 4
REMARK VINA RESULT:    -3.598      1.504      1.838
REMARK INTER + INTRA:          -3.703
REMARK INTER:                  -3.703
REMARK INTRA:                   0.000
REMARK UNBOUND:                 0.000
REMARK SMILES CC1(C)[C@@H]2CC[C@@](C)(C2)[C@@H]1O
REMARK SMILES IDX 1 1 2 2 4 3 5 4 6 5 7 6 9 7 10 8 8 9 3 10 11 11
REMARK H PARENT 11 12
REMARK Flexibility Score: inf
ROOT
ATOM      1  C   UNL     1       6.697   2.087  -3.754  1.00  0.00     0.014 C 
ATOM      2  C   UNL     1       6.519   2.883  -2.439  1.00  0.00    -0.006 C 
ATOM      3  C   UNL     1       5.611   2.082  -1.443  1.00  0.00    -0.002 C 
ATOM      4  C   UNL     1       5.197   2.956  -0.240  1.00  0.00     0.005 C 
ATOM      5  C   UNL     1       6.524   3.157   0.507  1.00  0.00     0.010 C 
ATOM      6  C   UNL     1       7.508   2.277  -0.301  1.00  0.00    -0.006 C 
ATOM      7  C   UNL     1       6.603   1.155  -0.761  1.00  0.00     0.013 C 
ATOM      8  C   UNL     1       7.866   2.960  -1.645  1.00  0.00     0.126 C 
ATOM      9  C   UNL     1       8.725   1.809   0.504  1.00  0.00     0.014 C 
ATOM     10  C   UNL     1       5.939   4.272  -2.814  1.00  0.00     0.014 C 
ENDROOT
BRANCH   8  11
ATOM     11  O   UNL     1       8.331   4.271  -1.444  1.00  0.00    -0.392 OA
ATOM     12  H   UNL     1       8.583   4.620  -2.338  1.00  0.00     0.211 HD
ENDBRANCH   8  11
TORSDOF 1
ENDMDL
MODEL 5
REMARK VINA RESULT:    -3.561      1.559      2.754
REMARK INTER + INTRA:          -3.665
REMARK INTER:                  -3.665
REMARK INTRA:                   0.000
REMARK UNBOUND:                 0.000
REMARK SMILES CC1(C)[C@@H]2CC[C@@](C)(C2)[C@@H]1O
REMARK SMILES IDX 1 1 2 2 4 3 5 4 6 5 7 6 9 7 10 8 8 9 3 10 11 11
REMARK H PARENT 11 12
REMARK Flexibility Score: inf
ROOT
ATOM      1  C   UNL     1       5.808   4.100  -2.402  1.00  0.00     0.014 C 
ATOM      2  C   UNL     1       6.689   3.214  -1.489  1.00  0.00    -0.006 C 
ATOM      3  C   UNL     1       6.195   3.311  -0.004  1.00  0.00    -0.002 C 
ATOM      4  C   UNL     1       7.206   2.659   0.963  1.00  0.00     0.005 C 
ATOM      5  C   UNL     1       7.104   1.167   0.607  1.00  0.00     0.010 C 
ATOM      6  C   UNL     1       5.964   1.143  -0.439  1.00  0.00    -0.006 C 
ATOM      7  C   UNL     1       5.084   2.275   0.045  1.00  0.00     0.013 C 
ATOM      8  C   UNL     1       6.464   1.696  -1.798  1.00  0.00     0.126 C 
ATOM      9  C   UNL     1       5.246  -0.206  -0.542  1.00  0.00     0.014 C 
ATOM     10  C   UNL     1       8.158   3.675  -1.677  1.00  0.00     0.014 C 
ENDROOT
BRANCH   8  11
ATOM     11  O   UNL     1       7.624   1.027  -2.225  1.00  0.00    -0.392 OA
ATOM     12  H   UNL     1       7.839   0.360  -1.522  1.00  0.00     0.211 HD
ENDBRANCH   8  11
TORSDOF 1
ENDMDL
MODEL 6
REMARK VINA RESULT:    -3.446      1.753      3.277
REMARK INTER + INTRA:          -3.547
REMARK INTER:                  -3.547
REMARK INTRA:                   0.000
REMARK UNBOUND:                 0.000
REMARK SMILES CC1(C)[C@@H]2CC[C@@](C)(C2)[C@@H]1O
REMARK SMILES IDX 1 1 2 2 4 3 5 4 6 5 7 6 9 7 10 8 8 9 3 10 11 11
REMARK H PARENT 11 12
REMARK Flexibility Score: inf
ROOT
ATOM      1  C   UNL     1       7.753  -0.127  -2.157  1.00  0.00     0.014 C 
ATOM      2  C   UNL     1       7.526   0.264  -0.677  1.00  0.00    -0.006 C 
ATOM      3  C   UNL     1       8.606   1.308  -0.224  1.00  0.00    -0.002 C 
ATOM      4  C   UNL     1       8.574   1.514   1.305  1.00  0.00     0.005 C 
ATOM      5  C   UNL     1       7.225   2.216   1.526  1.00  0.00     0.010 C 
ATOM      6  C   UNL     1       6.708   2.425   0.082  1.00  0.00    -0.006 C 
ATOM      7  C   UNL     1       8.002   2.627  -0.676  1.00  0.00     0.013 C 
ATOM      8  C   UNL     1       6.204   1.085  -0.512  1.00  0.00     0.126 C 
ATOM      9  C   UNL     1       5.714   3.582  -0.058  1.00  0.00     0.014 C 
ATOM     10  C   UNL     1       7.553  -1.045   0.155  1.00  0.00     0.014 C 
ENDROOT
BRANCH   8  11
ATOM     11  O   UNL     1       5.261   0.475   0.333  1.00  0.00    -0.392 OA
ATOM     12  H   UNL     1       4.368   0.673  -0.054  1.00  0.00     0.211 HD
ENDBRANCH   8  11
TORSDOF 1
ENDMDL
MODEL 7
REMARK VINA RESULT:    -3.442      1.685      3.350
REMARK INTER + INTRA:          -3.543
REMARK INTER:                  -3.543
REMARK INTRA:                   0.000
REMARK UNBOUND:                 0.000
REMARK SMILES CC1(C)[C@@H]2CC[C@@](C)(C2)[C@@H]1O
REMARK SMILES IDX 1 1 2 2 4 3 5 4 6 5 7 6 9 7 10 8 8 9 3 10 11 11
REMARK H PARENT 11 12
REMARK Flexibility Score: inf
ROOT
ATOM      1  C   UNL     1       9.277   0.993   0.188  1.00  0.00     0.014 C 
ATOM      2  C   UNL     1       7.832   1.498   0.414  1.00  0.00    -0.006 C 
ATOM      3  C   UNL     1       7.634   2.892  -0.276  1.00  0.00    -0.002 C 
ATOM      4  C   UNL     1       6.301   3.542   0.153  1.00  0.00     0.005 C 
ATOM      5  C   UNL     1       5.252   2.625  -0.495  1.00  0.00     0.010 C 
ATOM      6  C   UNL     1       6.119   1.634  -1.308  1.00  0.00    -0.006 C 
ATOM      7  C   UNL     1       7.288   2.509  -1.705  1.00  0.00     0.013 C 
ATOM      8  C   UNL     1       6.802   0.612  -0.363  1.00  0.00     0.126 C 
ATOM      9  C   UNL     1       5.386   0.995  -2.491  1.00  0.00     0.014 C 
ATOM     10  C   UNL     1       7.590   1.533   1.946  1.00  0.00     0.014 C 
ENDROOT
BRANCH   8  11
ATOM     11  O   UNL     1       5.862  -0.023   0.467  1.00  0.00    -0.392 OA
ATOM     12  H   UNL     1       5.816  -0.968   0.166  1.00  0.00     0.211 HD
ENDBRANCH   8  11
TORSDOF 1
ENDMDL
MODEL 8
REMARK VINA RESULT:    -3.403     10.678     12.519
REMARK INTER + INTRA:          -3.502
REMARK INTER:                  -3.502
REMARK INTRA:                   0.000
REMARK UNBOUND:                 0.000
REMARK SMILES CC1(C)[C@@H]2CC[C@@](C)(C2)[C@@H]1O
REMARK SMILES IDX 1 1 2 2 4 3 5 4 6 5 7 6 9 7 10 8 8 9 3 10 11 11
REMARK H PARENT 11 12
REMARK Flexibility Score: inf
ROOT
ATOM      1  C   UNL     1      -1.685  -6.075  -5.250  1.00  0.00     0.014 C 
ATOM      2  C   UNL     1      -1.443  -4.626  -5.736  1.00  0.00    -0.006 C 
ATOM      3  C   UNL     1      -1.517  -4.563  -7.301  1.00  0.00    -0.002 C 
ATOM      4  C   UNL     1      -1.019  -3.201  -7.828  1.00  0.00     0.005 C 
ATOM      5  C   UNL     1      -2.105  -2.230  -7.340  1.00  0.00     0.010 C 
ATOM      6  C   UNL     1      -3.145  -3.176  -6.694  1.00  0.00    -0.006 C 
ATOM      7  C   UNL     1      -3.007  -4.412  -7.557  1.00  0.00     0.013 C 
ATOM      8  C   UNL     1      -2.631  -3.693  -5.326  1.00  0.00     0.126 C 
ATOM      9  C   UNL     1      -4.564  -2.601  -6.650  1.00  0.00     0.014 C 
ATOM     10  C   UNL     1      -0.072  -4.172  -5.169  1.00  0.00     0.014 C 
ENDROOT
BRANCH   8  11
ATOM     11  O   UNL     1      -2.253  -2.629  -4.489  1.00  0.00    -0.392 OA
ATOM     12  H   UNL     1      -1.902  -3.039  -3.656  1.00  0.00     0.211 HD
ENDBRANCH   8  11
TORSDOF 1
ENDMDL
MODEL 9
REMARK VINA RESULT:    -3.335      1.604      3.389
REMARK INTER + INTRA:          -3.433
REMARK INTER:                  -3.433
REMARK INTRA:                   0.000
REMARK UNBOUND:                 0.000
REMARK SMILES CC1(C)[C@@H]2CC[C@@](C)(C2)[C@@H]1O
REMARK SMILES IDX 1 1 2 2 4 3 5 4 6 5 7 6 9 7 10 8 8 9 3 10 11 11
REMARK H PARENT 11 12
REMARK Flexibility Score: inf
ROOT
ATOM      1  C   UNL     1       8.050   0.219  -0.532  1.00  0.00     0.014 C 
ATOM      2  C   UNL     1       6.849   1.174  -0.734  1.00  0.00    -0.006 C 
ATOM      3  C   UNL     1       7.101   2.525   0.022  1.00  0.00    -0.002 C 
ATOM      4  C   UNL     1       5.822   3.386   0.064  1.00  0.00     0.005 C 
ATOM      5  C   UNL     1       5.630   3.784  -1.407  1.00  0.00     0.010 C 
ATOM      6  C   UNL     1       6.889   3.194  -2.088  1.00  0.00    -0.006 C 
ATOM      7  C   UNL     1       7.917   3.320  -0.984  1.00  0.00     0.013 C 
ATOM      8  C   UNL     1       6.761   1.655  -2.221  1.00  0.00     0.126 C 
ATOM      9  C   UNL     1       7.279   3.902  -3.389  1.00  0.00     0.014 C 
ATOM     10  C   UNL     1       5.580   0.428  -0.246  1.00  0.00     0.014 C 
ENDROOT
BRANCH   8  11
ATOM     11  O   UNL     1       5.563   1.296  -2.862  1.00  0.00    -0.392 OA
ATOM     12  H   UNL     1       5.574   1.743  -3.748  1.00  0.00     0.211 HD
ENDBRANCH   8  11
TORSDOF 1
ENDMDL
