MODEL 1
REMARK VINA RESULT:    -4.363      0.000      0.000
REMARK INTER + INTRA:          -8.459
REMARK INTER:                  -7.424
REMARK INTRA:                  -1.035
REMARK UNBOUND:                -1.035
REMARK SMILES CCCCCCCCCCCCCC(=O)[O-]
REMARK SMILES IDX 8 1 9 2 10 3 11 4 12 5 13 6 14 7 15 8 16 9 7 10 6 11 5 12
REMARK SMILES IDX 4 13 3 14 2 15 1 16
REMARK H PARENT
REMARK Flexibility Score: inf
ROOT
ATOM      1  C   UNL     1      20.140  -7.377  43.721  1.00  0.00     0.000 C 
ENDROOT
BRANCH   1   2
ATOM      2  C   UNL     1      20.611  -6.185  42.874  1.00  0.00     0.000 C 
BRANCH   2   3
ATOM      3  C   UNL     1      19.466  -5.222  42.516  1.00  0.00     0.000 C 
BRANCH   3   4
ATOM      4  C   UNL     1      19.737  -3.783  43.008  1.00  0.00     0.000 C 
BRANCH   4   5
ATOM      5  C   UNL     1      20.329  -3.721  44.429  1.00  0.00     0.006 C 
BRANCH   5   6
ATOM      6  C   UNL     1      21.704  -3.042  44.506  1.00  0.00     0.053 C 
BRANCH   6   7
ATOM      7  C   UNL     1      21.978  -2.494  45.874  1.00  0.00     0.041 C 
ATOM      8  O   UNL     1      22.064  -3.268  46.863  1.00  0.00    -0.550 OA
ATOM      9  O   UNL     1      22.159  -1.128  46.051  1.00  0.00    -0.550 OA
ENDBRANCH   6   7
ENDBRANCH   5   6
ENDBRANCH   4   5
ENDBRANCH   3   4
ENDBRANCH   2   3
ENDBRANCH   1   2
BRANCH   1  10
ATOM     10  C   UNL     1      18.648  -7.292  44.080  1.00  0.00     0.000 C 
BRANCH  10  11
ATOM     11  C   UNL     1      18.456  -7.125  45.591  1.00  0.00    -0.000 C 
BRANCH  11  12
ATOM     12  C   UNL     1      19.783  -6.777  46.282  1.00  0.00    -0.000 C 
BRANCH  12  13
ATOM     13  C   UNL     1      19.615  -6.578  47.803  1.00  0.00    -0.000 C 
BRANCH  13  14
ATOM     14  C   UNL     1      20.657  -7.337  48.643  1.00  0.00    -0.000 C 
BRANCH  14  15
ATOM     15  C   UNL     1      20.341  -7.319  50.144  1.00  0.00    -0.003 C 
ATOM     16  C   UNL     1      21.615  -7.171  50.973  1.00  0.00     0.004 C 
ENDBRANCH  14  15
ENDBRANCH  13  14
ENDBRANCH  12  13
ENDBRANCH  11  12
ENDBRANCH  10  11
ENDBRANCH   1  10
TORSDOF 12
ENDMDL
MODEL 2
REMARK VINA RESULT:    -4.344      2.582      3.957
REMARK INTER + INTRA:          -8.427
REMARK INTER:                  -6.989
REMARK INTRA:                  -1.438
REMARK UNBOUND:                -1.035
REMARK SMILES CCCCCCCCCCCCCC(=O)[O-]
REMARK SMILES IDX 8 1 9 2 10 3 11 4 12 5 13 6 14 7 15 8 16 9 7 10 6 11 5 12
REMARK SMILES IDX 4 13 3 14 2 15 1 16
REMARK H PARENT
REMARK Flexibility Score: inf
ROOT
ATOM      1  C   UNL     1      20.676  -5.047  46.945  1.00  0.00     0.000 C 
ENDROOT
BRANCH   1   2
ATOM      2  C   UNL     1      22.054  -5.311  46.318  1.00  0.00     0.000 C 
BRANCH   2   3
ATOM      3  C   UNL     1      22.051  -5.147  44.789  1.00  0.00     0.000 C 
BRANCH   3   4
ATOM      4  C   UNL     1      21.993  -6.505  44.055  1.00  0.00     0.000 C 
BRANCH   4   5
ATOM      5  C   UNL     1      20.702  -6.708  43.239  1.00  0.00     0.006 C 
BRANCH   5   6
ATOM      6  C   UNL     1      20.093  -5.408  42.696  1.00  0.00     0.053 C 
BRANCH   6   7
ATOM      7  C   UNL     1      18.684  -5.214  43.168  1.00  0.00     0.041 C 
ATOM      8  O   UNL     1      18.176  -4.062  43.199  1.00  0.00    -0.550 OA
ATOM      9  O   UNL     1      17.924  -6.311  43.556  1.00  0.00    -0.550 OA
ENDBRANCH   6   7
ENDBRANCH   5   6
ENDBRANCH   4   5
ENDBRANCH   3   4
ENDBRANCH   2   3
ENDBRANCH   1   2
BRANCH   1  10
ATOM     10  C   UNL     1      19.846  -6.330  47.105  1.00  0.00     0.000 C 
BRANCH  10  11
ATOM     11  C   UNL     1      20.593  -7.363  47.957  1.00  0.00    -0.000 C 
BRANCH  11  12
ATOM     12  C   UNL     1      20.153  -7.289  49.427  1.00  0.00    -0.000 C 
BRANCH  12  13
ATOM     13  C   UNL     1      21.330  -6.973  50.374  1.00  0.00    -0.000 C 
BRANCH  13  14
ATOM     14  C   UNL     1      22.691  -6.894  49.660  1.00  0.00    -0.000 C 
BRANCH  14  15
ATOM     15  C   UNL     1      23.447  -5.594  49.961  1.00  0.00    -0.003 C 
ATOM     16  C   UNL     1      22.923  -4.934  51.234  1.00  0.00     0.004 C 
ENDBRANCH  14  15
ENDBRANCH  13  14
ENDBRANCH  12  13
ENDBRANCH  11  12
ENDBRANCH  10  11
ENDBRANCH   1  10
TORSDOF 12
ENDMDL
MODEL 3
REMARK VINA RESULT:    -4.337      2.234      3.169
REMARK INTER + INTRA:          -8.415
REMARK INTER:                  -6.489
REMARK INTRA:                  -1.927
REMARK UNBOUND:                -1.035
REMARK SMILES CCCCCCCCCCCCCC(=O)[O-]
REMARK SMILES IDX 8 1 9 2 10 3 11 4 12 5 13 6 14 7 15 8 16 9 7 10 6 11 5 12
REMARK SMILES IDX 4 13 3 14 2 15 1 16
REMARK H PARENT
REMARK Flexibility Score: inf
ROOT
ATOM      1  C   UNL     1      18.130  -5.619  43.543  1.00  0.00     0.000 C 
ENDROOT
BRANCH   1   2
ATOM      2  C   UNL     1      19.154  -5.155  42.494  1.00  0.00     0.000 C 
BRANCH   2   3
ATOM      3  C   UNL     1      20.101  -4.069  43.030  1.00  0.00     0.000 C 
BRANCH   3   4
ATOM      4  C   UNL     1      19.825  -3.733  44.513  1.00  0.00     0.000 C 
BRANCH   4   5
ATOM      5  C   UNL     1      21.045  -3.141  45.246  1.00  0.00     0.006 C 
BRANCH   5   6
ATOM      6  C   UNL     1      21.972  -2.311  44.347  1.00  0.00     0.053 C 
BRANCH   6   7
ATOM      7  C   UNL     1      23.415  -2.657  44.564  1.00  0.00     0.041 C 
ATOM      8  O   UNL     1      23.783  -3.861  44.586  1.00  0.00    -0.550 OA
ATOM      9  O   UNL     1      24.355  -1.647  44.723  1.00  0.00    -0.550 OA
ENDBRANCH   6   7
ENDBRANCH   5   6
ENDBRANCH   4   5
ENDBRANCH   3   4
ENDBRANCH   2   3
ENDBRANCH   1   2
BRANCH   1  10
ATOM     10  C   UNL     1      18.307  -7.097  43.924  1.00  0.00     0.000 C 
BRANCH  10  11
ATOM     11  C   UNL     1      18.226  -7.285  45.443  1.00  0.00    -0.000 C 
BRANCH  11  12
ATOM     12  C   UNL     1      19.504  -6.782  46.132  1.00  0.00    -0.000 C 
BRANCH  12  13
ATOM     13  C   UNL     1      20.705  -7.721  45.891  1.00  0.00    -0.000 C 
BRANCH  13  14
ATOM     14  C   UNL     1      21.904  -7.027  45.222  1.00  0.00    -0.000 C 
BRANCH  14  15
ATOM     15  C   UNL     1      21.939  -7.231  43.702  1.00  0.00    -0.003 C 
ATOM     16  C   UNL     1      21.817  -8.710  43.342  1.00  0.00     0.004 C 
ENDBRANCH  14  15
ENDBRANCH  13  14
ENDBRANCH  12  13
ENDBRANCH  11  12
ENDBRANCH  10  11
ENDBRANCH   1  10
TORSDOF 12
ENDMDL
MODEL 4
REMARK VINA RESULT:    -4.321      1.768      2.290
REMARK INTER + INTRA:          -8.388
REMARK INTER:                  -6.569
REMARK INTRA:                  -1.819
REMARK UNBOUND:                -1.035
REMARK SMILES CCCCCCCCCCCCCC(=O)[O-]
REMARK SMILES IDX 8 1 9 2 10 3 11 4 12 5 13 6 14 7 15 8 16 9 7 10 6 11 5 12
REMARK SMILES IDX 4 13 3 14 2 15 1 16
REMARK H PARENT
REMARK Flexibility Score: inf
ROOT
ATOM      1  C   UNL     1      19.982  -6.799  43.503  1.00  0.00     0.000 C 
ENDROOT
BRANCH   1   2
ATOM      2  C   UNL     1      20.066  -5.526  42.645  1.00  0.00     0.000 C 
BRANCH   2   3
ATOM      3  C   UNL     1      19.213  -4.376  43.205  1.00  0.00     0.000 C 
BRANCH   3   4
ATOM      4  C   UNL     1      19.869  -3.706  44.433  1.00  0.00     0.000 C 
BRANCH   4   5
ATOM      5  C   UNL     1      21.239  -3.071  44.127  1.00  0.00     0.006 C 
BRANCH   5   6
ATOM      6  C   UNL     1      21.785  -2.184  45.255  1.00  0.00     0.053 C 
BRANCH   6   7
ATOM      7  C   UNL     1      22.797  -1.200  44.749  1.00  0.00     0.041 C 
ATOM      8  O   UNL     1      24.024  -1.388  44.957  1.00  0.00    -0.550 OA
ATOM      9  O   UNL     1      22.383  -0.086  44.031  1.00  0.00    -0.550 OA
ENDBRANCH   6   7
ENDBRANCH   5   6
ENDBRANCH   4   5
ENDBRANCH   3   4
ENDBRANCH   2   3
ENDBRANCH   1   2
BRANCH   1  10
ATOM     10  C   UNL     1      18.552  -7.091  43.985  1.00  0.00     0.000 C 
BRANCH  10  11
ATOM     11  C   UNL     1      18.487  -7.131  45.516  1.00  0.00    -0.000 C 
BRANCH  11  12
ATOM     12  C   UNL     1      19.895  -7.143  46.129  1.00  0.00    -0.000 C 
BRANCH  12  13
ATOM     13  C   UNL     1      20.028  -6.156  47.308  1.00  0.00    -0.000 C 
BRANCH  13  14
ATOM     14  C   UNL     1      21.332  -5.340  47.284  1.00  0.00    -0.000 C 
BRANCH  14  15
ATOM     15  C   UNL     1      22.559  -6.187  46.922  1.00  0.00    -0.003 C 
ATOM     16  C   UNL     1      23.209  -5.692  45.633  1.00  0.00     0.004 C 
ENDBRANCH  14  15
ENDBRANCH  13  14
ENDBRANCH  12  13
ENDBRANCH  11  12
ENDBRANCH  10  11
ENDBRANCH   1  10
TORSDOF 12
ENDMDL
MODEL 5
REMARK VINA RESULT:    -4.221      2.841      5.717
REMARK INTER + INTRA:          -8.217
REMARK INTER:                  -6.593
REMARK INTRA:                  -1.624
REMARK UNBOUND:                -1.035
REMARK SMILES CCCCCCCCCCCCCC(=O)[O-]
REMARK SMILES IDX 8 1 9 2 10 3 11 4 12 5 13 6 14 7 15 8 16 9 7 10 6 11 5 12
REMARK SMILES IDX 4 13 3 14 2 15 1 16
REMARK H PARENT
REMARK Flexibility Score: inf
ROOT
ATOM      1  C   UNL     1      20.706  -6.999  50.399  1.00  0.00     0.000 C 
ENDROOT
BRANCH   1   2
ATOM      2  C   UNL     1      20.277  -7.489  49.006  1.00  0.00     0.000 C 
BRANCH   2   3
ATOM      3  C   UNL     1      19.872  -6.337  48.072  1.00  0.00     0.000 C 
BRANCH   3   4
ATOM      4  C   UNL     1      20.088  -6.688  46.583  1.00  0.00     0.000 C 
BRANCH   4   5
ATOM      5  C   UNL     1      18.781  -7.005  45.831  1.00  0.00     0.006 C 
BRANCH   5   6
ATOM      6  C   UNL     1      18.775  -6.546  44.365  1.00  0.00     0.053 C 
BRANCH   6   7
ATOM      7  C   UNL     1      19.864  -7.204  43.572  1.00  0.00     0.041 C 
ATOM      8  O   UNL     1      20.681  -6.508  42.914  1.00  0.00    -0.550 OA
ATOM      9  O   UNL     1      19.987  -8.588  43.576  1.00  0.00    -0.550 OA
ENDBRANCH   6   7
ENDBRANCH   5   6
ENDBRANCH   4   5
ENDBRANCH   3   4
ENDBRANCH   2   3
ENDBRANCH   1   2
BRANCH   1  10
ATOM     10  C   UNL     1      21.872  -7.816  50.977  1.00  0.00     0.000 C 
BRANCH  10  11
ATOM     11  C   UNL     1      23.026  -6.901  51.401  1.00  0.00    -0.000 C 
BRANCH  11  12
ATOM     12  C   UNL     1      22.694  -5.428  51.120  1.00  0.00    -0.000 C 
BRANCH  12  13
ATOM     13  C   UNL     1      23.652  -4.800  50.084  1.00  0.00    -0.000 C 
BRANCH  13  14
ATOM     14  C   UNL     1      22.969  -4.441  48.753  1.00  0.00    -0.000 C 
BRANCH  14  15
ATOM     15  C   UNL     1      23.624  -5.122  47.544  1.00  0.00    -0.003 C 
ATOM     16  C   UNL     1      23.705  -6.634  47.741  1.00  0.00     0.004 C 
ENDBRANCH  14  15
ENDBRANCH  13  14
ENDBRANCH  12  13
ENDBRANCH  11  12
ENDBRANCH  10  11
ENDBRANCH   1  10
TORSDOF 12
ENDMDL
MODEL 6
REMARK VINA RESULT:    -4.197      2.509      3.844
REMARK INTER + INTRA:          -8.177
REMARK INTER:                  -6.930
REMARK INTRA:                  -1.247
REMARK UNBOUND:                -1.035
REMARK SMILES CCCCCCCCCCCCCC(=O)[O-]
REMARK SMILES IDX 8 1 9 2 10 3 11 4 12 5 13 6 14 7 15 8 16 9 7 10 6 11 5 12
REMARK SMILES IDX 4 13 3 14 2 15 1 16
REMARK H PARENT
REMARK Flexibility Score: inf
ROOT
ATOM      1  C   UNL     1      20.585  -5.269  47.071  1.00  0.00     0.000 C 
ENDROOT
BRANCH   1   2
ATOM      2  C   UNL     1      21.765  -5.331  46.089  1.00  0.00     0.000 C 
BRANCH   2   3
ATOM      3  C   UNL     1      21.714  -4.218  45.029  1.00  0.00     0.000 C 
BRANCH   3   4
ATOM      4  C   UNL     1      20.276  -3.709  44.785  1.00  0.00     0.000 C 
BRANCH   4   5
ATOM      5  C   UNL     1      19.775  -3.952  43.348  1.00  0.00     0.006 C 
BRANCH   5   6
ATOM      6  C   UNL     1      20.130  -5.336  42.786  1.00  0.00     0.053 C 
BRANCH   6   7
ATOM      7  C   UNL     1      19.267  -6.413  43.373  1.00  0.00     0.041 C 
ATOM      8  O   UNL     1      19.769  -7.518  43.706  1.00  0.00    -0.550 OA
ATOM      9  O   UNL     1      17.911  -6.186  43.569  1.00  0.00    -0.550 OA
ENDBRANCH   6   7
ENDBRANCH   5   6
ENDBRANCH   4   5
ENDBRANCH   3   4
ENDBRANCH   2   3
ENDBRANCH   1   2
BRANCH   1  10
ATOM     10  C   UNL     1      19.834  -6.606  47.174  1.00  0.00     0.000 C 
BRANCH  10  11
ATOM     11  C   UNL     1      20.462  -7.507  48.243  1.00  0.00    -0.000 C 
BRANCH  11  12
ATOM     12  C   UNL     1      20.140  -6.996  49.655  1.00  0.00    -0.000 C 
BRANCH  12  13
ATOM     13  C   UNL     1      21.124  -7.540  50.712  1.00  0.00    -0.000 C 
BRANCH  13  14
ATOM     14  C   UNL     1      22.601  -7.272  50.374  1.00  0.00    -0.000 C 
BRANCH  14  15
ATOM     15  C   UNL     1      22.889  -5.791  50.092  1.00  0.00    -0.003 C 
ATOM     16  C   UNL     1      22.898  -4.977  51.384  1.00  0.00     0.004 C 
ENDBRANCH  14  15
ENDBRANCH  13  14
ENDBRANCH  12  13
ENDBRANCH  11  12
ENDBRANCH  10  11
ENDBRANCH   1  10
TORSDOF 12
ENDMDL
MODEL 7
REMARK VINA RESULT:    -4.193      1.820      4.492
REMARK INTER + INTRA:          -8.169
REMARK INTER:                  -6.246
REMARK INTRA:                  -1.923
REMARK UNBOUND:                -1.035
REMARK SMILES CCCCCCCCCCCCCC(=O)[O-]
REMARK SMILES IDX 8 1 9 2 10 3 11 4 12 5 13 6 14 7 15 8 16 9 7 10 6 11 5 12
REMARK SMILES IDX 4 13 3 14 2 15 1 16
REMARK H PARENT
REMARK Flexibility Score: inf
ROOT
ATOM      1  C   UNL     1      21.015  -7.819  46.895  1.00  0.00     0.000 C 
ENDROOT
BRANCH   1   2
ATOM      2  C   UNL     1      19.892  -6.771  46.837  1.00  0.00     0.000 C 
BRANCH   2   3
ATOM      3  C   UNL     1      20.379  -5.360  47.208  1.00  0.00     0.000 C 
BRANCH   3   4
ATOM      4  C   UNL     1      21.387  -4.800  46.180  1.00  0.00     0.000 C 
BRANCH   4   5
ATOM      5  C   UNL     1      20.909  -3.507  45.492  1.00  0.00     0.006 C 
BRANCH   5   6
ATOM      6  C   UNL     1      21.909  -2.928  44.481  1.00  0.00     0.053 C 
BRANCH   6   7
ATOM      7  C   UNL     1      22.825  -1.926  45.117  1.00  0.00     0.041 C 
ATOM      8  O   UNL     1      22.645  -0.694  44.933  1.00  0.00    -0.550 OA
ATOM      9  O   UNL     1      23.868  -2.355  45.929  1.00  0.00    -0.550 OA
ENDBRANCH   6   7
ENDBRANCH   5   6
ENDBRANCH   4   5
ENDBRANCH   3   4
ENDBRANCH   2   3
ENDBRANCH   1   2
BRANCH   1  10
ATOM     10  C   UNL     1      21.246  -8.510  45.542  1.00  0.00     0.000 C 
BRANCH  10  11
ATOM     11  C   UNL     1      20.208  -8.055  44.510  1.00  0.00    -0.000 C 
BRANCH  11  12
ATOM     12  C   UNL     1      20.886  -7.423  43.285  1.00  0.00    -0.000 C 
BRANCH  12  13
ATOM     13  C   UNL     1      20.229  -6.087  42.878  1.00  0.00    -0.000 C 
BRANCH  13  14
ATOM     14  C   UNL     1      18.846  -5.861  43.515  1.00  0.00    -0.000 C 
BRANCH  14  15
ATOM     15  C   UNL     1      18.237  -4.501  43.151  1.00  0.00    -0.003 C 
ATOM     16  C   UNL     1      19.097  -3.770  42.123  1.00  0.00     0.004 C 
ENDBRANCH  14  15
ENDBRANCH  13  14
ENDBRANCH  12  13
ENDBRANCH  11  12
ENDBRANCH  10  11
ENDBRANCH   1  10
TORSDOF 12
ENDMDL
MODEL 8
REMARK VINA RESULT:    -4.106      2.474      5.057
REMARK INTER + INTRA:          -8.021
REMARK INTER:                  -6.041
REMARK INTRA:                  -1.979
REMARK UNBOUND:                -1.035
REMARK SMILES CCCCCCCCCCCCCC(=O)[O-]
REMARK SMILES IDX 8 1 9 2 10 3 11 4 12 5 13 6 14 7 15 8 16 9 7 10 6 11 5 12
REMARK SMILES IDX 4 13 3 14 2 15 1 16
REMARK H PARENT
REMARK Flexibility Score: inf
ROOT
ATOM      1  C   UNL     1      19.636  -7.226  45.146  1.00  0.00     0.000 C 
ENDROOT
BRANCH   1   2
ATOM      2  C   UNL     1      19.053  -6.774  46.494  1.00  0.00     0.000 C 
BRANCH   2   3
ATOM      3  C   UNL     1      20.127  -6.622  47.584  1.00  0.00     0.000 C 
BRANCH   3   4
ATOM      4  C   UNL     1      21.360  -7.515  47.319  1.00  0.00     0.000 C 
BRANCH   4   5
ATOM      5  C   UNL     1      22.454  -7.388  48.397  1.00  0.00     0.006 C 
BRANCH   5   6
ATOM      6  C   UNL     1      22.480  -6.025  49.104  1.00  0.00     0.053 C 
BRANCH   6   7
ATOM      7  C   UNL     1      22.324  -6.166  50.589  1.00  0.00     0.041 C 
ATOM      8  O   UNL     1      21.446  -6.932  51.066  1.00  0.00    -0.550 OA
ATOM      9  O   UNL     1      23.164  -5.465  51.444  1.00  0.00    -0.550 OA
ENDBRANCH   6   7
ENDBRANCH   5   6
ENDBRANCH   4   5
ENDBRANCH   3   4
ENDBRANCH   2   3
ENDBRANCH   1   2
BRANCH   1  10
ATOM     10  C   UNL     1      18.733  -6.855  43.960  1.00  0.00     0.000 C 
BRANCH  10  11
ATOM     11  C   UNL     1      19.414  -5.824  43.053  1.00  0.00    -0.000 C 
BRANCH  11  12
ATOM     12  C   UNL     1      19.203  -4.397  43.582  1.00  0.00    -0.000 C 
BRANCH  12  13
ATOM     13  C   UNL     1      20.536  -3.698  43.925  1.00  0.00    -0.000 C 
BRANCH  13  14
ATOM     14  C   UNL     1      20.846  -3.668  45.432  1.00  0.00    -0.000 C 
BRANCH  14  15
ATOM     15  C   UNL     1      22.275  -4.123  45.756  1.00  0.00    -0.003 C 
ATOM     16  C   UNL     1      22.743  -5.203  44.784  1.00  0.00     0.004 C 
ENDBRANCH  14  15
ENDBRANCH  13  14
ENDBRANCH  12  13
ENDBRANCH  11  12
ENDBRANCH  10  11
ENDBRANCH   1  10
TORSDOF 12
ENDMDL
MODEL 9
REMARK VINA RESULT:    -4.105      2.834      4.318
REMARK INTER + INTRA:          -8.020
REMARK INTER:                  -6.487
REMARK INTRA:                  -1.534
REMARK UNBOUND:                -1.035
REMARK SMILES CCCCCCCCCCCCCC(=O)[O-]
REMARK SMILES IDX 8 1 9 2 10 3 11 4 12 5 13 6 14 7 15 8 16 9 7 10 6 11 5 12
REMARK SMILES IDX 4 13 3 14 2 15 1 16
REMARK H PARENT
REMARK Flexibility Score: inf
ROOT
ATOM      1  C   UNL     1      22.789  -7.042  46.096  1.00  0.00     0.000 C 
ENDROOT
BRANCH   1   2
ATOM      2  C   UNL     1      22.856  -8.573  46.218  1.00  0.00     0.000 C 
BRANCH   2   3
ATOM      3  C   UNL     1      21.593  -9.266  45.680  1.00  0.00     0.000 C 
BRANCH   3   4
ATOM      4  C   UNL     1      21.493  -9.185  44.140  1.00  0.00     0.000 C 
BRANCH   4   5
ATOM      5  C   UNL     1      20.160  -8.594  43.642  1.00  0.00     0.006 C 
BRANCH   5   6
ATOM      6  C   UNL     1      20.134  -7.060  43.596  1.00  0.00     0.053 C 
BRANCH   6   7
ATOM      7  C   UNL     1      18.769  -6.517  43.893  1.00  0.00     0.041 C 
ATOM      8  O   UNL     1      17.996  -7.133  44.673  1.00  0.00    -0.550 OA
ATOM      9  O   UNL     1      18.358  -5.319  43.321  1.00  0.00    -0.550 OA
ENDBRANCH   6   7
ENDBRANCH   5   6
ENDBRANCH   4   5
ENDBRANCH   3   4
ENDBRANCH   2   3
ENDBRANCH   1   2
BRANCH   1  10
ATOM     10  C   UNL     1      22.396  -6.362  47.416  1.00  0.00     0.000 C 
BRANCH  10  11
ATOM     11  C   UNL     1      21.094  -5.569  47.258  1.00  0.00    -0.000 C 
BRANCH  11  12
ATOM     12  C   UNL     1      19.886  -6.386  47.740  1.00  0.00    -0.000 C 
BRANCH  12  13
ATOM     13  C   UNL     1      20.295  -7.515  48.710  1.00  0.00    -0.000 C 
BRANCH  13  14
ATOM     14  C   UNL     1      20.264  -7.097  50.191  1.00  0.00    -0.000 C 
BRANCH  14  15
ATOM     15  C   UNL     1      21.586  -7.378  50.917  1.00  0.00    -0.003 C 
ATOM     16  C   UNL     1      22.387  -6.095  51.121  1.00  0.00     0.004 C 
ENDBRANCH  14  15
ENDBRANCH  13  14
ENDBRANCH  12  13
ENDBRANCH  11  12
ENDBRANCH  10  11
ENDBRANCH   1  10
TORSDOF 12
ENDMDL
