MODEL 1
REMARK VINA RESULT:    24.909      0.000      0.000
REMARK INTER + INTRA:          55.931
REMARK INTER:                  56.944
REMARK INTRA:                  -1.013
REMARK UNBOUND:                -1.013
REMARK SMILES CCCCCCCCCCCCCCCCCCCCCCCC(=O)[O-]
REMARK SMILES IDX 13 1 14 2 15 3 16 4 17 5 18 6 19 7 20 8 21 9 22 10 23 11
REMARK SMILES IDX 24 12 25 13 26 14 12 15 11 16 10 17 9 18 8 19 7 20 6 21 5 22
REMARK SMILES IDX 4 23 3 24 2 25 1 26
REMARK H PARENT
REMARK Flexibility Score: inf
ROOT
ATOM      1  C   UNL     1      55.321  50.415  15.587  1.00  0.00     0.000 C 
ENDROOT
BRANCH   1   2
ATOM      2  C   UNL     1      55.957  51.518  16.447  1.00  0.00     0.000 C 
BRANCH   2   3
ATOM      3  C   UNL     1      54.931  52.233  17.344  1.00  0.00     0.000 C 
BRANCH   3   4
ATOM      4  C   UNL     1      55.590  52.964  18.525  1.00  0.00     0.000 C 
BRANCH   4   5
ATOM      5  C   UNL     1      54.564  53.516  19.528  1.00  0.00     0.000 C 
BRANCH   5   6
ATOM      6  C   UNL     1      54.655  52.779  20.869  1.00  0.00     0.000 C 
BRANCH   6   7
ATOM      7  C   UNL     1      53.708  53.398  21.904  1.00  0.00     0.000 C 
BRANCH   7   8
ATOM      8  C   UNL     1      54.415  54.489  22.715  1.00  0.00     0.000 C 
BRANCH   8   9
ATOM      9  C   UNL     1      53.420  55.239  23.614  1.00  0.00     0.000 C 
BRANCH   9  10
ATOM     10  C   UNL     1      54.039  56.480  24.283  1.00  0.00     0.006 C 
BRANCH  10  11
ATOM     11  C   UNL     1      55.015  56.160  25.427  1.00  0.00     0.053 C 
BRANCH  11  12
ATOM     12  C   UNL     1      56.435  56.447  25.050  1.00  0.00     0.041 C 
ATOM     13  O   UNL     1      56.792  56.403  23.844  1.00  0.00    -0.550 OA
ATOM     14  O   UNL     1      57.373  56.731  26.035  1.00  0.00    -0.550 OA
ENDBRANCH  11  12
ENDBRANCH  10  11
ENDBRANCH   9  10
ENDBRANCH   8   9
ENDBRANCH   7   8
ENDBRANCH   6   7
ENDBRANCH   5   6
ENDBRANCH   4   5
ENDBRANCH   3   4
ENDBRANCH   2   3
ENDBRANCH   1   2
BRANCH   1  15
ATOM     15  C   UNL     1      55.024  49.135  16.383  1.00  0.00     0.000 C 
BRANCH  15  16
ATOM     16  C   UNL     1      56.199  48.783  17.309  1.00  0.00     0.000 C 
BRANCH  16  17
ATOM     17  C   UNL     1      55.755  48.482  18.752  1.00  0.00     0.000 C 
BRANCH  17  18
ATOM     18  C   UNL     1      56.820  47.796  19.634  1.00  0.00    -0.000 C 
BRANCH  18  19
ATOM     19  C   UNL     1      56.262  46.910  20.764  1.00  0.00    -0.000 C 
BRANCH  19  20
ATOM     20  C   UNL     1      55.369  45.748  20.291  1.00  0.00    -0.000 C 
BRANCH  20  21
ATOM     21  C   UNL     1      56.134  44.420  20.081  1.00  0.00    -0.000 C 
BRANCH  21  22
ATOM     22  C   UNL     1      55.248  43.157  20.114  1.00  0.00    -0.000 C 
BRANCH  22  23
ATOM     23  C   UNL     1      55.811  41.988  20.945  1.00  0.00    -0.000 C 
BRANCH  23  24
ATOM     24  C   UNL     1      54.749  40.929  21.290  1.00  0.00    -0.000 C 
BRANCH  24  25
ATOM     25  C   UNL     1      55.333  39.509  21.349  1.00  0.00    -0.003 C 
ATOM     26  C   UNL     1      56.715  39.413  20.704  1.00  0.00     0.004 C 
ENDBRANCH  24  25
ENDBRANCH  23  24
ENDBRANCH  22  23
ENDBRANCH  21  22
ENDBRANCH  20  21
ENDBRANCH  19  20
ENDBRANCH  18  19
ENDBRANCH  17  18
ENDBRANCH  16  17
ENDBRANCH  15  16
ENDBRANCH   1  15
TORSDOF 22
ENDMDL
MODEL 2
REMARK VINA RESULT:    25.279      4.963     11.308
REMARK INTER + INTRA:          56.776
REMARK INTER:                  57.972
REMARK INTRA:                  -1.196
REMARK UNBOUND:                -1.013
REMARK SMILES CCCCCCCCCCCCCCCCCCCCCCCC(=O)[O-]
REMARK SMILES IDX 13 1 14 2 15 3 16 4 17 5 18 6 19 7 20 8 21 9 22 10 23 11
REMARK SMILES IDX 24 12 25 13 26 14 12 15 11 16 10 17 9 18 8 19 7 20 6 21 5 22
REMARK SMILES IDX 4 23 3 24 2 25 1 26
REMARK H PARENT
REMARK Flexibility Score: inf
ROOT
ATOM      1  C   UNL     1      55.044  49.925  15.819  1.00  0.00     0.000 C 
ENDROOT
BRANCH   1   2
ATOM      2  C   UNL     1      55.389  48.966  16.968  1.00  0.00     0.000 C 
BRANCH   2   3
ATOM      3  C   UNL     1      56.848  48.480  16.916  1.00  0.00     0.000 C 
BRANCH   3   4
ATOM      4  C   UNL     1      57.252  47.692  18.172  1.00  0.00     0.000 C 
BRANCH   4   5
ATOM      5  C   UNL     1      56.331  47.973  19.371  1.00  0.00     0.000 C 
BRANCH   5   6
ATOM      6  C   UNL     1      56.483  46.891  20.446  1.00  0.00     0.000 C 
BRANCH   6   7
ATOM      7  C   UNL     1      55.386  45.827  20.315  1.00  0.00     0.000 C 
BRANCH   7   8
ATOM      8  C   UNL     1      55.979  44.467  19.930  1.00  0.00     0.000 C 
BRANCH   8   9
ATOM      9  C   UNL     1      56.531  43.738  21.164  1.00  0.00     0.000 C 
BRANCH   9  10
ATOM     10  C   UNL     1      56.322  42.213  21.099  1.00  0.00     0.006 C 
BRANCH  10  11
ATOM     11  C   UNL     1      54.893  41.787  20.726  1.00  0.00     0.053 C 
BRANCH  11  12
ATOM     12  C   UNL     1      54.702  40.306  20.836  1.00  0.00     0.041 C 
ATOM     13  O   UNL     1      53.542  39.815  20.847  1.00  0.00    -0.550 OA
ATOM     14  O   UNL     1      55.804  39.469  20.958  1.00  0.00    -0.550 OA
ENDBRANCH  11  12
ENDBRANCH  10  11
ENDBRANCH   9  10
ENDBRANCH   8   9
ENDBRANCH   7   8
ENDBRANCH   6   7
ENDBRANCH   5   6
ENDBRANCH   4   5
ENDBRANCH   3   4
ENDBRANCH   2   3
ENDBRANCH   1   2
BRANCH   1  15
ATOM     15  C   UNL     1      54.844  51.373  16.292  1.00  0.00     0.000 C 
BRANCH  15  16
ATOM     16  C   UNL     1      55.851  51.731  17.396  1.00  0.00     0.000 C 
BRANCH  16  17
ATOM     17  C   UNL     1      55.317  52.793  18.373  1.00  0.00     0.000 C 
BRANCH  17  18
ATOM     18  C   UNL     1      55.262  52.355  19.852  1.00  0.00    -0.000 C 
BRANCH  18  19
ATOM     19  C   UNL     1      54.950  53.479  20.857  1.00  0.00    -0.000 C 
BRANCH  19  20
ATOM     20  C   UNL     1      53.856  53.138  21.886  1.00  0.00    -0.000 C 
BRANCH  20  21
ATOM     21  C   UNL     1      53.242  54.378  22.578  1.00  0.00    -0.000 C 
BRANCH  21  22
ATOM     22  C   UNL     1      54.269  55.305  23.261  1.00  0.00    -0.000 C 
BRANCH  22  23
ATOM     23  C   UNL     1      53.733  56.088  24.475  1.00  0.00    -0.000 C 
BRANCH  23  24
ATOM     24  C   UNL     1      54.830  56.445  25.494  1.00  0.00    -0.000 C 
BRANCH  24  25
ATOM     25  C   UNL     1      56.240  56.126  24.975  1.00  0.00    -0.003 C 
ATOM     26  C   UNL     1      57.337  56.798  25.800  1.00  0.00     0.004 C 
ENDBRANCH  24  25
ENDBRANCH  23  24
ENDBRANCH  22  23
ENDBRANCH  21  22
ENDBRANCH  20  21
ENDBRANCH  19  20
ENDBRANCH  18  19
ENDBRANCH  17  18
ENDBRANCH  16  17
ENDBRANCH  15  16
ENDBRANCH   1  15
TORSDOF 22
ENDMDL
MODEL 3
REMARK VINA RESULT:    25.828      5.305     12.665
REMARK INTER + INTRA:          58.032
REMARK INTER:                  58.315
REMARK INTRA:                  -0.284
REMARK UNBOUND:                -1.013
REMARK SMILES CCCCCCCCCCCCCCCCCCCCCCCC(=O)[O-]
REMARK SMILES IDX 13 1 14 2 15 3 16 4 17 5 18 6 19 7 20 8 21 9 22 10 23 11
REMARK SMILES IDX 24 12 25 13 26 14 12 15 11 16 10 17 9 18 8 19 7 20 6 21 5 22
REMARK SMILES IDX 4 23 3 24 2 25 1 26
REMARK H PARENT
REMARK Flexibility Score: inf
ROOT
ATOM      1  C   UNL     1      55.673  48.585  19.877  1.00  0.00     0.000 C 
ENDROOT
BRANCH   1   2
ATOM      2  C   UNL     1      56.444  48.317  21.178  1.00  0.00     0.000 C 
BRANCH   2   3
ATOM      3  C   UNL     1      56.628  46.815  21.457  1.00  0.00     0.000 C 
BRANCH   3   4
ATOM      4  C   UNL     1      55.701  45.938  20.600  1.00  0.00     0.000 C 
BRANCH   4   5
ATOM      5  C   UNL     1      56.353  44.606  20.194  1.00  0.00     0.000 C 
BRANCH   5   6
ATOM      6  C   UNL     1      56.415  43.640  21.383  1.00  0.00     0.000 C 
BRANCH   6   7
ATOM      7  C   UNL     1      56.153  42.197  20.935  1.00  0.00     0.000 C 
BRANCH   7   8
ATOM      8  C   UNL     1      54.657  41.955  20.705  1.00  0.00     0.000 C 
BRANCH   8   9
ATOM      9  C   UNL     1      54.141  40.813  21.594  1.00  0.00     0.000 C 
BRANCH   9  10
ATOM     10  C   UNL     1      54.734  39.444  21.210  1.00  0.00     0.006 C 
BRANCH  10  11
ATOM     11  C   UNL     1      55.995  39.525  20.335  1.00  0.00     0.053 C 
BRANCH  11  12
ATOM     12  C   UNL     1      57.140  38.764  20.928  1.00  0.00     0.041 C 
ATOM     13  O   UNL     1      56.924  37.768  21.668  1.00  0.00    -0.550 OA
ATOM     14  O   UNL     1      58.446  39.174  20.691  1.00  0.00    -0.550 OA
ENDBRANCH  11  12
ENDBRANCH  10  11
ENDBRANCH   9  10
ENDBRANCH   8   9
ENDBRANCH   7   8
ENDBRANCH   6   7
ENDBRANCH   5   6
ENDBRANCH   4   5
ENDBRANCH   3   4
ENDBRANCH   2   3
ENDBRANCH   1   2
BRANCH   1  15
ATOM     15  C   UNL     1      54.732  49.795  19.981  1.00  0.00     0.000 C 
BRANCH  15  16
ATOM     16  C   UNL     1      55.367  50.910  20.826  1.00  0.00     0.000 C 
BRANCH  16  17
ATOM     17  C   UNL     1      54.968  52.320  20.355  1.00  0.00     0.000 C 
BRANCH  17  18
ATOM     18  C   UNL     1      54.864  53.378  21.474  1.00  0.00    -0.000 C 
BRANCH  18  19
ATOM     19  C   UNL     1      53.481  53.490  22.143  1.00  0.00    -0.000 C 
BRANCH  19  20
ATOM     20  C   UNL     1      53.448  54.357  23.416  1.00  0.00    -0.000 C 
BRANCH  20  21
ATOM     21  C   UNL     1      53.445  55.878  23.134  1.00  0.00    -0.000 C 
BRANCH  21  22
ATOM     22  C   UNL     1      54.394  56.699  24.032  1.00  0.00    -0.000 C 
BRANCH  22  23
ATOM     23  C   UNL     1      54.537  56.179  25.476  1.00  0.00    -0.000 C 
BRANCH  23  24
ATOM     24  C   UNL     1      55.995  55.881  25.867  1.00  0.00    -0.000 C 
BRANCH  24  25
ATOM     25  C   UNL     1      56.977  56.925  25.314  1.00  0.00    -0.003 C 
ATOM     26  C   UNL     1      58.195  57.124  26.215  1.00  0.00     0.004 C 
ENDBRANCH  24  25
ENDBRANCH  23  24
ENDBRANCH  22  23
ENDBRANCH  21  22
ENDBRANCH  20  21
ENDBRANCH  19  20
ENDBRANCH  18  19
ENDBRANCH  17  18
ENDBRANCH  16  17
ENDBRANCH  15  16
ENDBRANCH   1  15
TORSDOF 22
ENDMDL
MODEL 4
REMARK VINA RESULT:    25.840      3.554      6.153
REMARK INTER + INTRA:          58.060
REMARK INTER:                  56.933
REMARK INTRA:                   1.127
REMARK UNBOUND:                -1.013
REMARK SMILES CCCCCCCCCCCCCCCCCCCCCCCC(=O)[O-]
REMARK SMILES IDX 13 1 14 2 15 3 16 4 17 5 18 6 19 7 20 8 21 9 22 10 23 11
REMARK SMILES IDX 24 12 25 13 26 14 12 15 11 16 10 17 9 18 8 19 7 20 6 21 5 22
REMARK SMILES IDX 4 23 3 24 2 25 1 26
REMARK H PARENT
REMARK Flexibility Score: inf
ROOT
ATOM      1  C   UNL     1      53.765  52.810  21.608  1.00  0.00     0.000 C 
ENDROOT
BRANCH   1   2
ATOM      2  C   UNL     1      53.286  54.218  21.993  1.00  0.00     0.000 C 
BRANCH   2   3
ATOM      3  C   UNL     1      53.739  54.631  23.405  1.00  0.00     0.000 C 
BRANCH   3   4
ATOM      4  C   UNL     1      54.390  56.024  23.431  1.00  0.00     0.000 C 
BRANCH   4   5
ATOM      5  C   UNL     1      55.909  55.965  23.661  1.00  0.00     0.000 C 
BRANCH   5   6
ATOM      6  C   UNL     1      56.245  56.126  25.148  1.00  0.00     0.000 C 
BRANCH   6   7
ATOM      7  C   UNL     1      55.053  56.700  25.923  1.00  0.00     0.000 C 
BRANCH   7   8
ATOM      8  C   UNL     1      53.829  55.784  25.811  1.00  0.00     0.000 C 
BRANCH   8   9
ATOM      9  C   UNL     1      53.059  55.728  27.139  1.00  0.00     0.000 C 
BRANCH   9  10
ATOM     10  C   UNL     1      52.909  54.295  27.682  1.00  0.00     0.006 C 
BRANCH  10  11
ATOM     11  C   UNL     1      51.814  54.135  28.748  1.00  0.00     0.053 C 
BRANCH  11  12
ATOM     12  C   UNL     1      51.226  52.758  28.748  1.00  0.00     0.041 C 
ATOM     13  O   UNL     1      50.480  52.386  29.691  1.00  0.00    -0.550 OA
ATOM     14  O   UNL     1      51.528  51.873  27.720  1.00  0.00    -0.550 OA
ENDBRANCH  11  12
ENDBRANCH  10  11
ENDBRANCH   9  10
ENDBRANCH   8   9
ENDBRANCH   7   8
ENDBRANCH   6   7
ENDBRANCH   5   6
ENDBRANCH   4   5
ENDBRANCH   3   4
ENDBRANCH   2   3
ENDBRANCH   1   2
BRANCH   1  15
ATOM     15  C   UNL     1      55.026  52.830  20.730  1.00  0.00     0.000 C 
BRANCH  15  16
ATOM     16  C   UNL     1      54.698  53.326  19.314  1.00  0.00     0.000 C 
BRANCH  16  17
ATOM     17  C   UNL     1      55.655  52.767  18.246  1.00  0.00     0.000 C 
BRANCH  17  18
ATOM     18  C   UNL     1      54.973  52.007  17.089  1.00  0.00    -0.000 C 
BRANCH  18  19
ATOM     19  C   UNL     1      55.928  51.237  16.158  1.00  0.00    -0.000 C 
BRANCH  19  20
ATOM     20  C   UNL     1      55.541  49.766  15.911  1.00  0.00    -0.000 C 
BRANCH  20  21
ATOM     21  C   UNL     1      55.666  48.870  17.166  1.00  0.00    -0.000 C 
BRANCH  21  22
ATOM     22  C   UNL     1      57.026  48.159  17.314  1.00  0.00    -0.000 C 
BRANCH  22  23
ATOM     23  C   UNL     1      57.342  47.644  18.732  1.00  0.00    -0.000 C 
BRANCH  23  24
ATOM     24  C   UNL     1      56.230  47.958  19.748  1.00  0.00    -0.000 C 
BRANCH  24  25
ATOM     25  C   UNL     1      56.104  46.877  20.833  1.00  0.00    -0.003 C 
ATOM     26  C   UNL     1      56.827  47.253  22.126  1.00  0.00     0.004 C 
ENDBRANCH  24  25
ENDBRANCH  23  24
ENDBRANCH  22  23
ENDBRANCH  21  22
ENDBRANCH  20  21
ENDBRANCH  19  20
ENDBRANCH  18  19
ENDBRANCH  17  18
ENDBRANCH  16  17
ENDBRANCH  15  16
ENDBRANCH   1  15
TORSDOF 22
ENDMDL
MODEL 5
REMARK VINA RESULT:    25.867      4.031     10.359
REMARK INTER + INTRA:          58.121
REMARK INTER:                  59.444
REMARK INTRA:                  -1.323
REMARK UNBOUND:                -1.013
REMARK SMILES CCCCCCCCCCCCCCCCCCCCCCCC(=O)[O-]
REMARK SMILES IDX 13 1 14 2 15 3 16 4 17 5 18 6 19 7 20 8 21 9 22 10 23 11
REMARK SMILES IDX 24 12 25 13 26 14 12 15 11 16 10 17 9 18 8 19 7 20 6 21 5 22
REMARK SMILES IDX 4 23 3 24 2 25 1 26
REMARK H PARENT
REMARK Flexibility Score: inf
ROOT
ATOM      1  C   UNL     1      55.403  50.637  15.936  1.00  0.00     0.000 C 
ENDROOT
BRANCH   1   2
ATOM      2  C   UNL     1      55.431  49.251  16.598  1.00  0.00     0.000 C 
BRANCH   2   3
ATOM      3  C   UNL     1      56.862  48.729  16.817  1.00  0.00     0.000 C 
BRANCH   3   4
ATOM      4  C   UNL     1      56.979  47.837  18.064  1.00  0.00     0.000 C 
BRANCH   4   5
ATOM      5  C   UNL     1      56.136  48.351  19.242  1.00  0.00     0.000 C 
BRANCH   5   6
ATOM      6  C   UNL     1      56.208  47.385  20.431  1.00  0.00     0.000 C 
BRANCH   6   7
ATOM      7  C   UNL     1      57.279  47.826  21.435  1.00  0.00     0.000 C 
BRANCH   7   8
ATOM      8  C   UNL     1      57.170  47.033  22.742  1.00  0.00     0.000 C 
BRANCH   8   9
ATOM      9  C   UNL     1      56.333  45.761  22.545  1.00  0.00     0.000 C 
BRANCH   9  10
ATOM     10  C   UNL     1      57.137  44.473  22.801  1.00  0.00     0.006 C 
BRANCH  10  11
ATOM     11  C   UNL     1      57.400  43.632  21.542  1.00  0.00     0.053 C 
BRANCH  11  12
ATOM     12  C   UNL     1      56.130  43.233  20.856  1.00  0.00     0.041 C 
ATOM     13  O   UNL     1      55.534  44.047  20.103  1.00  0.00    -0.550 OA
ATOM     14  O   UNL     1      55.586  41.974  21.075  1.00  0.00    -0.550 OA
ENDBRANCH  11  12
ENDBRANCH  10  11
ENDBRANCH   9  10
ENDBRANCH   8   9
ENDBRANCH   7   8
ENDBRANCH   6   7
ENDBRANCH   5   6
ENDBRANCH   4   5
ENDBRANCH   3   4
ENDBRANCH   2   3
ENDBRANCH   1   2
BRANCH   1  15
ATOM     15  C   UNL     1      55.875  51.756  16.876  1.00  0.00     0.000 C 
BRANCH  15  16
ATOM     16  C   UNL     1      54.895  51.937  18.045  1.00  0.00     0.000 C 
BRANCH  16  17
ATOM     17  C   UNL     1      55.240  53.144  18.936  1.00  0.00     0.000 C 
BRANCH  17  18
ATOM     18  C   UNL     1      55.397  52.825  20.437  1.00  0.00    -0.000 C 
BRANCH  18  19
ATOM     19  C   UNL     1      54.156  52.208  21.109  1.00  0.00    -0.000 C 
BRANCH  19  20
ATOM     20  C   UNL     1      53.375  53.168  22.026  1.00  0.00    -0.000 C 
BRANCH  20  21
ATOM     21  C   UNL     1      54.247  54.283  22.648  1.00  0.00    -0.000 C 
BRANCH  21  22
ATOM     22  C   UNL     1      53.453  55.388  23.376  1.00  0.00    -0.000 C 
BRANCH  22  23
ATOM     23  C   UNL     1      54.119  55.936  24.653  1.00  0.00    -0.000 C 
BRANCH  23  24
ATOM     24  C   UNL     1      55.533  56.489  24.405  1.00  0.00    -0.000 C 
BRANCH  24  25
ATOM     25  C   UNL     1      56.275  56.811  25.711  1.00  0.00    -0.003 C 
ATOM     26  C   UNL     1      57.741  56.381  25.677  1.00  0.00     0.004 C 
ENDBRANCH  24  25
ENDBRANCH  23  24
ENDBRANCH  22  23
ENDBRANCH  21  22
ENDBRANCH  20  21
ENDBRANCH  19  20
ENDBRANCH  18  19
ENDBRANCH  17  18
ENDBRANCH  16  17
ENDBRANCH  15  16
ENDBRANCH   1  15
TORSDOF 22
ENDMDL
MODEL 6
REMARK VINA RESULT:    25.883      4.940     11.137
REMARK INTER + INTRA:          58.159
REMARK INTER:                  59.337
REMARK INTRA:                  -1.178
REMARK UNBOUND:                -1.013
REMARK SMILES CCCCCCCCCCCCCCCCCCCCCCCC(=O)[O-]
REMARK SMILES IDX 13 1 14 2 15 3 16 4 17 5 18 6 19 7 20 8 21 9 22 10 23 11
REMARK SMILES IDX 24 12 25 13 26 14 12 15 11 16 10 17 9 18 8 19 7 20 6 21 5 22
REMARK SMILES IDX 4 23 3 24 2 25 1 26
REMARK H PARENT
REMARK Flexibility Score: inf
ROOT
ATOM      1  C   UNL     1      57.113  48.637  17.033  1.00  0.00     0.000 C 
ENDROOT
BRANCH   1   2
ATOM      2  C   UNL     1      57.230  47.855  18.350  1.00  0.00     0.000 C 
BRANCH   2   3
ATOM      3  C   UNL     1      55.890  47.754  19.099  1.00  0.00     0.000 C 
BRANCH   3   4
ATOM      4  C   UNL     1      56.009  48.153  20.578  1.00  0.00     0.000 C 
BRANCH   4   5
ATOM      5  C   UNL     1      57.210  47.494  21.276  1.00  0.00     0.000 C 
BRANCH   5   6
ATOM      6  C   UNL     1      56.877  47.147  22.731  1.00  0.00     0.000 C 
BRANCH   6   7
ATOM      7  C   UNL     1      56.886  45.630  22.952  1.00  0.00     0.000 C 
BRANCH   7   8
ATOM      8  C   UNL     1      56.441  44.886  21.689  1.00  0.00     0.000 C 
BRANCH   8   9
ATOM      9  C   UNL     1      57.131  43.518  21.584  1.00  0.00     0.000 C 
BRANCH   9  10
ATOM     10  C   UNL     1      56.397  42.550  20.637  1.00  0.00     0.006 C 
BRANCH  10  11
ATOM     11  C   UNL     1      55.205  41.822  21.279  1.00  0.00     0.053 C 
BRANCH  11  12
ATOM     12  C   UNL     1      55.123  40.390  20.848  1.00  0.00     0.041 C 
ATOM     13  O   UNL     1      56.146  39.657  20.887  1.00  0.00    -0.550 OA
ATOM     14  O   UNL     1      53.924  39.874  20.374  1.00  0.00    -0.550 OA
ENDBRANCH  11  12
ENDBRANCH  10  11
ENDBRANCH   9  10
ENDBRANCH   8   9
ENDBRANCH   7   8
ENDBRANCH   6   7
ENDBRANCH   5   6
ENDBRANCH   4   5
ENDBRANCH   3   4
ENDBRANCH   2   3
ENDBRANCH   1   2
BRANCH   1  15
ATOM     15  C   UNL     1      55.722  49.257  16.830  1.00  0.00     0.000 C 
BRANCH  15  16
ATOM     16  C   UNL     1      55.838  50.723  16.383  1.00  0.00     0.000 C 
BRANCH  16  17
ATOM     17  C   UNL     1      54.884  51.659  17.146  1.00  0.00     0.000 C 
BRANCH  17  18
ATOM     18  C   UNL     1      55.550  52.521  18.240  1.00  0.00    -0.000 C 
BRANCH  18  19
ATOM     19  C   UNL     1      54.575  53.233  19.196  1.00  0.00    -0.000 C 
BRANCH  19  20
ATOM     20  C   UNL     1      54.866  53.016  20.693  1.00  0.00    -0.000 C 
BRANCH  20  21
ATOM     21  C   UNL     1      53.649  53.283  21.610  1.00  0.00    -0.000 C 
BRANCH  21  22
ATOM     22  C   UNL     1      53.644  54.672  22.282  1.00  0.00    -0.000 C 
BRANCH  22  23
ATOM     23  C   UNL     1      54.207  54.704  23.717  1.00  0.00    -0.000 C 
BRANCH  23  24
ATOM     24  C   UNL     1      54.811  56.067  24.097  1.00  0.00    -0.000 C 
BRANCH  24  25
ATOM     25  C   UNL     1      55.608  56.011  25.409  1.00  0.00    -0.003 C 
ATOM     26  C   UNL     1      56.652  57.122  25.513  1.00  0.00     0.004 C 
ENDBRANCH  24  25
ENDBRANCH  23  24
ENDBRANCH  22  23
ENDBRANCH  21  22
ENDBRANCH  20  21
ENDBRANCH  19  20
ENDBRANCH  18  19
ENDBRANCH  17  18
ENDBRANCH  16  17
ENDBRANCH  15  16
ENDBRANCH   1  15
TORSDOF 22
ENDMDL
MODEL 7
REMARK VINA RESULT:    25.934      4.018      6.721
REMARK INTER + INTRA:          58.274
REMARK INTER:                  58.754
REMARK INTRA:                  -0.480
REMARK UNBOUND:                -1.013
REMARK SMILES CCCCCCCCCCCCCCCCCCCCCCCC(=O)[O-]
REMARK SMILES IDX 13 1 14 2 15 3 16 4 17 5 18 6 19 7 20 8 21 9 22 10 23 11
REMARK SMILES IDX 24 12 25 13 26 14 12 15 11 16 10 17 9 18 8 19 7 20 6 21 5 22
REMARK SMILES IDX 4 23 3 24 2 25 1 26
REMARK H PARENT
REMARK Flexibility Score: inf
ROOT
ATOM      1  C   UNL     1      53.707  52.952  21.741  1.00  0.00     0.000 C 
ENDROOT
BRANCH   1   2
ATOM      2  C   UNL     1      54.173  53.886  22.869  1.00  0.00     0.000 C 
BRANCH   2   3
ATOM      3  C   UNL     1      53.310  55.155  22.980  1.00  0.00     0.000 C 
BRANCH   3   4
ATOM      4  C   UNL     1      54.091  56.351  23.547  1.00  0.00     0.000 C 
BRANCH   4   5
ATOM      5  C   UNL     1      55.489  55.960  24.054  1.00  0.00     0.000 C 
BRANCH   5   6
ATOM      6  C   UNL     1      55.593  56.142  25.573  1.00  0.00     0.000 C 
BRANCH   6   7
ATOM      7  C   UNL     1      54.282  56.688  26.153  1.00  0.00     0.000 C 
BRANCH   7   8
ATOM      8  C   UNL     1      53.162  55.646  26.060  1.00  0.00     0.000 C 
BRANCH   8   9
ATOM      9  C   UNL     1      52.776  55.127  27.453  1.00  0.00     0.000 C 
BRANCH   9  10
ATOM     10  C   UNL     1      53.098  53.633  27.642  1.00  0.00     0.006 C 
BRANCH  10  11
ATOM     11  C   UNL     1      52.535  53.024  28.936  1.00  0.00     0.053 C 
BRANCH  11  12
ATOM     12  C   UNL     1      51.045  52.881  28.889  1.00  0.00     0.041 C 
ATOM     13  O   UNL     1      50.477  52.514  27.827  1.00  0.00    -0.550 OA
ATOM     14  O   UNL     1      50.281  53.184  30.008  1.00  0.00    -0.550 OA
ENDBRANCH  11  12
ENDBRANCH  10  11
ENDBRANCH   9  10
ENDBRANCH   8   9
ENDBRANCH   7   8
ENDBRANCH   6   7
ENDBRANCH   5   6
ENDBRANCH   4   5
ENDBRANCH   3   4
ENDBRANCH   2   3
ENDBRANCH   1   2
BRANCH   1  15
ATOM     15  C   UNL     1      54.796  52.704  20.686  1.00  0.00     0.000 C 
BRANCH  15  16
ATOM     16  C   UNL     1      55.806  51.657  21.179  1.00  0.00     0.000 C 
BRANCH  16  17
ATOM     17  C   UNL     1      55.510  50.242  20.650  1.00  0.00     0.000 C 
BRANCH  17  18
ATOM     18  C   UNL     1      56.407  49.127  21.227  1.00  0.00    -0.000 C 
BRANCH  18  19
ATOM     19  C   UNL     1      56.126  47.713  20.682  1.00  0.00    -0.000 C 
BRANCH  19  20
ATOM     20  C   UNL     1      55.918  47.639  19.157  1.00  0.00    -0.000 C 
BRANCH  20  21
ATOM     21  C   UNL     1      57.228  47.758  18.344  1.00  0.00    -0.000 C 
BRANCH  21  22
ATOM     22  C   UNL     1      57.098  48.559  17.032  1.00  0.00    -0.000 C 
BRANCH  22  23
ATOM     23  C   UNL     1      55.747  49.273  16.835  1.00  0.00    -0.000 C 
BRANCH  23  24
ATOM     24  C   UNL     1      55.762  50.281  15.672  1.00  0.00    -0.000 C 
BRANCH  24  25
ATOM     25  C   UNL     1      54.358  50.544  15.105  1.00  0.00    -0.003 C 
ATOM     26  C   UNL     1      53.319  49.549  15.619  1.00  0.00     0.004 C 
ENDBRANCH  24  25
ENDBRANCH  23  24
ENDBRANCH  22  23
ENDBRANCH  21  22
ENDBRANCH  20  21
ENDBRANCH  19  20
ENDBRANCH  18  19
ENDBRANCH  17  18
ENDBRANCH  16  17
ENDBRANCH  15  16
ENDBRANCH   1  15
TORSDOF 22
ENDMDL
MODEL 8
REMARK VINA RESULT:    26.349      1.478      2.509
REMARK INTER + INTRA:          59.224
REMARK INTER:                  60.728
REMARK INTRA:                  -1.503
REMARK UNBOUND:                -1.013
REMARK SMILES CCCCCCCCCCCCCCCCCCCCCCCC(=O)[O-]
REMARK SMILES IDX 13 1 14 2 15 3 16 4 17 5 18 6 19 7 20 8 21 9 22 10 23 11
REMARK SMILES IDX 24 12 25 13 26 14 12 15 11 16 10 17 9 18 8 19 7 20 6 21 5 22
REMARK SMILES IDX 4 23 3 24 2 25 1 26
REMARK H PARENT
REMARK Flexibility Score: inf
ROOT
ATOM      1  C   UNL     1      54.678  51.201  17.207  1.00  0.00     0.000 C 
ENDROOT
BRANCH   1   2
ATOM      2  C   UNL     1      55.684  52.229  17.744  1.00  0.00     0.000 C 
BRANCH   2   3
ATOM      3  C   UNL     1      55.060  53.186  18.775  1.00  0.00     0.000 C 
BRANCH   3   4
ATOM      4  C   UNL     1      54.763  52.496  20.116  1.00  0.00     0.000 C 
BRANCH   4   5
ATOM      5  C   UNL     1      54.838  53.462  21.309  1.00  0.00     0.000 C 
BRANCH   5   6
ATOM      6  C   UNL     1      53.530  53.449  22.109  1.00  0.00     0.000 C 
BRANCH   6   7
ATOM      7  C   UNL     1      53.646  54.316  23.369  1.00  0.00     0.000 C 
BRANCH   7   8
ATOM      8  C   UNL     1      53.216  55.760  23.086  1.00  0.00     0.000 C 
BRANCH   8   9
ATOM      9  C   UNL     1      53.462  56.656  24.308  1.00  0.00     0.000 C 
BRANCH   9  10
ATOM     10  C   UNL     1      54.211  55.929  25.440  1.00  0.00     0.006 C 
BRANCH  10  11
ATOM     11  C   UNL     1      55.451  56.675  25.959  1.00  0.00     0.053 C 
BRANCH  11  12
ATOM     12  C   UNL     1      56.684  56.320  25.187  1.00  0.00     0.041 C 
ATOM     13  O   UNL     1      56.592  55.899  24.004  1.00  0.00    -0.550 OA
ATOM     14  O   UNL     1      57.933  56.422  25.785  1.00  0.00    -0.550 OA
ENDBRANCH  11  12
ENDBRANCH  10  11
ENDBRANCH   9  10
ENDBRANCH   8   9
ENDBRANCH   7   8
ENDBRANCH   6   7
ENDBRANCH   5   6
ENDBRANCH   4   5
ENDBRANCH   3   4
ENDBRANCH   2   3
ENDBRANCH   1   2
BRANCH   1  15
ATOM     15  C   UNL     1      55.126  50.565  15.882  1.00  0.00     0.000 C 
BRANCH  15  16
ATOM     16  C   UNL     1      56.306  49.607  16.108  1.00  0.00     0.000 C 
BRANCH  16  17
ATOM     17  C   UNL     1      56.014  48.536  17.174  1.00  0.00     0.000 C 
BRANCH  17  18
ATOM     18  C   UNL     1      57.243  47.733  17.648  1.00  0.00    -0.000 C 
BRANCH  18  19
ATOM     19  C   UNL     1      57.416  47.642  19.176  1.00  0.00    -0.000 C 
BRANCH  19  20
ATOM     20  C   UNL     1      56.120  47.844  19.985  1.00  0.00    -0.000 C 
BRANCH  20  21
ATOM     21  C   UNL     1      56.353  48.001  21.506  1.00  0.00    -0.000 C 
BRANCH  21  22
ATOM     22  C   UNL     1      57.302  46.953  22.121  1.00  0.00    -0.000 C 
BRANCH  22  23
ATOM     23  C   UNL     1      56.608  45.708  22.707  1.00  0.00    -0.000 C 
BRANCH  23  24
ATOM     24  C   UNL     1      57.173  44.387  22.156  1.00  0.00    -0.000 C 
BRANCH  24  25
ATOM     25  C   UNL     1      56.700  44.097  20.723  1.00  0.00    -0.003 C 
ATOM     26  C   UNL     1      55.514  43.136  20.678  1.00  0.00     0.004 C 
ENDBRANCH  24  25
ENDBRANCH  23  24
ENDBRANCH  22  23
ENDBRANCH  21  22
ENDBRANCH  20  21
ENDBRANCH  19  20
ENDBRANCH  18  19
ENDBRANCH  17  18
ENDBRANCH  16  17
ENDBRANCH  15  16
ENDBRANCH   1  15
TORSDOF 22
ENDMDL
MODEL 9
REMARK VINA RESULT:    26.655      3.620      9.840
REMARK INTER + INTRA:          59.922
REMARK INTER:                  59.982
REMARK INTRA:                  -0.059
REMARK UNBOUND:                -1.013
REMARK SMILES CCCCCCCCCCCCCCCCCCCCCCCC(=O)[O-]
REMARK SMILES IDX 13 1 14 2 15 3 16 4 17 5 18 6 19 7 20 8 21 9 22 10 23 11
REMARK SMILES IDX 24 12 25 13 26 14 12 15 11 16 10 17 9 18 8 19 7 20 6 21 5 22
REMARK SMILES IDX 4 23 3 24 2 25 1 26
REMARK H PARENT
REMARK Flexibility Score: inf
ROOT
ATOM      1  C   UNL     1      54.770  53.360  19.358  1.00  0.00     0.000 C 
ENDROOT
BRANCH   1   2
ATOM      2  C   UNL     1      55.636  52.640  18.313  1.00  0.00     0.000 C 
BRANCH   2   3
ATOM      3  C   UNL     1      54.803  52.031  17.171  1.00  0.00     0.000 C 
BRANCH   3   4
ATOM      4  C   UNL     1      55.673  51.549  15.999  1.00  0.00     0.000 C 
BRANCH   4   5
ATOM      5  C   UNL     1      54.938  50.553  15.086  1.00  0.00     0.000 C 
BRANCH   5   6
ATOM      6  C   UNL     1      54.914  49.153  15.708  1.00  0.00     0.000 C 
BRANCH   6   7
ATOM      7  C   UNL     1      56.107  48.948  16.650  1.00  0.00     0.000 C 
BRANCH   7   8
ATOM      8  C   UNL     1      55.664  48.980  18.117  1.00  0.00     0.000 C 
BRANCH   8   9
ATOM      9  C   UNL     1      56.451  47.960  18.952  1.00  0.00     0.000 C 
BRANCH   9  10
ATOM     10  C   UNL     1      55.663  47.455  20.175  1.00  0.00     0.006 C 
BRANCH  10  11
ATOM     11  C   UNL     1      56.461  46.521  21.100  1.00  0.00     0.053 C 
BRANCH  11  12
ATOM     12  C   UNL     1      56.940  47.226  22.331  1.00  0.00     0.041 C 
ATOM     13  O   UNL     1      57.525  48.337  22.239  1.00  0.00    -0.550 OA
ATOM     14  O   UNL     1      56.771  46.640  23.579  1.00  0.00    -0.550 OA
ENDBRANCH  11  12
ENDBRANCH  10  11
ENDBRANCH   9  10
ENDBRANCH   8   9
ENDBRANCH   7   8
ENDBRANCH   6   7
ENDBRANCH   5   6
ENDBRANCH   4   5
ENDBRANCH   3   4
ENDBRANCH   2   3
ENDBRANCH   1   2
BRANCH   1  15
ATOM     15  C   UNL     1      55.071  52.907  20.795  1.00  0.00     0.000 C 
BRANCH  15  16
ATOM     16  C   UNL     1      53.795  52.924  21.651  1.00  0.00     0.000 C 
BRANCH  16  17
ATOM     17  C   UNL     1      53.330  54.348  22.004  1.00  0.00     0.000 C 
BRANCH  17  18
ATOM     18  C   UNL     1      53.778  54.859  23.389  1.00  0.00    -0.000 C 
BRANCH  18  19
ATOM     19  C   UNL     1      55.082  55.680  23.394  1.00  0.00    -0.000 C 
BRANCH  19  20
ATOM     20  C   UNL     1      55.444  56.307  24.753  1.00  0.00    -0.000 C 
BRANCH  20  21
ATOM     21  C   UNL     1      54.257  56.382  25.741  1.00  0.00    -0.000 C 
BRANCH  21  22
ATOM     22  C   UNL     1      53.731  55.012  26.217  1.00  0.00    -0.000 C 
BRANCH  22  23
ATOM     23  C   UNL     1      52.926  55.044  27.531  1.00  0.00    -0.000 C 
BRANCH  23  24
ATOM     24  C   UNL     1      52.645  53.641  28.099  1.00  0.00    -0.000 C 
BRANCH  24  25
ATOM     25  C   UNL     1      51.189  53.476  28.562  1.00  0.00    -0.003 C 
ATOM     26  C   UNL     1      50.899  52.077  29.106  1.00  0.00     0.004 C 
ENDBRANCH  24  25
ENDBRANCH  23  24
ENDBRANCH  22  23
ENDBRANCH  21  22
ENDBRANCH  20  21
ENDBRANCH  19  20
ENDBRANCH  18  19
ENDBRANCH  17  18
ENDBRANCH  16  17
ENDBRANCH  15  16
ENDBRANCH   1  15
TORSDOF 22
ENDMDL
