MODEL 1
REMARK VINA RESULT:    -4.670      0.000      0.000
REMARK INTER + INTRA:         -10.594
REMARK INTER:                  -8.492
REMARK INTRA:                  -2.101
REMARK UNBOUND:                -2.101
REMARK SMILES CCCCCCCCCCCCCCCC(=O)[O-]
REMARK SMILES IDX 9 1 10 2 11 3 12 4 13 5 14 6 15 7 16 8 17 9 18 10 8 11 7 12
REMARK SMILES IDX 6 13 5 14 4 15 3 16 2 17 1 18
REMARK H PARENT
REMARK Flexibility Score: inf
ROOT
ATOM      1  C   UNL     1      -3.441  11.555  23.917  1.00  0.00     0.000 C 
ENDROOT
BRANCH   1   2
ATOM      2  C   UNL     1      -4.527  10.888  24.774  1.00  0.00     0.000 C 
BRANCH   2   3
ATOM      3  C   UNL     1      -4.179  10.874  26.272  1.00  0.00     0.000 C 
BRANCH   3   4
ATOM      4  C   UNL     1      -2.664  10.963  26.526  1.00  0.00     0.000 C 
BRANCH   4   5
ATOM      5  C   UNL     1      -2.312  11.941  27.659  1.00  0.00     0.000 C 
BRANCH   5   6
ATOM      6  C   UNL     1      -2.031  13.365  27.148  1.00  0.00     0.006 C 
BRANCH   6   7
ATOM      7  C   UNL     1      -1.181  13.362  25.869  1.00  0.00     0.053 C 
BRANCH   7   8
ATOM      8  C   UNL     1       0.285  13.365  26.173  1.00  0.00     0.041 C 
ATOM      9  O   UNL     1       0.885  12.283  26.407  1.00  0.00    -0.550 OA
ATOM     10  O   UNL     1       0.984  14.564  26.226  1.00  0.00    -0.550 OA
ENDBRANCH   7   8
ENDBRANCH   6   7
ENDBRANCH   5   6
ENDBRANCH   4   5
ENDBRANCH   3   4
ENDBRANCH   2   3
ENDBRANCH   1   2
BRANCH   1  11
ATOM     11  C   UNL     1      -4.004  11.990  22.558  1.00  0.00     0.000 C 
BRANCH  11  12
ATOM     12  C   UNL     1      -3.272  11.284  21.408  1.00  0.00    -0.000 C 
BRANCH  12  13
ATOM     13  C   UNL     1      -3.774   9.849  21.179  1.00  0.00    -0.000 C 
BRANCH  13  14
ATOM     14  C   UNL     1      -2.699   8.934  20.574  1.00  0.00    -0.000 C 
BRANCH  14  15
ATOM     15  C   UNL     1      -1.799   8.347  21.672  1.00  0.00    -0.000 C 
BRANCH  15  16
ATOM     16  C   UNL     1      -2.571   8.025  22.962  1.00  0.00    -0.000 C 
BRANCH  16  17
ATOM     17  C   UNL     1      -1.744   8.291  24.227  1.00  0.00    -0.003 C 
ATOM     18  C   UNL     1      -0.558   9.204  23.926  1.00  0.00     0.004 C 
ENDBRANCH  16  17
ENDBRANCH  15  16
ENDBRANCH  14  15
ENDBRANCH  13  14
ENDBRANCH  12  13
ENDBRANCH  11  12
ENDBRANCH   1  11
TORSDOF 14
ENDMDL
MODEL 2
REMARK VINA RESULT:    -4.651      3.441      6.070
REMARK INTER + INTRA:         -10.559
REMARK INTER:                  -9.304
REMARK INTRA:                  -1.255
REMARK UNBOUND:                -2.101
REMARK SMILES CCCCCCCCCCCCCCCC(=O)[O-]
REMARK SMILES IDX 9 1 10 2 11 3 12 4 13 5 14 6 15 7 16 8 17 9 18 10 8 11 7 12
REMARK SMILES IDX 6 13 5 14 4 15 3 16 2 17 1 18
REMARK H PARENT
REMARK Flexibility Score: inf
ROOT
ATOM      1  C   UNL     1      -1.845   8.341  23.915  1.00  0.00     0.000 C 
ENDROOT
BRANCH   1   2
ATOM      2  C   UNL     1      -1.266   8.963  22.635  1.00  0.00     0.000 C 
BRANCH   2   3
ATOM      3  C   UNL     1      -1.791   8.290  21.356  1.00  0.00     0.000 C 
BRANCH   3   4
ATOM      4  C   UNL     1      -2.913   9.099  20.682  1.00  0.00     0.000 C 
BRANCH   4   5
ATOM      5  C   UNL     1      -4.305   8.751  21.234  1.00  0.00     0.000 C 
BRANCH   5   6
ATOM      6  C   UNL     1      -5.115   9.997  21.633  1.00  0.00     0.006 C 
BRANCH   6   7
ATOM      7  C   UNL     1      -4.706  10.536  23.011  1.00  0.00     0.053 C 
BRANCH   7   8
ATOM      8  C   UNL     1      -3.884  11.784  22.901  1.00  0.00     0.041 C 
ATOM      9  O   UNL     1      -3.992  12.525  21.889  1.00  0.00    -0.550 OA
ATOM     10  O   UNL     1      -2.979  12.112  23.902  1.00  0.00    -0.550 OA
ENDBRANCH   7   8
ENDBRANCH   6   7
ENDBRANCH   5   6
ENDBRANCH   4   5
ENDBRANCH   3   4
ENDBRANCH   2   3
ENDBRANCH   1   2
BRANCH   1  11
ATOM     11  C   UNL     1      -1.578   9.237  25.131  1.00  0.00     0.000 C 
BRANCH  11  12
ATOM     12  C   UNL     1      -0.148   9.041  25.655  1.00  0.00    -0.000 C 
BRANCH  12  13
ATOM     13  C   UNL     1       0.714  10.305  25.513  1.00  0.00    -0.000 C 
BRANCH  13  14
ATOM     14  C   UNL     1       2.218  10.012  25.625  1.00  0.00    -0.000 C 
BRANCH  14  15
ATOM     15  C   UNL     1       2.463   8.657  26.307  1.00  0.00    -0.000 C 
BRANCH  15  16
ATOM     16  C   UNL     1       3.919   8.181  26.176  1.00  0.00    -0.000 C 
BRANCH  16  17
ATOM     17  C   UNL     1       4.351   7.273  27.335  1.00  0.00    -0.003 C 
ATOM     18  C   UNL     1       3.183   6.425  27.832  1.00  0.00     0.004 C 
ENDBRANCH  16  17
ENDBRANCH  15  16
ENDBRANCH  14  15
ENDBRANCH  13  14
ENDBRANCH  12  13
ENDBRANCH  11  12
ENDBRANCH   1  11
TORSDOF 14
ENDMDL
MODEL 3
REMARK VINA RESULT:    -4.611      1.417      2.120
REMARK INTER + INTRA:         -10.486
REMARK INTER:                  -8.621
REMARK INTRA:                  -1.866
REMARK UNBOUND:                -2.101
REMARK SMILES CCCCCCCCCCCCCCCC(=O)[O-]
REMARK SMILES IDX 9 1 10 2 11 3 12 4 13 5 14 6 15 7 16 8 17 9 18 10 8 11 7 12
REMARK SMILES IDX 6 13 5 14 4 15 3 16 2 17 1 18
REMARK H PARENT
REMARK Flexibility Score: inf
ROOT
ATOM      1  C   UNL     1      -3.393  11.858  22.645  1.00  0.00     0.000 C 
ENDROOT
BRANCH   1   2
ATOM      2  C   UNL     1      -3.265  11.634  24.159  1.00  0.00     0.000 C 
BRANCH   2   3
ATOM      3  C   UNL     1      -2.061  12.369  24.771  1.00  0.00     0.000 C 
BRANCH   3   4
ATOM      4  C   UNL     1      -2.125  12.427  26.307  1.00  0.00     0.000 C 
BRANCH   4   5
ATOM      5  C   UNL     1      -1.063  13.364  26.907  1.00  0.00     0.000 C 
BRANCH   5   6
ATOM      6  C   UNL     1       0.322  13.183  26.259  1.00  0.00     0.006 C 
BRANCH   6   7
ATOM      7  C   UNL     1       0.853  14.490  25.654  1.00  0.00     0.053 C 
BRANCH   7   8
ATOM      8  C   UNL     1       2.225  14.322  25.078  1.00  0.00     0.041 C 
ATOM      9  O   UNL     1       2.860  15.322  24.653  1.00  0.00    -0.550 OA
ATOM     10  O   UNL     1       2.791  13.057  24.985  1.00  0.00    -0.550 OA
ENDBRANCH   7   8
ENDBRANCH   6   7
ENDBRANCH   5   6
ENDBRANCH   4   5
ENDBRANCH   3   4
ENDBRANCH   2   3
ENDBRANCH   1   2
BRANCH   1  11
ATOM     11  C   UNL     1      -4.264  10.773  22.000  1.00  0.00     0.000 C 
BRANCH  11  12
ATOM     12  C   UNL     1      -3.444   9.917  21.024  1.00  0.00    -0.000 C 
BRANCH  12  13
ATOM     13  C   UNL     1      -3.021   8.569  21.630  1.00  0.00    -0.000 C 
BRANCH  13  14
ATOM     14  C   UNL     1      -1.495   8.411  21.716  1.00  0.00    -0.000 C 
BRANCH  14  15
ATOM     15  C   UNL     1      -0.967   8.916  23.068  1.00  0.00    -0.000 C 
BRANCH  15  16
ATOM     16  C   UNL     1      -1.759   8.356  24.260  1.00  0.00    -0.000 C 
BRANCH  16  17
ATOM     17  C   UNL     1      -1.179   8.791  25.612  1.00  0.00    -0.003 C 
ATOM     18  C   UNL     1       0.111   9.586  25.426  1.00  0.00     0.004 C 
ENDBRANCH  16  17
ENDBRANCH  15  16
ENDBRANCH  14  15
ENDBRANCH  13  14
ENDBRANCH  12  13
ENDBRANCH  11  12
ENDBRANCH   1  11
TORSDOF 14
ENDMDL
MODEL 4
REMARK VINA RESULT:    -4.602      2.920      4.580
REMARK INTER + INTRA:         -10.470
REMARK INTER:                  -8.714
REMARK INTRA:                  -1.757
REMARK UNBOUND:                -2.101
REMARK SMILES CCCCCCCCCCCCCCCC(=O)[O-]
REMARK SMILES IDX 9 1 10 2 11 3 12 4 13 5 14 6 15 7 16 8 17 9 18 10 8 11 7 12
REMARK SMILES IDX 6 13 5 14 4 15 3 16 2 17 1 18
REMARK H PARENT
REMARK Flexibility Score: inf
ROOT
ATOM      1  C   UNL     1      -0.861   8.769  22.838  1.00  0.00     0.000 C 
ENDROOT
BRANCH   1   2
ATOM      2  C   UNL     1      -1.611   8.285  24.088  1.00  0.00     0.000 C 
BRANCH   2   3
ATOM      3  C   UNL     1      -1.123   8.967  25.377  1.00  0.00     0.000 C 
BRANCH   3   4
ATOM      4  C   UNL     1      -0.448  10.324  25.107  1.00  0.00     0.000 C 
BRANCH   4   5
ATOM      5  C   UNL     1       0.913  10.455  25.809  1.00  0.00     0.000 C 
BRANCH   5   6
ATOM      6  C   UNL     1       1.948   9.441  25.292  1.00  0.00     0.006 C 
BRANCH   6   7
ATOM      7  C   UNL     1       3.175   9.348  26.210  1.00  0.00     0.053 C 
BRANCH   7   8
ATOM      8  C   UNL     1       3.588   7.927  26.447  1.00  0.00     0.041 C 
ATOM      9  O   UNL     1       3.167   7.307  27.459  1.00  0.00    -0.550 OA
ATOM     10  O   UNL     1       4.460   7.299  25.568  1.00  0.00    -0.550 OA
ENDBRANCH   7   8
ENDBRANCH   6   7
ENDBRANCH   5   6
ENDBRANCH   4   5
ENDBRANCH   3   4
ENDBRANCH   2   3
ENDBRANCH   1   2
BRANCH   1  11
ATOM     11  C   UNL     1      -1.689   8.522  21.571  1.00  0.00     0.000 C 
BRANCH  11  12
ATOM     12  C   UNL     1      -3.191   8.518  21.887  1.00  0.00    -0.000 C 
BRANCH  12  13
ATOM     13  C   UNL     1      -3.934   9.701  21.246  1.00  0.00    -0.000 C 
BRANCH  13  14
ATOM     14  C   UNL     1      -3.214  11.041  21.462  1.00  0.00    -0.000 C 
BRANCH  14  15
ATOM     15  C   UNL     1      -4.147  12.062  22.132  1.00  0.00    -0.000 C 
BRANCH  15  16
ATOM     16  C   UNL     1      -4.973  11.450  23.275  1.00  0.00    -0.000 C 
BRANCH  16  17
ATOM     17  C   UNL     1      -4.110  11.057  24.483  1.00  0.00    -0.003 C 
ATOM     18  C   UNL     1      -4.759   9.926  25.276  1.00  0.00     0.004 C 
ENDBRANCH  16  17
ENDBRANCH  15  16
ENDBRANCH  14  15
ENDBRANCH  13  14
ENDBRANCH  12  13
ENDBRANCH  11  12
ENDBRANCH   1  11
TORSDOF 14
ENDMDL
MODEL 5
REMARK VINA RESULT:    -4.558      8.079     10.623
REMARK INTER + INTRA:         -10.389
REMARK INTER:                  -7.975
REMARK INTRA:                  -2.414
REMARK UNBOUND:                -2.101
REMARK SMILES CCCCCCCCCCCCCCCC(=O)[O-]
REMARK SMILES IDX 9 1 10 2 11 3 12 4 13 5 14 6 15 7 16 8 17 9 18 10 8 11 7 12
REMARK SMILES IDX 6 13 5 14 4 15 3 16 2 17 1 18
REMARK H PARENT
REMARK Flexibility Score: inf
ROOT
ATOM      1  C   UNL     1       1.667  16.552  24.483  1.00  0.00     0.000 C 
ENDROOT
BRANCH   1   2
ATOM      2  C   UNL     1       2.693  16.329  23.362  1.00  0.00     0.000 C 
BRANCH   2   3
ATOM      3  C   UNL     1       4.138  16.249  23.883  1.00  0.00     0.000 C 
BRANCH   3   4
ATOM      4  C   UNL     1       4.965  17.495  23.521  1.00  0.00     0.000 C 
BRANCH   4   5
ATOM      5  C   UNL     1       4.131  18.569  22.803  1.00  0.00     0.000 C 
BRANCH   5   6
ATOM      6  C   UNL     1       4.754  19.972  22.907  1.00  0.00     0.006 C 
BRANCH   6   7
ATOM      7  C   UNL     1       5.054  20.574  21.527  1.00  0.00     0.053 C 
BRANCH   7   8
ATOM      8  C   UNL     1       3.865  21.287  20.959  1.00  0.00     0.041 C 
ATOM      9  O   UNL     1       3.419  22.322  21.522  1.00  0.00    -0.550 OA
ATOM     10  O   UNL     1       3.231  20.793  19.827  1.00  0.00    -0.550 OA
ENDBRANCH   7   8
ENDBRANCH   6   7
ENDBRANCH   5   6
ENDBRANCH   4   5
ENDBRANCH   3   4
ENDBRANCH   2   3
ENDBRANCH   1   2
BRANCH   1  11
ATOM     11  C   UNL     1       2.328  16.442  25.862  1.00  0.00     0.000 C 
BRANCH  11  12
ATOM     12  C   UNL     1       2.079  17.708  26.694  1.00  0.00    -0.000 C 
BRANCH  12  13
ATOM     13  C   UNL     1       1.974  18.974  25.829  1.00  0.00    -0.000 C 
BRANCH  13  14
ATOM     14  C   UNL     1       0.718  19.803  26.141  1.00  0.00    -0.000 C 
BRANCH  14  15
ATOM     15  C   UNL     1       0.112  20.384  24.854  1.00  0.00    -0.000 C 
BRANCH  15  16
ATOM     16  C   UNL     1       1.145  20.530  23.726  1.00  0.00    -0.000 C 
BRANCH  16  17
ATOM     17  C   UNL     1       0.689  19.869  22.418  1.00  0.00    -0.003 C 
ATOM     18  C   UNL     1      -0.537  18.989  22.646  1.00  0.00     0.004 C 
ENDBRANCH  16  17
ENDBRANCH  15  16
ENDBRANCH  14  15
ENDBRANCH  13  14
ENDBRANCH  12  13
ENDBRANCH  11  12
ENDBRANCH   1  11
TORSDOF 14
ENDMDL
MODEL 6
REMARK VINA RESULT:    -4.508      6.800      9.865
REMARK INTER + INTRA:         -10.298
REMARK INTER:                  -8.059
REMARK INTRA:                  -2.239
REMARK UNBOUND:                -2.101
REMARK SMILES CCCCCCCCCCCCCCCC(=O)[O-]
REMARK SMILES IDX 9 1 10 2 11 3 12 4 13 5 14 6 15 7 16 8 17 9 18 10 8 11 7 12
REMARK SMILES IDX 6 13 5 14 4 15 3 16 2 17 1 18
REMARK H PARENT
REMARK Flexibility Score: inf
ROOT
ATOM      1  C   UNL     1       0.558  19.235  23.716  1.00  0.00     0.000 C 
ENDROOT
BRANCH   1   2
ATOM      2  C   UNL     1       0.654  19.990  25.051  1.00  0.00     0.000 C 
BRANCH   2   3
ATOM      3  C   UNL     1       1.386  19.186  26.139  1.00  0.00     0.000 C 
BRANCH   3   4
ATOM      4  C   UNL     1       2.257  18.060  25.554  1.00  0.00     0.000 C 
BRANCH   4   5
ATOM      5  C   UNL     1       2.220  16.781  26.408  1.00  0.00     0.000 C 
BRANCH   5   6
ATOM      6  C   UNL     1       1.621  15.582  25.652  1.00  0.00     0.006 C 
BRANCH   6   7
ATOM      7  C   UNL     1       1.991  15.593  24.162  1.00  0.00     0.053 C 
BRANCH   7   8
ATOM      8  C   UNL     1       3.300  14.911  23.908  1.00  0.00     0.041 C 
ATOM      9  O   UNL     1       3.351  13.657  23.805  1.00  0.00    -0.550 OA
ATOM     10  O   UNL     1       4.468  15.657  23.813  1.00  0.00    -0.550 OA
ENDBRANCH   7   8
ENDBRANCH   6   7
ENDBRANCH   5   6
ENDBRANCH   4   5
ENDBRANCH   3   4
ENDBRANCH   2   3
ENDBRANCH   1   2
BRANCH   1  11
ATOM     11  C   UNL     1       0.955  20.140  22.544  1.00  0.00     0.000 C 
BRANCH  11  12
ATOM     12  C   UNL     1       1.743  21.363  23.035  1.00  0.00    -0.000 C 
BRANCH  12  13
ATOM     13  C   UNL     1       2.792  21.840  22.017  1.00  0.00    -0.000 C 
BRANCH  13  14
ATOM     14  C   UNL     1       3.324  20.699  21.136  1.00  0.00    -0.000 C 
BRANCH  14  15
ATOM     15  C   UNL     1       4.643  20.144  21.697  1.00  0.00    -0.000 C 
BRANCH  15  16
ATOM     16  C   UNL     1       4.426  18.985  22.684  1.00  0.00    -0.000 C 
BRANCH  16  17
ATOM     17  C   UNL     1       5.305  19.103  23.936  1.00  0.00    -0.003 C 
ATOM     18  C   UNL     1       5.029  20.408  24.679  1.00  0.00     0.004 C 
ENDBRANCH  16  17
ENDBRANCH  15  16
ENDBRANCH  14  15
ENDBRANCH  13  14
ENDBRANCH  12  13
ENDBRANCH  11  12
ENDBRANCH   1  11
TORSDOF 14
ENDMDL
MODEL 7
REMARK VINA RESULT:    -4.446      1.149      2.982
REMARK INTER + INTRA:         -10.187
REMARK INTER:                  -8.426
REMARK INTRA:                  -1.761
REMARK UNBOUND:                -2.101
REMARK SMILES CCCCCCCCCCCCCCCC(=O)[O-]
REMARK SMILES IDX 9 1 10 2 11 3 12 4 13 5 14 6 15 7 16 8 17 9 18 10 8 11 7 12
REMARK SMILES IDX 6 13 5 14 4 15 3 16 2 17 1 18
REMARK H PARENT
REMARK Flexibility Score: inf
ROOT
ATOM      1  C   UNL     1      -2.476   9.219  26.266  1.00  0.00     0.000 C 
ENDROOT
BRANCH   1   2
ATOM      2  C   UNL     1      -2.526   9.745  27.709  1.00  0.00     0.000 C 
BRANCH   2   3
ATOM      3  C   UNL     1      -3.222  11.111  27.822  1.00  0.00     0.000 C 
BRANCH   3   4
ATOM      4  C   UNL     1      -2.241  12.245  28.170  1.00  0.00     0.000 C 
BRANCH   4   5
ATOM      5  C   UNL     1      -2.089  13.264  27.029  1.00  0.00     0.000 C 
BRANCH   5   6
ATOM      6  C   UNL     1      -1.179  12.756  25.897  1.00  0.00     0.006 C 
BRANCH   6   7
ATOM      7  C   UNL     1       0.252  12.486  26.383  1.00  0.00     0.053 C 
BRANCH   7   8
ATOM      8  C   UNL     1       1.242  13.411  25.745  1.00  0.00     0.041 C 
ATOM      9  O   UNL     1       0.979  14.636  25.626  1.00  0.00    -0.550 OA
ATOM     10  O   UNL     1       2.444  12.915  25.254  1.00  0.00    -0.550 OA
ENDBRANCH   7   8
ENDBRANCH   6   7
ENDBRANCH   5   6
ENDBRANCH   4   5
ENDBRANCH   3   4
ENDBRANCH   2   3
ENDBRANCH   1   2
BRANCH   1  11
ATOM     11  C   UNL     1      -1.031   8.954  25.827  1.00  0.00     0.000 C 
BRANCH  11  12
ATOM     12  C   UNL     1      -0.908   8.975  24.297  1.00  0.00    -0.000 C 
BRANCH  12  13
ATOM     13  C   UNL     1      -2.052   8.221  23.600  1.00  0.00    -0.000 C 
BRANCH  13  14
ATOM     14  C   UNL     1      -1.990   8.335  22.069  1.00  0.00    -0.000 C 
BRANCH  14  15
ATOM     15  C   UNL     1      -3.200   9.113  21.529  1.00  0.00    -0.000 C 
BRANCH  15  16
ATOM     16  C   UNL     1      -4.134   9.607  22.646  1.00  0.00    -0.000 C 
BRANCH  16  17
ATOM     17  C   UNL     1      -4.187  11.139  22.737  1.00  0.00    -0.003 C 
ATOM     18  C   UNL     1      -3.252  11.782  21.717  1.00  0.00     0.004 C 
ENDBRANCH  16  17
ENDBRANCH  15  16
ENDBRANCH  14  15
ENDBRANCH  13  14
ENDBRANCH  12  13
ENDBRANCH  11  12
ENDBRANCH   1  11
TORSDOF 14
ENDMDL
MODEL 8
REMARK VINA RESULT:    -4.408      1.603      2.313
REMARK INTER + INTRA:         -10.117
REMARK INTER:                  -8.501
REMARK INTRA:                  -1.617
REMARK UNBOUND:                -2.101
REMARK SMILES CCCCCCCCCCCCCCCC(=O)[O-]
REMARK SMILES IDX 9 1 10 2 11 3 12 4 13 5 14 6 15 7 16 8 17 9 18 10 8 11 7 12
REMARK SMILES IDX 6 13 5 14 4 15 3 16 2 17 1 18
REMARK H PARENT
REMARK Flexibility Score: inf
ROOT
ATOM      1  C   UNL     1      -3.646  11.034  24.530  1.00  0.00     0.000 C 
ENDROOT
BRANCH   1   2
ATOM      2  C   UNL     1      -2.981  11.161  25.909  1.00  0.00     0.000 C 
BRANCH   2   3
ATOM      3  C   UNL     1      -1.490  11.527  25.820  1.00  0.00     0.000 C 
BRANCH   3   4
ATOM      4  C   UNL     1      -0.950  12.126  27.131  1.00  0.00     0.000 C 
BRANCH   4   5
ATOM      5  C   UNL     1      -0.209  13.456  26.910  1.00  0.00     0.000 C 
BRANCH   5   6
ATOM      6  C   UNL     1       0.882  13.354  25.830  1.00  0.00     0.006 C 
BRANCH   6   7
ATOM      7  C   UNL     1       1.304  14.733  25.303  1.00  0.00     0.053 C 
BRANCH   7   8
ATOM      8  C   UNL     1       2.625  14.681  24.599  1.00  0.00     0.041 C 
ATOM      9  O   UNL     1       3.539  13.927  25.023  1.00  0.00    -0.550 OA
ATOM     10  O   UNL     1       2.856  15.487  23.491  1.00  0.00    -0.550 OA
ENDBRANCH   7   8
ENDBRANCH   6   7
ENDBRANCH   5   6
ENDBRANCH   4   5
ENDBRANCH   3   4
ENDBRANCH   2   3
ENDBRANCH   1   2
BRANCH   1  11
ATOM     11  C   UNL     1      -2.907  11.875  23.483  1.00  0.00     0.000 C 
BRANCH  11  12
ATOM     12  C   UNL     1      -3.575  11.751  22.106  1.00  0.00    -0.000 C 
BRANCH  12  13
ATOM     13  C   UNL     1      -4.743  10.752  22.103  1.00  0.00    -0.000 C 
BRANCH  13  14
ATOM     14  C   UNL     1      -4.370   9.408  21.458  1.00  0.00    -0.000 C 
BRANCH  14  15
ATOM     15  C   UNL     1      -3.047   9.520  20.684  1.00  0.00    -0.000 C 
BRANCH  15  16
ATOM     16  C   UNL     1      -2.018   8.461  21.115  1.00  0.00    -0.000 C 
BRANCH  16  17
ATOM     17  C   UNL     1      -1.997   8.241  22.634  1.00  0.00    -0.003 C 
ATOM     18  C   UNL     1      -0.784   8.916  23.269  1.00  0.00     0.004 C 
ENDBRANCH  16  17
ENDBRANCH  15  16
ENDBRANCH  14  15
ENDBRANCH  13  14
ENDBRANCH  12  13
ENDBRANCH  11  12
ENDBRANCH   1  11
TORSDOF 14
ENDMDL
MODEL 9
REMARK VINA RESULT:    -4.379      1.565      4.617
REMARK INTER + INTRA:         -10.065
REMARK INTER:                  -7.822
REMARK INTRA:                  -2.243
REMARK UNBOUND:                -2.101
REMARK SMILES CCCCCCCCCCCCCCCC(=O)[O-]
REMARK SMILES IDX 9 1 10 2 11 3 12 4 13 5 14 6 15 7 16 8 17 9 18 10 8 11 7 12
REMARK SMILES IDX 6 13 5 14 4 15 3 16 2 17 1 18
REMARK H PARENT
REMARK Flexibility Score: inf
ROOT
ATOM      1  C   UNL     1      -4.857   8.944  21.794  1.00  0.00     0.000 C 
ENDROOT
BRANCH   1   2
ATOM      2  C   UNL     1      -3.991   8.876  20.527  1.00  0.00     0.000 C 
BRANCH   2   3
ATOM      3  C   UNL     1      -2.487   8.987  20.827  1.00  0.00     0.000 C 
BRANCH   3   4
ATOM      4  C   UNL     1      -2.088   8.255  22.121  1.00  0.00     0.000 C 
BRANCH   4   5
ATOM      5  C   UNL     1      -0.873   8.897  22.812  1.00  0.00     0.000 C 
BRANCH   5   6
ATOM      6  C   UNL     1      -1.261   9.706  24.062  1.00  0.00     0.006 C 
BRANCH   6   7
ATOM      7  C   UNL     1      -0.483   9.255  25.306  1.00  0.00     0.053 C 
BRANCH   7   8
ATOM      8  C   UNL     1       0.838   9.950  25.421  1.00  0.00     0.041 C 
ATOM      9  O   UNL     1       0.886  11.173  25.718  1.00  0.00    -0.550 OA
ATOM     10  O   UNL     1       2.015   9.256  25.172  1.00  0.00    -0.550 OA
ENDBRANCH   7   8
ENDBRANCH   6   7
ENDBRANCH   5   6
ENDBRANCH   4   5
ENDBRANCH   3   4
ENDBRANCH   2   3
ENDBRANCH   1   2
BRANCH   1  11
ATOM     11  C   UNL     1      -5.044  10.395  22.254  1.00  0.00     0.000 C 
BRANCH  11  12
ATOM     12  C   UNL     1      -4.921  10.508  23.781  1.00  0.00    -0.000 C 
BRANCH  12  13
ATOM     13  C   UNL     1      -4.883   9.137  24.475  1.00  0.00    -0.000 C 
BRANCH  13  14
ATOM     14  C   UNL     1      -4.565   9.241  25.974  1.00  0.00    -0.000 C 
BRANCH  14  15
ATOM     15  C   UNL     1      -3.952  10.610  26.311  1.00  0.00    -0.000 C 
BRANCH  15  16
ATOM     16  C   UNL     1      -3.273  10.632  27.690  1.00  0.00    -0.000 C 
BRANCH  16  17
ATOM     17  C   UNL     1      -2.071  11.586  27.741  1.00  0.00    -0.003 C 
ATOM     18  C   UNL     1      -2.179  12.663  26.666  1.00  0.00     0.004 C 
ENDBRANCH  16  17
ENDBRANCH  15  16
ENDBRANCH  14  15
ENDBRANCH  13  14
ENDBRANCH  12  13
ENDBRANCH  11  12
ENDBRANCH   1  11
TORSDOF 14
ENDMDL
