MODEL 1
REMARK VINA RESULT:    -5.237      0.000      0.000
REMARK INTER + INTRA:          -6.377
REMARK INTER:                  -6.156
REMARK INTRA:                  -0.221
REMARK UNBOUND:                -0.221
REMARK SMILES O=C([O-])C=Cc1ccc(O)c(O)c1
REMARK SMILES IDX 6 1 13 2 7 3 11 4 8 5 9 6 5 7 4 8 2 9 1 10 3 11 12 12 10 14
REMARK H PARENT 12 13 10 15
REMARK Flexibility Score: inf
ROOT
ATOM      1  C   UNL     1      13.249 -21.835  18.531  1.00  0.00    -0.022 A 
ATOM      2  C   UNL     1      14.456 -21.142  18.362  1.00  0.00     0.058 A 
ATOM      3  C   UNL     1      12.067 -21.111  18.741  1.00  0.00     0.012 A 
ATOM      4  C   UNL     1      14.502 -19.746  18.455  1.00  0.00     0.157 A 
ATOM      5  C   UNL     1      12.102 -19.719  18.837  1.00  0.00     0.051 A 
ATOM      6  C   UNL     1      13.309 -19.024  18.702  1.00  0.00     0.157 A 
ENDROOT
BRANCH   1   7
ATOM      7  C   UNL     1      13.229 -23.303  18.372  1.00  0.00     0.010 C 
ATOM      8  C   UNL     1      13.570 -24.192  19.317  1.00  0.00     0.025 C 
BRANCH   8   9
ATOM      9  C   UNL     1      14.202 -23.864  20.610  1.00  0.00     0.064 C 
ATOM     10  O   UNL     1      13.490 -23.818  21.648  1.00  0.00    -0.545 OA
ATOM     11  O   UNL     1      15.574 -23.676  20.722  1.00  0.00    -0.545 OA
ENDBRANCH   8   9
ENDBRANCH   1   7
BRANCH   4  12
ATOM     12  O   UNL     1      15.741 -19.121  18.294  1.00  0.00    -0.504 OA
ATOM     13  H   UNL     1      16.597 -19.612  18.078  1.00  0.00     0.293 HD
ENDBRANCH   4  12
BRANCH   6  14
ATOM     14  O   UNL     1      13.278 -17.633  18.815  1.00  0.00    -0.504 OA
ATOM     15  H   UNL     1      12.623 -17.128  19.395  1.00  0.00     0.293 HD
ENDBRANCH   6  14
TORSDOF 4
ENDMDL
MODEL 2
REMARK VINA RESULT:    -5.009      0.895      1.949
REMARK INTER + INTRA:          -6.109
REMARK INTER:                  -5.935
REMARK INTRA:                  -0.174
REMARK UNBOUND:                -0.221
REMARK SMILES O=C([O-])C=Cc1ccc(O)c(O)c1
REMARK SMILES IDX 6 1 13 2 7 3 11 4 8 5 9 6 5 7 4 8 2 9 1 10 3 11 12 12 10 14
REMARK H PARENT 12 13 10 15
REMARK Flexibility Score: inf
ROOT
ATOM      1  C   UNL     1      13.315 -22.076  18.480  1.00  0.00    -0.022 A 
ATOM      2  C   UNL     1      12.085 -21.416  18.616  1.00  0.00     0.058 A 
ATOM      3  C   UNL     1      14.497 -21.322  18.448  1.00  0.00     0.012 A 
ATOM      4  C   UNL     1      12.021 -20.018  18.665  1.00  0.00     0.157 A 
ATOM      5  C   UNL     1      14.444 -19.928  18.495  1.00  0.00     0.051 A 
ATOM      6  C   UNL     1      13.216 -19.263  18.598  1.00  0.00     0.157 A 
ENDROOT
BRANCH   1   7
ATOM      7  C   UNL     1      13.349 -23.552  18.486  1.00  0.00     0.010 C 
ATOM      8  C   UNL     1      13.706 -24.317  19.529  1.00  0.00     0.025 C 
BRANCH   8   9
ATOM      9  C   UNL     1      14.306 -23.824  20.785  1.00  0.00     0.064 C 
ATOM     10  O   UNL     1      13.570 -23.655  21.792  1.00  0.00    -0.545 OA
ATOM     11  O   UNL     1      15.674 -23.611  20.902  1.00  0.00    -0.545 OA
ENDBRANCH   8   9
ENDBRANCH   1   7
BRANCH   4  12
ATOM     12  O   UNL     1      10.761 -19.427  18.783  1.00  0.00    -0.504 OA
ATOM     13  H   UNL     1       9.977 -19.642  18.185  1.00  0.00     0.293 HD
ENDBRANCH   4  12
BRANCH   6  14
ATOM     14  O   UNL     1      13.231 -17.867  18.634  1.00  0.00    -0.504 OA
ATOM     15  H   UNL     1      13.755 -17.325  19.306  1.00  0.00     0.293 HD
ENDBRANCH   6  14
TORSDOF 4
ENDMDL
MODEL 3
REMARK VINA RESULT:    -4.851      2.092      2.829
REMARK INTER + INTRA:          -5.923
REMARK INTER:                  -5.641
REMARK INTRA:                  -0.282
REMARK UNBOUND:                -0.221
REMARK SMILES O=C([O-])C=Cc1ccc(O)c(O)c1
REMARK SMILES IDX 6 1 13 2 7 3 11 4 8 5 9 6 5 7 4 8 2 9 1 10 3 11 12 12 10 14
REMARK H PARENT 12 13 10 15
REMARK Flexibility Score: inf
ROOT
ATOM      1  C   UNL     1      14.540 -20.739  18.935  1.00  0.00    -0.022 A 
ATOM      2  C   UNL     1      14.433 -19.424  18.462  1.00  0.00     0.058 A 
ATOM      3  C   UNL     1      13.384 -21.525  19.043  1.00  0.00     0.012 A 
ATOM      4  C   UNL     1      13.184 -18.872  18.150  1.00  0.00     0.157 A 
ATOM      5  C   UNL     1      12.135 -20.985  18.736  1.00  0.00     0.051 A 
ATOM      6  C   UNL     1      12.018 -19.662  18.294  1.00  0.00     0.157 A 
ENDROOT
BRANCH   1   7
ATOM      7  C   UNL     1      15.878 -21.305  19.202  1.00  0.00     0.010 C 
ATOM      8  C   UNL     1      16.417 -21.485  20.418  1.00  0.00     0.025 C 
BRANCH   8   9
ATOM      9  C   UNL     1      15.854 -20.981  21.686  1.00  0.00     0.064 C 
ATOM     10  O   UNL     1      16.052 -19.782  22.012  1.00  0.00    -0.545 OA
ATOM     11  O   UNL     1      15.051 -21.778  22.493  1.00  0.00    -0.545 OA
ENDBRANCH   8   9
ENDBRANCH   1   7
BRANCH   4  12
ATOM     12  O   UNL     1      13.148 -17.550  17.701  1.00  0.00    -0.504 OA
ATOM     13  H   UNL     1      13.157 -16.745  18.311  1.00  0.00     0.293 HD
ENDBRANCH   4  12
BRANCH   6  14
ATOM     14  O   UNL     1      10.739 -19.179  18.009  1.00  0.00    -0.504 OA
ATOM     15  H   UNL     1      10.286 -18.440  18.529  1.00  0.00     0.293 HD
ENDBRANCH   6  14
TORSDOF 4
ENDMDL
MODEL 4
REMARK VINA RESULT:    -4.575      2.317      3.230
REMARK INTER + INTRA:          -5.598
REMARK INTER:                  -5.336
REMARK INTRA:                  -0.262
REMARK UNBOUND:                -0.221
REMARK SMILES O=C([O-])C=Cc1ccc(O)c(O)c1
REMARK SMILES IDX 6 1 13 2 7 3 11 4 8 5 9 6 5 7 4 8 2 9 1 10 3 11 12 12 10 14
REMARK H PARENT 12 13 10 15
REMARK Flexibility Score: inf
ROOT
ATOM      1  C   UNL     1      14.139 -20.864  18.734  1.00  0.00    -0.022 A 
ATOM      2  C   UNL     1      13.068 -21.729  18.999  1.00  0.00     0.058 A 
ATOM      3  C   UNL     1      13.875 -19.532  18.384  1.00  0.00     0.012 A 
ATOM      4  C   UNL     1      11.744 -21.294  18.866  1.00  0.00     0.157 A 
ATOM      5  C   UNL     1      12.559 -19.089  18.247  1.00  0.00     0.051 A 
ATOM      6  C   UNL     1      11.485 -19.957  18.479  1.00  0.00     0.157 A 
ENDROOT
BRANCH   1   7
ATOM      7  C   UNL     1      15.523 -21.342  18.938  1.00  0.00     0.010 C 
ATOM      8  C   UNL     1      16.151 -21.421  20.121  1.00  0.00     0.025 C 
BRANCH   8   9
ATOM      9  C   UNL     1      15.647 -20.873  21.395  1.00  0.00     0.064 C 
ATOM     10  O   UNL     1      14.954 -21.606  22.148  1.00  0.00    -0.545 OA
ATOM     11  O   UNL     1      15.978 -19.590  21.816  1.00  0.00    -0.545 OA
ENDBRANCH   8   9
ENDBRANCH   1   7
BRANCH   4  12
ATOM     12  O   UNL     1      10.726 -22.213  19.129  1.00  0.00    -0.504 OA
ATOM     13  H   UNL     1       9.810 -22.179  18.705  1.00  0.00     0.293 HD
ENDBRANCH   4  12
BRANCH   6  14
ATOM     14  O   UNL     1      10.192 -19.454  18.319  1.00  0.00    -0.504 OA
ATOM     15  H   UNL     1       9.353 -19.999  18.457  1.00  0.00     0.293 HD
ENDBRANCH   6  14
TORSDOF 4
ENDMDL
MODEL 5
REMARK VINA RESULT:    -4.559      1.725      4.832
REMARK INTER + INTRA:          -5.580
REMARK INTER:                  -5.312
REMARK INTRA:                  -0.267
REMARK UNBOUND:                -0.221
REMARK SMILES O=C([O-])C=Cc1ccc(O)c(O)c1
REMARK SMILES IDX 6 1 13 2 7 3 11 4 8 5 9 6 5 7 4 8 2 9 1 10 3 11 12 12 10 14
REMARK H PARENT 12 13 10 15
REMARK Flexibility Score: inf
ROOT
ATOM      1  C   UNL     1      14.420 -21.647  19.577  1.00  0.00    -0.022 A 
ATOM      2  C   UNL     1      14.835 -21.461  20.902  1.00  0.00     0.058 A 
ATOM      3  C   UNL     1      13.660 -22.779  19.248  1.00  0.00     0.012 A 
ATOM      4  C   UNL     1      14.547 -22.416  21.886  1.00  0.00     0.157 A 
ATOM      5  C   UNL     1      13.368 -23.736  20.221  1.00  0.00     0.051 A 
ATOM      6  C   UNL     1      13.808 -23.572  21.540  1.00  0.00     0.157 A 
ENDROOT
BRANCH   1   7
ATOM      7  C   UNL     1      14.695 -20.594  18.578  1.00  0.00     0.010 C 
ATOM      8  C   UNL     1      13.957 -19.489  18.390  1.00  0.00     0.025 C 
BRANCH   8   9
ATOM      9  C   UNL     1      12.644 -19.223  19.010  1.00  0.00     0.064 C 
ATOM     10  O   UNL     1      11.596 -19.465  18.357  1.00  0.00    -0.545 OA
ATOM     11  O   UNL     1      12.537 -18.779  20.322  1.00  0.00    -0.545 OA
ENDBRANCH   8   9
ENDBRANCH   1   7
BRANCH   4  12
ATOM     12  O   UNL     1      15.006 -22.175  23.183  1.00  0.00    -0.504 OA
ATOM     13  H   UNL     1      14.792 -21.343  23.713  1.00  0.00     0.293 HD
ENDBRANCH   4  12
BRANCH   6  14
ATOM     14  O   UNL     1      13.489 -24.569  22.463  1.00  0.00    -0.504 OA
ATOM     15  H   UNL     1      12.935 -25.385  22.244  1.00  0.00     0.293 HD
ENDBRANCH   6  14
TORSDOF 4
ENDMDL
MODEL 6
REMARK VINA RESULT:    -4.487      2.234      5.083
REMARK INTER + INTRA:          -5.494
REMARK INTER:                  -5.223
REMARK INTRA:                  -0.271
REMARK UNBOUND:                -0.221
REMARK SMILES O=C([O-])C=Cc1ccc(O)c(O)c1
REMARK SMILES IDX 6 1 13 2 7 3 11 4 8 5 9 6 5 7 4 8 2 9 1 10 3 11 12 12 10 14
REMARK H PARENT 12 13 10 15
REMARK Flexibility Score: inf
ROOT
ATOM      1  C   UNL     1      14.090 -22.438  20.249  1.00  0.00    -0.022 A 
ATOM      2  C   UNL     1      13.629 -23.623  20.838  1.00  0.00     0.058 A 
ATOM      3  C   UNL     1      14.898 -21.569  20.997  1.00  0.00     0.012 A 
ATOM      4  C   UNL     1      13.920 -23.922  22.175  1.00  0.00     0.157 A 
ATOM      5  C   UNL     1      15.192 -21.857  22.331  1.00  0.00     0.051 A 
ATOM      6  C   UNL     1      14.708 -23.024  22.934  1.00  0.00     0.157 A 
ENDROOT
BRANCH   1   7
ATOM      7  C   UNL     1      13.809 -22.182  18.821  1.00  0.00     0.010 C 
ATOM      8  C   UNL     1      12.884 -21.331  18.352  1.00  0.00     0.025 C 
BRANCH   8   9
ATOM      9  C   UNL     1      11.860 -20.646  19.166  1.00  0.00     0.064 C 
ATOM     10  O   UNL     1      12.121 -19.517  19.657  1.00  0.00    -0.545 OA
ATOM     11  O   UNL     1      10.592 -21.186  19.343  1.00  0.00    -0.545 OA
ENDBRANCH   8   9
ENDBRANCH   1   7
BRANCH   4  12
ATOM     12  O   UNL     1      13.414 -25.112  22.702  1.00  0.00    -0.504 OA
ATOM     13  H   UNL     1      13.378 -25.322  23.689  1.00  0.00     0.293 HD
ENDBRANCH   4  12
BRANCH   6  14
ATOM     14  O   UNL     1      15.033 -23.250  24.273  1.00  0.00    -0.504 OA
ATOM     15  H   UNL     1      14.831 -22.602  25.020  1.00  0.00     0.293 HD
ENDBRANCH   6  14
TORSDOF 4
ENDMDL
MODEL 7
REMARK VINA RESULT:    -4.465      3.641      6.807
REMARK INTER + INTRA:          -5.469
REMARK INTER:                  -5.212
REMARK INTRA:                  -0.256
REMARK UNBOUND:                -0.221
REMARK SMILES O=C([O-])C=Cc1ccc(O)c(O)c1
REMARK SMILES IDX 6 1 13 2 7 3 11 4 8 5 9 6 5 7 4 8 2 9 1 10 3 11 12 12 10 14
REMARK H PARENT 12 13 10 15
REMARK Flexibility Score: inf
ROOT
ATOM      1  C   UNL     1      15.180 -25.001  23.063  1.00  0.00    -0.022 A 
ATOM      2  C   UNL     1      14.145 -25.171  23.994  1.00  0.00     0.058 A 
ATOM      3  C   UNL     1      16.377 -24.393  23.472  1.00  0.00     0.012 A 
ATOM      4  C   UNL     1      14.272 -24.693  25.304  1.00  0.00     0.157 A 
ATOM      5  C   UNL     1      16.512 -23.913  24.775  1.00  0.00     0.051 A 
ATOM      6  C   UNL     1      15.470 -24.050  25.699  1.00  0.00     0.157 A 
ENDROOT
BRANCH   1   7
ATOM      7  C   UNL     1      15.033 -25.566  21.706  1.00  0.00     0.010 C 
ATOM      8  C   UNL     1      14.823 -24.855  20.588  1.00  0.00     0.025 C 
BRANCH   8   9
ATOM      9  C   UNL     1      14.515 -23.412  20.537  1.00  0.00     0.064 C 
ATOM     10  O   UNL     1      15.456 -22.586  20.412  1.00  0.00    -0.545 OA
ATOM     11  O   UNL     1      13.205 -22.948  20.551  1.00  0.00    -0.545 OA
ENDBRANCH   8   9
ENDBRANCH   1   7
BRANCH   4  12
ATOM     12  O   UNL     1      13.195 -24.881  26.174  1.00  0.00    -0.504 OA
ATOM     13  H   UNL     1      12.765 -24.140  26.709  1.00  0.00     0.293 HD
ENDBRANCH   4  12
BRANCH   6  14
ATOM     14  O   UNL     1      15.666 -23.543  26.985  1.00  0.00    -0.504 OA
ATOM     15  H   UNL     1      16.515 -23.666  27.517  1.00  0.00     0.293 HD
ENDBRANCH   6  14
TORSDOF 4
ENDMDL
MODEL 8
REMARK VINA RESULT:    -4.326      3.141      6.345
REMARK INTER + INTRA:          -5.305
REMARK INTER:                  -5.031
REMARK INTRA:                  -0.274
REMARK UNBOUND:                -0.221
REMARK SMILES O=C([O-])C=Cc1ccc(O)c(O)c1
REMARK SMILES IDX 6 1 13 2 7 3 11 4 8 5 9 6 5 7 4 8 2 9 1 10 3 11 12 12 10 14
REMARK H PARENT 12 13 10 15
REMARK Flexibility Score: inf
ROOT
ATOM      1  C   UNL     1      15.265 -23.810  22.424  1.00  0.00    -0.022 A 
ATOM      2  C   UNL     1      14.368 -24.883  22.520  1.00  0.00     0.058 A 
ATOM      3  C   UNL     1      15.655 -23.135  23.590  1.00  0.00     0.012 A 
ATOM      4  C   UNL     1      13.819 -25.251  23.754  1.00  0.00     0.157 A 
ATOM      5  C   UNL     1      15.112 -23.494  24.824  1.00  0.00     0.051 A 
ATOM      6  C   UNL     1      14.191 -24.544  24.922  1.00  0.00     0.157 A 
ENDROOT
BRANCH   1   7
ATOM      7  C   UNL     1      15.866 -23.485  21.114  1.00  0.00     0.010 C 
ATOM      8  C   UNL     1      15.366 -22.613  20.225  1.00  0.00     0.025 C 
BRANCH   8   9
ATOM      9  C   UNL     1      14.040 -21.971  20.309  1.00  0.00     0.064 C 
ATOM     10  O   UNL     1      13.963 -20.764  20.656  1.00  0.00    -0.545 OA
ATOM     11  O   UNL     1      12.881 -22.647  19.948  1.00  0.00    -0.545 OA
ENDBRANCH   8   9
ENDBRANCH   1   7
BRANCH   4  12
ATOM     12  O   UNL     1      12.918 -26.319  23.775  1.00  0.00    -0.504 OA
ATOM     13  H   UNL     1      12.850 -27.015  23.047  1.00  0.00     0.293 HD
ENDBRANCH   4  12
BRANCH   6  14
ATOM     14  O   UNL     1      13.680 -24.848  26.185  1.00  0.00    -0.504 OA
ATOM     15  H   UNL     1      14.213 -24.780  27.041  1.00  0.00     0.293 HD
ENDBRANCH   6  14
TORSDOF 4
ENDMDL
