MODEL 1
REMARK VINA RESULT:    -8.284      0.000      0.000
REMARK INTER + INTRA:         -10.296
REMARK INTER:                  -9.980
REMARK INTRA:                  -0.316
REMARK UNBOUND:                -0.316
REMARK SMILES O=c1c(O)c(-c2ccc(O)c(O)c2)oc2cc(O)cc(O)c12
REMARK SMILES IDX 5 1 3 2 2 3 1 4 22 5 20 6 19 7 17 8 16 9 15 10 14 11 6 12
REMARK SMILES IDX 7 13 8 14 9 15 13 16 11 17 10 18 12 20 4 22 21 24 18 26
REMARK H PARENT 10 19 12 21 4 23 21 25 18 27
REMARK Flexibility Score: inf
ROOT
ATOM      1  C   UNL     1      80.391 -26.723  84.607  1.00  0.00     0.180 A 
ATOM      2  C   UNL     1      81.679 -27.171  84.956  1.00  0.00     0.208 A 
ATOM      3  C   UNL     1      82.354 -26.542  86.014  1.00  0.00     0.238 A 
ATOM      4  O   UNL     1      83.504 -26.944  86.342  1.00  0.00    -0.285 OA
ATOM      5  C   UNL     1      81.741 -25.469  86.691  1.00  0.00     0.111 A 
ATOM      6  C   UNL     1      82.353 -24.780  87.766  1.00  0.00     0.134 A 
ATOM      7  C   UNL     1      81.681 -23.714  88.383  1.00  0.00     0.093 A 
ATOM      8  C   UNL     1      80.412 -23.325  87.947  1.00  0.00     0.123 A 
ATOM      9  C   UNL     1      79.801 -24.002  86.887  1.00  0.00     0.094 A 
ATOM     10  C   UNL     1      80.454 -25.067  86.260  1.00  0.00     0.146 A 
ATOM     11  O   UNL     1      79.850 -25.697  85.258  1.00  0.00    -0.452 OA
ENDROOT
BRANCH   1  12
ATOM     12  C   UNL     1      79.609 -27.345  83.515  1.00  0.00     0.025 A 
ATOM     13  C   UNL     1      79.792 -26.963  82.174  1.00  0.00     0.016 A 
ATOM     14  C   UNL     1      79.060 -27.581  81.157  1.00  0.00     0.051 A 
ATOM     15  C   UNL     1      78.146 -28.596  81.460  1.00  0.00     0.157 A 
ATOM     16  C   UNL     1      78.706 -28.378  83.813  1.00  0.00     0.062 A 
ATOM     17  C   UNL     1      77.969 -28.999  82.794  1.00  0.00     0.158 A 
BRANCH  15  18
ATOM     18  O   UNL     1      77.427 -29.192  80.424  1.00  0.00    -0.504 OA
ATOM     19  H   UNL     1      77.830 -29.911  79.835  1.00  0.00     0.293 HD
ENDBRANCH  15  18
BRANCH  17  20
ATOM     20  O   UNL     1      77.064 -30.014  83.101  1.00  0.00    -0.504 OA
ATOM     21  H   UNL     1      76.185 -29.818  83.566  1.00  0.00     0.293 HD
ENDBRANCH  17  20
ENDBRANCH   1  12
BRANCH   2  22
ATOM     22  O   UNL     1      82.286 -28.205  84.236  1.00  0.00    -0.502 OA
ATOM     23  H   UNL     1      81.771 -28.791  83.590  1.00  0.00     0.293 HD
ENDBRANCH   2  22
BRANCH   6  24
ATOM     24  O   UNL     1      83.620 -25.144  88.223  1.00  0.00    -0.507 OA
ATOM     25  H   UNL     1      84.428 -25.146  87.612  1.00  0.00     0.293 HD
ENDBRANCH   6  24
BRANCH   8  26
ATOM     26  O   UNL     1      79.766 -22.262  88.576  1.00  0.00    -0.508 OA
ATOM     27  H   UNL     1      78.888 -22.392  89.065  1.00  0.00     0.293 HD
ENDBRANCH   8  26
TORSDOF 6
ENDMDL
MODEL 2
REMARK VINA RESULT:    -8.031      3.011      4.760
REMARK INTER + INTRA:          -9.990
REMARK INTER:                  -9.701
REMARK INTRA:                  -0.289
REMARK UNBOUND:                -0.316
REMARK SMILES O=c1c(O)c(-c2ccc(O)c(O)c2)oc2cc(O)cc(O)c12
REMARK SMILES IDX 5 1 3 2 2 3 1 4 22 5 20 6 19 7 17 8 16 9 15 10 14 11 6 12
REMARK SMILES IDX 7 13 8 14 9 15 13 16 11 17 10 18 12 20 4 22 21 24 18 26
REMARK H PARENT 10 19 12 21 4 23 21 25 18 27
REMARK Flexibility Score: inf
ROOT
ATOM      1  C   UNL     1      78.991 -25.793  86.320  1.00  0.00     0.180 A 
ATOM      2  C   UNL     1      79.598 -24.739  87.028  1.00  0.00     0.208 A 
ATOM      3  C   UNL     1      80.996 -24.722  87.155  1.00  0.00     0.238 A 
ATOM      4  O   UNL     1      81.551 -23.776  87.779  1.00  0.00    -0.285 OA
ATOM      5  C   UNL     1      81.759 -25.764  86.591  1.00  0.00     0.111 A 
ATOM      6  C   UNL     1      83.171 -25.824  86.676  1.00  0.00     0.134 A 
ATOM      7  C   UNL     1      83.859 -26.900  86.096  1.00  0.00     0.093 A 
ATOM      8  C   UNL     1      83.164 -27.915  85.434  1.00  0.00     0.123 A 
ATOM      9  C   UNL     1      81.770 -27.862  85.345  1.00  0.00     0.094 A 
ATOM     10  C   UNL     1      81.066 -26.797  85.916  1.00  0.00     0.146 A 
ATOM     11  O   UNL     1      79.742 -26.767  85.814  1.00  0.00    -0.452 OA
ENDROOT
BRANCH   1  12
ATOM     12  C   UNL     1      77.525 -25.873  86.127  1.00  0.00     0.025 A 
ATOM     13  C   UNL     1      76.677 -26.330  87.151  1.00  0.00     0.016 A 
ATOM     14  C   UNL     1      75.294 -26.373  86.956  1.00  0.00     0.051 A 
ATOM     15  C   UNL     1      74.737 -25.951  85.744  1.00  0.00     0.157 A 
ATOM     16  C   UNL     1      76.961 -25.430  84.920  1.00  0.00     0.062 A 
ATOM     17  C   UNL     1      75.574 -25.474  84.721  1.00  0.00     0.158 A 
BRANCH  15  18
ATOM     18  O   UNL     1      73.354 -26.009  85.577  1.00  0.00    -0.504 OA
ATOM     19  H   UNL     1      72.911 -25.825  84.685  1.00  0.00     0.293 HD
ENDBRANCH  15  18
BRANCH  17  20
ATOM     20  O   UNL     1      75.024 -25.046  83.514  1.00  0.00    -0.504 OA
ATOM     21  H   UNL     1      75.256 -24.142  83.117  1.00  0.00     0.293 HD
ENDBRANCH  17  20
ENDBRANCH   1  12
BRANCH   2  22
ATOM     22  O   UNL     1      78.815 -23.744  87.621  1.00  0.00    -0.502 OA
ATOM     23  H   UNL     1      78.140 -23.200  87.097  1.00  0.00     0.293 HD
ENDBRANCH   2  22
BRANCH   6  24
ATOM     24  O   UNL     1      83.894 -24.826  87.332  1.00  0.00    -0.507 OA
ATOM     25  H   UNL     1      83.435 -24.104  87.874  1.00  0.00     0.293 HD
ENDBRANCH   6  24
BRANCH   8  26
ATOM     26  O   UNL     1      83.871 -28.974  84.867  1.00  0.00    -0.508 OA
ATOM     27  H   UNL     1      83.418 -29.851  84.640  1.00  0.00     0.293 HD
ENDBRANCH   8  26
TORSDOF 6
ENDMDL
MODEL 3
REMARK VINA RESULT:    -7.896      3.115      4.055
REMARK INTER + INTRA:          -9.828
REMARK INTER:                  -9.758
REMARK INTRA:                  -0.071
REMARK UNBOUND:                -0.316
REMARK SMILES O=c1c(O)c(-c2ccc(O)c(O)c2)oc2cc(O)cc(O)c12
REMARK SMILES IDX 5 1 3 2 2 3 1 4 22 5 20 6 19 7 17 8 16 9 15 10 14 11 6 12
REMARK SMILES IDX 7 13 8 14 9 15 13 16 11 17 10 18 12 20 4 22 21 24 18 26
REMARK H PARENT 10 19 12 21 4 23 21 25 18 27
REMARK Flexibility Score: inf
ROOT
ATOM      1  C   UNL     1      78.633 -26.389  85.702  1.00  0.00     0.180 A 
ATOM      2  C   UNL     1      79.297 -27.285  84.843  1.00  0.00     0.208 A 
ATOM      3  C   UNL     1      80.690 -27.420  84.946  1.00  0.00     0.238 A 
ATOM      4  O   UNL     1      81.293 -28.228  84.189  1.00  0.00    -0.285 OA
ATOM      5  C   UNL     1      81.396 -26.645  85.889  1.00  0.00     0.111 A 
ATOM      6  C   UNL     1      82.801 -26.719  86.055  1.00  0.00     0.134 A 
ATOM      7  C   UNL     1      83.432 -25.908  87.009  1.00  0.00     0.093 A 
ATOM      8  C   UNL     1      82.688 -25.027  87.800  1.00  0.00     0.123 A 
ATOM      9  C   UNL     1      81.301 -24.951  87.642  1.00  0.00     0.094 A 
ATOM     10  C   UNL     1      80.653 -25.752  86.697  1.00  0.00     0.146 A 
ATOM     11  O   UNL     1      79.334 -25.664  86.569  1.00  0.00    -0.452 OA
ENDROOT
BRANCH   1  12
ATOM     12  C   UNL     1      77.164 -26.204  85.667  1.00  0.00     0.025 A 
ATOM     13  C   UNL     1      76.376 -26.391  86.816  1.00  0.00     0.016 A 
ATOM     14  C   UNL     1      74.995 -26.188  86.766  1.00  0.00     0.051 A 
ATOM     15  C   UNL     1      74.382 -25.784  85.575  1.00  0.00     0.157 A 
ATOM     16  C   UNL     1      76.549 -25.778  84.479  1.00  0.00     0.062 A 
ATOM     17  C   UNL     1      75.162 -25.575  84.426  1.00  0.00     0.158 A 
BRANCH  15  18
ATOM     18  O   UNL     1      73.001 -25.592  85.555  1.00  0.00    -0.504 OA
ATOM     19  H   UNL     1      72.407 -26.026  84.858  1.00  0.00     0.293 HD
ENDBRANCH  15  18
BRANCH  17  20
ATOM     20  O   UNL     1      74.559 -25.166  83.238  1.00  0.00    -0.504 OA
ATOM     21  H   UNL     1      74.379 -25.817  82.482  1.00  0.00     0.293 HD
ENDBRANCH  17  20
ENDBRANCH   1  12
BRANCH   2  22
ATOM     22  O   UNL     1      78.579 -28.005  83.883  1.00  0.00    -0.502 OA
ATOM     23  H   UNL     1      78.661 -27.818  82.891  1.00  0.00     0.293 HD
ENDBRANCH   2  22
BRANCH   6  24
ATOM     24  O   UNL     1      83.571 -27.587  85.280  1.00  0.00    -0.507 OA
ATOM     25  H   UNL     1      84.071 -27.267  84.459  1.00  0.00     0.293 HD
ENDBRANCH   6  24
BRANCH   8  26
ATOM     26  O   UNL     1      83.340 -24.232  88.741  1.00  0.00    -0.508 OA
ATOM     27  H   UNL     1      83.089 -24.260  89.721  1.00  0.00     0.293 HD
ENDBRANCH   8  26
TORSDOF 6
ENDMDL
MODEL 4
REMARK VINA RESULT:    -7.811      1.167      2.842
REMARK INTER + INTRA:          -9.725
REMARK INTER:                  -9.637
REMARK INTRA:                  -0.089
REMARK UNBOUND:                -0.316
REMARK SMILES O=c1c(O)c(-c2ccc(O)c(O)c2)oc2cc(O)cc(O)c12
REMARK SMILES IDX 5 1 3 2 2 3 1 4 22 5 20 6 19 7 17 8 16 9 15 10 14 11 6 12
REMARK SMILES IDX 7 13 8 14 9 15 13 16 11 17 10 18 12 20 4 22 21 24 18 26
REMARK H PARENT 10 19 12 21 4 23 21 25 18 27
REMARK Flexibility Score: inf
ROOT
ATOM      1  C   UNL     1      79.580 -26.109  84.587  1.00  0.00     0.180 A 
ATOM      2  C   UNL     1      78.683 -25.301  85.312  1.00  0.00     0.208 A 
ATOM      3  C   UNL     1      79.175 -24.519  86.368  1.00  0.00     0.238 A 
ATOM      4  O   UNL     1      78.381 -23.783  87.017  1.00  0.00    -0.285 OA
ATOM      5  C   UNL     1      80.545 -24.571  86.695  1.00  0.00     0.111 A 
ATOM      6  C   UNL     1      81.120 -23.817  87.746  1.00  0.00     0.134 A 
ATOM      7  C   UNL     1      82.492 -23.930  88.015  1.00  0.00     0.093 A 
ATOM      8  C   UNL     1      83.298 -24.781  87.255  1.00  0.00     0.123 A 
ATOM      9  C   UNL     1      82.737 -25.528  86.215  1.00  0.00     0.094 A 
ATOM     10  C   UNL     1      81.372 -25.428  85.930  1.00  0.00     0.146 A 
ATOM     11  O   UNL     1      80.864 -26.144  84.933  1.00  0.00    -0.452 OA
ENDROOT
BRANCH   1  12
ATOM     12  C   UNL     1      79.143 -26.948  83.449  1.00  0.00     0.025 A 
ATOM     13  C   UNL     1      79.712 -26.802  82.171  1.00  0.00     0.016 A 
ATOM     14  C   UNL     1      79.301 -27.621  81.117  1.00  0.00     0.051 A 
ATOM     15  C   UNL     1      78.327 -28.605  81.323  1.00  0.00     0.157 A 
ATOM     16  C   UNL     1      78.181 -27.950  83.657  1.00  0.00     0.062 A 
ATOM     17  C   UNL     1      77.766 -28.772  82.600  1.00  0.00     0.158 A 
BRANCH  15  18
ATOM     18  O   UNL     1      77.935 -29.405  80.251  1.00  0.00    -0.504 OA
ATOM     19  H   UNL     1      77.405 -30.259  80.382  1.00  0.00     0.293 HD
ENDBRANCH  15  18
BRANCH  17  20
ATOM     20  O   UNL     1      76.800 -29.754  82.814  1.00  0.00    -0.504 OA
ATOM     21  H   UNL     1      76.101 -29.662  83.542  1.00  0.00     0.293 HD
ENDBRANCH  17  20
ENDBRANCH   1  12
BRANCH   2  22
ATOM     22  O   UNL     1      77.320 -25.305  85.000  1.00  0.00    -0.502 OA
ATOM     23  H   UNL     1      76.870 -24.534  84.523  1.00  0.00     0.293 HD
ENDBRANCH   2  22
BRANCH   6  24
ATOM     24  O   UNL     1      80.341 -22.959  88.524  1.00  0.00    -0.507 OA
ATOM     25  H   UNL     1      80.755 -22.219  89.080  1.00  0.00     0.293 HD
ENDBRANCH   6  24
BRANCH   8  26
ATOM     26  O   UNL     1      84.659 -24.876  87.543  1.00  0.00    -0.508 OA
ATOM     27  H   UNL     1      85.339 -25.077  86.820  1.00  0.00     0.293 HD
ENDBRANCH   8  26
TORSDOF 6
ENDMDL
MODEL 5
REMARK VINA RESULT:    -7.529      2.457      6.594
REMARK INTER + INTRA:          -9.385
REMARK INTER:                  -9.064
REMARK INTRA:                  -0.321
REMARK UNBOUND:                -0.316
REMARK SMILES O=c1c(O)c(-c2ccc(O)c(O)c2)oc2cc(O)cc(O)c12
REMARK SMILES IDX 5 1 3 2 2 3 1 4 22 5 20 6 19 7 17 8 16 9 15 10 14 11 6 12
REMARK SMILES IDX 7 13 8 14 9 15 13 16 11 17 10 18 12 20 4 22 21 24 18 26
REMARK H PARENT 10 19 12 21 4 23 21 25 18 27
REMARK Flexibility Score: inf
ROOT
ATOM      1  C   UNL     1      81.717 -25.609  86.610  1.00  0.00     0.180 A 
ATOM      2  C   UNL     1      81.604 -26.854  85.963  1.00  0.00     0.208 A 
ATOM      3  C   UNL     1      80.360 -27.235  85.436  1.00  0.00     0.238 A 
ATOM      4  O   UNL     1      80.251 -28.344  84.843  1.00  0.00    -0.285 OA
ATOM      5  C   UNL     1      79.250 -26.379  85.580  1.00  0.00     0.111 A 
ATOM      6  C   UNL     1      77.962 -26.689  85.081  1.00  0.00     0.134 A 
ATOM      7  C   UNL     1      76.905 -25.788  85.273  1.00  0.00     0.093 A 
ATOM      8  C   UNL     1      77.109 -24.585  85.954  1.00  0.00     0.123 A 
ATOM      9  C   UNL     1      78.379 -24.272  86.449  1.00  0.00     0.094 A 
ATOM     10  C   UNL     1      79.446 -25.156  86.266  1.00  0.00     0.146 A 
ATOM     11  O   UNL     1      80.644 -24.834  86.742  1.00  0.00    -0.452 OA
ENDROOT
BRANCH   1  12
ATOM     12  C   UNL     1      82.997 -25.128  87.177  1.00  0.00     0.025 A 
ATOM     13  C   UNL     1      83.968 -24.512  86.368  1.00  0.00     0.016 A 
ATOM     14  C   UNL     1      85.160 -24.043  86.928  1.00  0.00     0.051 A 
ATOM     15  C   UNL     1      85.394 -24.171  88.301  1.00  0.00     0.157 A 
ATOM     16  C   UNL     1      83.226 -25.235  88.557  1.00  0.00     0.062 A 
ATOM     17  C   UNL     1      84.422 -24.767  89.121  1.00  0.00     0.158 A 
BRANCH  15  18
ATOM     18  O   UNL     1      86.594 -23.696  88.830  1.00  0.00    -0.504 OA
ATOM     19  H   UNL     1      87.435 -24.261  88.846  1.00  0.00     0.293 HD
ENDBRANCH  15  18
BRANCH  17  20
ATOM     20  O   UNL     1      84.646 -24.891  90.492  1.00  0.00    -0.504 OA
ATOM     21  H   UNL     1      84.213 -24.263  91.159  1.00  0.00     0.293 HD
ENDBRANCH  17  20
ENDBRANCH   1  12
BRANCH   2  22
ATOM     22  O   UNL     1      82.708 -27.707  85.876  1.00  0.00    -0.502 OA
ATOM     23  H   UNL     1      82.861 -28.318  85.084  1.00  0.00     0.293 HD
ENDBRANCH   2  22
BRANCH   6  24
ATOM     24  O   UNL     1      77.725 -27.883  84.398  1.00  0.00    -0.507 OA
ATOM     25  H   UNL     1      77.122 -28.604  84.777  1.00  0.00     0.293 HD
ENDBRANCH   6  24
BRANCH   8  26
ATOM     26  O   UNL     1      76.042 -23.707  86.133  1.00  0.00    -0.508 OA
ATOM     27  H   UNL     1      75.760 -23.398  87.055  1.00  0.00     0.293 HD
ENDBRANCH   8  26
TORSDOF 6
ENDMDL
MODEL 6
REMARK VINA RESULT:    -7.352      2.510      6.551
REMARK INTER + INTRA:          -9.173
REMARK INTER:                  -8.848
REMARK INTRA:                  -0.324
REMARK UNBOUND:                -0.316
REMARK SMILES O=c1c(O)c(-c2ccc(O)c(O)c2)oc2cc(O)cc(O)c12
REMARK SMILES IDX 5 1 3 2 2 3 1 4 22 5 20 6 19 7 17 8 16 9 15 10 14 11 6 12
REMARK SMILES IDX 7 13 8 14 9 15 13 16 11 17 10 18 12 20 4 22 21 24 18 26
REMARK H PARENT 10 19 12 21 4 23 21 25 18 27
REMARK Flexibility Score: inf
ROOT
ATOM      1  C   UNL     1      80.321 -25.915  85.909  1.00  0.00     0.180 A 
ATOM      2  C   UNL     1      80.378 -26.690  84.734  1.00  0.00     0.208 A 
ATOM      3  C   UNL     1      79.183 -26.996  84.064  1.00  0.00     0.238 A 
ATOM      4  O   UNL     1      79.224 -27.679  83.004  1.00  0.00    -0.285 OA
ATOM      5  C   UNL     1      77.955 -26.543  84.586  1.00  0.00     0.111 A 
ATOM      6  C   UNL     1      76.707 -26.810  83.974  1.00  0.00     0.134 A 
ATOM      7  C   UNL     1      75.527 -26.331  84.561  1.00  0.00     0.093 A 
ATOM      8  C   UNL     1      75.570 -25.591  85.746  1.00  0.00     0.123 A 
ATOM      9  C   UNL     1      76.799 -25.323  86.355  1.00  0.00     0.094 A 
ATOM     10  C   UNL     1      77.987 -25.790  85.785  1.00  0.00     0.146 A 
ATOM     11  O   UNL     1      79.143 -25.518  86.380  1.00  0.00    -0.452 OA
ENDROOT
BRANCH   1  12
ATOM     12  C   UNL     1      81.537 -25.535  86.662  1.00  0.00     0.025 A 
ATOM     13  C   UNL     1      82.073 -26.373  87.656  1.00  0.00     0.016 A 
ATOM     14  C   UNL     1      83.236 -26.006  88.338  1.00  0.00     0.051 A 
ATOM     15  C   UNL     1      83.887 -24.806  88.031  1.00  0.00     0.157 A 
ATOM     16  C   UNL     1      82.205 -24.343  86.342  1.00  0.00     0.062 A 
ATOM     17  C   UNL     1      83.371 -23.971  87.026  1.00  0.00     0.158 A 
BRANCH  15  18
ATOM     18  O   UNL     1      85.044 -24.465  88.731  1.00  0.00    -0.504 OA
ATOM     19  H   UNL     1      85.852 -25.076  88.766  1.00  0.00     0.293 HD
ENDBRANCH  15  18
BRANCH  17  20
ATOM     20  O   UNL     1      84.019 -22.778  86.711  1.00  0.00    -0.504 OA
ATOM     21  H   UNL     1      84.945 -22.770  86.300  1.00  0.00     0.293 HD
ENDBRANCH  17  20
ENDBRANCH   1  12
BRANCH   2  22
ATOM     22  O   UNL     1      81.604 -27.169  84.264  1.00  0.00    -0.502 OA
ATOM     23  H   UNL     1      81.864 -28.146  84.325  1.00  0.00     0.293 HD
ENDBRANCH   2  22
BRANCH   6  24
ATOM     24  O   UNL     1      76.630 -27.546  82.791  1.00  0.00    -0.507 OA
ATOM     25  H   UNL     1      76.367 -28.525  82.789  1.00  0.00     0.293 HD
ENDBRANCH   6  24
BRANCH   8  26
ATOM     26  O   UNL     1      74.382 -25.128  86.310  1.00  0.00    -0.508 OA
ATOM     27  H   UNL     1      73.578 -25.733  86.420  1.00  0.00     0.293 HD
ENDBRANCH   8  26
TORSDOF 6
ENDMDL
MODEL 7
REMARK VINA RESULT:    -7.346      2.408      6.353
REMARK INTER + INTRA:          -9.165
REMARK INTER:                  -8.865
REMARK INTRA:                  -0.301
REMARK UNBOUND:                -0.316
REMARK SMILES O=c1c(O)c(-c2ccc(O)c(O)c2)oc2cc(O)cc(O)c12
REMARK SMILES IDX 5 1 3 2 2 3 1 4 22 5 20 6 19 7 17 8 16 9 15 10 14 11 6 12
REMARK SMILES IDX 7 13 8 14 9 15 13 16 11 17 10 18 12 20 4 22 21 24 18 26
REMARK H PARENT 10 19 12 21 4 23 21 25 18 27
REMARK Flexibility Score: inf
ROOT
ATOM      1  C   UNL     1      80.412 -25.888  85.579  1.00  0.00     0.180 A 
ATOM      2  C   UNL     1      80.431 -26.797  84.505  1.00  0.00     0.208 A 
ATOM      3  C   UNL     1      79.222 -27.135  83.878  1.00  0.00     0.238 A 
ATOM      4  O   UNL     1      79.230 -27.940  82.906  1.00  0.00    -0.285 OA
ATOM      5  C   UNL     1      78.015 -26.576  84.345  1.00  0.00     0.111 A 
ATOM      6  C   UNL     1      76.753 -26.865  83.772  1.00  0.00     0.134 A 
ATOM      7  C   UNL     1      75.597 -26.275  84.300  1.00  0.00     0.093 A 
ATOM      8  C   UNL     1      75.675 -25.403  85.389  1.00  0.00     0.123 A 
ATOM      9  C   UNL     1      76.919 -25.112  85.960  1.00  0.00     0.094 A 
ATOM     10  C   UNL     1      78.084 -25.689  85.446  1.00  0.00     0.146 A 
ATOM     11  O   UNL     1      79.253 -25.393  86.003  1.00  0.00    -0.452 OA
ENDROOT
BRANCH   1  12
ATOM     12  C   UNL     1      81.647 -25.469  86.280  1.00  0.00     0.025 A 
ATOM     13  C   UNL     1      82.258 -24.232  86.008  1.00  0.00     0.016 A 
ATOM     14  C   UNL     1      83.409 -23.846  86.699  1.00  0.00     0.051 A 
ATOM     15  C   UNL     1      83.960 -24.680  87.678  1.00  0.00     0.157 A 
ATOM     16  C   UNL     1      82.190 -26.294  87.278  1.00  0.00     0.062 A 
ATOM     17  C   UNL     1      83.346 -25.910  87.971  1.00  0.00     0.158 A 
BRANCH  15  18
ATOM     18  O   UNL     1      85.112 -24.269  88.348  1.00  0.00    -0.504 OA
ATOM     19  H   UNL     1      85.765 -23.611  87.941  1.00  0.00     0.293 HD
ENDBRANCH  15  18
BRANCH  17  20
ATOM     20  O   UNL     1      83.886 -26.742  88.950  1.00  0.00    -0.504 OA
ATOM     21  H   UNL     1      83.910 -27.749  88.836  1.00  0.00     0.293 HD
ENDBRANCH  17  20
ENDBRANCH   1  12
BRANCH   2  22
ATOM     22  O   UNL     1      81.635 -27.376  84.092  1.00  0.00    -0.502 OA
ATOM     23  H   UNL     1      82.176 -27.989  84.690  1.00  0.00     0.293 HD
ENDBRANCH   2  22
BRANCH   6  24
ATOM     24  O   UNL     1      76.641 -27.733  82.685  1.00  0.00    -0.507 OA
ATOM     25  H   UNL     1      77.439 -28.244  82.325  1.00  0.00     0.293 HD
ENDBRANCH   6  24
BRANCH   8  26
ATOM     26  O   UNL     1      74.510 -24.830  85.896  1.00  0.00    -0.508 OA
ATOM     27  H   UNL     1      73.717 -24.630  85.300  1.00  0.00     0.293 HD
ENDBRANCH   8  26
TORSDOF 6
ENDMDL
MODEL 8
REMARK VINA RESULT:    -7.320      1.851      7.192
REMARK INTER + INTRA:          -9.134
REMARK INTER:                  -8.835
REMARK INTRA:                  -0.299
REMARK UNBOUND:                -0.316
REMARK SMILES O=c1c(O)c(-c2ccc(O)c(O)c2)oc2cc(O)cc(O)c12
REMARK SMILES IDX 5 1 3 2 2 3 1 4 22 5 20 6 19 7 17 8 16 9 15 10 14 11 6 12
REMARK SMILES IDX 7 13 8 14 9 15 13 16 11 17 10 18 12 20 4 22 21 24 18 26
REMARK H PARENT 10 19 12 21 4 23 21 25 18 27
REMARK Flexibility Score: inf
ROOT
ATOM      1  C   UNL     1      80.111 -26.094  85.759  1.00  0.00     0.180 A 
ATOM      2  C   UNL     1      78.813 -25.709  86.142  1.00  0.00     0.208 A 
ATOM      3  C   UNL     1      77.719 -26.156  85.384  1.00  0.00     0.238 A 
ATOM      4  O   UNL     1      76.551 -25.826  85.727  1.00  0.00    -0.285 OA
ATOM      5  C   UNL     1      77.942 -26.961  84.249  1.00  0.00     0.111 A 
ATOM      6  C   UNL     1      76.896 -27.451  83.430  1.00  0.00     0.134 A 
ATOM      7  C   UNL     1      77.200 -28.240  82.311  1.00  0.00     0.093 A 
ATOM      8  C   UNL     1      78.526 -28.547  81.995  1.00  0.00     0.123 A 
ATOM      9  C   UNL     1      79.563 -28.068  82.800  1.00  0.00     0.094 A 
ATOM     10  C   UNL     1      79.281 -27.281  83.921  1.00  0.00     0.146 A 
ATOM     11  O   UNL     1      80.284 -26.841  84.673  1.00  0.00    -0.452 OA
ENDROOT
BRANCH   1  12
ATOM     12  C   UNL     1      81.313 -25.678  86.517  1.00  0.00     0.025 A 
ATOM     13  C   UNL     1      81.954 -26.554  87.410  1.00  0.00     0.016 A 
ATOM     14  C   UNL     1      83.101 -26.149  88.096  1.00  0.00     0.051 A 
ATOM     15  C   UNL     1      83.633 -24.871  87.893  1.00  0.00     0.157 A 
ATOM     16  C   UNL     1      81.861 -24.404  86.299  1.00  0.00     0.062 A 
ATOM     17  C   UNL     1      83.012 -23.994  86.988  1.00  0.00     0.158 A 
BRANCH  15  18
ATOM     18  O   UNL     1      84.777 -24.494  88.595  1.00  0.00    -0.504 OA
ATOM     19  H   UNL     1      84.880 -24.665  89.588  1.00  0.00     0.293 HD
ENDBRANCH  15  18
BRANCH  17  20
ATOM     20  O   UNL     1      83.540 -22.722  86.776  1.00  0.00    -0.504 OA
ATOM     21  H   UNL     1      84.278 -22.349  87.363  1.00  0.00     0.293 HD
ENDBRANCH  17  20
ENDBRANCH   1  12
BRANCH   2  22
ATOM     22  O   UNL     1      78.622 -24.869  87.244  1.00  0.00    -0.502 OA
ATOM     23  H   UNL     1      77.951 -25.074  87.973  1.00  0.00     0.293 HD
ENDBRANCH   2  22
BRANCH   6  24
ATOM     24  O   UNL     1      75.562 -27.161  83.718  1.00  0.00    -0.507 OA
ATOM     25  H   UNL     1      75.257 -26.220  83.941  1.00  0.00     0.293 HD
ENDBRANCH   6  24
BRANCH   8  26
ATOM     26  O   UNL     1      78.801 -29.332  80.876  1.00  0.00    -0.508 OA
ATOM     27  H   UNL     1      78.167 -29.368  80.087  1.00  0.00     0.293 HD
ENDBRANCH   8  26
TORSDOF 6
ENDMDL
MODEL 9
REMARK VINA RESULT:    -7.305      1.775      7.070
REMARK INTER + INTRA:          -9.115
REMARK INTER:                  -8.806
REMARK INTRA:                  -0.310
REMARK UNBOUND:                -0.316
REMARK SMILES O=c1c(O)c(-c2ccc(O)c(O)c2)oc2cc(O)cc(O)c12
REMARK SMILES IDX 5 1 3 2 2 3 1 4 22 5 20 6 19 7 17 8 16 9 15 10 14 11 6 12
REMARK SMILES IDX 7 13 8 14 9 15 13 16 11 17 10 18 12 20 4 22 21 24 18 26
REMARK H PARENT 10 19 12 21 4 23 21 25 18 27
REMARK Flexibility Score: inf
ROOT
ATOM      1  C   UNL     1      80.223 -26.140  85.576  1.00  0.00     0.180 A 
ATOM      2  C   UNL     1      78.894 -25.918  85.986  1.00  0.00     0.208 A 
ATOM      3  C   UNL     1      77.847 -26.391  85.180  1.00  0.00     0.238 A 
ATOM      4  O   UNL     1      76.653 -26.207  85.544  1.00  0.00    -0.285 OA
ATOM      5  C   UNL     1      78.142 -27.057  83.973  1.00  0.00     0.111 A 
ATOM      6  C   UNL     1      77.146 -27.562  83.103  1.00  0.00     0.134 A 
ATOM      7  C   UNL     1      77.521 -28.206  81.915  1.00  0.00     0.093 A 
ATOM      8  C   UNL     1      78.870 -28.355  81.581  1.00  0.00     0.123 A 
ATOM      9  C   UNL     1      79.858 -27.860  82.437  1.00  0.00     0.094 A 
ATOM     10  C   UNL     1      79.505 -27.216  83.626  1.00  0.00     0.146 A 
ATOM     11  O   UNL     1      80.463 -26.759  84.424  1.00  0.00    -0.452 OA
ENDROOT
BRANCH   1  12
ATOM     12  C   UNL     1      81.381 -25.688  86.380  1.00  0.00     0.025 A 
ATOM     13  C   UNL     1      81.852 -24.365  86.304  1.00  0.00     0.016 A 
ATOM     14  C   UNL     1      82.932 -23.954  87.090  1.00  0.00     0.051 A 
ATOM     15  C   UNL     1      83.549 -24.850  87.969  1.00  0.00     0.157 A 
ATOM     16  C   UNL     1      81.989 -26.579  87.279  1.00  0.00     0.062 A 
ATOM     17  C   UNL     1      83.074 -26.169  88.066  1.00  0.00     0.158 A 
BRANCH  15  18
ATOM     18  O   UNL     1      84.627 -24.411  88.738  1.00  0.00    -0.504 OA
ATOM     19  H   UNL     1      85.422 -23.936  88.327  1.00  0.00     0.293 HD
ENDBRANCH  15  18
BRANCH  17  20
ATOM     20  O   UNL     1      83.680 -27.065  88.946  1.00  0.00    -0.504 OA
ATOM     21  H   UNL     1      83.850 -28.030  88.686  1.00  0.00     0.293 HD
ENDBRANCH  17  20
ENDBRANCH   1  12
BRANCH   2  22
ATOM     22  O   UNL     1      78.627 -25.211  87.162  1.00  0.00    -0.502 OA
ATOM     23  H   UNL     1      78.021 -25.573  87.887  1.00  0.00     0.293 HD
ENDBRANCH   2  22
BRANCH   6  24
ATOM     24  O   UNL     1      75.791 -27.428  83.408  1.00  0.00    -0.507 OA
ATOM     25  H   UNL     1      75.387 -27.846  84.238  1.00  0.00     0.293 HD
ENDBRANCH   6  24
BRANCH   8  26
ATOM     26  O   UNL     1      79.215 -28.999  80.394  1.00  0.00    -0.508 OA
ATOM     27  H   UNL     1      80.063 -29.548  80.318  1.00  0.00     0.293 HD
ENDBRANCH   8  26
TORSDOF 6
ENDMDL
