MODEL 1
REMARK VINA RESULT:    -4.752      0.000      0.000
REMARK INTER + INTRA:          -9.225
REMARK INTER:                  -8.086
REMARK INTRA:                  -1.139
REMARK UNBOUND:                -1.139
REMARK SMILES CCCCCCCCCCCCCC(=O)[O-]
REMARK SMILES IDX 8 1 9 2 10 3 11 4 12 5 13 6 14 7 15 8 16 9 7 10 6 11 5 12
REMARK SMILES IDX 4 13 3 14 2 15 1 16
REMARK H PARENT
REMARK Flexibility Score: inf
ROOT
ATOM      1  C   UNL     1       4.763 -35.959  22.201  1.00  0.00     0.000 C 
ENDROOT
BRANCH   1   2
ATOM      2  C   UNL     1       5.721 -36.363  21.067  1.00  0.00     0.000 C 
BRANCH   2   3
ATOM      3  C   UNL     1       4.989 -36.696  19.754  1.00  0.00     0.000 C 
BRANCH   3   4
ATOM      4  C   UNL     1       4.130 -37.973  19.788  1.00  0.00     0.000 C 
BRANCH   4   5
ATOM      5  C   UNL     1       3.022 -37.979  18.720  1.00  0.00     0.006 C 
BRANCH   5   6
ATOM      6  C   UNL     1       3.347 -37.053  17.541  1.00  0.00     0.053 C 
BRANCH   6   7
ATOM      7  C   UNL     1       2.670 -37.496  16.280  1.00  0.00     0.041 C 
ATOM      8  O   UNL     1       3.165 -38.424  15.588  1.00  0.00    -0.550 OA
ATOM      9  O   UNL     1       1.478 -36.904  15.884  1.00  0.00    -0.550 OA
ENDBRANCH   6   7
ENDBRANCH   5   6
ENDBRANCH   4   5
ENDBRANCH   3   4
ENDBRANCH   2   3
ENDBRANCH   1   2
BRANCH   1  10
ATOM     10  C   UNL     1       5.504 -35.590  23.497  1.00  0.00     0.000 C 
BRANCH  10  11
ATOM     11  C   UNL     1       6.075 -36.819  24.223  1.00  0.00    -0.000 C 
BRANCH  11  12
ATOM     12  C   UNL     1       4.946 -37.706  24.770  1.00  0.00    -0.000 C 
BRANCH  12  13
ATOM     13  C   UNL     1       5.118 -39.187  24.392  1.00  0.00    -0.000 C 
BRANCH  13  14
ATOM     14  C   UNL     1       4.512 -39.521  23.019  1.00  0.00    -0.000 C 
BRANCH  14  15
ATOM     15  C   UNL     1       5.419 -40.436  22.183  1.00  0.00    -0.003 C 
ATOM     16  C   UNL     1       5.752 -41.750  22.890  1.00  0.00     0.004 C 
ENDBRANCH  14  15
ENDBRANCH  13  14
ENDBRANCH  12  13
ENDBRANCH  11  12
ENDBRANCH  10  11
ENDBRANCH   1  10
TORSDOF 12
ENDMDL
MODEL 2
REMARK VINA RESULT:    -4.717      0.759      1.512
REMARK INTER + INTRA:          -9.165
REMARK INTER:                  -7.989
REMARK INTRA:                  -1.177
REMARK UNBOUND:                -1.139
REMARK SMILES CCCCCCCCCCCCCC(=O)[O-]
REMARK SMILES IDX 8 1 9 2 10 3 11 4 12 5 13 6 14 7 15 8 16 9 7 10 6 11 5 12
REMARK SMILES IDX 4 13 3 14 2 15 1 16
REMARK H PARENT
REMARK Flexibility Score: inf
ROOT
ATOM      1  C   UNL     1       4.849 -36.229  21.324  1.00  0.00     0.000 C 
ENDROOT
BRANCH   1   2
ATOM      2  C   UNL     1       5.234 -36.597  19.881  1.00  0.00     0.000 C 
BRANCH   2   3
ATOM      3  C   UNL     1       4.562 -37.893  19.392  1.00  0.00     0.000 C 
BRANCH   3   4
ATOM      4  C   UNL     1       3.023 -37.863  19.366  1.00  0.00     0.000 C 
BRANCH   4   5
ATOM      5  C   UNL     1       2.442 -38.041  17.953  1.00  0.00     0.006 C 
BRANCH   5   6
ATOM      6  C   UNL     1       3.132 -37.134  16.924  1.00  0.00     0.053 C 
BRANCH   6   7
ATOM      7  C   UNL     1       2.753 -37.494  15.521  1.00  0.00     0.041 C 
ATOM      8  O   UNL     1       1.686 -37.052  15.019  1.00  0.00    -0.550 OA
ATOM      9  O   UNL     1       3.593 -38.294  14.755  1.00  0.00    -0.550 OA
ENDBRANCH   6   7
ENDBRANCH   5   6
ENDBRANCH   4   5
ENDBRANCH   3   4
ENDBRANCH   2   3
ENDBRANCH   1   2
BRANCH   1  10
ATOM     10  C   UNL     1       6.019 -36.390  22.307  1.00  0.00     0.000 C 
BRANCH  10  11
ATOM     11  C   UNL     1       5.710 -35.810  23.697  1.00  0.00    -0.000 C 
BRANCH  11  12
ATOM     12  C   UNL     1       5.995 -36.845  24.797  1.00  0.00    -0.000 C 
BRANCH  12  13
ATOM     13  C   UNL     1       4.815 -37.803  25.031  1.00  0.00    -0.000 C 
BRANCH  13  14
ATOM     14  C   UNL     1       5.098 -39.226  24.520  1.00  0.00    -0.000 C 
BRANCH  14  15
ATOM     15  C   UNL     1       4.376 -39.532  23.199  1.00  0.00    -0.003 C 
ATOM     16  C   UNL     1       5.292 -40.175  22.158  1.00  0.00     0.004 C 
ENDBRANCH  14  15
ENDBRANCH  13  14
ENDBRANCH  12  13
ENDBRANCH  11  12
ENDBRANCH  10  11
ENDBRANCH   1  10
TORSDOF 12
ENDMDL
MODEL 3
REMARK VINA RESULT:    -4.639      3.055      6.799
REMARK INTER + INTRA:          -9.032
REMARK INTER:                  -8.213
REMARK INTRA:                  -0.819
REMARK UNBOUND:                -1.139
REMARK SMILES CCCCCCCCCCCCCC(=O)[O-]
REMARK SMILES IDX 8 1 9 2 10 3 11 4 12 5 13 6 14 7 15 8 16 9 7 10 6 11 5 12
REMARK SMILES IDX 4 13 3 14 2 15 1 16
REMARK H PARENT
REMARK Flexibility Score: inf
ROOT
ATOM      1  C   UNL     1       5.401 -36.992  20.123  1.00  0.00     0.000 C 
ENDROOT
BRANCH   1   2
ATOM      2  C   UNL     1       5.787 -36.045  21.273  1.00  0.00     0.000 C 
BRANCH   2   3
ATOM      3  C   UNL     1       4.731 -35.998  22.392  1.00  0.00     0.000 C 
BRANCH   3   4
ATOM      4  C   UNL     1       5.289 -36.080  23.824  1.00  0.00     0.000 C 
BRANCH   4   5
ATOM      5  C   UNL     1       6.024 -37.402  24.107  1.00  0.00     0.006 C 
BRANCH   5   6
ATOM      6  C   UNL     1       5.090 -38.473  24.687  1.00  0.00     0.053 C 
BRANCH   6   7
ATOM      7  C   UNL     1       4.916 -39.629  23.751  1.00  0.00     0.041 C 
ATOM      8  O   UNL     1       5.272 -40.785  24.099  1.00  0.00    -0.550 OA
ATOM      9  O   UNL     1       4.335 -39.435  22.504  1.00  0.00    -0.550 OA
ENDBRANCH   6   7
ENDBRANCH   5   6
ENDBRANCH   4   5
ENDBRANCH   3   4
ENDBRANCH   2   3
ENDBRANCH   1   2
BRANCH   1  10
ATOM     10  C   UNL     1       3.928 -36.848  19.708  1.00  0.00     0.000 C 
BRANCH  10  11
ATOM     11  C   UNL     1       3.331 -38.160  19.175  1.00  0.00    -0.000 C 
BRANCH  11  12
ATOM     12  C   UNL     1       2.330 -37.884  18.042  1.00  0.00    -0.000 C 
BRANCH  12  13
ATOM     13  C   UNL     1       2.957 -37.107  16.872  1.00  0.00    -0.000 C 
BRANCH  13  14
ATOM     14  C   UNL     1       2.077 -37.125  15.611  1.00  0.00    -0.000 C 
BRANCH  14  15
ATOM     15  C   UNL     1       2.901 -37.246  14.320  1.00  0.00    -0.003 C 
ATOM     16  C   UNL     1       3.781 -38.495  14.292  1.00  0.00     0.004 C 
ENDBRANCH  14  15
ENDBRANCH  13  14
ENDBRANCH  12  13
ENDBRANCH  11  12
ENDBRANCH  10  11
ENDBRANCH   1  10
TORSDOF 12
ENDMDL
MODEL 4
REMARK VINA RESULT:    -4.576      2.676      6.392
REMARK INTER + INTRA:          -8.926
REMARK INTER:                  -8.206
REMARK INTRA:                  -0.720
REMARK UNBOUND:                -1.139
REMARK SMILES CCCCCCCCCCCCCC(=O)[O-]
REMARK SMILES IDX 8 1 9 2 10 3 11 4 12 5 13 6 14 7 15 8 16 9 7 10 6 11 5 12
REMARK SMILES IDX 4 13 3 14 2 15 1 16
REMARK H PARENT
REMARK Flexibility Score: inf
ROOT
ATOM      1  C   UNL     1       4.967 -36.153  21.859  1.00  0.00     0.000 C 
ENDROOT
BRANCH   1   2
ATOM      2  C   UNL     1       6.125 -36.308  22.860  1.00  0.00     0.000 C 
BRANCH   2   3
ATOM      3  C   UNL     1       5.672 -36.179  24.326  1.00  0.00     0.000 C 
BRANCH   3   4
ATOM      4  C   UNL     1       5.654 -37.495  25.125  1.00  0.00     0.000 C 
BRANCH   4   5
ATOM      5  C   UNL     1       4.579 -38.480  24.634  1.00  0.00     0.006 C 
BRANCH   5   6
ATOM      6  C   UNL     1       5.176 -39.832  24.220  1.00  0.00     0.053 C 
BRANCH   6   7
ATOM      7  C   UNL     1       5.003 -40.093  22.755  1.00  0.00     0.041 C 
ATOM      8  O   UNL     1       4.214 -39.385  22.074  1.00  0.00    -0.550 OA
ATOM      9  O   UNL     1       5.732 -41.099  22.135  1.00  0.00    -0.550 OA
ENDBRANCH   6   7
ENDBRANCH   5   6
ENDBRANCH   4   5
ENDBRANCH   3   4
ENDBRANCH   2   3
ENDBRANCH   1   2
BRANCH   1  10
ATOM     10  C   UNL     1       5.405 -36.405  20.407  1.00  0.00     0.000 C 
BRANCH  10  11
ATOM     11  C   UNL     1       4.231 -36.355  19.417  1.00  0.00    -0.000 C 
BRANCH  11  12
ATOM     12  C   UNL     1       3.911 -37.757  18.875  1.00  0.00    -0.000 C 
BRANCH  12  13
ATOM     13  C   UNL     1       2.810 -37.742  17.801  1.00  0.00    -0.000 C 
BRANCH  13  14
ATOM     14  C   UNL     1       3.120 -36.769  16.650  1.00  0.00    -0.000 C 
BRANCH  14  15
ATOM     15  C   UNL     1       2.498 -37.216  15.318  1.00  0.00    -0.003 C 
ATOM     16  C   UNL     1       3.492 -37.939  14.410  1.00  0.00     0.004 C 
ENDBRANCH  14  15
ENDBRANCH  13  14
ENDBRANCH  12  13
ENDBRANCH  11  12
ENDBRANCH  10  11
ENDBRANCH   1  10
TORSDOF 12
ENDMDL
MODEL 5
REMARK VINA RESULT:    -4.278      1.306      1.703
REMARK INTER + INTRA:          -8.419
REMARK INTER:                  -7.415
REMARK INTRA:                  -1.004
REMARK UNBOUND:                -1.139
REMARK SMILES CCCCCCCCCCCCCC(=O)[O-]
REMARK SMILES IDX 8 1 9 2 10 3 11 4 12 5 13 6 14 7 15 8 16 9 7 10 6 11 5 12
REMARK SMILES IDX 4 13 3 14 2 15 1 16
REMARK H PARENT
REMARK Flexibility Score: inf
ROOT
ATOM      1  C   UNL     1       5.175 -36.132  23.182  1.00  0.00     0.000 C 
ENDROOT
BRANCH   1   2
ATOM      2  C   UNL     1       6.115 -36.297  21.975  1.00  0.00     0.000 C 
BRANCH   2   3
ATOM      3  C   UNL     1       5.453 -37.034  20.796  1.00  0.00     0.000 C 
BRANCH   3   4
ATOM      4  C   UNL     1       4.754 -36.129  19.766  1.00  0.00     0.000 C 
BRANCH   4   5
ATOM      5  C   UNL     1       3.941 -36.919  18.726  1.00  0.00     0.006 C 
BRANCH   5   6
ATOM      6  C   UNL     1       2.945 -37.886  19.381  1.00  0.00     0.053 C 
BRANCH   6   7
ATOM      7  C   UNL     1       1.767 -38.157  18.496  1.00  0.00     0.041 C 
ATOM      8  O   UNL     1       1.795 -37.820  17.283  1.00  0.00    -0.550 OA
ATOM      9  O   UNL     1       0.650 -38.807  19.003  1.00  0.00    -0.550 OA
ENDBRANCH   6   7
ENDBRANCH   5   6
ENDBRANCH   4   5
ENDBRANCH   3   4
ENDBRANCH   2   3
ENDBRANCH   1   2
BRANCH   1  10
ATOM     10  C   UNL     1       5.910 -36.265  24.525  1.00  0.00     0.000 C 
BRANCH  10  11
ATOM     11  C   UNL     1       5.652 -37.616  25.211  1.00  0.00    -0.000 C 
BRANCH  11  12
ATOM     12  C   UNL     1       4.602 -38.430  24.439  1.00  0.00    -0.000 C 
BRANCH  12  13
ATOM     13  C   UNL     1       5.082 -39.852  24.102  1.00  0.00    -0.000 C 
BRANCH  13  14
ATOM     14  C   UNL     1       5.083 -40.132  22.589  1.00  0.00    -0.000 C 
BRANCH  14  15
ATOM     15  C   UNL     1       5.766 -41.463  22.238  1.00  0.00    -0.003 C 
ATOM     16  C   UNL     1       5.883 -42.405  23.436  1.00  0.00     0.004 C 
ENDBRANCH  14  15
ENDBRANCH  13  14
ENDBRANCH  12  13
ENDBRANCH  11  12
ENDBRANCH  10  11
ENDBRANCH   1  10
TORSDOF 12
ENDMDL
MODEL 6
REMARK VINA RESULT:    -3.984      1.163      2.740
REMARK INTER + INTRA:          -7.918
REMARK INTER:                  -6.977
REMARK INTRA:                  -0.942
REMARK UNBOUND:                -1.139
REMARK SMILES CCCCCCCCCCCCCC(=O)[O-]
REMARK SMILES IDX 8 1 9 2 10 3 11 4 12 5 13 6 14 7 15 8 16 9 7 10 6 11 5 12
REMARK SMILES IDX 4 13 3 14 2 15 1 16
REMARK H PARENT
REMARK Flexibility Score: inf
ROOT
ATOM      1  C   UNL     1       5.518 -36.721  21.284  1.00  0.00     0.000 C 
ENDROOT
BRANCH   1   2
ATOM      2  C   UNL     1       5.658 -36.174  19.853  1.00  0.00     0.000 C 
BRANCH   2   3
ATOM      3  C   UNL     1       4.301 -35.941  19.163  1.00  0.00     0.000 C 
BRANCH   3   4
ATOM      4  C   UNL     1       4.103 -36.695  17.836  1.00  0.00     0.000 C 
BRANCH   4   5
ATOM      5  C   UNL     1       3.037 -37.800  17.926  1.00  0.00     0.006 C 
BRANCH   5   6
ATOM      6  C   UNL     1       2.000 -37.699  16.799  1.00  0.00     0.053 C 
BRANCH   6   7
ATOM      7  C   UNL     1       2.643 -37.712  15.446  1.00  0.00     0.041 C 
ATOM      8  O   UNL     1       2.434 -36.771  14.637  1.00  0.00    -0.550 OA
ATOM      9  O   UNL     1       3.495 -38.749  15.089  1.00  0.00    -0.550 OA
ENDBRANCH   6   7
ENDBRANCH   5   6
ENDBRANCH   4   5
ENDBRANCH   3   4
ENDBRANCH   2   3
ENDBRANCH   1   2
BRANCH   1  10
ATOM     10  C   UNL     1       4.443 -37.814  21.396  1.00  0.00     0.000 C 
BRANCH  10  11
ATOM     11  C   UNL     1       5.016 -39.165  21.851  1.00  0.00    -0.000 C 
BRANCH  11  12
ATOM     12  C   UNL     1       4.313 -39.656  23.126  1.00  0.00    -0.000 C 
BRANCH  12  13
ATOM     13  C   UNL     1       5.156 -39.429  24.393  1.00  0.00    -0.000 C 
BRANCH  13  14
ATOM     14  C   UNL     1       4.874 -38.070  25.056  1.00  0.00    -0.000 C 
BRANCH  14  15
ATOM     15  C   UNL     1       6.125 -37.181  25.129  1.00  0.00    -0.003 C 
ATOM     16  C   UNL     1       5.934 -35.830  24.440  1.00  0.00     0.004 C 
ENDBRANCH  14  15
ENDBRANCH  13  14
ENDBRANCH  12  13
ENDBRANCH  11  12
ENDBRANCH  10  11
ENDBRANCH   1  10
TORSDOF 12
ENDMDL
MODEL 7
REMARK VINA RESULT:    -3.739      1.955      3.033
REMARK INTER + INTRA:          -7.501
REMARK INTER:                  -6.723
REMARK INTRA:                  -0.778
REMARK UNBOUND:                -1.139
REMARK SMILES CCCCCCCCCCCCCC(=O)[O-]
REMARK SMILES IDX 8 1 9 2 10 3 11 4 12 5 13 6 14 7 15 8 16 9 7 10 6 11 5 12
REMARK SMILES IDX 4 13 3 14 2 15 1 16
REMARK H PARENT
REMARK Flexibility Score: inf
ROOT
ATOM      1  C   UNL     1       4.474 -36.177  19.437  1.00  0.00     0.000 C 
ENDROOT
BRANCH   1   2
ATOM      2  C   UNL     1       3.951 -37.463  20.101  1.00  0.00     0.000 C 
BRANCH   2   3
ATOM      3  C   UNL     1       3.245 -38.406  19.109  1.00  0.00     0.000 C 
BRANCH   3   4
ATOM      4  C   UNL     1       1.870 -37.925  18.613  1.00  0.00     0.000 C 
BRANCH   4   5
ATOM      5  C   UNL     1       1.774 -37.859  17.079  1.00  0.00     0.006 C 
BRANCH   5   6
ATOM      6  C   UNL     1       3.155 -37.795  16.414  1.00  0.00     0.053 C 
BRANCH   6   7
ATOM      7  C   UNL     1       3.055 -37.792  14.919  1.00  0.00     0.041 C 
ATOM      8  O   UNL     1       2.203 -37.065  14.343  1.00  0.00    -0.550 OA
ATOM      9  O   UNL     1       3.921 -38.569  14.161  1.00  0.00    -0.550 OA
ENDBRANCH   6   7
ENDBRANCH   5   6
ENDBRANCH   4   5
ENDBRANCH   3   4
ENDBRANCH   2   3
ENDBRANCH   1   2
BRANCH   1  10
ATOM     10  C   UNL     1       5.854 -35.758  19.968  1.00  0.00     0.000 C 
BRANCH  10  11
ATOM     11  C   UNL     1       6.109 -36.241  21.405  1.00  0.00    -0.000 C 
BRANCH  11  12
ATOM     12  C   UNL     1       5.907 -35.097  22.411  1.00  0.00    -0.000 C 
BRANCH  12  13
ATOM     13  C   UNL     1       5.774 -35.598  23.859  1.00  0.00    -0.000 C 
BRANCH  13  14
ATOM     14  C   UNL     1       5.996 -37.114  23.984  1.00  0.00    -0.000 C 
BRANCH  14  15
ATOM     15  C   UNL     1       5.907 -37.604  25.437  1.00  0.00    -0.003 C 
ATOM     16  C   UNL     1       4.584 -38.302  25.750  1.00  0.00     0.004 C 
ENDBRANCH  14  15
ENDBRANCH  13  14
ENDBRANCH  12  13
ENDBRANCH  11  12
ENDBRANCH  10  11
ENDBRANCH   1  10
TORSDOF 12
ENDMDL
MODEL 8
REMARK VINA RESULT:    -3.460      3.287      6.677
REMARK INTER + INTRA:          -7.027
REMARK INTER:                  -6.140
REMARK INTRA:                  -0.887
REMARK UNBOUND:                -1.139
REMARK SMILES CCCCCCCCCCCCCC(=O)[O-]
REMARK SMILES IDX 8 1 9 2 10 3 11 4 12 5 13 6 14 7 15 8 16 9 7 10 6 11 5 12
REMARK SMILES IDX 4 13 3 14 2 15 1 16
REMARK H PARENT
REMARK Flexibility Score: inf
ROOT
ATOM      1  C   UNL     1       5.396 -38.726  21.328  1.00  0.00     0.000 C 
ENDROOT
BRANCH   1   2
ATOM      2  C   UNL     1       4.388 -39.515  22.181  1.00  0.00     0.000 C 
BRANCH   2   3
ATOM      3  C   UNL     1       4.161 -38.893  23.571  1.00  0.00     0.000 C 
BRANCH   3   4
ATOM      4  C   UNL     1       5.382 -38.919  24.508  1.00  0.00     0.000 C 
BRANCH   4   5
ATOM      5  C   UNL     1       5.911 -37.514  24.844  1.00  0.00     0.006 C 
BRANCH   5   6
ATOM      6  C   UNL     1       4.991 -36.406  24.313  1.00  0.00     0.053 C 
BRANCH   6   7
ATOM      7  C   UNL     1       5.746 -35.395  23.506  1.00  0.00     0.041 C 
ATOM      8  O   UNL     1       6.026 -35.627  22.300  1.00  0.00    -0.550 OA
ATOM      9  O   UNL     1       6.116 -34.183  24.075  1.00  0.00    -0.550 OA
ENDBRANCH   6   7
ENDBRANCH   5   6
ENDBRANCH   4   5
ENDBRANCH   3   4
ENDBRANCH   2   3
ENDBRANCH   1   2
BRANCH   1  10
ATOM     10  C   UNL     1       5.047 -38.749  19.831  1.00  0.00     0.000 C 
BRANCH  10  11
ATOM     11  C   UNL     1       4.543 -37.390  19.318  1.00  0.00    -0.000 C 
BRANCH  11  12
ATOM     12  C   UNL     1       3.019 -37.411  19.122  1.00  0.00    -0.000 C 
BRANCH  12  13
ATOM     13  C   UNL     1       2.584 -38.300  17.945  1.00  0.00    -0.000 C 
BRANCH  13  14
ATOM     14  C   UNL     1       1.490 -37.648  17.083  1.00  0.00    -0.000 C 
BRANCH  14  15
ATOM     15  C   UNL     1       2.052 -37.008  15.804  1.00  0.00    -0.003 C 
ATOM     16  C   UNL     1       3.136 -37.858  15.142  1.00  0.00     0.004 C 
ENDBRANCH  14  15
ENDBRANCH  13  14
ENDBRANCH  12  13
ENDBRANCH  11  12
ENDBRANCH  10  11
ENDBRANCH   1  10
TORSDOF 12
ENDMDL
MODEL 9
REMARK VINA RESULT:    -3.211      1.863      3.130
REMARK INTER + INTRA:          -6.603
REMARK INTER:                  -5.708
REMARK INTRA:                  -0.895
REMARK UNBOUND:                -1.139
REMARK SMILES CCCCCCCCCCCCCC(=O)[O-]
REMARK SMILES IDX 8 1 9 2 10 3 11 4 12 5 13 6 14 7 15 8 16 9 7 10 6 11 5 12
REMARK SMILES IDX 4 13 3 14 2 15 1 16
REMARK H PARENT
REMARK Flexibility Score: inf
ROOT
ATOM      1  C   UNL     1       5.459 -35.704  19.411  1.00  0.00     0.000 C 
ENDROOT
BRANCH   1   2
ATOM      2  C   UNL     1       4.213 -35.490  18.534  1.00  0.00     0.000 C 
BRANCH   2   3
ATOM      3  C   UNL     1       4.147 -36.460  17.339  1.00  0.00     0.000 C 
BRANCH   3   4
ATOM      4  C   UNL     1       2.949 -36.256  16.395  1.00  0.00     0.000 C 
BRANCH   4   5
ATOM      5  C   UNL     1       1.776 -37.204  16.700  1.00  0.00     0.006 C 
BRANCH   5   6
ATOM      6  C   UNL     1       2.215 -38.422  17.525  1.00  0.00     0.053 C 
BRANCH   6   7
ATOM      7  C   UNL     1       1.607 -38.416  18.894  1.00  0.00     0.041 C 
ATOM      8  O   UNL     1       0.357 -38.349  19.032  1.00  0.00    -0.550 OA
ATOM      9  O   UNL     1       2.418 -38.514  20.017  1.00  0.00    -0.550 OA
ENDBRANCH   6   7
ENDBRANCH   5   6
ENDBRANCH   4   5
ENDBRANCH   3   4
ENDBRANCH   2   3
ENDBRANCH   1   2
BRANCH   1  10
ATOM     10  C   UNL     1       5.180 -36.607  20.623  1.00  0.00     0.000 C 
BRANCH  10  11
ATOM     11  C   UNL     1       6.008 -36.216  21.857  1.00  0.00    -0.000 C 
BRANCH  11  12
ATOM     12  C   UNL     1       5.122 -35.551  22.923  1.00  0.00    -0.000 C 
BRANCH  12  13
ATOM     13  C   UNL     1       5.404 -36.076  24.341  1.00  0.00    -0.000 C 
BRANCH  13  14
ATOM     14  C   UNL     1       6.023 -37.484  24.338  1.00  0.00    -0.000 C 
BRANCH  14  15
ATOM     15  C   UNL     1       5.013 -38.572  24.734  1.00  0.00    -0.003 C 
ATOM     16  C   UNL     1       4.700 -39.535  23.589  1.00  0.00     0.004 C 
ENDBRANCH  14  15
ENDBRANCH  13  14
ENDBRANCH  12  13
ENDBRANCH  11  12
ENDBRANCH  10  11
ENDBRANCH   1  10
TORSDOF 12
ENDMDL
