MODEL 1
REMARK VINA RESULT:    -3.580      0.000      0.000
REMARK INTER + INTRA:         -12.017
REMARK INTER:                  -7.765
REMARK INTRA:                  -4.252
REMARK UNBOUND:                -4.252
REMARK SMILES CCCCCCCCCCCCCCCCCCCCCC(=O)[O-]
REMARK SMILES IDX 12 1 11 2 10 3 9 4 8 5 7 6 6 7 5 8 4 9 3 10 2 11 1 12 13 13
REMARK SMILES IDX 14 14 15 15 16 16 17 17 18 18 19 19 20 20 21 21 22 22 23 23
REMARK SMILES IDX 24 24
REMARK H PARENT
REMARK Flexibility Score: inf
ROOT
ATOM      1  C   UNL     1     -23.238  30.742 -39.233  1.00  0.00     0.000 C 
ENDROOT
BRANCH   1   2
ATOM      2  C   UNL     1     -23.456  31.036 -37.741  1.00  0.00     0.000 C 
BRANCH   2   3
ATOM      3  C   UNL     1     -22.158  30.917 -36.922  1.00  0.00     0.000 C 
BRANCH   3   4
ATOM      4  C   UNL     1     -21.592  32.281 -36.488  1.00  0.00    -0.000 C 
BRANCH   4   5
ATOM      5  C   UNL     1     -22.470  33.501 -36.827  1.00  0.00    -0.000 C 
BRANCH   5   6
ATOM      6  C   UNL     1     -21.871  34.384 -37.935  1.00  0.00    -0.000 C 
BRANCH   6   7
ATOM      7  C   UNL     1     -20.561  33.816 -38.517  1.00  0.00    -0.000 C 
BRANCH   7   8
ATOM      8  C   UNL     1     -20.627  33.383 -39.993  1.00  0.00    -0.000 C 
BRANCH   8   9
ATOM      9  C   UNL     1     -19.547  32.352 -40.366  1.00  0.00    -0.000 C 
BRANCH   9  10
ATOM     10  C   UNL     1     -19.475  31.187 -39.366  1.00  0.00    -0.000 C 
BRANCH  10  11
ATOM     11  C   UNL     1     -19.242  29.830 -40.053  1.00  0.00    -0.003 C 
ATOM     12  C   UNL     1     -20.191  28.770 -39.503  1.00  0.00     0.004 C 
ENDBRANCH  10  11
ENDBRANCH   9  10
ENDBRANCH   8   9
ENDBRANCH   7   8
ENDBRANCH   6   7
ENDBRANCH   5   6
ENDBRANCH   4   5
ENDBRANCH   3   4
ENDBRANCH   2   3
ENDBRANCH   1   2
BRANCH   1  13
ATOM     13  C   UNL     1     -23.840  31.823 -40.146  1.00  0.00     0.000 C 
BRANCH  13  14
ATOM     14  C   UNL     1     -23.457  31.626 -41.622  1.00  0.00     0.000 C 
BRANCH  14  15
ATOM     15  C   UNL     1     -22.428  30.500 -41.823  1.00  0.00     0.000 C 
BRANCH  15  16
ATOM     16  C   UNL     1     -23.009  29.289 -42.574  1.00  0.00     0.000 C 
BRANCH  16  17
ATOM     17  C   UNL     1     -23.852  28.337 -41.707  1.00  0.00     0.000 C 
BRANCH  17  18
ATOM     18  C   UNL     1     -25.365  28.588 -41.842  1.00  0.00     0.000 C 
BRANCH  18  19
ATOM     19  C   UNL     1     -26.059  28.772 -40.483  1.00  0.00     0.000 C 
BRANCH  19  20
ATOM     20  C   UNL     1     -27.216  29.780 -40.541  1.00  0.00     0.006 C 
BRANCH  20  21
ATOM     21  C   UNL     1     -27.538  30.324 -39.146  1.00  0.00     0.053 C 
BRANCH  21  22
ATOM     22  C   UNL     1     -27.307  31.802 -39.084  1.00  0.00     0.041 C 
ATOM     23  O   UNL     1     -26.755  32.316 -38.074  1.00  0.00    -0.550 OA
ATOM     24  O   UNL     1     -27.697  32.613 -40.144  1.00  0.00    -0.550 OA
ENDBRANCH  21  22
ENDBRANCH  20  21
ENDBRANCH  19  20
ENDBRANCH  18  19
ENDBRANCH  17  18
ENDBRANCH  16  17
ENDBRANCH  15  16
ENDBRANCH  14  15
ENDBRANCH  13  14
ENDBRANCH   1  13
TORSDOF 20
ENDMDL
MODEL 2
REMARK VINA RESULT:    -3.521      2.117      4.411
REMARK INTER + INTRA:         -11.889
REMARK INTER:                  -8.562
REMARK INTRA:                  -3.327
REMARK UNBOUND:                -4.252
REMARK SMILES CCCCCCCCCCCCCCCCCCCCCC(=O)[O-]
REMARK SMILES IDX 12 1 11 2 10 3 9 4 8 5 7 6 6 7 5 8 4 9 3 10 2 11 1 12 13 13
REMARK SMILES IDX 14 14 15 15 16 16 17 17 18 18 19 19 20 20 21 21 22 22 23 23
REMARK SMILES IDX 24 24
REMARK H PARENT
REMARK Flexibility Score: inf
ROOT
ATOM      1  C   UNL     1     -21.616  34.091 -38.921  1.00  0.00     0.000 C 
ENDROOT
BRANCH   1   2
ATOM      2  C   UNL     1     -20.274  33.354 -39.056  1.00  0.00     0.000 C 
BRANCH   2   3
ATOM      3  C   UNL     1     -19.966  32.464 -37.839  1.00  0.00     0.000 C 
BRANCH   3   4
ATOM      4  C   UNL     1     -20.173  30.965 -38.121  1.00  0.00    -0.000 C 
BRANCH   4   5
ATOM      5  C   UNL     1     -21.573  30.415 -37.789  1.00  0.00    -0.000 C 
BRANCH   5   6
ATOM      6  C   UNL     1     -22.254  29.739 -38.992  1.00  0.00    -0.000 C 
BRANCH   6   7
ATOM      7  C   UNL     1     -23.244  30.665 -39.725  1.00  0.00    -0.000 C 
BRANCH   7   8
ATOM      8  C   UNL     1     -22.705  31.325 -41.008  1.00  0.00    -0.000 C 
BRANCH   8   9
ATOM      9  C   UNL     1     -22.618  30.350 -42.196  1.00  0.00    -0.000 C 
BRANCH   9  10
ATOM     10  C   UNL     1     -21.171  30.110 -42.656  1.00  0.00    -0.000 C 
BRANCH  10  11
ATOM     11  C   UNL     1     -20.148  30.917 -41.839  1.00  0.00    -0.003 C 
ATOM     12  C   UNL     1     -19.071  31.507 -42.743  1.00  0.00     0.004 C 
ENDBRANCH  10  11
ENDBRANCH   9  10
ENDBRANCH   8   9
ENDBRANCH   7   8
ENDBRANCH   6   7
ENDBRANCH   5   6
ENDBRANCH   4   5
ENDBRANCH   3   4
ENDBRANCH   2   3
ENDBRANCH   1   2
BRANCH   1  13
ATOM     13  C   UNL     1     -21.945  34.463 -37.466  1.00  0.00     0.000 C 
BRANCH  13  14
ATOM     14  C   UNL     1     -23.134  33.664 -36.909  1.00  0.00     0.000 C 
BRANCH  14  15
ATOM     15  C   UNL     1     -24.280  33.520 -37.926  1.00  0.00     0.000 C 
BRANCH  15  16
ATOM     16  C   UNL     1     -25.637  33.983 -37.365  1.00  0.00     0.000 C 
BRANCH  16  17
ATOM     17  C   UNL     1     -26.865  33.353 -38.045  1.00  0.00     0.000 C 
BRANCH  17  18
ATOM     18  C   UNL     1     -26.620  31.903 -38.497  1.00  0.00     0.000 C 
BRANCH  18  19
ATOM     19  C   UNL     1     -26.640  31.746 -40.026  1.00  0.00     0.000 C 
BRANCH  19  20
ATOM     20  C   UNL     1     -27.265  30.417 -40.476  1.00  0.00     0.006 C 
BRANCH  20  21
ATOM     21  C   UNL     1     -26.686  29.968 -41.821  1.00  0.00     0.053 C 
BRANCH  21  22
ATOM     22  C   UNL     1     -26.357  28.508 -41.798  1.00  0.00     0.041 C 
ATOM     23  O   UNL     1     -27.273  27.649 -41.899  1.00  0.00    -0.550 OA
ATOM     24  O   UNL     1     -25.035  28.093 -41.671  1.00  0.00    -0.550 OA
ENDBRANCH  21  22
ENDBRANCH  20  21
ENDBRANCH  19  20
ENDBRANCH  18  19
ENDBRANCH  17  18
ENDBRANCH  16  17
ENDBRANCH  15  16
ENDBRANCH  14  15
ENDBRANCH  13  14
ENDBRANCH   1  13
TORSDOF 20
ENDMDL
MODEL 3
REMARK VINA RESULT:    -3.483      2.063      5.183
REMARK INTER + INTRA:         -11.808
REMARK INTER:                  -7.704
REMARK INTRA:                  -4.103
REMARK UNBOUND:                -4.252
REMARK SMILES CCCCCCCCCCCCCCCCCCCCCC(=O)[O-]
REMARK SMILES IDX 12 1 11 2 10 3 9 4 8 5 7 6 6 7 5 8 4 9 3 10 2 11 1 12 13 13
REMARK SMILES IDX 14 14 15 15 16 16 17 17 18 18 19 19 20 20 21 21 22 22 23 23
REMARK SMILES IDX 24 24
REMARK H PARENT
REMARK Flexibility Score: inf
ROOT
ATOM      1  C   UNL     1     -17.379  31.755 -40.486  1.00  0.00     0.000 C 
ENDROOT
BRANCH   1   2
ATOM      2  C   UNL     1     -17.258  31.666 -42.015  1.00  0.00     0.000 C 
BRANCH   2   3
ATOM      3  C   UNL     1     -18.610  31.859 -42.724  1.00  0.00     0.000 C 
BRANCH   3   4
ATOM      4  C   UNL     1     -19.533  30.632 -42.607  1.00  0.00    -0.000 C 
BRANCH   4   5
ATOM      5  C   UNL     1     -20.954  30.919 -42.085  1.00  0.00    -0.000 C 
BRANCH   5   6
ATOM      6  C   UNL     1     -21.363  30.001 -40.920  1.00  0.00    -0.000 C 
BRANCH   6   7
ATOM      7  C   UNL     1     -20.172  29.237 -40.308  1.00  0.00    -0.000 C 
BRANCH   7   8
ATOM      8  C   UNL     1     -20.130  29.204 -38.768  1.00  0.00    -0.000 C 
BRANCH   8   9
ATOM      9  C   UNL     1     -21.530  29.213 -38.128  1.00  0.00    -0.000 C 
BRANCH   9  10
ATOM     10  C   UNL     1     -21.492  29.575 -36.634  1.00  0.00    -0.000 C 
BRANCH  10  11
ATOM     11  C   UNL     1     -21.654  31.084 -36.386  1.00  0.00    -0.003 C 
ATOM     12  C   UNL     1     -20.405  31.669 -35.735  1.00  0.00     0.004 C 
ENDBRANCH  10  11
ENDBRANCH   9  10
ENDBRANCH   8   9
ENDBRANCH   7   8
ENDBRANCH   6   7
ENDBRANCH   5   6
ENDBRANCH   4   5
ENDBRANCH   3   4
ENDBRANCH   2   3
ENDBRANCH   1   2
BRANCH   1  13
ATOM     13  C   UNL     1     -18.180  32.985 -40.024  1.00  0.00     0.000 C 
BRANCH  13  14
ATOM     14  C   UNL     1     -19.351  32.610 -39.101  1.00  0.00     0.000 C 
BRANCH  14  15
ATOM     15  C   UNL     1     -20.356  33.761 -38.922  1.00  0.00     0.000 C 
BRANCH  15  16
ATOM     16  C   UNL     1     -21.771  33.398 -39.409  1.00  0.00     0.000 C 
BRANCH  16  17
ATOM     17  C   UNL     1     -22.912  33.888 -38.498  1.00  0.00     0.000 C 
BRANCH  17  18
ATOM     18  C   UNL     1     -23.992  32.817 -38.266  1.00  0.00     0.000 C 
BRANCH  18  19
ATOM     19  C   UNL     1     -24.061  31.787 -39.406  1.00  0.00     0.000 C 
BRANCH  19  20
ATOM     20  C   UNL     1     -25.193  30.768 -39.214  1.00  0.00     0.006 C 
BRANCH  20  21
ATOM     21  C   UNL     1     -24.834  29.424 -39.855  1.00  0.00     0.053 C 
BRANCH  21  22
ATOM     22  C   UNL     1     -25.135  29.437 -41.322  1.00  0.00     0.041 C 
ATOM     23  O   UNL     1     -24.422  28.773 -42.121  1.00  0.00    -0.550 OA
ATOM     24  O   UNL     1     -26.206  30.179 -41.807  1.00  0.00    -0.550 OA
ENDBRANCH  21  22
ENDBRANCH  20  21
ENDBRANCH  19  20
ENDBRANCH  18  19
ENDBRANCH  17  18
ENDBRANCH  16  17
ENDBRANCH  15  16
ENDBRANCH  14  15
ENDBRANCH  13  14
ENDBRANCH   1  13
TORSDOF 20
ENDMDL
MODEL 4
REMARK VINA RESULT:    -3.437      1.942      4.427
REMARK INTER + INTRA:         -11.707
REMARK INTER:                  -8.276
REMARK INTRA:                  -3.432
REMARK UNBOUND:                -4.252
REMARK SMILES CCCCCCCCCCCCCCCCCCCCCC(=O)[O-]
REMARK SMILES IDX 12 1 11 2 10 3 9 4 8 5 7 6 6 7 5 8 4 9 3 10 2 11 1 12 13 13
REMARK SMILES IDX 14 14 15 15 16 16 17 17 18 18 19 19 20 20 21 21 22 22 23 23
REMARK SMILES IDX 24 24
REMARK H PARENT
REMARK Flexibility Score: inf
ROOT
ATOM      1  C   UNL     1     -19.750  30.471 -42.373  1.00  0.00     0.000 C 
ENDROOT
BRANCH   1   2
ATOM      2  C   UNL     1     -19.070  31.725 -42.946  1.00  0.00     0.000 C 
BRANCH   2   3
ATOM      3  C   UNL     1     -17.723  32.027 -42.265  1.00  0.00     0.000 C 
BRANCH   3   4
ATOM      4  C   UNL     1     -17.579  31.350 -40.889  1.00  0.00    -0.000 C 
BRANCH   4   5
ATOM      5  C   UNL     1     -17.724  32.284 -39.673  1.00  0.00    -0.000 C 
BRANCH   5   6
ATOM      6  C   UNL     1     -19.125  32.233 -39.039  1.00  0.00    -0.000 C 
BRANCH   6   7
ATOM      7  C   UNL     1     -20.040  33.383 -39.504  1.00  0.00    -0.000 C 
BRANCH   7   8
ATOM      8  C   UNL     1     -21.542  33.183 -39.231  1.00  0.00    -0.000 C 
BRANCH   8   9
ATOM      9  C   UNL     1     -22.124  34.235 -38.270  1.00  0.00    -0.000 C 
BRANCH   9  10
ATOM     10  C   UNL     1     -23.143  33.636 -37.287  1.00  0.00    -0.000 C 
BRANCH  10  11
ATOM     11  C   UNL     1     -24.446  33.199 -37.978  1.00  0.00    -0.003 C 
ATOM     12  C   UNL     1     -25.646  33.946 -37.404  1.00  0.00     0.004 C 
ENDBRANCH  10  11
ENDBRANCH   9  10
ENDBRANCH   8   9
ENDBRANCH   7   8
ENDBRANCH   6   7
ENDBRANCH   5   6
ENDBRANCH   4   5
ENDBRANCH   3   4
ENDBRANCH   2   3
ENDBRANCH   1   2
BRANCH   1  13
ATOM     13  C   UNL     1     -21.277  30.619 -42.268  1.00  0.00     0.000 C 
BRANCH  13  14
ATOM     14  C   UNL     1     -21.894  29.643 -41.254  1.00  0.00     0.000 C 
BRANCH  14  15
ATOM     15  C   UNL     1     -20.890  29.190 -40.179  1.00  0.00     0.000 C 
BRANCH  15  16
ATOM     16  C   UNL     1     -21.549  28.955 -38.808  1.00  0.00     0.000 C 
BRANCH  16  17
ATOM     17  C   UNL     1     -22.702  29.918 -38.473  1.00  0.00     0.000 C 
BRANCH  17  18
ATOM     18  C   UNL     1     -23.616  29.389 -37.354  1.00  0.00     0.000 C 
BRANCH  18  19
ATOM     19  C   UNL     1     -25.104  29.417 -37.740  1.00  0.00     0.000 C 
BRANCH  19  20
ATOM     20  C   UNL     1     -25.320  29.450 -39.260  1.00  0.00     0.006 C 
BRANCH  20  21
ATOM     21  C   UNL     1     -26.262  30.592 -39.654  1.00  0.00     0.053 C 
BRANCH  21  22
ATOM     22  C   UNL     1     -26.043  30.994 -41.079  1.00  0.00     0.041 C 
ATOM     23  O   UNL     1     -24.970  31.558 -41.421  1.00  0.00    -0.550 OA
ATOM     24  O   UNL     1     -27.024  30.742 -42.033  1.00  0.00    -0.550 OA
ENDBRANCH  21  22
ENDBRANCH  20  21
ENDBRANCH  19  20
ENDBRANCH  18  19
ENDBRANCH  17  18
ENDBRANCH  16  17
ENDBRANCH  15  16
ENDBRANCH  14  15
ENDBRANCH  13  14
ENDBRANCH   1  13
TORSDOF 20
ENDMDL
MODEL 5
REMARK VINA RESULT:    -3.429      2.006      2.554
REMARK INTER + INTRA:         -11.690
REMARK INTER:                  -7.970
REMARK INTRA:                  -3.720
REMARK UNBOUND:                -4.252
REMARK SMILES CCCCCCCCCCCCCCCCCCCCCC(=O)[O-]
REMARK SMILES IDX 12 1 11 2 10 3 9 4 8 5 7 6 6 7 5 8 4 9 3 10 2 11 1 12 13 13
REMARK SMILES IDX 14 14 15 15 16 16 17 17 18 18 19 19 20 20 21 21 22 22 23 23
REMARK SMILES IDX 24 24
REMARK H PARENT
REMARK Flexibility Score: inf
ROOT
ATOM      1  C   UNL     1     -23.472  30.235 -39.110  1.00  0.00     0.000 C 
ENDROOT
BRANCH   1   2
ATOM      2  C   UNL     1     -23.486  30.977 -37.764  1.00  0.00     0.000 C 
BRANCH   2   3
ATOM      3  C   UNL     1     -22.163  30.821 -36.993  1.00  0.00     0.000 C 
BRANCH   3   4
ATOM      4  C   UNL     1     -21.553  32.168 -36.564  1.00  0.00    -0.000 C 
BRANCH   4   5
ATOM      5  C   UNL     1     -22.472  33.394 -36.730  1.00  0.00    -0.000 C 
BRANCH   5   6
ATOM      6  C   UNL     1     -22.063  34.297 -37.906  1.00  0.00    -0.000 C 
BRANCH   6   7
ATOM      7  C   UNL     1     -20.750  33.853 -38.580  1.00  0.00    -0.000 C 
BRANCH   7   8
ATOM      8  C   UNL     1     -20.889  33.341 -40.026  1.00  0.00    -0.000 C 
BRANCH   8   9
ATOM      9  C   UNL     1     -19.732  32.421 -40.452  1.00  0.00    -0.000 C 
BRANCH   9  10
ATOM     10  C   UNL     1     -19.833  31.019 -39.829  1.00  0.00    -0.000 C 
BRANCH  10  11
ATOM     11  C   UNL     1     -20.171  29.933 -40.865  1.00  0.00    -0.003 C 
ATOM     12  C   UNL     1     -19.989  30.458 -42.286  1.00  0.00     0.004 C 
ENDBRANCH  10  11
ENDBRANCH   9  10
ENDBRANCH   8   9
ENDBRANCH   7   8
ENDBRANCH   6   7
ENDBRANCH   5   6
ENDBRANCH   4   5
ENDBRANCH   3   4
ENDBRANCH   2   3
ENDBRANCH   1   2
BRANCH   1  13
ATOM     13  C   UNL     1     -23.814  31.151 -40.297  1.00  0.00     0.000 C 
BRANCH  13  14
ATOM     14  C   UNL     1     -23.701  30.428 -41.649  1.00  0.00     0.000 C 
BRANCH  14  15
ATOM     15  C   UNL     1     -23.925  28.911 -41.532  1.00  0.00     0.000 C 
BRANCH  15  16
ATOM     16  C   UNL     1     -25.332  28.479 -41.983  1.00  0.00     0.000 C 
BRANCH  16  17
ATOM     17  C   UNL     1     -26.368  28.373 -40.850  1.00  0.00     0.000 C 
BRANCH  17  18
ATOM     18  C   UNL     1     -27.192  29.661 -40.673  1.00  0.00     0.000 C 
BRANCH  18  19
ATOM     19  C   UNL     1     -27.283  30.110 -39.205  1.00  0.00     0.000 C 
BRANCH  19  20
ATOM     20  C   UNL     1     -27.055  28.955 -38.219  1.00  0.00     0.006 C 
BRANCH  20  21
ATOM     21  C   UNL     1     -27.669  29.273 -36.852  1.00  0.00     0.053 C 
BRANCH  21  22
ATOM     22  C   UNL     1     -27.414  28.161 -35.882  1.00  0.00     0.041 C 
ATOM     23  O   UNL     1     -26.258  27.978 -35.417  1.00  0.00    -0.550 OA
ATOM     24  O   UNL     1     -28.456  27.329 -35.487  1.00  0.00    -0.550 OA
ENDBRANCH  21  22
ENDBRANCH  20  21
ENDBRANCH  19  20
ENDBRANCH  18  19
ENDBRANCH  17  18
ENDBRANCH  16  17
ENDBRANCH  15  16
ENDBRANCH  14  15
ENDBRANCH  13  14
ENDBRANCH   1  13
TORSDOF 20
ENDMDL
MODEL 6
REMARK VINA RESULT:    -3.413      2.055      5.615
REMARK INTER + INTRA:         -11.656
REMARK INTER:                  -8.637
REMARK INTRA:                  -3.019
REMARK UNBOUND:                -4.252
REMARK SMILES CCCCCCCCCCCCCCCCCCCCCC(=O)[O-]
REMARK SMILES IDX 12 1 11 2 10 3 9 4 8 5 7 6 6 7 5 8 4 9 3 10 2 11 1 12 13 13
REMARK SMILES IDX 14 14 15 15 16 16 17 17 18 18 19 19 20 20 21 21 22 22 23 23
REMARK SMILES IDX 24 24
REMARK H PARENT
REMARK Flexibility Score: inf
ROOT
ATOM      1  C   UNL     1     -19.813  32.375 -38.266  1.00  0.00     0.000 C 
ENDROOT
BRANCH   1   2
ATOM      2  C   UNL     1     -20.305  33.772 -38.679  1.00  0.00     0.000 C 
BRANCH   2   3
ATOM      3  C   UNL     1     -21.769  33.763 -39.153  1.00  0.00     0.000 C 
BRANCH   3   4
ATOM      4  C   UNL     1     -22.759  34.200 -38.059  1.00  0.00    -0.000 C 
BRANCH   4   5
ATOM      5  C   UNL     1     -23.861  33.179 -37.715  1.00  0.00    -0.000 C 
BRANCH   5   6
ATOM      6  C   UNL     1     -24.250  32.291 -38.910  1.00  0.00    -0.000 C 
BRANCH   6   7
ATOM      7  C   UNL     1     -24.809  30.919 -38.485  1.00  0.00    -0.000 C 
BRANCH   7   8
ATOM      8  C   UNL     1     -26.324  30.878 -38.212  1.00  0.00    -0.000 C 
BRANCH   8   9
ATOM      9  C   UNL     1     -27.165  31.358 -39.409  1.00  0.00    -0.000 C 
BRANCH   9  10
ATOM     10  C   UNL     1     -28.058  32.558 -39.057  1.00  0.00    -0.000 C 
BRANCH  10  11
ATOM     11  C   UNL     1     -28.180  32.782 -37.540  1.00  0.00    -0.003 C 
ATOM     12  C   UNL     1     -27.502  34.083 -37.124  1.00  0.00     0.004 C 
ENDBRANCH  10  11
ENDBRANCH   9  10
ENDBRANCH   8   9
ENDBRANCH   7   8
ENDBRANCH   6   7
ENDBRANCH   5   6
ENDBRANCH   4   5
ENDBRANCH   3   4
ENDBRANCH   2   3
ENDBRANCH   1   2
BRANCH   1  13
ATOM     13  C   UNL     1     -18.579  31.920 -39.064  1.00  0.00     0.000 C 
BRANCH  13  14
ATOM     14  C   UNL     1     -18.277  32.843 -40.255  1.00  0.00     0.000 C 
BRANCH  14  15
ATOM     15  C   UNL     1     -17.754  32.077 -41.482  1.00  0.00     0.000 C 
BRANCH  15  16
ATOM     16  C   UNL     1     -18.834  31.868 -42.559  1.00  0.00     0.000 C 
BRANCH  16  17
ATOM     17  C   UNL     1     -19.652  30.573 -42.409  1.00  0.00     0.000 C 
BRANCH  17  18
ATOM     18  C   UNL     1     -21.148  30.837 -42.162  1.00  0.00     0.000 C 
BRANCH  18  19
ATOM     19  C   UNL     1     -21.591  30.455 -40.740  1.00  0.00     0.000 C 
BRANCH  19  20
ATOM     20  C   UNL     1     -22.347  29.120 -40.695  1.00  0.00     0.006 C 
BRANCH  20  21
ATOM     21  C   UNL     1     -23.098  28.871 -42.006  1.00  0.00     0.053 C 
BRANCH  21  22
ATOM     22  C   UNL     1     -24.562  29.139 -41.840  1.00  0.00     0.041 C 
ATOM     23  O   UNL     1     -24.997  30.321 -41.865  1.00  0.00    -0.550 OA
ATOM     24  O   UNL     1     -25.448  28.082 -41.662  1.00  0.00    -0.550 OA
ENDBRANCH  21  22
ENDBRANCH  20  21
ENDBRANCH  19  20
ENDBRANCH  18  19
ENDBRANCH  17  18
ENDBRANCH  16  17
ENDBRANCH  15  16
ENDBRANCH  14  15
ENDBRANCH  13  14
ENDBRANCH   1  13
TORSDOF 20
ENDMDL
MODEL 7
REMARK VINA RESULT:    -3.391      1.808      3.274
REMARK INTER + INTRA:         -11.608
REMARK INTER:                  -7.904
REMARK INTRA:                  -3.704
REMARK UNBOUND:                -4.252
REMARK SMILES CCCCCCCCCCCCCCCCCCCCCC(=O)[O-]
REMARK SMILES IDX 12 1 11 2 10 3 9 4 8 5 7 6 6 7 5 8 4 9 3 10 2 11 1 12 13 13
REMARK SMILES IDX 14 14 15 15 16 16 17 17 18 18 19 19 20 20 21 21 22 22 23 23
REMARK SMILES IDX 24 24
REMARK H PARENT
REMARK Flexibility Score: inf
ROOT
ATOM      1  C   UNL     1     -20.080  31.060 -40.689  1.00  0.00     0.000 C 
ENDROOT
BRANCH   1   2
ATOM      2  C   UNL     1     -19.066  32.205 -40.539  1.00  0.00     0.000 C 
BRANCH   2   3
ATOM      3  C   UNL     1     -19.586  33.336 -39.635  1.00  0.00     0.000 C 
BRANCH   3   4
ATOM      4  C   UNL     1     -21.118  33.487 -39.679  1.00  0.00    -0.000 C 
BRANCH   4   5
ATOM      5  C   UNL     1     -21.746  34.225 -38.481  1.00  0.00    -0.000 C 
BRANCH   5   6
ATOM      6  C   UNL     1     -23.187  33.773 -38.186  1.00  0.00    -0.000 C 
BRANCH   6   7
ATOM      7  C   UNL     1     -23.578  32.480 -38.928  1.00  0.00    -0.000 C 
BRANCH   7   8
ATOM      8  C   UNL     1     -23.720  31.228 -38.043  1.00  0.00    -0.000 C 
BRANCH   8   9
ATOM      9  C   UNL     1     -22.762  30.093 -38.448  1.00  0.00    -0.000 C 
BRANCH   9  10
ATOM     10  C   UNL     1     -21.738  29.768 -37.349  1.00  0.00    -0.000 C 
BRANCH  10  11
ATOM     11  C   UNL     1     -20.956  31.007 -36.881  1.00  0.00    -0.003 C 
ATOM     12  C   UNL     1     -19.453  30.753 -36.924  1.00  0.00     0.004 C 
ENDBRANCH  10  11
ENDBRANCH   9  10
ENDBRANCH   8   9
ENDBRANCH   7   8
ENDBRANCH   6   7
ENDBRANCH   5   6
ENDBRANCH   4   5
ENDBRANCH   3   4
ENDBRANCH   2   3
ENDBRANCH   1   2
BRANCH   1  13
ATOM     13  C   UNL     1     -20.044  30.413 -42.084  1.00  0.00     0.000 C 
BRANCH  13  14
ATOM     14  C   UNL     1     -21.440  30.000 -42.576  1.00  0.00     0.000 C 
BRANCH  14  15
ATOM     15  C   UNL     1     -22.505  31.079 -42.315  1.00  0.00     0.000 C 
BRANCH  15  16
ATOM     16  C   UNL     1     -23.836  30.494 -41.808  1.00  0.00     0.000 C 
BRANCH  16  17
ATOM     17  C   UNL     1     -23.956  28.964 -41.929  1.00  0.00     0.000 C 
BRANCH  17  18
ATOM     18  C   UNL     1     -25.358  28.444 -41.566  1.00  0.00     0.000 C 
BRANCH  18  19
ATOM     19  C   UNL     1     -26.054  29.309 -40.503  1.00  0.00     0.000 C 
BRANCH  19  20
ATOM     20  C   UNL     1     -26.973  28.491 -39.584  1.00  0.00     0.006 C 
BRANCH  20  21
ATOM     21  C   UNL     1     -26.423  28.451 -38.155  1.00  0.00     0.053 C 
BRANCH  21  22
ATOM     22  C   UNL     1     -27.520  28.655 -37.157  1.00  0.00     0.041 C 
ATOM     23  O   UNL     1     -27.303  28.470 -35.929  1.00  0.00    -0.550 OA
ATOM     24  O   UNL     1     -28.783  29.054 -37.581  1.00  0.00    -0.550 OA
ENDBRANCH  21  22
ENDBRANCH  20  21
ENDBRANCH  19  20
ENDBRANCH  18  19
ENDBRANCH  17  18
ENDBRANCH  16  17
ENDBRANCH  15  16
ENDBRANCH  14  15
ENDBRANCH  13  14
ENDBRANCH   1  13
TORSDOF 20
ENDMDL
MODEL 8
REMARK VINA RESULT:    -3.376      3.377      7.228
REMARK INTER + INTRA:         -11.575
REMARK INTER:                  -8.173
REMARK INTRA:                  -3.402
REMARK UNBOUND:                -4.252
REMARK SMILES CCCCCCCCCCCCCCCCCCCCCC(=O)[O-]
REMARK SMILES IDX 12 1 11 2 10 3 9 4 8 5 7 6 6 7 5 8 4 9 3 10 2 11 1 12 13 13
REMARK SMILES IDX 14 14 15 15 16 16 17 17 18 18 19 19 20 20 21 21 22 22 23 23
REMARK SMILES IDX 24 24
REMARK H PARENT
REMARK Flexibility Score: inf
ROOT
ATOM      1  C   UNL     1     -23.654  30.693 -38.235  1.00  0.00     0.000 C 
ENDROOT
BRANCH   1   2
ATOM      2  C   UNL     1     -23.504  29.579 -39.283  1.00  0.00     0.000 C 
BRANCH   2   3
ATOM      3  C   UNL     1     -23.568  30.114 -40.724  1.00  0.00     0.000 C 
BRANCH   3   4
ATOM      4  C   UNL     1     -23.905  29.024 -41.758  1.00  0.00    -0.000 C 
BRANCH   4   5
ATOM      5  C   UNL     1     -25.316  28.414 -41.641  1.00  0.00    -0.000 C 
BRANCH   5   6
ATOM      6  C   UNL     1     -26.435  29.463 -41.756  1.00  0.00    -0.000 C 
BRANCH   6   7
ATOM      7  C   UNL     1     -27.326  29.536 -40.501  1.00  0.00    -0.000 C 
BRANCH   7   8
ATOM      8  C   UNL     1     -27.046  28.465 -39.429  1.00  0.00    -0.000 C 
BRANCH   8   9
ATOM      9  C   UNL     1     -26.964  29.046 -38.006  1.00  0.00    -0.000 C 
BRANCH   9  10
ATOM     10  C   UNL     1     -26.259  28.097 -37.023  1.00  0.00    -0.000 C 
BRANCH  10  11
ATOM     11  C   UNL     1     -27.112  27.791 -35.780  1.00  0.00    -0.003 C 
ATOM     12  C   UNL     1     -28.367  28.658 -35.752  1.00  0.00     0.004 C 
ENDBRANCH  10  11
ENDBRANCH   9  10
ENDBRANCH   8   9
ENDBRANCH   7   8
ENDBRANCH   6   7
ENDBRANCH   5   6
ENDBRANCH   4   5
ENDBRANCH   3   4
ENDBRANCH   2   3
ENDBRANCH   1   2
BRANCH   1  13
ATOM     13  C   UNL     1     -24.653  31.781 -38.664  1.00  0.00     0.000 C 
BRANCH  13  14
ATOM     14  C   UNL     1     -24.388  33.128 -37.971  1.00  0.00     0.000 C 
BRANCH  14  15
ATOM     15  C   UNL     1     -22.965  33.230 -37.397  1.00  0.00     0.000 C 
BRANCH  15  16
ATOM     16  C   UNL     1     -22.134  34.346 -38.058  1.00  0.00     0.000 C 
BRANCH  16  17
ATOM     17  C   UNL     1     -20.937  33.852 -38.890  1.00  0.00     0.000 C 
BRANCH  17  18
ATOM     18  C   UNL     1     -20.328  32.548 -38.344  1.00  0.00     0.000 C 
BRANCH  18  19
ATOM     19  C   UNL     1     -20.280  31.429 -39.397  1.00  0.00     0.000 C 
BRANCH  19  20
ATOM     20  C   UNL     1     -20.490  31.952 -40.826  1.00  0.00     0.006 C 
BRANCH  20  21
ATOM     21  C   UNL     1     -20.010  30.928 -41.859  1.00  0.00     0.053 C 
BRANCH  21  22
ATOM     22  C   UNL     1     -18.714  31.360 -42.473  1.00  0.00     0.041 C 
ATOM     23  O   UNL     1     -18.707  31.970 -43.575  1.00  0.00    -0.550 OA
ATOM     24  O   UNL     1     -17.513  31.093 -41.825  1.00  0.00    -0.550 OA
ENDBRANCH  21  22
ENDBRANCH  20  21
ENDBRANCH  19  20
ENDBRANCH  18  19
ENDBRANCH  17  18
ENDBRANCH  16  17
ENDBRANCH  15  16
ENDBRANCH  14  15
ENDBRANCH  13  14
ENDBRANCH   1  13
TORSDOF 20
ENDMDL
MODEL 9
REMARK VINA RESULT:    -3.367      1.876      3.593
REMARK INTER + INTRA:         -11.556
REMARK INTER:                  -7.991
REMARK INTRA:                  -3.565
REMARK UNBOUND:                -4.252
REMARK SMILES CCCCCCCCCCCCCCCCCCCCCC(=O)[O-]
REMARK SMILES IDX 12 1 11 2 10 3 9 4 8 5 7 6 6 7 5 8 4 9 3 10 2 11 1 12 13 13
REMARK SMILES IDX 14 14 15 15 16 16 17 17 18 18 19 19 20 20 21 21 22 22 23 23
REMARK SMILES IDX 24 24
REMARK H PARENT
REMARK Flexibility Score: inf
ROOT
ATOM      1  C   UNL     1     -18.816  32.332 -40.682  1.00  0.00     0.000 C 
ENDROOT
BRANCH   1   2
ATOM      2  C   UNL     1     -19.228  33.361 -39.618  1.00  0.00     0.000 C 
BRANCH   2   3
ATOM      3  C   UNL     1     -20.722  33.725 -39.698  1.00  0.00     0.000 C 
BRANCH   3   4
ATOM      4  C   UNL     1     -21.327  34.091 -38.331  1.00  0.00    -0.000 C 
BRANCH   4   5
ATOM      5  C   UNL     1     -22.862  33.998 -38.239  1.00  0.00    -0.000 C 
BRANCH   5   6
ATOM      6  C   UNL     1     -23.443  32.825 -39.048  1.00  0.00    -0.000 C 
BRANCH   6   7
ATOM      7  C   UNL     1     -23.503  31.510 -38.247  1.00  0.00    -0.000 C 
BRANCH   7   8
ATOM      8  C   UNL     1     -22.321  30.547 -38.469  1.00  0.00    -0.000 C 
BRANCH   8   9
ATOM      9  C   UNL     1     -21.874  29.837 -37.178  1.00  0.00    -0.000 C 
BRANCH   9  10
ATOM     10  C   UNL     1     -21.193  30.794 -36.186  1.00  0.00    -0.000 C 
BRANCH  10  11
ATOM     11  C   UNL     1     -19.830  31.298 -36.689  1.00  0.00    -0.003 C 
ATOM     12  C   UNL     1     -18.880  31.559 -35.524  1.00  0.00     0.004 C 
ENDBRANCH  10  11
ENDBRANCH   9  10
ENDBRANCH   8   9
ENDBRANCH   7   8
ENDBRANCH   6   7
ENDBRANCH   5   6
ENDBRANCH   4   5
ENDBRANCH   3   4
ENDBRANCH   2   3
ENDBRANCH   1   2
BRANCH   1  13
ATOM     13  C   UNL     1     -19.000  30.881 -40.208  1.00  0.00     0.000 C 
BRANCH  13  14
ATOM     14  C   UNL     1     -19.858  30.050 -41.176  1.00  0.00     0.000 C 
BRANCH  14  15
ATOM     15  C   UNL     1     -20.555  30.914 -42.242  1.00  0.00     0.000 C 
BRANCH  15  16
ATOM     16  C   UNL     1     -22.067  30.639 -42.337  1.00  0.00     0.000 C 
BRANCH  16  17
ATOM     17  C   UNL     1     -22.482  29.195 -42.000  1.00  0.00     0.000 C 
BRANCH  17  18
ATOM     18  C   UNL     1     -24.006  29.027 -41.872  1.00  0.00     0.000 C 
BRANCH  18  19
ATOM     19  C   UNL     1     -24.717  30.334 -41.485  1.00  0.00     0.000 C 
BRANCH  19  20
ATOM     20  C   UNL     1     -26.032  30.091 -40.729  1.00  0.00     0.006 C 
BRANCH  20  21
ATOM     21  C   UNL     1     -26.559  28.677 -40.989  1.00  0.00     0.053 C 
BRANCH  21  22
ATOM     22  C   UNL     1     -28.026  28.702 -41.288  1.00  0.00     0.041 C 
ATOM     23  O   UNL     1     -28.859  28.366 -40.405  1.00  0.00    -0.550 OA
ATOM     24  O   UNL     1     -28.474  29.101 -42.542  1.00  0.00    -0.550 OA
ENDBRANCH  21  22
ENDBRANCH  20  21
ENDBRANCH  19  20
ENDBRANCH  18  19
ENDBRANCH  17  18
ENDBRANCH  16  17
ENDBRANCH  15  16
ENDBRANCH  14  15
ENDBRANCH  13  14
ENDBRANCH   1  13
TORSDOF 20
ENDMDL
