MODEL 1
REMARK VINA RESULT:    -4.745      0.000      0.000
REMARK INTER + INTRA:          -8.825
REMARK INTER:                  -8.074
REMARK INTRA:                  -0.751
REMARK UNBOUND:                -0.751
REMARK SMILES CCCCCCCCCCCCCC(=O)[O-]
REMARK SMILES IDX 8 1 9 2 10 3 11 4 12 5 13 6 14 7 15 8 16 9 7 10 6 11 5 12
REMARK SMILES IDX 4 13 3 14 2 15 1 16
REMARK H PARENT
REMARK Flexibility Score: inf
ROOT
ATOM      1  C   UNL     1     113.419 102.333 112.419  1.00  0.00     0.000 C 
ENDROOT
BRANCH   1   2
ATOM      2  C   UNL     1     114.088 102.827 111.119  1.00  0.00     0.000 C 
BRANCH   2   3
ATOM      3  C   UNL     1     115.207 103.848 111.386  1.00  0.00     0.000 C 
BRANCH   3   4
ATOM      4  C   UNL     1     114.921 104.731 112.612  1.00  0.00     0.000 C 
BRANCH   4   5
ATOM      5  C   UNL     1     116.192 105.052 113.417  1.00  0.00     0.006 C 
BRANCH   5   6
ATOM      6  C   UNL     1     117.462 104.545 112.721  1.00  0.00     0.053 C 
BRANCH   6   7
ATOM      7  C   UNL     1     118.691 105.224 113.243  1.00  0.00     0.041 C 
ATOM      8  O   UNL     1     119.213 104.847 114.326  1.00  0.00    -0.550 OA
ATOM      9  O   UNL     1     119.240 106.299 112.554  1.00  0.00    -0.550 OA
ENDBRANCH   6   7
ENDBRANCH   5   6
ENDBRANCH   4   5
ENDBRANCH   3   4
ENDBRANCH   2   3
ENDBRANCH   1   2
BRANCH   1  10
ATOM     10  C   UNL     1     111.881 102.436 112.406  1.00  0.00     0.000 C 
BRANCH  10  11
ATOM     11  C   UNL     1     111.199 101.876 111.143  1.00  0.00    -0.000 C 
BRANCH  11  12
ATOM     12  C   UNL     1     110.143 102.801 110.510  1.00  0.00    -0.000 C 
BRANCH  12  13
ATOM     13  C   UNL     1     110.104 104.198 111.156  1.00  0.00    -0.000 C 
BRANCH  13  14
ATOM     14  C   UNL     1     108.863 105.008 110.720  1.00  0.00    -0.000 C 
BRANCH  14  15
ATOM     15  C   UNL     1     108.406 106.047 111.759  1.00  0.00    -0.003 C 
ATOM     16  C   UNL     1     108.359 107.469 111.206  1.00  0.00     0.004 C 
ENDBRANCH  14  15
ENDBRANCH  13  14
ENDBRANCH  12  13
ENDBRANCH  11  12
ENDBRANCH  10  11
ENDBRANCH   1  10
TORSDOF 12
ENDMDL
MODEL 2
REMARK VINA RESULT:    -4.528      3.948      7.756
REMARK INTER + INTRA:          -8.455
REMARK INTER:                  -7.768
REMARK INTRA:                  -0.687
REMARK UNBOUND:                -0.751
REMARK SMILES CCCCCCCCCCCCCC(=O)[O-]
REMARK SMILES IDX 8 1 9 2 10 3 11 4 12 5 13 6 14 7 15 8 16 9 7 10 6 11 5 12
REMARK SMILES IDX 4 13 3 14 2 15 1 16
REMARK H PARENT
REMARK Flexibility Score: inf
ROOT
ATOM      1  C   UNL     1     113.426 102.008 112.171  1.00  0.00     0.000 C 
ENDROOT
BRANCH   1   2
ATOM      2  C   UNL     1     111.951 102.427 112.346  1.00  0.00     0.000 C 
BRANCH   2   3
ATOM      3  C   UNL     1     111.057 101.927 111.198  1.00  0.00     0.000 C 
BRANCH   3   4
ATOM      4  C   UNL     1     110.370 103.075 110.441  1.00  0.00     0.000 C 
BRANCH   4   5
ATOM      5  C   UNL     1     109.787 104.139 111.388  1.00  0.00     0.006 C 
BRANCH   5   6
ATOM      6  C   UNL     1     108.792 105.065 110.676  1.00  0.00     0.053 C 
BRANCH   6   7
ATOM      7  C   UNL     1     108.429 106.246 111.524  1.00  0.00     0.041 C 
ATOM      8  O   UNL     1     107.836 106.080 112.622  1.00  0.00    -0.550 OA
ATOM      9  O   UNL     1     108.712 107.533 111.083  1.00  0.00    -0.550 OA
ENDBRANCH   6   7
ENDBRANCH   5   6
ENDBRANCH   4   5
ENDBRANCH   3   4
ENDBRANCH   2   3
ENDBRANCH   1   2
BRANCH   1  10
ATOM     10  C   UNL     1     114.249 102.976 111.300  1.00  0.00     0.000 C 
BRANCH  10  11
ATOM     11  C   UNL     1     114.481 104.371 111.911  1.00  0.00    -0.000 C 
BRANCH  11  12
ATOM     12  C   UNL     1     115.079 104.368 113.330  1.00  0.00    -0.000 C 
BRANCH  12  13
ATOM     13  C   UNL     1     116.326 105.261 113.459  1.00  0.00    -0.000 C 
BRANCH  13  14
ATOM     14  C   UNL     1     117.616 104.529 113.027  1.00  0.00    -0.000 C 
BRANCH  14  15
ATOM     15  C   UNL     1     118.907 105.269 113.418  1.00  0.00    -0.003 C 
ATOM     16  C   UNL     1     119.343 106.304 112.384  1.00  0.00     0.004 C 
ENDBRANCH  14  15
ENDBRANCH  13  14
ENDBRANCH  12  13
ENDBRANCH  11  12
ENDBRANCH  10  11
ENDBRANCH   1  10
TORSDOF 12
ENDMDL
MODEL 3
REMARK VINA RESULT:    -4.482      1.070      1.903
REMARK INTER + INTRA:          -8.378
REMARK INTER:                  -7.882
REMARK INTRA:                  -0.496
REMARK UNBOUND:                -0.751
REMARK SMILES CCCCCCCCCCCCCC(=O)[O-]
REMARK SMILES IDX 8 1 9 2 10 3 11 4 12 5 13 6 14 7 15 8 16 9 7 10 6 11 5 12
REMARK SMILES IDX 4 13 3 14 2 15 1 16
REMARK H PARENT
REMARK Flexibility Score: inf
ROOT
ATOM      1  C   UNL     1     111.786 101.983 111.346  1.00  0.00     0.000 C 
ENDROOT
BRANCH   1   2
ATOM      2  C   UNL     1     113.121 102.183 112.093  1.00  0.00     0.000 C 
BRANCH   2   3
ATOM      3  C   UNL     1     114.117 103.045 111.297  1.00  0.00     0.000 C 
BRANCH   3   4
ATOM      4  C   UNL     1     114.710 104.188 112.136  1.00  0.00     0.000 C 
BRANCH   4   5
ATOM      5  C   UNL     1     116.245 104.122 112.222  1.00  0.00     0.006 C 
BRANCH   5   6
ATOM      6  C   UNL     1     116.787 104.825 113.473  1.00  0.00     0.053 C 
BRANCH   6   7
ATOM      7  C   UNL     1     118.236 105.175 113.331  1.00  0.00     0.041 C 
ATOM      8  O   UNL     1     118.650 105.755 112.292  1.00  0.00    -0.550 OA
ATOM      9  O   UNL     1     119.138 104.826 114.329  1.00  0.00    -0.550 OA
ENDBRANCH   6   7
ENDBRANCH   5   6
ENDBRANCH   4   5
ENDBRANCH   3   4
ENDBRANCH   2   3
ENDBRANCH   1   2
BRANCH   1  10
ATOM     10  C   UNL     1     110.690 102.989 111.749  1.00  0.00     0.000 C 
BRANCH  10  11
ATOM     11  C   UNL     1     110.163 103.875 110.604  1.00  0.00    -0.000 C 
BRANCH  11  12
ATOM     12  C   UNL     1     108.887 104.673 110.933  1.00  0.00    -0.000 C 
BRANCH  12  13
ATOM     13  C   UNL     1     109.060 106.190 110.739  1.00  0.00    -0.000 C 
BRANCH  13  14
ATOM     14  C   UNL     1     107.990 107.002 111.500  1.00  0.00    -0.000 C 
BRANCH  14  15
ATOM     15  C   UNL     1     107.657 106.436 112.891  1.00  0.00    -0.003 C 
ATOM     16  C   UNL     1     106.194 106.629 113.283  1.00  0.00     0.004 C 
ENDBRANCH  14  15
ENDBRANCH  13  14
ENDBRANCH  12  13
ENDBRANCH  11  12
ENDBRANCH  10  11
ENDBRANCH   1  10
TORSDOF 12
ENDMDL
MODEL 4
REMARK VINA RESULT:    -3.909      1.720      3.076
REMARK INTER + INTRA:          -7.402
REMARK INTER:                  -6.836
REMARK INTRA:                  -0.566
REMARK UNBOUND:                -0.751
REMARK SMILES CCCCCCCCCCCCCC(=O)[O-]
REMARK SMILES IDX 8 1 9 2 10 3 11 4 12 5 13 6 14 7 15 8 16 9 7 10 6 11 5 12
REMARK SMILES IDX 4 13 3 14 2 15 1 16
REMARK H PARENT
REMARK Flexibility Score: inf
ROOT
ATOM      1  C   UNL     1     110.249 102.754 111.490  1.00  0.00     0.000 C 
ENDROOT
BRANCH   1   2
ATOM      2  C   UNL     1     111.575 102.025 111.188  1.00  0.00     0.000 C 
BRANCH   2   3
ATOM      3  C   UNL     1     112.697 102.417 112.166  1.00  0.00     0.000 C 
BRANCH   3   4
ATOM      4  C   UNL     1     114.000 102.800 111.447  1.00  0.00     0.000 C 
BRANCH   4   5
ATOM      5  C   UNL     1     114.460 104.230 111.780  1.00  0.00     0.006 C 
BRANCH   5   6
ATOM      6  C   UNL     1     115.132 104.317 113.156  1.00  0.00     0.053 C 
BRANCH   6   7
ATOM      7  C   UNL     1     116.575 104.701 113.047  1.00  0.00     0.041 C 
ATOM      8  O   UNL     1     117.023 105.678 113.704  1.00  0.00    -0.550 OA
ATOM      9  O   UNL     1     117.419 104.003 112.191  1.00  0.00    -0.550 OA
ENDBRANCH   6   7
ENDBRANCH   5   6
ENDBRANCH   4   5
ENDBRANCH   3   4
ENDBRANCH   2   3
ENDBRANCH   1   2
BRANCH   1  10
ATOM     10  C   UNL     1     110.115 104.121 110.791  1.00  0.00     0.000 C 
BRANCH  10  11
ATOM     11  C   UNL     1     108.743 104.804 110.947  1.00  0.00    -0.000 C 
BRANCH  11  12
ATOM     12  C   UNL     1     108.746 106.328 110.724  1.00  0.00    -0.000 C 
BRANCH  12  13
ATOM     13  C   UNL     1     108.352 107.121 111.983  1.00  0.00    -0.000 C 
BRANCH  13  14
ATOM     14  C   UNL     1     107.352 106.349 112.870  1.00  0.00    -0.000 C 
BRANCH  14  15
ATOM     15  C   UNL     1     106.016 107.082 113.079  1.00  0.00    -0.003 C 
ATOM     16  C   UNL     1     105.008 106.273 113.892  1.00  0.00     0.004 C 
ENDBRANCH  14  15
ENDBRANCH  13  14
ENDBRANCH  12  13
ENDBRANCH  11  12
ENDBRANCH  10  11
ENDBRANCH   1  10
TORSDOF 12
ENDMDL
MODEL 5
REMARK VINA RESULT:    -3.807      2.191      3.892
REMARK INTER + INTRA:          -7.228
REMARK INTER:                  -6.669
REMARK INTRA:                  -0.559
REMARK UNBOUND:                -0.751
REMARK SMILES CCCCCCCCCCCCCC(=O)[O-]
REMARK SMILES IDX 8 1 9 2 10 3 11 4 12 5 13 6 14 7 15 8 16 9 7 10 6 11 5 12
REMARK SMILES IDX 4 13 3 14 2 15 1 16
REMARK H PARENT
REMARK Flexibility Score: inf
ROOT
ATOM      1  C   UNL     1     110.060 103.764 110.574  1.00  0.00     0.000 C 
ENDROOT
BRANCH   1   2
ATOM      2  C   UNL     1     110.796 102.970 111.674  1.00  0.00     0.000 C 
BRANCH   2   3
ATOM      3  C   UNL     1     111.884 102.045 111.102  1.00  0.00     0.000 C 
BRANCH   3   4
ATOM      4  C   UNL     1     113.126 101.965 112.006  1.00  0.00     0.000 C 
BRANCH   4   5
ATOM      5  C   UNL     1     114.180 103.030 111.653  1.00  0.00     0.006 C 
BRANCH   5   6
ATOM      6  C   UNL     1     114.357 104.063 112.774  1.00  0.00     0.053 C 
BRANCH   6   7
ATOM      7  C   UNL     1     115.767 104.563 112.851  1.00  0.00     0.041 C 
ATOM      8  O   UNL     1     116.665 104.040 112.140  1.00  0.00    -0.550 OA
ATOM      9  O   UNL     1     116.097 105.583 113.735  1.00  0.00    -0.550 OA
ENDBRANCH   6   7
ENDBRANCH   5   6
ENDBRANCH   4   5
ENDBRANCH   3   4
ENDBRANCH   2   3
ENDBRANCH   1   2
BRANCH   1  10
ATOM     10  C   UNL     1     108.909 104.641 111.103  1.00  0.00     0.000 C 
BRANCH  10  11
ATOM     11  C   UNL     1     109.006 106.136 110.742  1.00  0.00    -0.000 C 
BRANCH  11  12
ATOM     12  C   UNL     1     108.029 107.052 111.502  1.00  0.00    -0.000 C 
BRANCH  12  13
ATOM     13  C   UNL     1     107.675 106.524 112.903  1.00  0.00    -0.000 C 
BRANCH  13  14
ATOM     14  C   UNL     1     106.250 106.930 113.339  1.00  0.00    -0.000 C 
BRANCH  14  15
ATOM     15  C   UNL     1     105.259 105.755 113.388  1.00  0.00    -0.003 C 
ATOM     16  C   UNL     1     103.831 106.186 113.711  1.00  0.00     0.004 C 
ENDBRANCH  14  15
ENDBRANCH  13  14
ENDBRANCH  12  13
ENDBRANCH  11  12
ENDBRANCH  10  11
ENDBRANCH   1  10
TORSDOF 12
ENDMDL
MODEL 6
REMARK VINA RESULT:    -3.671      4.969      8.189
REMARK INTER + INTRA:          -6.997
REMARK INTER:                  -6.361
REMARK INTRA:                  -0.636
REMARK UNBOUND:                -0.751
REMARK SMILES CCCCCCCCCCCCCC(=O)[O-]
REMARK SMILES IDX 8 1 9 2 10 3 11 4 12 5 13 6 14 7 15 8 16 9 7 10 6 11 5 12
REMARK SMILES IDX 4 13 3 14 2 15 1 16
REMARK H PARENT
REMARK Flexibility Score: inf
ROOT
ATOM      1  C   UNL     1     110.762 103.256 111.658  1.00  0.00     0.000 C 
ENDROOT
BRANCH   1   2
ATOM      2  C   UNL     1     109.884 103.771 110.498  1.00  0.00     0.000 C 
BRANCH   2   3
ATOM      3  C   UNL     1     108.710 104.636 110.989  1.00  0.00     0.000 C 
BRANCH   3   4
ATOM      4  C   UNL     1     109.017 106.141 110.923  1.00  0.00     0.000 C 
BRANCH   4   5
ATOM      5  C   UNL     1     107.942 106.993 111.620  1.00  0.00     0.006 C 
BRANCH   5   6
ATOM      6  C   UNL     1     107.642 106.499 113.041  1.00  0.00     0.053 C 
BRANCH   6   7
ATOM      7  C   UNL     1     106.170 106.361 113.282  1.00  0.00     0.041 C 
ATOM      8  O   UNL     1     105.459 107.384 113.469  1.00  0.00    -0.550 OA
ATOM      9  O   UNL     1     105.589 105.100 113.338  1.00  0.00    -0.550 OA
ENDBRANCH   6   7
ENDBRANCH   5   6
ENDBRANCH   4   5
ENDBRANCH   3   4
ENDBRANCH   2   3
ENDBRANCH   1   2
BRANCH   1  10
ATOM     10  C   UNL     1     111.783 102.182 111.237  1.00  0.00     0.000 C 
BRANCH  10  11
ATOM     11  C   UNL     1     113.055 102.112 112.104  1.00  0.00    -0.000 C 
BRANCH  11  12
ATOM     12  C   UNL     1     114.302 102.769 111.483  1.00  0.00    -0.000 C 
BRANCH  12  13
ATOM     13  C   UNL     1     114.469 104.245 111.888  1.00  0.00    -0.000 C 
BRANCH  13  14
ATOM     14  C   UNL     1     114.918 104.401 113.357  1.00  0.00    -0.000 C 
BRANCH  14  15
ATOM     15  C   UNL     1     116.267 105.122 113.518  1.00  0.00    -0.003 C 
ATOM     16  C   UNL     1     117.354 104.576 112.597  1.00  0.00     0.004 C 
ENDBRANCH  14  15
ENDBRANCH  13  14
ENDBRANCH  12  13
ENDBRANCH  11  12
ENDBRANCH  10  11
ENDBRANCH   1  10
TORSDOF 12
ENDMDL
MODEL 7
REMARK VINA RESULT:    -2.860      3.662      5.943
REMARK INTER + INTRA:          -5.618
REMARK INTER:                  -5.146
REMARK INTRA:                  -0.471
REMARK UNBOUND:                -0.751
REMARK SMILES CCCCCCCCCCCCCC(=O)[O-]
REMARK SMILES IDX 8 1 9 2 10 3 11 4 12 5 13 6 14 7 15 8 16 9 7 10 6 11 5 12
REMARK SMILES IDX 4 13 3 14 2 15 1 16
REMARK H PARENT
REMARK Flexibility Score: inf
ROOT
ATOM      1  C   UNL     1     108.500 106.048 111.119  1.00  0.00     0.000 C 
ENDROOT
BRANCH   1   2
ATOM      2  C   UNL     1     108.928 104.606 110.772  1.00  0.00     0.000 C 
BRANCH   2   3
ATOM      3  C   UNL     1     110.392 104.321 111.149  1.00  0.00     0.000 C 
BRANCH   3   4
ATOM      4  C   UNL     1     110.708 102.817 111.195  1.00  0.00     0.000 C 
BRANCH   4   5
ATOM      5  C   UNL     1     111.812 102.478 112.212  1.00  0.00     0.006 C 
BRANCH   5   6
ATOM      6  C   UNL     1     113.148 102.155 111.530  1.00  0.00     0.053 C 
BRANCH   6   7
ATOM      7  C   UNL     1     114.127 103.281 111.666  1.00  0.00     0.041 C 
ATOM      8  O   UNL     1     114.891 103.575 110.709  1.00  0.00    -0.550 OA
ATOM      9  O   UNL     1     114.222 103.982 112.862  1.00  0.00    -0.550 OA
ENDBRANCH   6   7
ENDBRANCH   5   6
ENDBRANCH   4   5
ENDBRANCH   3   4
ENDBRANCH   2   3
ENDBRANCH   1   2
BRANCH   1  10
ATOM     10  C   UNL     1     108.040 106.227 112.579  1.00  0.00     0.000 C 
BRANCH  10  11
ATOM     11  C   UNL     1     106.655 106.880 112.753  1.00  0.00    -0.000 C 
BRANCH  11  12
ATOM     12  C   UNL     1     105.730 106.181 113.766  1.00  0.00    -0.000 C 
BRANCH  12  13
ATOM     13  C   UNL     1     104.756 107.151 114.460  1.00  0.00    -0.000 C 
BRANCH  13  14
ATOM     14  C   UNL     1     105.492 108.198 115.324  1.00  0.00    -0.000 C 
BRANCH  14  15
ATOM     15  C   UNL     1     105.138 108.125 116.819  1.00  0.00    -0.003 C 
ATOM     16  C   UNL     1     104.024 107.127 117.125  1.00  0.00     0.004 C 
ENDBRANCH  14  15
ENDBRANCH  13  14
ENDBRANCH  12  13
ENDBRANCH  11  12
ENDBRANCH  10  11
ENDBRANCH   1  10
TORSDOF 12
ENDMDL
MODEL 8
REMARK VINA RESULT:    -2.204      3.875      7.861
REMARK INTER + INTRA:          -4.501
REMARK INTER:                  -4.250
REMARK INTRA:                  -0.251
REMARK UNBOUND:                -0.751
REMARK SMILES CCCCCCCCCCCCCC(=O)[O-]
REMARK SMILES IDX 8 1 9 2 10 3 11 4 12 5 13 6 14 7 15 8 16 9 7 10 6 11 5 12
REMARK SMILES IDX 4 13 3 14 2 15 1 16
REMARK H PARENT
REMARK Flexibility Score: inf
ROOT
ATOM      1  C   UNL     1     114.731 103.755 111.106  1.00  0.00     0.000 C 
ENDROOT
BRANCH   1   2
ATOM      2  C   UNL     1     113.659 102.670 110.870  1.00  0.00     0.000 C 
BRANCH   2   3
ATOM      3  C   UNL     1     113.141 102.061 112.185  1.00  0.00     0.000 C 
BRANCH   3   4
ATOM      4  C   UNL     1     111.652 102.356 112.425  1.00  0.00     0.000 C 
BRANCH   4   5
ATOM      5  C   UNL     1     110.963 102.958 111.188  1.00  0.00     0.006 C 
BRANCH   5   6
ATOM      6  C   UNL     1     109.542 103.448 111.497  1.00  0.00     0.053 C 
BRANCH   6   7
ATOM      7  C   UNL     1     109.167 104.632 110.659  1.00  0.00     0.041 C 
ATOM      8  O   UNL     1     109.332 105.799 111.101  1.00  0.00    -0.550 OA
ATOM      9  O   UNL     1     108.602 104.446 109.403  1.00  0.00    -0.550 OA
ENDBRANCH   6   7
ENDBRANCH   5   6
ENDBRANCH   4   5
ENDBRANCH   3   4
ENDBRANCH   2   3
ENDBRANCH   1   2
BRANCH   1  10
ATOM     10  C   UNL     1     114.297 104.856 112.093  1.00  0.00     0.000 C 
BRANCH  10  11
ATOM     11  C   UNL     1     115.006 104.826 113.461  1.00  0.00    -0.000 C 
BRANCH  11  12
ATOM     12  C   UNL     1     116.503 105.181 113.425  1.00  0.00    -0.000 C 
BRANCH  12  13
ATOM     13  C   UNL     1     117.320 104.251 112.510  1.00  0.00    -0.000 C 
BRANCH  13  14
ATOM     14  C   UNL     1     118.829 104.288 112.836  1.00  0.00    -0.000 C 
BRANCH  14  15
ATOM     15  C   UNL     1     119.159 104.999 114.160  1.00  0.00    -0.003 C 
ATOM     16  C   UNL     1     119.248 104.045 115.348  1.00  0.00     0.004 C 
ENDBRANCH  14  15
ENDBRANCH  13  14
ENDBRANCH  12  13
ENDBRANCH  11  12
ENDBRANCH  10  11
ENDBRANCH   1  10
TORSDOF 12
ENDMDL
