MODEL 1
REMARK VINA RESULT:    -3.593      0.000      0.000
REMARK INTER + INTRA:          -7.366
REMARK INTER:                  -5.694
REMARK INTRA:                  -1.672
REMARK UNBOUND:                -1.672
REMARK SMILES CCCCCCCCCCCC(=O)[O-]
REMARK SMILES IDX 7 1 8 2 9 3 10 4 11 5 12 6 13 7 14 8 6 9 5 10 4 11 3 12 2 13
REMARK SMILES IDX 1 14
REMARK H PARENT
REMARK Flexibility Score: inf
ROOT
ATOM      1  C   UNL     1     160.764 162.075 183.625  1.00  0.00     0.000 C 
ENDROOT
BRANCH   1   2
ATOM      2  C   UNL     1     160.401 160.780 182.879  1.00  0.00     0.000 C 
BRANCH   2   3
ATOM      3  C   UNL     1     160.064 161.020 181.397  1.00  0.00     0.000 C 
BRANCH   3   4
ATOM      4  C   UNL     1     161.126 160.467 180.424  1.00  0.00     0.006 C 
BRANCH   4   5
ATOM      5  C   UNL     1     161.670 161.549 179.482  1.00  0.00     0.053 C 
BRANCH   5   6
ATOM      6  C   UNL     1     162.893 161.060 178.773  1.00  0.00     0.041 C 
ATOM      7  O   UNL     1     163.290 161.636 177.726  1.00  0.00    -0.550 OA
ATOM      8  O   UNL     1     163.566 159.937 179.238  1.00  0.00    -0.550 OA
ENDBRANCH   5   6
ENDBRANCH   4   5
ENDBRANCH   3   4
ENDBRANCH   2   3
ENDBRANCH   1   2
BRANCH   1   9
ATOM      9  C   UNL     1     160.734 163.309 182.711  1.00  0.00     0.000 C 
BRANCH   9  10
ATOM     10  C   UNL     1     162.112 163.982 182.584  1.00  0.00    -0.000 C 
BRANCH  10  11
ATOM     11  C   UNL     1     163.265 163.075 183.052  1.00  0.00    -0.000 C 
BRANCH  11  12
ATOM     12  C   UNL     1     164.252 162.646 181.947  1.00  0.00    -0.000 C 
BRANCH  12  13
ATOM     13  C   UNL     1     164.930 161.284 182.174  1.00  0.00    -0.003 C 
ATOM     14  C   UNL     1     164.082 160.328 183.010  1.00  0.00     0.004 C 
ENDBRANCH  12  13
ENDBRANCH  11  12
ENDBRANCH  10  11
ENDBRANCH   9  10
ENDBRANCH   1   9
TORSDOF 10
ENDMDL
MODEL 2
REMARK VINA RESULT:    -3.535      2.402      4.383
REMARK INTER + INTRA:          -7.273
REMARK INTER:                  -6.036
REMARK INTRA:                  -1.237
REMARK UNBOUND:                -1.672
REMARK SMILES CCCCCCCCCCCC(=O)[O-]
REMARK SMILES IDX 7 1 8 2 9 3 10 4 11 5 12 6 13 7 14 8 6 9 5 10 4 11 3 12 2 13
REMARK SMILES IDX 1 14
REMARK H PARENT
REMARK Flexibility Score: inf
ROOT
ATOM      1  C   UNL     1     162.793 163.048 182.692  1.00  0.00     0.000 C 
ENDROOT
BRANCH   1   2
ATOM      2  C   UNL     1     163.992 162.190 183.129  1.00  0.00     0.000 C 
BRANCH   2   3
ATOM      3  C   UNL     1     163.779 160.689 182.869  1.00  0.00     0.000 C 
BRANCH   3   4
ATOM      4  C   UNL     1     165.090 159.876 182.823  1.00  0.00     0.006 C 
BRANCH   4   5
ATOM      5  C   UNL     1     165.907 160.164 181.557  1.00  0.00     0.053 C 
BRANCH   5   6
ATOM      6  C   UNL     1     167.316 160.522 181.913  1.00  0.00     0.041 C 
ATOM      7  O   UNL     1     168.277 159.881 181.414  1.00  0.00    -0.550 OA
ATOM      8  O   UNL     1     167.566 161.531 182.834  1.00  0.00    -0.550 OA
ENDBRANCH   5   6
ENDBRANCH   4   5
ENDBRANCH   3   4
ENDBRANCH   2   3
ENDBRANCH   1   2
BRANCH   1   9
ATOM      9  C   UNL     1     161.585 162.890 183.630  1.00  0.00     0.000 C 
BRANCH   9  10
ATOM     10  C   UNL     1     160.298 162.516 182.873  1.00  0.00    -0.000 C 
BRANCH  10  11
ATOM     11  C   UNL     1     159.972 161.013 182.954  1.00  0.00    -0.000 C 
BRANCH  11  12
ATOM     12  C   UNL     1     160.174 160.227 181.643  1.00  0.00    -0.000 C 
BRANCH  12  13
ATOM     13  C   UNL     1     160.500 161.090 180.411  1.00  0.00    -0.003 C 
ATOM     14  C   UNL     1     161.849 160.747 179.784  1.00  0.00     0.004 C 
ENDBRANCH  12  13
ENDBRANCH  11  12
ENDBRANCH  10  11
ENDBRANCH   9  10
ENDBRANCH   1   9
TORSDOF 10
ENDMDL
MODEL 3
REMARK VINA RESULT:    -3.526      3.220      5.288
REMARK INTER + INTRA:          -7.260
REMARK INTER:                  -6.202
REMARK INTRA:                  -1.057
REMARK UNBOUND:                -1.672
REMARK SMILES CCCCCCCCCCCC(=O)[O-]
REMARK SMILES IDX 7 1 8 2 9 3 10 4 11 5 12 6 13 7 14 8 6 9 5 10 4 11 3 12 2 13
REMARK SMILES IDX 1 14
REMARK H PARENT
REMARK Flexibility Score: inf
ROOT
ATOM      1  C   UNL     1     163.624 162.168 182.898  1.00  0.00     0.000 C 
ENDROOT
BRANCH   1   2
ATOM      2  C   UNL     1     163.700 160.638 183.041  1.00  0.00     0.000 C 
BRANCH   2   3
ATOM      3  C   UNL     1     165.146 160.116 183.111  1.00  0.00     0.000 C 
BRANCH   3   4
ATOM      4  C   UNL     1     166.211 161.224 182.968  1.00  0.00     0.006 C 
BRANCH   4   5
ATOM      5  C   UNL     1     166.997 161.444 184.268  1.00  0.00     0.053 C 
BRANCH   5   6
ATOM      6  C   UNL     1     167.202 162.905 184.515  1.00  0.00     0.041 C 
ATOM      7  O   UNL     1     168.303 163.446 184.235  1.00  0.00    -0.550 OA
ATOM      8  O   UNL     1     166.193 163.660 185.101  1.00  0.00    -0.550 OA
ENDBRANCH   5   6
ENDBRANCH   4   5
ENDBRANCH   3   4
ENDBRANCH   2   3
ENDBRANCH   1   2
BRANCH   1   9
ATOM      9  C   UNL     1     162.179 162.690 182.931  1.00  0.00     0.000 C 
BRANCH   9  10
ATOM     10  C   UNL     1     161.217 161.715 183.632  1.00  0.00    -0.000 C 
BRANCH  10  11
ATOM     11  C   UNL     1     160.089 161.221 182.707  1.00  0.00    -0.000 C 
BRANCH  11  12
ATOM     12  C   UNL     1     160.273 161.554 181.213  1.00  0.00    -0.000 C 
BRANCH  12  13
ATOM     13  C   UNL     1     160.746 160.380 180.338  1.00  0.00    -0.003 C 
ATOM     14  C   UNL     1     162.119 160.619 179.713  1.00  0.00     0.004 C 
ENDBRANCH  12  13
ENDBRANCH  11  12
ENDBRANCH  10  11
ENDBRANCH   9  10
ENDBRANCH   1   9
TORSDOF 10
ENDMDL
MODEL 4
REMARK VINA RESULT:    -3.475      2.462      3.859
REMARK INTER + INTRA:          -7.178
REMARK INTER:                  -5.682
REMARK INTRA:                  -1.496
REMARK UNBOUND:                -1.672
REMARK SMILES CCCCCCCCCCCC(=O)[O-]
REMARK SMILES IDX 7 1 8 2 9 3 10 4 11 5 12 6 13 7 14 8 6 9 5 10 4 11 3 12 2 13
REMARK SMILES IDX 1 14
REMARK H PARENT
REMARK Flexibility Score: inf
ROOT
ATOM      1  C   UNL     1     159.905 160.703 181.784  1.00  0.00     0.000 C 
ENDROOT
BRANCH   1   2
ATOM      2  C   UNL     1     160.853 160.963 182.967  1.00  0.00     0.000 C 
BRANCH   2   3
ATOM      3  C   UNL     1     160.696 162.375 183.558  1.00  0.00     0.000 C 
BRANCH   3   4
ATOM      4  C   UNL     1     160.161 163.413 182.549  1.00  0.00     0.006 C 
BRANCH   4   5
ATOM      5  C   UNL     1     161.260 164.362 182.056  1.00  0.00     0.053 C 
BRANCH   5   6
ATOM      6  C   UNL     1     160.707 165.330 181.058  1.00  0.00     0.041 C 
ATOM      7  O   UNL     1     161.029 165.241 179.844  1.00  0.00    -0.550 OA
ATOM      8  O   UNL     1     159.875 166.361 181.476  1.00  0.00    -0.550 OA
ENDBRANCH   5   6
ENDBRANCH   4   5
ENDBRANCH   3   4
ENDBRANCH   2   3
ENDBRANCH   1   2
BRANCH   1   9
ATOM      9  C   UNL     1     160.654 160.271 180.514  1.00  0.00     0.000 C 
BRANCH   9  10
ATOM     10  C   UNL     1     161.086 161.469 179.650  1.00  0.00    -0.000 C 
BRANCH  10  11
ATOM     11  C   UNL     1     162.598 161.484 179.362  1.00  0.00    -0.000 C 
BRANCH  11  12
ATOM     12  C   UNL     1     163.491 160.991 180.520  1.00  0.00    -0.000 C 
BRANCH  12  13
ATOM     13  C   UNL     1     163.976 162.092 181.480  1.00  0.00    -0.003 C 
ATOM     14  C   UNL     1     164.499 161.539 182.804  1.00  0.00     0.004 C 
ENDBRANCH  12  13
ENDBRANCH  11  12
ENDBRANCH  10  11
ENDBRANCH   9  10
ENDBRANCH   1   9
TORSDOF 10
ENDMDL
MODEL 5
REMARK VINA RESULT:    -3.434      2.345      4.400
REMARK INTER + INTRA:          -7.114
REMARK INTER:                  -5.812
REMARK INTRA:                  -1.302
REMARK UNBOUND:                -1.672
REMARK SMILES CCCCCCCCCCCC(=O)[O-]
REMARK SMILES IDX 7 1 8 2 9 3 10 4 11 5 12 6 13 7 14 8 6 9 5 10 4 11 3 12 2 13
REMARK SMILES IDX 1 14
REMARK H PARENT
REMARK Flexibility Score: inf
ROOT
ATOM      1  C   UNL     1     161.758 160.388 180.193  1.00  0.00     0.000 C 
ENDROOT
BRANCH   1   2
ATOM      2  C   UNL     1     162.852 161.467 180.134  1.00  0.00     0.000 C 
BRANCH   2   3
ATOM      3  C   UNL     1     164.158 161.032 180.823  1.00  0.00     0.000 C 
BRANCH   3   4
ATOM      4  C   UNL     1     163.974 160.636 182.303  1.00  0.00     0.006 C 
BRANCH   4   5
ATOM      5  C   UNL     1     165.186 159.875 182.854  1.00  0.00     0.053 C 
BRANCH   5   6
ATOM      6  C   UNL     1     166.428 160.699 182.720  1.00  0.00     0.041 C 
ATOM      7  O   UNL     1     166.476 161.857 183.211  1.00  0.00    -0.550 OA
ATOM      8  O   UNL     1     167.516 160.206 182.010  1.00  0.00    -0.550 OA
ENDBRANCH   5   6
ENDBRANCH   4   5
ENDBRANCH   3   4
ENDBRANCH   2   3
ENDBRANCH   1   2
BRANCH   1   9
ATOM      9  C   UNL     1     160.395 160.955 180.619  1.00  0.00     0.000 C 
BRANCH   9  10
ATOM     10  C   UNL     1     159.880 160.328 181.926  1.00  0.00    -0.000 C 
BRANCH  10  11
ATOM     11  C   UNL     1     160.565 160.907 183.177  1.00  0.00    -0.000 C 
BRANCH  11  12
ATOM     12  C   UNL     1     160.431 162.434 183.350  1.00  0.00    -0.000 C 
BRANCH  12  13
ATOM     13  C   UNL     1     161.752 163.217 183.256  1.00  0.00    -0.003 C 
ATOM     14  C   UNL     1     161.739 164.277 182.156  1.00  0.00     0.004 C 
ENDBRANCH  12  13
ENDBRANCH  11  12
ENDBRANCH  10  11
ENDBRANCH   9  10
ENDBRANCH   1   9
TORSDOF 10
ENDMDL
MODEL 6
REMARK VINA RESULT:    -3.428      1.806      3.958
REMARK INTER + INTRA:          -7.104
REMARK INTER:                  -5.603
REMARK INTRA:                  -1.501
REMARK UNBOUND:                -1.672
REMARK SMILES CCCCCCCCCCCC(=O)[O-]
REMARK SMILES IDX 7 1 8 2 9 3 10 4 11 5 12 6 13 7 14 8 6 9 5 10 4 11 3 12 2 13
REMARK SMILES IDX 1 14
REMARK H PARENT
REMARK Flexibility Score: inf
ROOT
ATOM      1  C   UNL     1     160.071 160.620 182.080  1.00  0.00     0.000 C 
ENDROOT
BRANCH   1   2
ATOM      2  C   UNL     1     160.264 162.011 182.708  1.00  0.00     0.000 C 
BRANCH   2   3
ATOM      3  C   UNL     1     161.568 162.125 183.517  1.00  0.00     0.000 C 
BRANCH   3   4
ATOM      4  C   UNL     1     162.594 161.018 183.197  1.00  0.00     0.006 C 
BRANCH   4   5
ATOM      5  C   UNL     1     163.946 161.590 182.753  1.00  0.00     0.053 C 
BRANCH   5   6
ATOM      6  C   UNL     1     164.800 160.516 182.156  1.00  0.00     0.041 C 
ATOM      7  O   UNL     1     165.609 159.876 182.877  1.00  0.00    -0.550 OA
ATOM      8  O   UNL     1     164.737 160.256 180.792  1.00  0.00    -0.550 OA
ENDBRANCH   5   6
ENDBRANCH   4   5
ENDBRANCH   3   4
ENDBRANCH   2   3
ENDBRANCH   1   2
BRANCH   1   9
ATOM      9  C   UNL     1     160.025 160.669 180.544  1.00  0.00     0.000 C 
BRANCH   9  10
ATOM     10  C   UNL     1     161.425 160.595 179.911  1.00  0.00    -0.000 C 
BRANCH  10  11
ATOM     11  C   UNL     1     161.832 161.901 179.206  1.00  0.00    -0.000 C 
BRANCH  11  12
ATOM     12  C   UNL     1     160.730 162.978 179.133  1.00  0.00    -0.000 C 
BRANCH  12  13
ATOM     13  C   UNL     1     160.982 164.226 179.997  1.00  0.00    -0.003 C 
ATOM     14  C   UNL     1     162.438 164.359 180.440  1.00  0.00     0.004 C 
ENDBRANCH  12  13
ENDBRANCH  11  12
ENDBRANCH  10  11
ENDBRANCH   9  10
ENDBRANCH   1   9
TORSDOF 10
ENDMDL
MODEL 7
REMARK VINA RESULT:    -3.355      2.278      4.743
REMARK INTER + INTRA:          -6.988
REMARK INTER:                  -5.660
REMARK INTRA:                  -1.328
REMARK UNBOUND:                -1.672
REMARK SMILES CCCCCCCCCCCC(=O)[O-]
REMARK SMILES IDX 7 1 8 2 9 3 10 4 11 5 12 6 13 7 14 8 6 9 5 10 4 11 3 12 2 13
REMARK SMILES IDX 1 14
REMARK H PARENT
REMARK Flexibility Score: inf
ROOT
ATOM      1  C   UNL     1     163.747 161.138 180.357  1.00  0.00     0.000 C 
ENDROOT
BRANCH   1   2
ATOM      2  C   UNL     1     163.846 162.233 181.432  1.00  0.00     0.000 C 
BRANCH   2   3
ATOM      3  C   UNL     1     164.088 161.665 182.842  1.00  0.00     0.000 C 
BRANCH   3   4
ATOM      4  C   UNL     1     164.750 160.271 182.842  1.00  0.00     0.006 C 
BRANCH   4   5
ATOM      5  C   UNL     1     166.103 160.271 183.564  1.00  0.00     0.053 C 
BRANCH   5   6
ATOM      6  C   UNL     1     167.225 160.259 182.575  1.00  0.00     0.041 C 
ATOM      7  O   UNL     1     168.376 160.638 182.917  1.00  0.00    -0.550 OA
ATOM      8  O   UNL     1     166.989 159.876 181.260  1.00  0.00    -0.550 OA
ENDBRANCH   5   6
ENDBRANCH   4   5
ENDBRANCH   3   4
ENDBRANCH   2   3
ENDBRANCH   1   2
BRANCH   1   9
ATOM      9  C   UNL     1     162.334 161.024 179.762  1.00  0.00     0.000 C 
BRANCH   9  10
ATOM     10  C   UNL     1     161.494 162.292 179.995  1.00  0.00    -0.000 C 
BRANCH  10  11
ATOM     11  C   UNL     1     160.247 162.032 180.860  1.00  0.00    -0.000 C 
BRANCH  11  12
ATOM     12  C   UNL     1     160.198 160.648 181.539  1.00  0.00    -0.000 C 
BRANCH  12  13
ATOM     13  C   UNL     1     160.382 160.666 183.067  1.00  0.00    -0.003 C 
ATOM     14  C   UNL     1     160.628 162.069 183.620  1.00  0.00     0.004 C 
ENDBRANCH  12  13
ENDBRANCH  11  12
ENDBRANCH  10  11
ENDBRANCH   9  10
ENDBRANCH   1   9
TORSDOF 10
ENDMDL
MODEL 8
REMARK VINA RESULT:    -1.708      1.763      4.126
REMARK INTER + INTRA:          -4.378
REMARK INTER:                  -3.217
REMARK INTRA:                  -1.161
REMARK UNBOUND:                -1.672
REMARK SMILES CCCCCCCCCCCC(=O)[O-]
REMARK SMILES IDX 7 1 8 2 9 3 10 4 11 5 12 6 13 7 14 8 6 9 5 10 4 11 3 12 2 13
REMARK SMILES IDX 1 14
REMARK H PARENT
REMARK Flexibility Score: inf
ROOT
ATOM      1  C   UNL     1     161.553 162.926 183.251  1.00  0.00     0.000 C 
ENDROOT
BRANCH   1   2
ATOM      2  C   UNL     1     163.063 162.832 183.528  1.00  0.00     0.000 C 
BRANCH   2   3
ATOM      3  C   UNL     1     163.823 162.058 182.437  1.00  0.00     0.000 C 
BRANCH   3   4
ATOM      4  C   UNL     1     164.168 160.607 182.833  1.00  0.00     0.006 C 
BRANCH   4   5
ATOM      5  C   UNL     1     165.644 160.445 183.217  1.00  0.00     0.053 C 
BRANCH   5   6
ATOM      6  C   UNL     1     166.476 160.185 182.002  1.00  0.00     0.041 C 
ATOM      7  O   UNL     1     167.730 160.289 182.058  1.00  0.00    -0.550 OA
ATOM      8  O   UNL     1     165.865 159.875 180.793  1.00  0.00    -0.550 OA
ENDBRANCH   5   6
ENDBRANCH   4   5
ENDBRANCH   3   4
ENDBRANCH   2   3
ENDBRANCH   1   2
BRANCH   1   9
ATOM      9  C   UNL     1     160.773 161.737 183.835  1.00  0.00     0.000 C 
BRANCH   9  10
ATOM     10  C   UNL     1     160.250 160.784 182.746  1.00  0.00    -0.000 C 
BRANCH  10  11
ATOM     11  C   UNL     1     159.890 161.512 181.438  1.00  0.00    -0.000 C 
BRANCH  11  12
ATOM     12  C   UNL     1     160.277 160.765 180.145  1.00  0.00    -0.000 C 
BRANCH  12  13
ATOM     13  C   UNL     1     161.759 160.363 180.045  1.00  0.00    -0.003 C 
ATOM     14  C   UNL     1     162.542 161.217 179.050  1.00  0.00     0.004 C 
ENDBRANCH  12  13
ENDBRANCH  11  12
ENDBRANCH  10  11
ENDBRANCH   9  10
ENDBRANCH   1   9
TORSDOF 10
ENDMDL
