MODEL 1
REMARK VINA RESULT:    -5.028      0.000      0.000
REMARK INTER + INTRA:          -5.906
REMARK INTER:                  -5.763
REMARK INTRA:                  -0.144
REMARK UNBOUND:                -0.144
REMARK SMILES O=C([O-])C=Cc1ccc(O)cc1
REMARK SMILES IDX 6 1 7 2 12 3 8 4 11 5 9 6 5 7 4 8 2 9 1 10 3 11 10 12
REMARK H PARENT 10 13
REMARK Flexibility Score: inf
ROOT
ATOM      1  C   UNL     1     -15.535 -46.939  -3.028  1.00  0.00    -0.025 A 
ATOM      2  C   UNL     1     -15.066 -46.347  -4.213  1.00  0.00     0.012 A 
ATOM      3  C   UNL     1     -15.165 -48.269  -2.740  1.00  0.00     0.012 A 
ATOM      4  C   UNL     1     -14.227 -47.053  -5.078  1.00  0.00     0.047 A 
ATOM      5  C   UNL     1     -14.325 -48.973  -3.610  1.00  0.00     0.047 A 
ATOM      6  C   UNL     1     -13.852 -48.367  -4.780  1.00  0.00     0.115 A 
ENDROOT
BRANCH   1   7
ATOM      7  C   UNL     1     -16.432 -46.151  -2.146  1.00  0.00     0.010 C 
ATOM      8  C   UNL     1     -17.467 -45.427  -2.592  1.00  0.00     0.025 C 
BRANCH   8   9
ATOM      9  C   UNL     1     -18.337 -44.670  -1.678  1.00  0.00     0.064 C 
ATOM     10  O   UNL     1     -19.224 -45.274  -1.021  1.00  0.00    -0.545 OA
ATOM     11  O   UNL     1     -18.195 -43.294  -1.527  1.00  0.00    -0.545 OA
ENDBRANCH   8   9
ENDBRANCH   1   7
BRANCH   6  12
ATOM     12  O   UNL     1     -13.014 -49.059  -5.651  1.00  0.00    -0.508 OA
ATOM     13  H   UNL     1     -13.384 -49.695  -6.347  1.00  0.00     0.293 HD
ENDBRANCH   6  12
TORSDOF 3
ENDMDL
MODEL 2
REMARK VINA RESULT:    -5.019      4.176      6.238
REMARK INTER + INTRA:          -5.896
REMARK INTER:                  -5.762
REMARK INTRA:                  -0.134
REMARK UNBOUND:                -0.144
REMARK SMILES O=C([O-])C=Cc1ccc(O)cc1
REMARK SMILES IDX 6 1 7 2 12 3 8 4 11 5 9 6 5 7 4 8 2 9 1 10 3 11 10 12
REMARK H PARENT 10 13
REMARK Flexibility Score: inf
ROOT
ATOM      1  C   UNL     1     -12.193 -46.742  -3.161  1.00  0.00    -0.025 A 
ATOM      2  C   UNL     1     -12.564 -47.963  -3.751  1.00  0.00     0.012 A 
ATOM      3  C   UNL     1     -12.737 -46.399  -1.906  1.00  0.00     0.012 A 
ATOM      4  C   UNL     1     -13.436 -48.834  -3.093  1.00  0.00     0.047 A 
ATOM      5  C   UNL     1     -13.611 -47.275  -1.252  1.00  0.00     0.047 A 
ATOM      6  C   UNL     1     -13.961 -48.495  -1.843  1.00  0.00     0.115 A 
ENDROOT
BRANCH   1   7
ATOM      7  C   UNL     1     -11.272 -45.845  -3.903  1.00  0.00     0.010 C 
ATOM      8  C   UNL     1     -10.173 -45.297  -3.367  1.00  0.00     0.025 C 
BRANCH   8   9
ATOM      9  C   UNL     1      -9.282 -44.422  -4.145  1.00  0.00     0.064 C 
ATOM     10  O   UNL     1      -8.361 -44.930  -4.837  1.00  0.00    -0.545 OA
ATOM     11  O   UNL     1      -9.440 -43.041  -4.131  1.00  0.00    -0.545 OA
ENDBRANCH   8   9
ENDBRANCH   1   7
BRANCH   6  12
ATOM     12  O   UNL     1     -14.828 -49.374  -1.198  1.00  0.00    -0.508 OA
ATOM     13  H   UNL     1     -15.282 -50.130  -1.697  1.00  0.00     0.293 HD
ENDBRANCH   6  12
TORSDOF 3
ENDMDL
MODEL 3
REMARK VINA RESULT:    -4.927      4.093      6.160
REMARK INTER + INTRA:          -5.790
REMARK INTER:                  -5.646
REMARK INTRA:                  -0.144
REMARK UNBOUND:                -0.144
REMARK SMILES O=C([O-])C=Cc1ccc(O)cc1
REMARK SMILES IDX 6 1 7 2 12 3 8 4 11 5 9 6 5 7 4 8 2 9 1 10 3 11 10 12
REMARK H PARENT 10 13
REMARK Flexibility Score: inf
ROOT
ATOM      1  C   UNL     1     -13.153 -48.026  -5.154  1.00  0.00    -0.025 A 
ATOM      2  C   UNL     1     -12.464 -47.761  -3.958  1.00  0.00     0.012 A 
ATOM      3  C   UNL     1     -14.337 -48.789  -5.103  1.00  0.00     0.012 A 
ATOM      4  C   UNL     1     -12.958 -48.224  -2.735  1.00  0.00     0.047 A 
ATOM      5  C   UNL     1     -14.827 -49.251  -3.876  1.00  0.00     0.047 A 
ATOM      6  C   UNL     1     -14.140 -48.968  -2.690  1.00  0.00     0.115 A 
ENDROOT
BRANCH   1   7
ATOM      7  C   UNL     1     -12.583 -47.521  -6.429  1.00  0.00     0.010 C 
ATOM      8  C   UNL     1     -12.029 -46.309  -6.569  1.00  0.00     0.025 C 
BRANCH   8   9
ATOM      9  C   UNL     1     -11.466 -45.855  -7.851  1.00  0.00     0.064 C 
ATOM     10  O   UNL     1     -11.957 -44.846  -8.422  1.00  0.00    -0.545 OA
ATOM     11  O   UNL     1     -10.400 -46.522  -8.443  1.00  0.00    -0.545 OA
ENDBRANCH   8   9
ENDBRANCH   1   7
BRANCH   6  12
ATOM     12  O   UNL     1     -14.621 -49.422  -1.464  1.00  0.00    -0.508 OA
ATOM     13  H   UNL     1     -13.995 -49.757  -0.741  1.00  0.00     0.293 HD
ENDBRANCH   6  12
TORSDOF 3
ENDMDL
MODEL 4
REMARK VINA RESULT:    -4.875      2.931      3.091
REMARK INTER + INTRA:          -5.731
REMARK INTER:                  -5.593
REMARK INTRA:                  -0.138
REMARK UNBOUND:                -0.144
REMARK SMILES O=C([O-])C=Cc1ccc(O)cc1
REMARK SMILES IDX 6 1 7 2 12 3 8 4 11 5 9 6 5 7 4 8 2 9 1 10 3 11 10 12
REMARK H PARENT 10 13
REMARK Flexibility Score: inf
ROOT
ATOM      1  C   UNL     1     -14.228 -48.264  -1.875  1.00  0.00    -0.025 A 
ATOM      2  C   UNL     1     -13.036 -47.591  -2.190  1.00  0.00     0.012 A 
ATOM      3  C   UNL     1     -14.889 -48.988  -2.889  1.00  0.00     0.012 A 
ATOM      4  C   UNL     1     -12.499 -47.658  -3.478  1.00  0.00     0.047 A 
ATOM      5  C   UNL     1     -14.348 -49.051  -4.178  1.00  0.00     0.047 A 
ATOM      6  C   UNL     1     -13.152 -48.388  -4.475  1.00  0.00     0.115 A 
ENDROOT
BRANCH   1   7
ATOM      7  C   UNL     1     -14.763 -48.155  -0.494  1.00  0.00     0.010 C 
ATOM      8  C   UNL     1     -15.419 -47.083  -0.032  1.00  0.00     0.025 C 
BRANCH   8   9
ATOM      9  C   UNL     1     -15.941 -47.023   1.342  1.00  0.00     0.064 C 
ATOM     10  O   UNL     1     -16.560 -48.012   1.815  1.00  0.00    -0.545 OA
ATOM     11  O   UNL     1     -15.763 -45.891   2.130  1.00  0.00    -0.545 OA
ENDBRANCH   8   9
ENDBRANCH   1   7
BRANCH   6  12
ATOM     12  O   UNL     1     -12.605 -48.447  -5.755  1.00  0.00    -0.508 OA
ATOM     13  H   UNL     1     -13.092 -48.062  -6.557  1.00  0.00     0.293 HD
ENDBRANCH   6  12
TORSDOF 3
ENDMDL
MODEL 5
REMARK VINA RESULT:    -4.805      4.548      6.474
REMARK INTER + INTRA:          -5.651
REMARK INTER:                  -5.508
REMARK INTRA:                  -0.143
REMARK UNBOUND:                -0.144
REMARK SMILES O=C([O-])C=Cc1ccc(O)cc1
REMARK SMILES IDX 6 1 7 2 12 3 8 4 11 5 9 6 5 7 4 8 2 9 1 10 3 11 10 12
REMARK H PARENT 10 13
REMARK Flexibility Score: inf
ROOT
ATOM      1  C   UNL     1     -11.697 -45.604  -2.893  1.00  0.00    -0.025 A 
ATOM      2  C   UNL     1     -10.602 -44.723  -2.888  1.00  0.00     0.012 A 
ATOM      3  C   UNL     1     -12.392 -45.832  -1.687  1.00  0.00     0.012 A 
ATOM      4  C   UNL     1     -10.225 -44.063  -1.715  1.00  0.00     0.047 A 
ATOM      5  C   UNL     1     -12.010 -45.170  -0.516  1.00  0.00     0.047 A 
ATOM      6  C   UNL     1     -10.927 -44.283  -0.527  1.00  0.00     0.115 A 
ENDROOT
BRANCH   1   7
ATOM      7  C   UNL     1     -12.053 -46.288  -4.162  1.00  0.00     0.010 C 
ATOM      8  C   UNL     1     -12.599 -47.510  -4.222  1.00  0.00     0.025 C 
BRANCH   8   9
ATOM      9  C   UNL     1     -12.946 -48.144  -5.503  1.00  0.00     0.064 C 
ATOM     10  O   UNL     1     -12.545 -47.630  -6.580  1.00  0.00    -0.545 OA
ATOM     11  O   UNL     1     -13.710 -49.306  -5.546  1.00  0.00    -0.545 OA
ENDBRANCH   8   9
ENDBRANCH   1   7
BRANCH   6  12
ATOM     12  O   UNL     1     -10.541 -43.618   0.635  1.00  0.00    -0.508 OA
ATOM     13  H   UNL     1      -9.842 -44.005   1.258  1.00  0.00     0.293 HD
ENDBRANCH   6  12
TORSDOF 3
ENDMDL
MODEL 6
REMARK VINA RESULT:    -4.760      1.306      5.944
REMARK INTER + INTRA:          -5.599
REMARK INTER:                  -5.458
REMARK INTRA:                  -0.142
REMARK UNBOUND:                -0.144
REMARK SMILES O=C([O-])C=Cc1ccc(O)cc1
REMARK SMILES IDX 6 1 7 2 12 3 8 4 11 5 9 6 5 7 4 8 2 9 1 10 3 11 10 12
REMARK H PARENT 10 13
REMARK Flexibility Score: inf
ROOT
ATOM      1  C   UNL     1     -16.408 -45.952  -2.289  1.00  0.00    -0.025 A 
ATOM      2  C   UNL     1     -16.112 -45.815  -0.922  1.00  0.00     0.012 A 
ATOM      3  C   UNL     1     -17.576 -45.346  -2.797  1.00  0.00     0.012 A 
ATOM      4  C   UNL     1     -16.946 -45.068  -0.085  1.00  0.00     0.047 A 
ATOM      5  C   UNL     1     -18.408 -44.601  -1.955  1.00  0.00     0.047 A 
ATOM      6  C   UNL     1     -18.095 -44.458  -0.598  1.00  0.00     0.115 A 
ENDROOT
BRANCH   1   7
ATOM      7  C   UNL     1     -15.497 -46.763  -3.136  1.00  0.00     0.010 C 
ATOM      8  C   UNL     1     -15.106 -48.007  -2.830  1.00  0.00     0.025 C 
BRANCH   8   9
ATOM      9  C   UNL     1     -14.208 -48.777  -3.706  1.00  0.00     0.064 C 
ATOM     10  O   UNL     1     -12.969 -48.772  -3.485  1.00  0.00    -0.545 OA
ATOM     11  O   UNL     1     -14.707 -49.514  -4.775  1.00  0.00    -0.545 OA
ENDBRANCH   8   9
ENDBRANCH   1   7
BRANCH   6  12
ATOM     12  O   UNL     1     -18.917 -43.717   0.248  1.00  0.00    -0.508 OA
ATOM     13  H   UNL     1     -19.610 -43.075  -0.118  1.00  0.00     0.293 HD
ENDBRANCH   6  12
TORSDOF 3
ENDMDL
MODEL 7
REMARK VINA RESULT:    -4.720      4.166      5.851
REMARK INTER + INTRA:          -5.553
REMARK INTER:                  -5.420
REMARK INTRA:                  -0.134
REMARK UNBOUND:                -0.144
REMARK SMILES O=C([O-])C=Cc1ccc(O)cc1
REMARK SMILES IDX 6 1 7 2 12 3 8 4 11 5 9 6 5 7 4 8 2 9 1 10 3 11 10 12
REMARK H PARENT 10 13
REMARK Flexibility Score: inf
ROOT
ATOM      1  C   UNL     1     -11.461 -45.948  -3.720  1.00  0.00    -0.025 A 
ATOM      2  C   UNL     1     -10.476 -45.266  -2.985  1.00  0.00     0.012 A 
ATOM      3  C   UNL     1     -11.565 -45.708  -5.106  1.00  0.00     0.012 A 
ATOM      4  C   UNL     1      -9.598 -44.384  -3.621  1.00  0.00     0.047 A 
ATOM      5  C   UNL     1     -10.685 -44.823  -5.737  1.00  0.00     0.047 A 
ATOM      6  C   UNL     1      -9.698 -44.160  -4.997  1.00  0.00     0.115 A 
ENDROOT
BRANCH   1   7
ATOM      7  C   UNL     1     -12.376 -46.868  -2.998  1.00  0.00     0.010 C 
ATOM      8  C   UNL     1     -12.763 -48.059  -3.474  1.00  0.00     0.025 C 
BRANCH   8   9
ATOM      9  C   UNL     1     -13.664 -48.943  -2.718  1.00  0.00     0.064 C 
ATOM     10  O   UNL     1     -14.904 -48.896  -2.931  1.00  0.00    -0.545 OA
ATOM     11  O   UNL     1     -13.169 -49.832  -1.770  1.00  0.00    -0.545 OA
ENDBRANCH   8   9
ENDBRANCH   1   7
BRANCH   6  12
ATOM     12  O   UNL     1      -8.816 -43.279  -5.617  1.00  0.00    -0.508 OA
ATOM     13  H   UNL     1      -7.999 -42.920  -5.135  1.00  0.00     0.293 HD
ENDBRANCH   6  12
TORSDOF 3
ENDMDL
MODEL 8
REMARK VINA RESULT:    -4.709      4.307      6.099
REMARK INTER + INTRA:          -5.541
REMARK INTER:                  -5.394
REMARK INTRA:                  -0.147
REMARK UNBOUND:                -0.144
REMARK SMILES O=C([O-])C=Cc1ccc(O)cc1
REMARK SMILES IDX 6 1 7 2 12 3 8 4 11 5 9 6 5 7 4 8 2 9 1 10 3 11 10 12
REMARK H PARENT 10 13
REMARK Flexibility Score: inf
ROOT
ATOM      1  C   UNL     1     -11.400 -45.833  -3.450  1.00  0.00    -0.025 A 
ATOM      2  C   UNL     1     -10.991 -45.209  -4.642  1.00  0.00     0.012 A 
ATOM      3  C   UNL     1     -10.982 -45.288  -2.219  1.00  0.00     0.012 A 
ATOM      4  C   UNL     1     -10.205 -44.054  -4.607  1.00  0.00     0.047 A 
ATOM      5  C   UNL     1     -10.194 -44.132  -2.189  1.00  0.00     0.047 A 
ATOM      6  C   UNL     1      -9.805 -43.511  -3.382  1.00  0.00     0.115 A 
ENDROOT
BRANCH   1   7
ATOM      7  C   UNL     1     -12.227 -47.063  -3.540  1.00  0.00     0.010 C 
ATOM      8  C   UNL     1     -13.045 -47.337  -4.564  1.00  0.00     0.025 C 
BRANCH   8   9
ATOM      9  C   UNL     1     -13.838 -48.576  -4.615  1.00  0.00     0.064 C 
ATOM     10  O   UNL     1     -13.678 -49.378  -5.572  1.00  0.00    -0.545 OA
ATOM     11  O   UNL     1     -14.764 -48.877  -3.622  1.00  0.00    -0.545 OA
ENDBRANCH   8   9
ENDBRANCH   1   7
BRANCH   6  12
ATOM     12  O   UNL     1      -9.022 -42.359  -3.362  1.00  0.00    -0.508 OA
ATOM     13  H   UNL     1      -8.440 -42.101  -4.150  1.00  0.00     0.293 HD
ENDBRANCH   6  12
TORSDOF 3
ENDMDL
MODEL 9
REMARK VINA RESULT:    -4.600      1.300      5.696
REMARK INTER + INTRA:          -5.416
REMARK INTER:                  -5.265
REMARK INTRA:                  -0.151
REMARK UNBOUND:                -0.144
REMARK SMILES O=C([O-])C=Cc1ccc(O)cc1
REMARK SMILES IDX 6 1 7 2 12 3 8 4 11 5 9 6 5 7 4 8 2 9 1 10 3 11 10 12
REMARK H PARENT 10 13
REMARK Flexibility Score: inf
ROOT
ATOM      1  C   UNL     1     -16.074 -45.883  -2.906  1.00  0.00    -0.025 A 
ATOM      2  C   UNL     1     -16.503 -45.071  -3.970  1.00  0.00     0.012 A 
ATOM      3  C   UNL     1     -16.489 -45.562  -1.596  1.00  0.00     0.012 A 
ATOM      4  C   UNL     1     -17.346 -43.982  -3.740  1.00  0.00     0.047 A 
ATOM      5  C   UNL     1     -17.333 -44.469  -1.371  1.00  0.00     0.047 A 
ATOM      6  C   UNL     1     -17.765 -43.677  -2.441  1.00  0.00     0.115 A 
ENDROOT
BRANCH   1   7
ATOM      7  C   UNL     1     -15.171 -47.024  -3.200  1.00  0.00     0.010 C 
ATOM      8  C   UNL     1     -14.610 -47.240  -4.397  1.00  0.00     0.025 C 
BRANCH   8   9
ATOM      9  C   UNL     1     -13.711 -48.379  -4.640  1.00  0.00     0.064 C 
ATOM     10  O   UNL     1     -13.940 -49.157  -5.603  1.00  0.00    -0.545 OA
ATOM     11  O   UNL     1     -12.611 -48.613  -3.822  1.00  0.00    -0.545 OA
ENDBRANCH   8   9
ENDBRANCH   1   7
BRANCH   6  12
ATOM     12  O   UNL     1     -18.607 -42.588  -2.226  1.00  0.00    -0.508 OA
ATOM     13  H   UNL     1     -19.364 -42.371  -2.864  1.00  0.00     0.293 HD
ENDBRANCH   6  12
TORSDOF 3
ENDMDL
