MODEL 1
REMARK VINA RESULT:    -6.208      0.000      0.000
REMARK INTER + INTRA:         -10.331
REMARK INTER:                  -8.567
REMARK INTRA:                  -1.764
REMARK UNBOUND:                -1.764
REMARK SMILES CC[C@@H](CC[C@H](C)[C@H]1CC[C@@H]2[C@@H]3CC=C4C[C@@H](O)CC[C@@]4(C)[C@H]3CC[C@@]21C)C(C)C
REMARK SMILES IDX 5 1 4 2 3 3 2 4 1 5 28 6 29 7 30 8 6 9 7 10 8 11 9 12 26 13
REMARK SMILES IDX 10 14 11 15 25 16 27 17 12 18 24 19 23 20 13 21 21 22 14 23
REMARK SMILES IDX 15 24 20 25 22 26 16 27 19 28 17 29 18 30
REMARK H PARENT 18 31
REMARK Flexibility Score: inf
ROOT
ATOM      1  C   UNL     1     130.257 146.428 119.391  1.00  0.00     0.004 C 
ENDROOT
BRANCH   1   2
ATOM      2  C   UNL     1     131.509 146.424 120.297  1.00  0.00     0.004 C 
BRANCH   2   3
ATOM      3  C   UNL     1     132.720 145.595 119.770  1.00  0.00    -0.009 C 
BRANCH   3   4
ATOM      4  C   UNL     1     132.745 144.155 120.370  1.00  0.00     0.000 C 
ATOM      5  C   UNL     1     132.099 143.057 119.509  1.00  0.00     0.004 C 
ENDBRANCH   3   4
BRANCH   3   6
ATOM      6  C   UNL     1     134.091 146.350 119.856  1.00  0.00    -0.014 C 
ATOM      7  C   UNL     1     134.829 146.188 121.195  1.00  0.00     0.007 C 
ATOM      8  C   UNL     1     135.030 145.984 118.694  1.00  0.00     0.007 C 
ENDBRANCH   3   6
ENDBRANCH   2   3
ENDBRANCH   1   2
BRANCH   1   9
ATOM      9  C   UNL     1     129.196 145.343 119.780  1.00  0.00    -0.011 C 
ATOM     10  C   UNL     1     128.089 145.303 118.706  1.00  0.00     0.008 C 
BRANCH   9  11
ATOM     11  C   UNL     1     128.656 145.539 121.248  1.00  0.00    -0.002 C 
ATOM     12  C   UNL     1     127.325 146.270 121.384  1.00  0.00     0.005 C 
ATOM     13  C   UNL     1     128.497 144.271 122.144  1.00  0.00    -0.026 C 
ATOM     14  C   UNL     1     126.980 146.112 122.851  1.00  0.00     0.005 C 
ATOM     15  C   UNL     1     127.526 144.728 123.282  1.00  0.00    -0.001 C 
ATOM     16  C   UNL     1     129.866 143.789 122.694  1.00  0.00     0.007 C 
ATOM     17  C   UNL     1     127.843 143.087 121.382  1.00  0.00     0.012 C 
ATOM     18  C   UNL     1     128.152 144.680 124.718  1.00  0.00     0.000 C 
ATOM     19  C   UNL     1     130.525 144.748 123.703  1.00  0.00     0.005 C 
ATOM     20  C   UNL     1     129.555 145.341 124.785  1.00  0.00     0.003 C 
ATOM     21  C   UNL     1     127.211 145.333 125.737  1.00  0.00     0.031 C 
ATOM     22  C   UNL     1     130.143 145.474 126.279  1.00  0.00    -0.008 C 
ATOM     23  C   UNL     1     127.756 145.199 127.114  1.00  0.00    -0.027 C 
ATOM     24  C   UNL     1     129.071 145.288 127.379  1.00  0.00    -0.065 C 
ATOM     25  C   UNL     1     131.284 144.441 126.573  1.00  0.00     0.014 C 
ATOM     26  C   UNL     1     130.725 146.908 126.419  1.00  0.00     0.016 C 
ATOM     27  C   UNL     1     129.512 145.199 128.830  1.00  0.00     0.063 C 
ATOM     28  C   UNL     1     131.737 144.362 128.045  1.00  0.00     0.033 C 
ATOM     29  C   UNL     1     130.562 144.103 128.997  1.00  0.00     0.118 C 
BRANCH  29  30
ATOM     30  O   UNL     1     129.988 142.845 128.734  1.00  0.00    -0.393 OA
ATOM     31  H   UNL     1     129.071 143.022 128.398  1.00  0.00     0.210 HD
ENDBRANCH  29  30
ENDBRANCH   9  11
ENDBRANCH   1   9
TORSDOF 7
ENDMDL
MODEL 2
REMARK VINA RESULT:    -6.107      2.054      3.694
REMARK INTER + INTRA:         -10.191
REMARK INTER:                  -7.589
REMARK INTRA:                  -2.602
REMARK UNBOUND:                -1.764
REMARK SMILES CC[C@@H](CC[C@H](C)[C@H]1CC[C@@H]2[C@@H]3CC=C4C[C@@H](O)CC[C@@]4(C)[C@H]3CC[C@@]21C)C(C)C
REMARK SMILES IDX 5 1 4 2 3 3 2 4 1 5 28 6 29 7 30 8 6 9 7 10 8 11 9 12 26 13
REMARK SMILES IDX 10 14 11 15 25 16 27 17 12 18 24 19 23 20 13 21 21 22 14 23
REMARK SMILES IDX 15 24 20 25 22 26 16 27 19 28 17 29 18 30
REMARK H PARENT 18 31
REMARK Flexibility Score: inf
ROOT
ATOM      1  C   UNL     1     127.213 142.653 120.456  1.00  0.00     0.004 C 
ENDROOT
BRANCH   1   2
ATOM      2  C   UNL     1     128.293 141.936 121.298  1.00  0.00     0.004 C 
BRANCH   2   3
ATOM      3  C   UNL     1     129.365 141.146 120.487  1.00  0.00    -0.009 C 
BRANCH   3   4
ATOM      4  C   UNL     1     129.140 139.604 120.572  1.00  0.00     0.000 C 
ATOM      5  C   UNL     1     127.941 139.056 119.783  1.00  0.00     0.004 C 
ENDBRANCH   3   4
BRANCH   3   6
ATOM      6  C   UNL     1     130.838 141.597 120.776  1.00  0.00    -0.014 C 
ATOM      7  C   UNL     1     131.457 142.501 119.696  1.00  0.00     0.007 C 
ATOM      8  C   UNL     1     130.983 142.260 122.156  1.00  0.00     0.007 C 
ENDBRANCH   3   6
ENDBRANCH   2   3
ENDBRANCH   1   2
BRANCH   1   9
ATOM      9  C   UNL     1     127.558 144.145 120.128  1.00  0.00    -0.011 C 
ATOM     10  C   UNL     1     128.008 144.254 118.655  1.00  0.00     0.008 C 
BRANCH   9  11
ATOM     11  C   UNL     1     128.584 144.757 121.156  1.00  0.00    -0.002 C 
ATOM     12  C   UNL     1     129.765 145.514 120.560  1.00  0.00     0.005 C 
ATOM     13  C   UNL     1     128.030 145.709 122.262  1.00  0.00    -0.026 C 
ATOM     14  C   UNL     1     130.429 146.147 121.767  1.00  0.00     0.005 C 
ATOM     15  C   UNL     1     129.292 146.487 122.763  1.00  0.00    -0.001 C 
ATOM     16  C   UNL     1     127.337 144.913 123.402  1.00  0.00     0.007 C 
ATOM     17  C   UNL     1     127.007 146.733 121.704  1.00  0.00     0.012 C 
ATOM     18  C   UNL     1     129.639 146.245 124.272  1.00  0.00     0.000 C 
ATOM     19  C   UNL     1     128.288 144.045 124.248  1.00  0.00     0.005 C 
ATOM     20  C   UNL     1     129.633 144.742 124.657  1.00  0.00     0.003 C 
ATOM     21  C   UNL     1     130.993 146.875 124.620  1.00  0.00     0.031 C 
ATOM     22  C   UNL     1     130.166 144.448 126.150  1.00  0.00    -0.008 C 
ATOM     23  C   UNL     1     131.277 146.736 126.073  1.00  0.00    -0.027 C 
ATOM     24  C   UNL     1     130.936 145.638 126.770  1.00  0.00    -0.065 C 
ATOM     25  C   UNL     1     129.010 144.084 127.143  1.00  0.00     0.014 C 
ATOM     26  C   UNL     1     131.142 143.243 126.062  1.00  0.00     0.016 C 
ATOM     27  C   UNL     1     131.331 145.576 128.236  1.00  0.00     0.063 C 
ATOM     28  C   UNL     1     129.417 144.010 128.628  1.00  0.00     0.033 C 
ATOM     29  C   UNL     1     130.105 145.297 129.102  1.00  0.00     0.118 C 
BRANCH  29  30
ATOM     30  O   UNL     1     129.212 146.383 129.033  1.00  0.00    -0.393 OA
ATOM     31  H   UNL     1     129.747 147.166 128.740  1.00  0.00     0.210 HD
ENDBRANCH  29  30
ENDBRANCH   9  11
ENDBRANCH   1   9
TORSDOF 7
ENDMDL
MODEL 3
REMARK VINA RESULT:    -6.058      1.987      3.652
REMARK INTER + INTRA:         -10.124
REMARK INTER:                  -7.448
REMARK INTRA:                  -2.675
REMARK UNBOUND:                -1.764
REMARK SMILES CC[C@@H](CC[C@H](C)[C@H]1CC[C@@H]2[C@@H]3CC=C4C[C@@H](O)CC[C@@]4(C)[C@H]3CC[C@@]21C)C(C)C
REMARK SMILES IDX 5 1 4 2 3 3 2 4 1 5 28 6 29 7 30 8 6 9 7 10 8 11 9 12 26 13
REMARK SMILES IDX 10 14 11 15 25 16 27 17 12 18 24 19 23 20 13 21 21 22 14 23
REMARK SMILES IDX 15 24 20 25 22 26 16 27 19 28 17 29 18 30
REMARK H PARENT 18 31
REMARK Flexibility Score: inf
ROOT
ATOM      1  C   UNL     1     130.346 142.999 119.881  1.00  0.00     0.004 C 
ENDROOT
BRANCH   1   2
ATOM      2  C   UNL     1     129.283 143.996 119.366  1.00  0.00     0.004 C 
BRANCH   2   3
ATOM      3  C   UNL     1     129.483 145.479 119.802  1.00  0.00    -0.009 C 
BRANCH   3   4
ATOM      4  C   UNL     1     130.933 145.746 120.312  1.00  0.00     0.000 C 
ATOM      5  C   UNL     1     131.592 147.043 119.816  1.00  0.00     0.004 C 
ENDBRANCH   3   4
BRANCH   3   6
ATOM      6  C   UNL     1     128.359 146.018 120.752  1.00  0.00    -0.014 C 
ATOM      7  C   UNL     1     127.022 145.262 120.659  1.00  0.00     0.007 C 
ATOM      8  C   UNL     1     128.819 146.086 122.218  1.00  0.00     0.007 C 
ENDBRANCH   3   6
ENDBRANCH   2   3
ENDBRANCH   1   2
BRANCH   1   9
ATOM      9  C   UNL     1     129.769 141.904 120.840  1.00  0.00    -0.011 C 
ATOM     10  C   UNL     1     128.567 141.213 120.162  1.00  0.00     0.008 C 
BRANCH   9  11
ATOM     11  C   UNL     1     129.452 142.477 122.274  1.00  0.00    -0.002 C 
ATOM     12  C   UNL     1     128.020 142.305 122.766  1.00  0.00     0.005 C 
ATOM     13  C   UNL     1     130.334 141.992 123.466  1.00  0.00    -0.026 C 
ATOM     14  C   UNL     1     128.085 142.748 124.214  1.00  0.00     0.005 C 
ATOM     15  C   UNL     1     129.485 142.338 124.734  1.00  0.00    -0.001 C 
ATOM     16  C   UNL     1     131.718 142.695 123.473  1.00  0.00     0.007 C 
ATOM     17  C   UNL     1     130.577 140.459 123.437  1.00  0.00     0.012 C 
ATOM     18  C   UNL     1     130.163 143.370 125.699  1.00  0.00     0.000 C 
ATOM     19  C   UNL     1     131.668 144.205 123.774  1.00  0.00     0.005 C 
ATOM     20  C   UNL     1     130.718 144.614 124.955  1.00  0.00     0.003 C 
ATOM     21  C   UNL     1     129.184 143.804 126.796  1.00  0.00     0.031 C 
ATOM     22  C   UNL     1     131.252 145.776 125.935  1.00  0.00    -0.008 C 
ATOM     23  C   UNL     1     129.855 144.704 127.771  1.00  0.00    -0.027 C 
ATOM     24  C   UNL     1     130.768 145.617 127.395  1.00  0.00    -0.065 C 
ATOM     25  C   UNL     1     132.816 145.858 125.978  1.00  0.00     0.014 C 
ATOM     26  C   UNL     1     130.701 147.125 125.395  1.00  0.00     0.016 C 
ATOM     27  C   UNL     1     131.345 146.528 128.466  1.00  0.00     0.063 C 
ATOM     28  C   UNL     1     133.398 146.792 127.058  1.00  0.00     0.033 C 
ATOM     29  C   UNL     1     132.870 146.453 128.458  1.00  0.00     0.118 C 
BRANCH  29  30
ATOM     30  O   UNL     1     133.289 145.165 128.841  1.00  0.00    -0.393 OA
ATOM     31  H   UNL     1     134.262 145.232 129.024  1.00  0.00     0.210 HD
ENDBRANCH  29  30
ENDBRANCH   9  11
ENDBRANCH   1   9
TORSDOF 7
ENDMDL
MODEL 4
REMARK VINA RESULT:    -5.883      3.604      6.739
REMARK INTER + INTRA:          -9.883
REMARK INTER:                  -7.345
REMARK INTRA:                  -2.538
REMARK UNBOUND:                -1.764
REMARK SMILES CC[C@@H](CC[C@H](C)[C@H]1CC[C@@H]2[C@@H]3CC=C4C[C@@H](O)CC[C@@]4(C)[C@H]3CC[C@@]21C)C(C)C
REMARK SMILES IDX 5 1 4 2 3 3 2 4 1 5 28 6 29 7 30 8 6 9 7 10 8 11 9 12 26 13
REMARK SMILES IDX 10 14 11 15 25 16 27 17 12 18 24 19 23 20 13 21 21 22 14 23
REMARK SMILES IDX 15 24 20 25 22 26 16 27 19 28 17 29 18 30
REMARK H PARENT 18 31
REMARK Flexibility Score: inf
ROOT
ATOM      1  C   UNL     1     127.826 141.636 120.159  1.00  0.00     0.004 C 
ENDROOT
BRANCH   1   2
ATOM      2  C   UNL     1     127.034 142.721 120.922  1.00  0.00     0.004 C 
BRANCH   2   3
ATOM      3  C   UNL     1     127.393 144.195 120.564  1.00  0.00    -0.009 C 
BRANCH   3   4
ATOM      4  C   UNL     1     128.393 144.276 119.368  1.00  0.00     0.000 C 
ATOM      5  C   UNL     1     127.883 145.007 118.116  1.00  0.00     0.004 C 
ENDBRANCH   3   4
BRANCH   3   6
ATOM      6  C   UNL     1     127.800 145.067 121.801  1.00  0.00    -0.014 C 
ATOM      7  C   UNL     1     129.269 145.524 121.808  1.00  0.00     0.007 C 
ATOM      8  C   UNL     1     126.875 146.282 121.986  1.00  0.00     0.007 C 
ENDBRANCH   3   6
ENDBRANCH   2   3
ENDBRANCH   1   2
BRANCH   1   9
ATOM      9  C   UNL     1     128.834 140.842 121.058  1.00  0.00    -0.011 C 
ATOM     10  C   UNL     1     128.048 139.985 122.073  1.00  0.00     0.008 C 
BRANCH   9  11
ATOM     11  C   UNL     1     129.911 141.785 121.718  1.00  0.00    -0.002 C 
ATOM     12  C   UNL     1     129.805 141.978 123.226  1.00  0.00     0.005 C 
ATOM     13  C   UNL     1     131.417 141.458 121.473  1.00  0.00    -0.026 C 
ATOM     14  C   UNL     1     131.069 142.736 123.579  1.00  0.00     0.005 C 
ATOM     15  C   UNL     1     132.165 142.233 122.607  1.00  0.00    -0.001 C 
ATOM     16  C   UNL     1     131.872 141.901 120.056  1.00  0.00     0.007 C 
ATOM     17  C   UNL     1     131.725 139.944 121.622  1.00  0.00     0.012 C 
ATOM     18  C   UNL     1     133.149 143.338 122.089  1.00  0.00     0.000 C 
ATOM     19  C   UNL     1     131.891 143.426 119.836  1.00  0.00     0.005 C 
ATOM     20  C   UNL     1     132.510 144.257 121.015  1.00  0.00     0.003 C 
ATOM     21  C   UNL     1     133.678 144.178 123.258  1.00  0.00     0.031 C 
ATOM     22  C   UNL     1     133.430 145.513 120.600  1.00  0.00    -0.008 C 
ATOM     23  C   UNL     1     134.689 145.159 122.782  1.00  0.00    -0.027 C 
ATOM     24  C   UNL     1     134.577 145.790 121.600  1.00  0.00    -0.065 C 
ATOM     25  C   UNL     1     134.087 145.340 119.187  1.00  0.00     0.014 C 
ATOM     26  C   UNL     1     132.513 146.767 120.568  1.00  0.00     0.016 C 
ATOM     27  C   UNL     1     135.635 146.820 121.241  1.00  0.00     0.063 C 
ATOM     28  C   UNL     1     135.151 146.394 118.822  1.00  0.00     0.033 C 
ATOM     29  C   UNL     1     136.254 146.492 119.885  1.00  0.00     0.118 C 
BRANCH  29  30
ATOM     30  O   UNL     1     136.966 145.281 119.963  1.00  0.00    -0.393 OA
ATOM     31  H   UNL     1     137.731 145.367 119.336  1.00  0.00     0.210 HD
ENDBRANCH  29  30
ENDBRANCH   9  11
ENDBRANCH   1   9
TORSDOF 7
ENDMDL
MODEL 5
REMARK VINA RESULT:    -5.874      2.083      4.250
REMARK INTER + INTRA:          -9.870
REMARK INTER:                  -7.606
REMARK INTRA:                  -2.264
REMARK UNBOUND:                -1.764
REMARK SMILES CC[C@@H](CC[C@H](C)[C@H]1CC[C@@H]2[C@@H]3CC=C4C[C@@H](O)CC[C@@]4(C)[C@H]3CC[C@@]21C)C(C)C
REMARK SMILES IDX 5 1 4 2 3 3 2 4 1 5 28 6 29 7 30 8 6 9 7 10 8 11 9 12 26 13
REMARK SMILES IDX 10 14 11 15 25 16 27 17 12 18 24 19 23 20 13 21 21 22 14 23
REMARK SMILES IDX 15 24 20 25 22 26 16 27 19 28 17 29 18 30
REMARK H PARENT 18 31
REMARK Flexibility Score: inf
ROOT
ATOM      1  C   UNL     1     135.538 146.236 120.940  1.00  0.00     0.004 C 
ENDROOT
BRANCH   1   2
ATOM      2  C   UNL     1     136.323 145.149 121.708  1.00  0.00     0.004 C 
BRANCH   2   3
ATOM      3  C   UNL     1     135.845 143.683 121.478  1.00  0.00    -0.009 C 
BRANCH   3   4
ATOM      4  C   UNL     1     135.525 142.958 122.823  1.00  0.00     0.000 C 
ATOM      5  C   UNL     1     135.407 143.860 124.061  1.00  0.00     0.004 C 
ENDBRANCH   3   4
BRANCH   3   6
ATOM      6  C   UNL     1     136.762 142.861 120.509  1.00  0.00    -0.014 C 
ATOM      7  C   UNL     1     136.074 142.396 119.214  1.00  0.00     0.007 C 
ATOM      8  C   UNL     1     138.064 143.606 120.169  1.00  0.00     0.007 C 
ENDBRANCH   3   6
ENDBRANCH   2   3
ENDBRANCH   1   2
BRANCH   1   9
ATOM      9  C   UNL     1     134.524 145.659 119.894  1.00  0.00    -0.011 C 
ATOM     10  C   UNL     1     134.913 146.147 118.482  1.00  0.00     0.008 C 
BRANCH   9  11
ATOM     11  C   UNL     1     133.028 145.963 120.287  1.00  0.00    -0.002 C 
ATOM     12  C   UNL     1     132.267 146.906 119.361  1.00  0.00     0.005 C 
ATOM     13  C   UNL     1     132.064 144.753 120.487  1.00  0.00    -0.026 C 
ATOM     14  C   UNL     1     130.841 146.829 119.868  1.00  0.00     0.005 C 
ATOM     15  C   UNL     1     130.636 145.380 120.377  1.00  0.00    -0.001 C 
ATOM     16  C   UNL     1     132.300 144.060 121.857  1.00  0.00     0.007 C 
ATOM     17  C   UNL     1     132.221 143.681 119.376  1.00  0.00     0.012 C 
ATOM     18  C   UNL     1     129.775 145.252 121.680  1.00  0.00     0.000 C 
ATOM     19  C   UNL     1     131.917 144.912 123.081  1.00  0.00     0.005 C 
ATOM     20  C   UNL     1     130.550 145.673 122.957  1.00  0.00     0.003 C 
ATOM     21  C   UNL     1     128.482 146.066 121.553  1.00  0.00     0.031 C 
ATOM     22  C   UNL     1     129.638 145.730 124.285  1.00  0.00    -0.008 C 
ATOM     23  C   UNL     1     127.617 145.864 122.746  1.00  0.00    -0.027 C 
ATOM     24  C   UNL     1     128.121 145.740 123.987  1.00  0.00    -0.065 C 
ATOM     25  C   UNL     1     129.907 144.528 125.253  1.00  0.00     0.014 C 
ATOM     26  C   UNL     1     129.986 147.050 125.027  1.00  0.00     0.016 C 
ATOM     27  C   UNL     1     127.142 145.600 125.140  1.00  0.00     0.063 C 
ATOM     28  C   UNL     1     128.919 144.397 126.430  1.00  0.00     0.033 C 
ATOM     29  C   UNL     1     127.460 144.349 125.955  1.00  0.00     0.118 C 
BRANCH  29  30
ATOM     30  O   UNL     1     127.237 143.199 125.175  1.00  0.00    -0.393 OA
ATOM     31  H   UNL     1     126.328 142.877 125.407  1.00  0.00     0.210 HD
ENDBRANCH  29  30
ENDBRANCH   9  11
ENDBRANCH   1   9
TORSDOF 7
ENDMDL
MODEL 6
REMARK VINA RESULT:    -5.854      3.579      7.135
REMARK INTER + INTRA:          -9.842
REMARK INTER:                  -8.344
REMARK INTRA:                  -1.499
REMARK UNBOUND:                -1.764
REMARK SMILES CC[C@@H](CC[C@H](C)[C@H]1CC[C@@H]2[C@@H]3CC=C4C[C@@H](O)CC[C@@]4(C)[C@H]3CC[C@@]21C)C(C)C
REMARK SMILES IDX 5 1 4 2 3 3 2 4 1 5 28 6 29 7 30 8 6 9 7 10 8 11 9 12 26 13
REMARK SMILES IDX 10 14 11 15 25 16 27 17 12 18 24 19 23 20 13 21 21 22 14 23
REMARK SMILES IDX 15 24 20 25 22 26 16 27 19 28 17 29 18 30
REMARK H PARENT 18 31
REMARK Flexibility Score: inf
ROOT
ATOM      1  C   UNL     1     129.113 139.909 121.493  1.00  0.00     0.004 C 
ENDROOT
BRANCH   1   2
ATOM      2  C   UNL     1     130.016 139.678 120.261  1.00  0.00     0.004 C 
BRANCH   2   3
ATOM      3  C   UNL     1     130.282 138.188 119.890  1.00  0.00    -0.009 C 
BRANCH   3   4
ATOM      4  C   UNL     1     131.795 137.820 120.005  1.00  0.00     0.000 C 
ATOM      5  C   UNL     1     132.193 136.994 121.239  1.00  0.00     0.004 C 
ENDBRANCH   3   4
BRANCH   3   6
ATOM      6  C   UNL     1     129.614 137.740 118.545  1.00  0.00    -0.014 C 
ATOM      7  C   UNL     1     130.116 136.393 117.996  1.00  0.00     0.007 C 
ATOM      8  C   UNL     1     128.079 137.728 118.633  1.00  0.00     0.007 C 
ENDBRANCH   3   6
ENDBRANCH   2   3
ENDBRANCH   1   2
BRANCH   1   9
ATOM      9  C   UNL     1     128.123 141.112 121.331  1.00  0.00    -0.011 C 
ATOM     10  C   UNL     1     126.875 140.646 120.552  1.00  0.00     0.008 C 
BRANCH   9  11
ATOM     11  C   UNL     1     128.825 142.381 120.713  1.00  0.00    -0.002 C 
ATOM     12  C   UNL     1     127.991 143.206 119.740  1.00  0.00     0.005 C 
ATOM     13  C   UNL     1     129.431 143.432 121.695  1.00  0.00    -0.026 C 
ATOM     14  C   UNL     1     128.841 144.437 119.497  1.00  0.00     0.005 C 
ATOM     15  C   UNL     1     129.588 144.721 120.823  1.00  0.00    -0.001 C 
ATOM     16  C   UNL     1     130.784 142.948 122.282  1.00  0.00     0.007 C 
ATOM     17  C   UNL     1     128.481 143.750 122.881  1.00  0.00     0.012 C 
ATOM     18  C   UNL     1     131.069 145.209 120.659  1.00  0.00     0.000 C 
ATOM     19  C   UNL     1     131.930 142.849 121.257  1.00  0.00     0.005 C 
ATOM     20  C   UNL     1     132.039 144.063 120.267  1.00  0.00     0.003 C 
ATOM     21  C   UNL     1     131.150 146.345 119.632  1.00  0.00     0.031 C 
ATOM     22  C   UNL     1     133.529 144.563 119.909  1.00  0.00    -0.008 C 
ATOM     23  C   UNL     1     132.536 146.877 119.549  1.00  0.00    -0.027 C 
ATOM     24  C   UNL     1     133.617 146.084 119.644  1.00  0.00    -0.065 C 
ATOM     25  C   UNL     1     134.564 144.235 121.040  1.00  0.00     0.014 C 
ATOM     26  C   UNL     1     133.963 143.826 118.612  1.00  0.00     0.016 C 
ATOM     27  C   UNL     1     134.985 146.726 119.482  1.00  0.00     0.063 C 
ATOM     28  C   UNL     1     135.954 144.878 120.866  1.00  0.00     0.033 C 
ATOM     29  C   UNL     1     135.868 146.399 120.684  1.00  0.00     0.118 C 
BRANCH  29  30
ATOM     30  O   UNL     1     135.341 147.001 121.843  1.00  0.00    -0.393 OA
ATOM     31  H   UNL     1     134.751 147.736 121.531  1.00  0.00     0.210 HD
ENDBRANCH  29  30
ENDBRANCH   9  11
ENDBRANCH   1   9
TORSDOF 7
ENDMDL
MODEL 7
REMARK VINA RESULT:    -5.757      1.667      4.296
REMARK INTER + INTRA:          -9.708
REMARK INTER:                  -7.188
REMARK INTRA:                  -2.520
REMARK UNBOUND:                -1.764
REMARK SMILES CC[C@@H](CC[C@H](C)[C@H]1CC[C@@H]2[C@@H]3CC=C4C[C@@H](O)CC[C@@]4(C)[C@H]3CC[C@@]21C)C(C)C
REMARK SMILES IDX 5 1 4 2 3 3 2 4 1 5 28 6 29 7 30 8 6 9 7 10 8 11 9 12 26 13
REMARK SMILES IDX 10 14 11 15 25 16 27 17 12 18 24 19 23 20 13 21 21 22 14 23
REMARK SMILES IDX 15 24 20 25 22 26 16 27 19 28 17 29 18 30
REMARK H PARENT 18 31
REMARK Flexibility Score: inf
ROOT
ATOM      1  C   UNL     1     131.615 146.901 120.747  1.00  0.00     0.004 C 
ENDROOT
BRANCH   1   2
ATOM      2  C   UNL     1     130.611 146.335 119.718  1.00  0.00     0.004 C 
BRANCH   2   3
ATOM      3  C   UNL     1     129.212 145.945 120.285  1.00  0.00    -0.009 C 
BRANCH   3   4
ATOM      4  C   UNL     1     129.132 146.153 121.830  1.00  0.00     0.000 C 
ATOM      5  C   UNL     1     128.569 144.972 122.638  1.00  0.00     0.004 C 
ENDBRANCH   3   4
BRANCH   3   6
ATOM      6  C   UNL     1     128.698 144.547 119.799  1.00  0.00    -0.014 C 
ATOM      7  C   UNL     1     127.705 144.602 118.624  1.00  0.00     0.007 C 
ATOM      8  C   UNL     1     129.851 143.587 119.462  1.00  0.00     0.007 C 
ENDBRANCH   3   6
ENDBRANCH   2   3
ENDBRANCH   1   2
BRANCH   1   9
ATOM      9  C   UNL     1     132.742 145.890 121.148  1.00  0.00    -0.011 C 
ATOM     10  C   UNL     1     133.202 145.114 119.896  1.00  0.00     0.008 C 
BRANCH   9  11
ATOM     11  C   UNL     1     132.310 144.966 122.350  1.00  0.00    -0.002 C 
ATOM     12  C   UNL     1     132.298 143.467 122.077  1.00  0.00     0.005 C 
ATOM     13  C   UNL     1     133.085 145.110 123.697  1.00  0.00    -0.026 C 
ATOM     14  C   UNL     1     132.060 142.857 123.444  1.00  0.00     0.005 C 
ATOM     15  C   UNL     1     132.764 143.785 124.465  1.00  0.00    -0.001 C 
ATOM     16  C   UNL     1     132.632 146.371 124.482  1.00  0.00     0.007 C 
ATOM     17  C   UNL     1     134.620 145.201 123.490  1.00  0.00     0.012 C 
ATOM     18  C   UNL     1     131.992 143.994 125.813  1.00  0.00     0.000 C 
ATOM     19  C   UNL     1     131.187 146.312 125.011  1.00  0.00     0.005 C 
ATOM     20  C   UNL     1     130.777 144.947 125.667  1.00  0.00     0.003 C 
ATOM     21  C   UNL     1     131.543 142.647 126.390  1.00  0.00     0.031 C 
ATOM     22  C   UNL     1     129.855 145.036 126.987  1.00  0.00    -0.008 C 
ATOM     23  C   UNL     1     130.900 142.834 127.718  1.00  0.00    -0.027 C 
ATOM     24  C   UNL     1     130.114 143.890 127.993  1.00  0.00    -0.065 C 
ATOM     25  C   UNL     1     130.046 146.381 127.767  1.00  0.00     0.014 C 
ATOM     26  C   UNL     1     128.376 144.938 126.524  1.00  0.00     0.016 C 
ATOM     27  C   UNL     1     129.458 143.949 129.362  1.00  0.00     0.063 C 
ATOM     28  C   UNL     1     129.368 146.442 129.151  1.00  0.00     0.033 C 
ATOM     29  C   UNL     1     129.788 145.272 130.050  1.00  0.00     0.118 C 
BRANCH  29  30
ATOM     30  O   UNL     1     131.166 145.337 130.327  1.00  0.00    -0.393 OA
ATOM     31  H   UNL     1     131.566 144.510 129.951  1.00  0.00     0.210 HD
ENDBRANCH  29  30
ENDBRANCH   9  11
ENDBRANCH   1   9
TORSDOF 7
ENDMDL
MODEL 8
REMARK VINA RESULT:    -5.731      7.816     12.897
REMARK INTER + INTRA:          -9.672
REMARK INTER:                  -8.321
REMARK INTRA:                  -1.351
REMARK UNBOUND:                -1.764
REMARK SMILES CC[C@@H](CC[C@H](C)[C@H]1CC[C@@H]2[C@@H]3CC=C4C[C@@H](O)CC[C@@]4(C)[C@H]3CC[C@@]21C)C(C)C
REMARK SMILES IDX 5 1 4 2 3 3 2 4 1 5 28 6 29 7 30 8 6 9 7 10 8 11 9 12 26 13
REMARK SMILES IDX 10 14 11 15 25 16 27 17 12 18 24 19 23 20 13 21 21 22 14 23
REMARK SMILES IDX 15 24 20 25 22 26 16 27 19 28 17 29 18 30
REMARK H PARENT 18 31
REMARK Flexibility Score: inf
ROOT
ATOM      1  C   UNL     1     137.373 144.580 121.015  1.00  0.00     0.004 C 
ENDROOT
BRANCH   1   2
ATOM      2  C   UNL     1     135.862 144.837 121.207  1.00  0.00     0.004 C 
BRANCH   2   3
ATOM      3  C   UNL     1     134.949 144.414 120.016  1.00  0.00    -0.009 C 
BRANCH   3   4
ATOM      4  C   UNL     1     135.747 143.648 118.915  1.00  0.00     0.000 C 
ATOM      5  C   UNL     1     134.910 142.789 117.954  1.00  0.00     0.004 C 
ENDBRANCH   3   4
BRANCH   3   6
ATOM      6  C   UNL     1     134.047 145.572 119.466  1.00  0.00    -0.014 C 
ATOM      7  C   UNL     1     133.378 146.435 120.549  1.00  0.00     0.007 C 
ATOM      8  C   UNL     1     134.799 146.473 118.472  1.00  0.00     0.007 C 
ENDBRANCH   3   6
ENDBRANCH   2   3
ENDBRANCH   1   2
BRANCH   1   9
ATOM      9  C   UNL     1     138.261 145.851 121.240  1.00  0.00    -0.011 C 
ATOM     10  C   UNL     1     137.513 147.096 120.719  1.00  0.00     0.008 C 
BRANCH   9  11
ATOM     11  C   UNL     1     139.709 145.678 120.642  1.00  0.00    -0.002 C 
ATOM     12  C   UNL     1     140.205 146.804 119.743  1.00  0.00     0.005 C 
ATOM     13  C   UNL     1     140.886 145.425 121.635  1.00  0.00    -0.026 C 
ATOM     14  C   UNL     1     141.662 146.458 119.509  1.00  0.00     0.005 C 
ATOM     15  C   UNL     1     142.165 145.783 120.809  1.00  0.00    -0.001 C 
ATOM     16  C   UNL     1     140.900 143.956 122.138  1.00  0.00     0.007 C 
ATOM     17  C   UNL     1     140.822 146.355 122.876  1.00  0.00     0.012 C 
ATOM     18  C   UNL     1     143.148 144.581 120.595  1.00  0.00     0.000 C 
ATOM     19  C   UNL     1     141.234 142.911 121.056  1.00  0.00     0.005 C 
ATOM     20  C   UNL     1     142.429 143.294 120.113  1.00  0.00     0.003 C 
ATOM     21  C   UNL     1     144.261 144.965 119.612  1.00  0.00     0.031 C 
ATOM     22  C   UNL     1     143.431 142.100 119.705  1.00  0.00    -0.008 C 
ATOM     23  C   UNL     1     145.251 143.863 119.485  1.00  0.00    -0.027 C 
ATOM     24  C   UNL     1     144.890 142.568 119.497  1.00  0.00    -0.065 C 
ATOM     25  C   UNL     1     143.467 140.952 120.771  1.00  0.00     0.014 C 
ATOM     26  C   UNL     1     142.923 141.510 118.361  1.00  0.00     0.016 C 
ATOM     27  C   UNL     1     145.977 141.526 119.297  1.00  0.00     0.063 C 
ATOM     28  C   UNL     1     144.564 139.889 120.558  1.00  0.00     0.033 C 
ATOM     29  C   UNL     1     145.959 140.517 120.442  1.00  0.00     0.118 C 
BRANCH  29  30
ATOM     30  O   UNL     1     146.311 141.153 121.647  1.00  0.00    -0.393 OA
ATOM     31  H   UNL     1     145.480 141.571 121.995  1.00  0.00     0.210 HD
ENDBRANCH  29  30
ENDBRANCH   9  11
ENDBRANCH   1   9
TORSDOF 7
ENDMDL
MODEL 9
REMARK VINA RESULT:    -5.719      2.129      4.542
REMARK INTER + INTRA:          -9.656
REMARK INTER:                  -8.358
REMARK INTRA:                  -1.298
REMARK UNBOUND:                -1.764
REMARK SMILES CC[C@@H](CC[C@H](C)[C@H]1CC[C@@H]2[C@@H]3CC=C4C[C@@H](O)CC[C@@]4(C)[C@H]3CC[C@@]21C)C(C)C
REMARK SMILES IDX 5 1 4 2 3 3 2 4 1 5 28 6 29 7 30 8 6 9 7 10 8 11 9 12 26 13
REMARK SMILES IDX 10 14 11 15 25 16 27 17 12 18 24 19 23 20 13 21 21 22 14 23
REMARK SMILES IDX 15 24 20 25 22 26 16 27 19 28 17 29 18 30
REMARK H PARENT 18 31
REMARK Flexibility Score: inf
ROOT
ATOM      1  C   UNL     1     135.465 145.111 120.805  1.00  0.00     0.004 C 
ENDROOT
BRANCH   1   2
ATOM      2  C   UNL     1     135.706 146.381 121.650  1.00  0.00     0.004 C 
BRANCH   2   3
ATOM      3  C   UNL     1     137.196 146.695 121.985  1.00  0.00    -0.009 C 
BRANCH   3   4
ATOM      4  C   UNL     1     138.094 146.683 120.708  1.00  0.00     0.000 C 
ATOM      5  C   UNL     1     139.022 145.467 120.552  1.00  0.00     0.004 C 
ENDBRANCH   3   4
BRANCH   3   6
ATOM      6  C   UNL     1     137.767 145.859 123.180  1.00  0.00    -0.014 C 
ATOM      7  C   UNL     1     138.793 146.604 124.052  1.00  0.00     0.007 C 
ATOM      8  C   UNL     1     136.655 145.275 124.067  1.00  0.00     0.007 C 
ENDBRANCH   3   6
ENDBRANCH   2   3
ENDBRANCH   1   2
BRANCH   1   9
ATOM      9  C   UNL     1     134.490 145.333 119.599  1.00  0.00    -0.011 C 
ATOM     10  C   UNL     1     135.111 146.351 118.620  1.00  0.00     0.008 C 
BRANCH   9  11
ATOM     11  C   UNL     1     133.034 145.708 120.073  1.00  0.00    -0.002 C 
ATOM     12  C   UNL     1     132.306 146.761 119.246  1.00  0.00     0.005 C 
ATOM     13  C   UNL     1     131.996 144.554 120.233  1.00  0.00    -0.026 C 
ATOM     14  C   UNL     1     130.898 146.745 119.806  1.00  0.00     0.005 C 
ATOM     15  C   UNL     1     130.612 145.281 120.226  1.00  0.00    -0.001 C 
ATOM     16  C   UNL     1     132.234 143.753 121.542  1.00  0.00     0.007 C 
ATOM     17  C   UNL     1     132.036 143.554 119.047  1.00  0.00     0.012 C 
ATOM     18  C   UNL     1     129.793 145.120 121.552  1.00  0.00     0.000 C 
ATOM     19  C   UNL     1     131.958 144.542 122.836  1.00  0.00     0.005 C 
ATOM     20  C   UNL     1     130.643 145.400 122.820  1.00  0.00     0.003 C 
ATOM     21  C   UNL     1     128.556 146.026 121.535  1.00  0.00     0.031 C 
ATOM     22  C   UNL     1     129.788 145.425 124.186  1.00  0.00    -0.008 C 
ATOM     23  C   UNL     1     127.725 145.800 122.746  1.00  0.00    -0.027 C 
ATOM     24  C   UNL     1     128.265 145.556 123.954  1.00  0.00    -0.065 C 
ATOM     25  C   UNL     1     130.008 144.143 125.060  1.00  0.00     0.014 C 
ATOM     26  C   UNL     1     130.254 146.664 124.999  1.00  0.00     0.016 C 
ATOM     27  C   UNL     1     127.323 145.403 125.136  1.00  0.00     0.063 C 
ATOM     28  C   UNL     1     129.058 143.997 126.266  1.00  0.00     0.033 C 
ATOM     29  C   UNL     1     127.583 144.079 125.851  1.00  0.00     0.118 C 
BRANCH  29  30
ATOM     30  O   UNL     1     127.252 143.004 125.006  1.00  0.00    -0.393 OA
ATOM     31  H   UNL     1     126.709 143.386 124.269  1.00  0.00     0.210 HD
ENDBRANCH  29  30
ENDBRANCH   9  11
ENDBRANCH   1   9
TORSDOF 7
ENDMDL
