MODEL 1
REMARK VINA RESULT:    -5.237      0.000      0.000
REMARK INTER + INTRA:         -11.547
REMARK INTER:                 -10.136
REMARK INTRA:                  -1.411
REMARK UNBOUND:                -1.411
REMARK SMILES CCCCCCCCCCCCCCCCCC(=O)[O-]
REMARK SMILES IDX 10 1 11 2 12 3 13 4 14 5 15 6 16 7 17 8 18 9 19 10 20 11
REMARK SMILES IDX 9 12 8 13 7 14 6 15 5 16 4 17 3 18 2 19 1 20
REMARK H PARENT
REMARK Flexibility Score: inf
ROOT
ATOM      1  C   UNL     1      10.972  54.003  23.575  1.00  0.00     0.000 C 
ENDROOT
BRANCH   1   2
ATOM      2  C   UNL     1      10.975  53.629  22.081  1.00  0.00     0.000 C 
BRANCH   2   3
ATOM      3  C   UNL     1      10.421  52.229  21.751  1.00  0.00     0.000 C 
BRANCH   3   4
ATOM      4  C   UNL     1      10.569  51.235  22.916  1.00  0.00     0.000 C 
BRANCH   4   5
ATOM      5  C   UNL     1      10.914  49.816  22.436  1.00  0.00     0.000 C 
BRANCH   5   6
ATOM      6  C   UNL     1      11.716  49.022  23.481  1.00  0.00     0.000 C 
BRANCH   6   7
ATOM      7  C   UNL     1      11.723  47.506  23.211  1.00  0.00     0.006 C 
BRANCH   7   8
ATOM      8  C   UNL     1      10.445  46.783  23.670  1.00  0.00     0.053 C 
BRANCH   8   9
ATOM      9  C   UNL     1      10.733  45.606  24.551  1.00  0.00     0.041 C 
ATOM     10  O   UNL     1      10.189  44.494  24.320  1.00  0.00    -0.550 OA
ATOM     11  O   UNL     1      11.630  45.725  25.606  1.00  0.00    -0.550 OA
ENDBRANCH   8   9
ENDBRANCH   7   8
ENDBRANCH   6   7
ENDBRANCH   5   6
ENDBRANCH   4   5
ENDBRANCH   3   4
ENDBRANCH   2   3
ENDBRANCH   1   2
BRANCH   1  12
ATOM     12  C   UNL     1       9.848  54.984  23.945  1.00  0.00     0.000 C 
BRANCH  12  13
ATOM     13  C   UNL     1       8.570  54.278  24.438  1.00  0.00    -0.000 C 
BRANCH  13  14
ATOM     14  C   UNL     1       7.615  53.794  23.333  1.00  0.00    -0.000 C 
BRANCH  14  15
ATOM     15  C   UNL     1       7.213  54.910  22.354  1.00  0.00    -0.000 C 
BRANCH  15  16
ATOM     16  C   UNL     1       7.784  54.692  20.943  1.00  0.00    -0.000 C 
BRANCH  16  17
ATOM     17  C   UNL     1       8.236  56.002  20.277  1.00  0.00    -0.000 C 
BRANCH  17  18
ATOM     18  C   UNL     1       7.608  56.151  18.882  1.00  0.00    -0.000 C 
BRANCH  18  19
ATOM     19  C   UNL     1       7.458  54.806  18.155  1.00  0.00    -0.003 C 
ATOM     20  C   UNL     1       6.856  54.952  16.758  1.00  0.00     0.004 C 
ENDBRANCH  18  19
ENDBRANCH  17  18
ENDBRANCH  16  17
ENDBRANCH  15  16
ENDBRANCH  14  15
ENDBRANCH  13  14
ENDBRANCH  12  13
ENDBRANCH   1  12
TORSDOF 16
ENDMDL
MODEL 2
REMARK VINA RESULT:    -5.235      2.265      3.307
REMARK INTER + INTRA:         -11.543
REMARK INTER:                  -9.993
REMARK INTRA:                  -1.550
REMARK UNBOUND:                -1.411
REMARK SMILES CCCCCCCCCCCCCCCCCC(=O)[O-]
REMARK SMILES IDX 10 1 11 2 12 3 13 4 14 5 15 6 16 7 17 8 18 9 19 10 20 11
REMARK SMILES IDX 9 12 8 13 7 14 6 15 5 16 4 17 3 18 2 19 1 20
REMARK H PARENT
REMARK Flexibility Score: inf
ROOT
ATOM      1  C   UNL     1      10.425  52.329  21.675  1.00  0.00     0.000 C 
ENDROOT
BRANCH   1   2
ATOM      2  C   UNL     1      10.310  51.357  22.864  1.00  0.00     0.000 C 
BRANCH   2   3
ATOM      3  C   UNL     1      11.218  50.114  22.788  1.00  0.00     0.000 C 
BRANCH   3   4
ATOM      4  C   UNL     1      10.772  48.986  23.735  1.00  0.00     0.000 C 
BRANCH   4   5
ATOM      5  C   UNL     1      11.527  47.672  23.477  1.00  0.00     0.000 C 
BRANCH   5   6
ATOM      6  C   UNL     1      12.329  47.206  24.703  1.00  0.00     0.000 C 
BRANCH   6   7
ATOM      7  C   UNL     1      12.187  48.150  25.911  1.00  0.00     0.006 C 
BRANCH   7   8
ATOM      8  C   UNL     1      12.869  47.636  27.191  1.00  0.00     0.053 C 
BRANCH   8   9
ATOM      9  C   UNL     1      13.778  48.655  27.809  1.00  0.00     0.041 C 
ATOM     10  O   UNL     1      14.908  48.885  27.302  1.00  0.00    -0.550 OA
ATOM     11  O   UNL     1      13.365  49.378  28.921  1.00  0.00    -0.550 OA
ENDBRANCH   8   9
ENDBRANCH   7   8
ENDBRANCH   6   7
ENDBRANCH   5   6
ENDBRANCH   4   5
ENDBRANCH   3   4
ENDBRANCH   2   3
ENDBRANCH   1   2
BRANCH   1  12
ATOM     12  C   UNL     1      10.997  53.700  22.074  1.00  0.00     0.000 C 
BRANCH  12  13
ATOM     13  C   UNL     1      10.854  53.997  23.579  1.00  0.00    -0.000 C 
BRANCH  13  14
ATOM     14  C   UNL     1       9.802  55.061  23.945  1.00  0.00    -0.000 C 
BRANCH  14  15
ATOM     15  C   UNL     1       8.476  54.453  24.432  1.00  0.00    -0.000 C 
BRANCH  15  16
ATOM     16  C   UNL     1       7.571  54.005  23.273  1.00  0.00    -0.000 C 
BRANCH  16  17
ATOM     17  C   UNL     1       7.534  55.023  22.122  1.00  0.00    -0.000 C 
BRANCH  17  18
ATOM     18  C   UNL     1       7.503  54.309  20.761  1.00  0.00    -0.000 C 
BRANCH  18  19
ATOM     19  C   UNL     1       7.915  55.230  19.602  1.00  0.00    -0.003 C 
ATOM     20  C   UNL     1       7.763  54.566  18.234  1.00  0.00     0.004 C 
ENDBRANCH  18  19
ENDBRANCH  17  18
ENDBRANCH  16  17
ENDBRANCH  15  16
ENDBRANCH  14  15
ENDBRANCH  13  14
ENDBRANCH  12  13
ENDBRANCH   1  12
TORSDOF 16
ENDMDL
MODEL 3
REMARK VINA RESULT:    -5.095      8.286     12.429
REMARK INTER + INTRA:         -11.272
REMARK INTER:                 -10.342
REMARK INTRA:                  -0.930
REMARK UNBOUND:                -1.411
REMARK SMILES CCCCCCCCCCCCCCCCCC(=O)[O-]
REMARK SMILES IDX 10 1 11 2 12 3 13 4 14 5 15 6 16 7 17 8 18 9 19 10 20 11
REMARK SMILES IDX 9 12 8 13 7 14 6 15 5 16 4 17 3 18 2 19 1 20
REMARK H PARENT
REMARK Flexibility Score: inf
ROOT
ATOM      1  C   UNL     1       4.918  57.678  20.739  1.00  0.00     0.000 C 
ENDROOT
BRANCH   1   2
ATOM      2  C   UNL     1       3.807  58.353  21.565  1.00  0.00     0.000 C 
BRANCH   2   3
ATOM      3  C   UNL     1       2.731  59.088  20.744  1.00  0.00     0.000 C 
BRANCH   3   4
ATOM      4  C   UNL     1       3.171  60.495  20.301  1.00  0.00     0.000 C 
BRANCH   4   5
ATOM      5  C   UNL     1       2.367  61.007  19.095  1.00  0.00     0.000 C 
BRANCH   5   6
ATOM      6  C   UNL     1       2.128  59.912  18.041  1.00  0.00     0.000 C 
BRANCH   6   7
ATOM      7  C   UNL     1       2.441  60.376  16.607  1.00  0.00     0.006 C 
BRANCH   7   8
ATOM      8  C   UNL     1       1.283  60.170  15.616  1.00  0.00     0.053 C 
BRANCH   8   9
ATOM      9  C   UNL     1       0.216  61.214  15.750  1.00  0.00     0.041 C 
ATOM     10  O   UNL     1       0.466  62.415  15.465  1.00  0.00    -0.550 OA
ATOM     11  O   UNL     1      -1.064  60.857  16.155  1.00  0.00    -0.550 OA
ENDBRANCH   8   9
ENDBRANCH   7   8
ENDBRANCH   6   7
ENDBRANCH   5   6
ENDBRANCH   4   5
ENDBRANCH   3   4
ENDBRANCH   2   3
ENDBRANCH   1   2
BRANCH   1  12
ATOM     12  C   UNL     1       5.690  56.610  21.531  1.00  0.00     0.000 C 
BRANCH  12  13
ATOM     13  C   UNL     1       7.198  56.599  21.215  1.00  0.00    -0.000 C 
BRANCH  13  14
ATOM     14  C   UNL     1       7.572  56.140  19.794  1.00  0.00    -0.000 C 
BRANCH  14  15
ATOM     15  C   UNL     1       8.349  54.812  19.777  1.00  0.00    -0.000 C 
BRANCH  15  16
ATOM     16  C   UNL     1       8.717  54.325  21.188  1.00  0.00    -0.000 C 
BRANCH  16  17
ATOM     17  C   UNL     1       9.968  53.432  21.199  1.00  0.00    -0.000 C 
BRANCH  17  18
ATOM     18  C   UNL     1      10.826  53.709  22.444  1.00  0.00    -0.000 C 
BRANCH  18  19
ATOM     19  C   UNL     1      10.182  54.735  23.389  1.00  0.00    -0.003 C 
ATOM     20  C   UNL     1      10.767  54.690  24.800  1.00  0.00     0.004 C 
ENDBRANCH  18  19
ENDBRANCH  17  18
ENDBRANCH  16  17
ENDBRANCH  15  16
ENDBRANCH  14  15
ENDBRANCH  13  14
ENDBRANCH  12  13
ENDBRANCH   1  12
TORSDOF 16
ENDMDL
MODEL 4
REMARK VINA RESULT:    -5.040      7.285     11.122
REMARK INTER + INTRA:         -11.166
REMARK INTER:                 -10.106
REMARK INTRA:                  -1.060
REMARK UNBOUND:                -1.411
REMARK SMILES CCCCCCCCCCCCCCCCCC(=O)[O-]
REMARK SMILES IDX 10 1 11 2 12 3 13 4 14 5 15 6 16 7 17 8 18 9 19 10 20 11
REMARK SMILES IDX 9 12 8 13 7 14 6 15 5 16 4 17 3 18 2 19 1 20
REMARK H PARENT
REMARK Flexibility Score: inf
ROOT
ATOM      1  C   UNL     1       5.971  56.391  21.560  1.00  0.00     0.000 C 
ENDROOT
BRANCH   1   2
ATOM      2  C   UNL     1       5.292  57.440  20.659  1.00  0.00     0.000 C 
BRANCH   2   3
ATOM      3  C   UNL     1       4.064  58.139  21.273  1.00  0.00     0.000 C 
BRANCH   3   4
ATOM      4  C   UNL     1       3.507  59.264  20.383  1.00  0.00     0.000 C 
BRANCH   4   5
ATOM      5  C   UNL     1       3.145  60.523  21.189  1.00  0.00     0.000 C 
BRANCH   5   6
ATOM      6  C   UNL     1       2.271  60.204  22.414  1.00  0.00     0.000 C 
BRANCH   6   7
ATOM      7  C   UNL     1       0.774  60.093  22.074  1.00  0.00     0.006 C 
BRANCH   7   8
ATOM      8  C   UNL     1      -0.161  60.565  23.201  1.00  0.00     0.053 C 
BRANCH   8   9
ATOM      9  C   UNL     1      -0.329  59.536  24.279  1.00  0.00     0.041 C 
ATOM     10  O   UNL     1      -0.313  58.310  23.991  1.00  0.00    -0.550 OA
ATOM     11  O   UNL     1      -0.468  59.928  25.604  1.00  0.00    -0.550 OA
ENDBRANCH   8   9
ENDBRANCH   7   8
ENDBRANCH   6   7
ENDBRANCH   5   6
ENDBRANCH   4   5
ENDBRANCH   3   4
ENDBRANCH   2   3
ENDBRANCH   1   2
BRANCH   1  12
ATOM     12  C   UNL     1       7.504  56.404  21.444  1.00  0.00     0.000 C 
BRANCH  12  13
ATOM     13  C   UNL     1       8.002  56.142  20.009  1.00  0.00    -0.000 C 
BRANCH  13  14
ATOM     14  C   UNL     1       8.594  54.743  19.761  1.00  0.00    -0.000 C 
BRANCH  14  15
ATOM     15  C   UNL     1       8.724  53.908  21.047  1.00  0.00    -0.000 C 
BRANCH  15  16
ATOM     16  C   UNL     1      10.166  53.445  21.307  1.00  0.00    -0.000 C 
BRANCH  16  17
ATOM     17  C   UNL     1      10.580  53.592  22.780  1.00  0.00    -0.000 C 
BRANCH  17  18
ATOM     18  C   UNL     1       9.378  53.995  23.648  1.00  0.00    -0.000 C 
BRANCH  18  19
ATOM     19  C   UNL     1       9.796  54.740  24.926  1.00  0.00    -0.003 C 
ATOM     20  C   UNL     1      11.308  54.732  25.148  1.00  0.00     0.004 C 
ENDBRANCH  18  19
ENDBRANCH  17  18
ENDBRANCH  16  17
ENDBRANCH  15  16
ENDBRANCH  14  15
ENDBRANCH  13  14
ENDBRANCH  12  13
ENDBRANCH   1  12
TORSDOF 16
ENDMDL
MODEL 5
REMARK VINA RESULT:    -5.026      7.288     10.780
REMARK INTER + INTRA:         -11.138
REMARK INTER:                  -9.664
REMARK INTRA:                  -1.474
REMARK UNBOUND:                -1.411
REMARK SMILES CCCCCCCCCCCCCCCCCC(=O)[O-]
REMARK SMILES IDX 10 1 11 2 12 3 13 4 14 5 15 6 16 7 17 8 18 9 19 10 20 11
REMARK SMILES IDX 9 12 8 13 7 14 6 15 5 16 4 17 3 18 2 19 1 20
REMARK H PARENT
REMARK Flexibility Score: inf
ROOT
ATOM      1  C   UNL     1       7.591  55.692  20.601  1.00  0.00     0.000 C 
ENDROOT
BRANCH   1   2
ATOM      2  C   UNL     1       6.771  56.799  21.289  1.00  0.00     0.000 C 
BRANCH   2   3
ATOM      3  C   UNL     1       5.314  56.937  20.806  1.00  0.00     0.000 C 
BRANCH   3   4
ATOM      4  C   UNL     1       4.538  58.040  21.546  1.00  0.00     0.000 C 
BRANCH   4   5
ATOM      5  C   UNL     1       3.349  58.570  20.727  1.00  0.00     0.000 C 
BRANCH   5   6
ATOM      6  C   UNL     1       2.742  59.846  21.335  1.00  0.00     0.000 C 
BRANCH   6   7
ATOM      7  C   UNL     1       2.007  59.590  22.663  1.00  0.00     0.006 C 
BRANCH   7   8
ATOM      8  C   UNL     1       0.819  60.536  22.914  1.00  0.00     0.053 C 
BRANCH   8   9
ATOM      9  C   UNL     1      -0.310  60.309  21.954  1.00  0.00     0.041 C 
ATOM     10  O   UNL     1      -0.692  61.240  21.197  1.00  0.00    -0.550 OA
ATOM     11  O   UNL     1      -0.916  59.062  21.868  1.00  0.00    -0.550 OA
ENDBRANCH   8   9
ENDBRANCH   7   8
ENDBRANCH   6   7
ENDBRANCH   5   6
ENDBRANCH   4   5
ENDBRANCH   3   4
ENDBRANCH   2   3
ENDBRANCH   1   2
BRANCH   1  12
ATOM     12  C   UNL     1       7.460  54.328  21.298  1.00  0.00     0.000 C 
BRANCH  12  13
ATOM     13  C   UNL     1       7.021  54.444  22.770  1.00  0.00    -0.000 C 
BRANCH  13  14
ATOM     14  C   UNL     1       7.916  53.711  23.786  1.00  0.00    -0.000 C 
BRANCH  14  15
ATOM     15  C   UNL     1       8.762  54.668  24.642  1.00  0.00    -0.000 C 
BRANCH  15  16
ATOM     16  C   UNL     1       9.978  55.222  23.882  1.00  0.00    -0.000 C 
BRANCH  16  17
ATOM     17  C   UNL     1      11.002  54.133  23.528  1.00  0.00    -0.000 C 
BRANCH  17  18
ATOM     18  C   UNL     1      11.076  53.925  22.007  1.00  0.00    -0.000 C 
BRANCH  18  19
ATOM     19  C   UNL     1      10.438  52.600  21.560  1.00  0.00    -0.003 C 
ATOM     20  C   UNL     1      10.622  51.480  22.583  1.00  0.00     0.004 C 
ENDBRANCH  18  19
ENDBRANCH  17  18
ENDBRANCH  16  17
ENDBRANCH  15  16
ENDBRANCH  14  15
ENDBRANCH  13  14
ENDBRANCH  12  13
ENDBRANCH   1  12
TORSDOF 16
ENDMDL
MODEL 6
REMARK VINA RESULT:    -4.918      2.902      5.281
REMARK INTER + INTRA:         -10.930
REMARK INTER:                  -9.454
REMARK INTRA:                  -1.476
REMARK UNBOUND:                -1.411
REMARK SMILES CCCCCCCCCCCCCCCCCC(=O)[O-]
REMARK SMILES IDX 10 1 11 2 12 3 13 4 14 5 15 6 16 7 17 8 18 9 19 10 20 11
REMARK SMILES IDX 9 12 8 13 7 14 6 15 5 16 4 17 3 18 2 19 1 20
REMARK H PARENT
REMARK Flexibility Score: inf
ROOT
ATOM      1  C   UNL     1      10.784  48.731  23.859  1.00  0.00     0.000 C 
ENDROOT
BRANCH   1   2
ATOM      2  C   UNL     1      10.053  47.447  23.427  1.00  0.00     0.000 C 
BRANCH   2   3
ATOM      3  C   UNL     1      10.809  46.134  23.703  1.00  0.00     0.000 C 
BRANCH   3   4
ATOM      4  C   UNL     1      10.548  45.576  25.113  1.00  0.00     0.000 C 
BRANCH   4   5
ATOM      5  C   UNL     1      11.774  44.853  25.694  1.00  0.00     0.000 C 
BRANCH   5   6
ATOM      6  C   UNL     1      12.424  45.636  26.848  1.00  0.00     0.000 C 
BRANCH   6   7
ATOM      7  C   UNL     1      13.197  46.879  26.372  1.00  0.00     0.006 C 
BRANCH   7   8
ATOM      8  C   UNL     1      12.581  48.213  26.830  1.00  0.00     0.053 C 
BRANCH   8   9
ATOM      9  C   UNL     1      13.370  48.868  27.922  1.00  0.00     0.041 C 
ATOM     10  O   UNL     1      12.886  48.968  29.080  1.00  0.00    -0.550 OA
ATOM     11  O   UNL     1      14.654  49.336  27.673  1.00  0.00    -0.550 OA
ENDBRANCH   8   9
ENDBRANCH   7   8
ENDBRANCH   6   7
ENDBRANCH   5   6
ENDBRANCH   4   5
ENDBRANCH   3   4
ENDBRANCH   2   3
ENDBRANCH   1   2
BRANCH   1  12
ATOM     12  C   UNL     1      11.004  49.716  22.698  1.00  0.00     0.000 C 
BRANCH  12  13
ATOM     13  C   UNL     1      10.668  51.172  23.073  1.00  0.00    -0.000 C 
BRANCH  13  14
ATOM     14  C   UNL     1      10.282  52.085  21.895  1.00  0.00    -0.000 C 
BRANCH  14  15
ATOM     15  C   UNL     1      10.973  53.458  21.946  1.00  0.00    -0.000 C 
BRANCH  15  16
ATOM     16  C   UNL     1      11.064  54.020  23.374  1.00  0.00    -0.000 C 
BRANCH  16  17
ATOM     17  C   UNL     1       9.976  55.065  23.670  1.00  0.00    -0.000 C 
BRANCH  17  18
ATOM     18  C   UNL     1       8.951  54.519  24.677  1.00  0.00    -0.000 C 
BRANCH  18  19
ATOM     19  C   UNL     1       7.830  53.714  24.000  1.00  0.00    -0.003 C 
ATOM     20  C   UNL     1       7.323  54.370  22.717  1.00  0.00     0.004 C 
ENDBRANCH  18  19
ENDBRANCH  17  18
ENDBRANCH  16  17
ENDBRANCH  15  16
ENDBRANCH  14  15
ENDBRANCH  13  14
ENDBRANCH  12  13
ENDBRANCH   1  12
TORSDOF 16
ENDMDL
MODEL 7
REMARK VINA RESULT:    -4.916      5.776      7.809
REMARK INTER + INTRA:         -10.925
REMARK INTER:                 -10.093
REMARK INTRA:                  -0.832
REMARK UNBOUND:                -1.411
REMARK SMILES CCCCCCCCCCCCCCCCCC(=O)[O-]
REMARK SMILES IDX 10 1 11 2 12 3 13 4 14 5 15 6 16 7 17 8 18 9 19 10 20 11
REMARK SMILES IDX 9 12 8 13 7 14 6 15 5 16 4 17 3 18 2 19 1 20
REMARK H PARENT
REMARK Flexibility Score: inf
ROOT
ATOM      1  C   UNL     1       5.025  57.334  21.636  1.00  0.00     0.000 C 
ENDROOT
BRANCH   1   2
ATOM      2  C   UNL     1       6.041  56.352  21.024  1.00  0.00     0.000 C 
BRANCH   2   3
ATOM      3  C   UNL     1       7.026  56.968  20.013  1.00  0.00     0.000 C 
BRANCH   3   4
ATOM      4  C   UNL     1       8.295  56.119  19.818  1.00  0.00     0.000 C 
BRANCH   4   5
ATOM      5  C   UNL     1       8.139  54.695  20.375  1.00  0.00     0.000 C 
BRANCH   5   6
ATOM      6  C   UNL     1       9.455  54.140  20.945  1.00  0.00     0.000 C 
BRANCH   6   7
ATOM      7  C   UNL     1       9.297  53.538  22.353  1.00  0.00     0.006 C 
BRANCH   7   8
ATOM      8  C   UNL     1      10.584  53.573  23.196  1.00  0.00     0.053 C 
BRANCH   8   9
ATOM      9  C   UNL     1      10.603  54.712  24.171  1.00  0.00     0.041 C 
ATOM     10  O   UNL     1       9.936  55.754  23.939  1.00  0.00    -0.550 OA
ATOM     11  O   UNL     1      11.327  54.609  25.352  1.00  0.00    -0.550 OA
ENDBRANCH   8   9
ENDBRANCH   7   8
ENDBRANCH   6   7
ENDBRANCH   5   6
ENDBRANCH   4   5
ENDBRANCH   3   4
ENDBRANCH   2   3
ENDBRANCH   1   2
BRANCH   1  12
ATOM     12  C   UNL     1       4.267  58.150  20.576  1.00  0.00     0.000 C 
BRANCH  12  13
ATOM     13  C   UNL     1       3.033  58.878  21.145  1.00  0.00    -0.000 C 
BRANCH  13  14
ATOM     14  C   UNL     1       3.135  60.414  21.190  1.00  0.00    -0.000 C 
BRANCH  14  15
ATOM     15  C   UNL     1       2.882  61.073  19.824  1.00  0.00    -0.000 C 
BRANCH  15  16
ATOM     16  C   UNL     1       1.500  60.725  19.247  1.00  0.00    -0.000 C 
BRANCH  16  17
ATOM     17  C   UNL     1       1.558  60.329  17.763  1.00  0.00    -0.000 C 
BRANCH  17  18
ATOM     18  C   UNL     1       0.909  61.410  16.883  1.00  0.00    -0.000 C 
BRANCH  18  19
ATOM     19  C   UNL     1       1.502  61.450  15.465  1.00  0.00    -0.003 C 
ATOM     20  C   UNL     1       2.600  60.410  15.252  1.00  0.00     0.004 C 
ENDBRANCH  18  19
ENDBRANCH  17  18
ENDBRANCH  16  17
ENDBRANCH  15  16
ENDBRANCH  14  15
ENDBRANCH  13  14
ENDBRANCH  12  13
ENDBRANCH   1  12
TORSDOF 16
ENDMDL
MODEL 8
REMARK VINA RESULT:    -4.906      6.055      8.115
REMARK INTER + INTRA:         -10.906
REMARK INTER:                  -9.532
REMARK INTRA:                  -1.374
REMARK UNBOUND:                -1.411
REMARK SMILES CCCCCCCCCCCCCCCCCC(=O)[O-]
REMARK SMILES IDX 10 1 11 2 12 3 13 4 14 5 15 6 16 7 17 8 18 9 19 10 20 11
REMARK SMILES IDX 9 12 8 13 7 14 6 15 5 16 4 17 3 18 2 19 1 20
REMARK H PARENT
REMARK Flexibility Score: inf
ROOT
ATOM      1  C   UNL     1       5.035  56.476  21.603  1.00  0.00     0.000 C 
ENDROOT
BRANCH   1   2
ATOM      2  C   UNL     1       6.398  55.759  21.547  1.00  0.00     0.000 C 
BRANCH   2   3
ATOM      3  C   UNL     1       7.583  56.633  21.093  1.00  0.00     0.000 C 
BRANCH   3   4
ATOM      4  C   UNL     1       8.513  55.913  20.101  1.00  0.00     0.000 C 
BRANCH   4   5
ATOM      5  C   UNL     1       8.504  54.388  20.290  1.00  0.00     0.000 C 
BRANCH   5   6
ATOM      6  C   UNL     1       9.623  53.906  21.229  1.00  0.00     0.000 C 
BRANCH   6   7
ATOM      7  C   UNL     1       9.097  53.083  22.420  1.00  0.00     0.006 C 
BRANCH   7   8
ATOM      8  C   UNL     1       8.890  53.903  23.705  1.00  0.00     0.053 C 
BRANCH   8   9
ATOM      9  C   UNL     1       9.989  54.896  23.938  1.00  0.00     0.041 C 
ATOM     10  O   UNL     1       9.770  56.128  23.790  1.00  0.00    -0.550 OA
ATOM     11  O   UNL     1      11.242  54.467  24.356  1.00  0.00    -0.550 OA
ENDBRANCH   8   9
ENDBRANCH   7   8
ENDBRANCH   6   7
ENDBRANCH   5   6
ENDBRANCH   4   5
ENDBRANCH   3   4
ENDBRANCH   2   3
ENDBRANCH   1   2
BRANCH   1  12
ATOM     12  C   UNL     1       5.025  57.806  20.832  1.00  0.00     0.000 C 
BRANCH  12  13
ATOM     13  C   UNL     1       3.636  58.473  20.801  1.00  0.00    -0.000 C 
BRANCH  13  14
ATOM     14  C   UNL     1       3.211  59.173  22.105  1.00  0.00    -0.000 C 
BRANCH  14  15
ATOM     15  C   UNL     1       2.488  60.508  21.862  1.00  0.00    -0.000 C 
BRANCH  15  16
ATOM     16  C   UNL     1       1.162  60.332  21.104  1.00  0.00    -0.000 C 
BRANCH  16  17
ATOM     17  C   UNL     1      -0.034  60.114  22.044  1.00  0.00    -0.000 C 
BRANCH  17  18
ATOM     18  C   UNL     1       0.218  60.767  23.412  1.00  0.00    -0.000 C 
BRANCH  18  19
ATOM     19  C   UNL     1      -0.593  60.109  24.539  1.00  0.00    -0.003 C 
ATOM     20  C   UNL     1       0.155  58.963  25.217  1.00  0.00     0.004 C 
ENDBRANCH  18  19
ENDBRANCH  17  18
ENDBRANCH  16  17
ENDBRANCH  15  16
ENDBRANCH  14  15
ENDBRANCH  13  14
ENDBRANCH  12  13
ENDBRANCH   1  12
TORSDOF 16
ENDMDL
MODEL 9
REMARK VINA RESULT:    -4.811      6.580      8.932
REMARK INTER + INTRA:         -10.722
REMARK INTER:                  -9.640
REMARK INTRA:                  -1.082
REMARK UNBOUND:                -1.411
REMARK SMILES CCCCCCCCCCCCCCCCCC(=O)[O-]
REMARK SMILES IDX 10 1 11 2 12 3 13 4 14 5 15 6 16 7 17 8 18 9 19 10 20 11
REMARK SMILES IDX 9 12 8 13 7 14 6 15 5 16 4 17 3 18 2 19 1 20
REMARK H PARENT
REMARK Flexibility Score: inf
ROOT
ATOM      1  C   UNL     1       3.538  58.379  20.701  1.00  0.00     0.000 C 
ENDROOT
BRANCH   1   2
ATOM      2  C   UNL     1       4.996  57.887  20.628  1.00  0.00     0.000 C 
BRANCH   2   3
ATOM      3  C   UNL     1       5.373  56.791  21.643  1.00  0.00     0.000 C 
BRANCH   3   4
ATOM      4  C   UNL     1       6.344  55.747  21.066  1.00  0.00     0.000 C 
BRANCH   4   5
ATOM      5  C   UNL     1       7.371  56.369  20.105  1.00  0.00     0.000 C 
BRANCH   5   6
ATOM      6  C   UNL     1       8.716  55.623  20.122  1.00  0.00     0.000 C 
BRANCH   6   7
ATOM      7  C   UNL     1       8.823  54.598  21.266  1.00  0.00     0.006 C 
BRANCH   7   8
ATOM      8  C   UNL     1      10.017  53.637  21.135  1.00  0.00     0.053 C 
BRANCH   8   9
ATOM      9  C   UNL     1      10.489  53.120  22.460  1.00  0.00     0.041 C 
ATOM     10  O   UNL     1      10.661  51.884  22.632  1.00  0.00    -0.550 OA
ATOM     11  O   UNL     1      10.774  54.003  23.494  1.00  0.00    -0.550 OA
ENDBRANCH   8   9
ENDBRANCH   7   8
ENDBRANCH   6   7
ENDBRANCH   5   6
ENDBRANCH   4   5
ENDBRANCH   3   4
ENDBRANCH   2   3
ENDBRANCH   1   2
BRANCH   1  12
ATOM     12  C   UNL     1       3.396  59.880  20.397  1.00  0.00     0.000 C 
BRANCH  12  13
ATOM     13  C   UNL     1       3.059  60.718  21.646  1.00  0.00    -0.000 C 
BRANCH  13  14
ATOM     14  C   UNL     1       1.810  60.267  22.425  1.00  0.00    -0.000 C 
BRANCH  14  15
ATOM     15  C   UNL     1       0.533  60.272  21.569  1.00  0.00    -0.000 C 
BRANCH  15  16
ATOM     16  C   UNL     1      -0.696  60.773  22.345  1.00  0.00    -0.000 C 
BRANCH  16  17
ATOM     17  C   UNL     1      -0.323  61.443  23.678  1.00  0.00    -0.000 C 
BRANCH  17  18
ATOM     18  C   UNL     1      -1.088  60.801  24.846  1.00  0.00    -0.000 C 
BRANCH  18  19
ATOM     19  C   UNL     1      -1.187  59.273  24.719  1.00  0.00    -0.003 C 
ATOM     20  C   UNL     1       0.041  58.552  25.273  1.00  0.00     0.004 C 
ENDBRANCH  18  19
ENDBRANCH  17  18
ENDBRANCH  16  17
ENDBRANCH  15  16
ENDBRANCH  14  15
ENDBRANCH  13  14
ENDBRANCH  12  13
ENDBRANCH   1  12
TORSDOF 16
ENDMDL
