MODEL 1
REMARK VINA RESULT:    -5.942      0.000      0.000
REMARK INTER + INTRA:          -6.599
REMARK INTER:                  -6.463
REMARK INTRA:                  -0.136
REMARK UNBOUND:                -0.136
REMARK SMILES C[C@H]1[C@H](C)CC[C@@]2(C(=O)[O-])CC[C@@]3(C)C(=CC[C@@H]4[C@@]5(C)CC[C@@H](O)C(C)(C)[C@@H]5CC[C@]43C)[C@@H]12
REMARK SMILES IDX 7 1 6 2 11 3 33 4 5 5 12 6 15 7 2 8 3 9 13 10 16 11 1 12
REMARK SMILES IDX 4 13 14 14 31 15 17 16 18 17 30 18 32 19 19 20 29 21 28 22
REMARK SMILES IDX 21 23 20 24 25 25 22 26 23 27 26 28 27 29 8 30 9 31 10 32
REMARK SMILES IDX 24 33
REMARK H PARENT 24 34
REMARK Flexibility Score: inf
ROOT
ATOM      1  C   UNL     1     -10.790  55.302  14.956  1.00  0.00     0.017 C 
ATOM      2  C   UNL     1      -9.762  55.386  13.799  1.00  0.00     0.014 C 
ATOM      3  C   UNL     1     -10.152  54.552  16.148  1.00  0.00     0.014 C 
ATOM      4  C   UNL     1     -11.268  56.721  15.443  1.00  0.00     0.030 C 
ATOM      5  C   UNL     1      -8.667  56.426  14.012  1.00  0.00     0.004 C 
ATOM      6  C   UNL     1     -11.206  54.222  17.219  1.00  0.00     0.013 C 
ATOM      7  C   UNL     1     -12.047  56.657  16.773  1.00  0.00    -0.063 C 
ATOM      8  C   UNL     1     -10.212  57.902  15.392  1.00  0.00    -0.003 C 
ATOM      9  C   UNL     1      -9.253  57.833  14.172  1.00  0.00    -0.011 C 
ATOM     10  C   UNL     1     -11.955  55.476  17.808  1.00  0.00    -0.006 C 
ATOM     11  C   UNL     1     -12.816  57.728  17.086  1.00  0.00    -0.027 C 
ATOM     12  C   UNL     1      -9.408  58.134  16.683  1.00  0.00     0.008 C 
ATOM     13  C   UNL     1      -9.902  58.348  12.876  1.00  0.00     0.008 C 
ATOM     14  C   UNL     1     -10.974  56.017  18.909  1.00  0.00     0.017 C 
ATOM     15  C   UNL     1     -13.447  55.109  18.435  1.00  0.00    -0.020 C 
ATOM     16  C   UNL     1     -13.881  57.621  18.145  1.00  0.00     0.032 C 
ATOM     17  C   UNL     1     -14.499  56.214  18.002  1.00  0.00     0.006 C 
ATOM     18  C   UNL     1     -14.042  53.756  17.919  1.00  0.00     0.008 C 
ATOM     19  C   UNL     1     -13.331  54.953  19.993  1.00  0.00     0.012 C 
ATOM     20  C   UNL     1     -16.012  56.030  18.450  1.00  0.00    -0.025 C 
ATOM     21  C   UNL     1     -15.501  53.478  18.355  1.00  0.00     0.005 C 
ATOM     22  C   UNL     1     -16.458  54.616  17.909  1.00  0.00     0.003 C 
ATOM     23  C   UNL     1     -16.905  57.106  17.741  1.00  0.00     0.010 C 
ATOM     24  C   UNL     1     -16.162  56.213  19.995  1.00  0.00     0.012 C 
ATOM     25  C   UNL     1     -17.998  54.289  17.999  1.00  0.00    -0.006 C 
ATOM     26  C   UNL     1     -18.415  56.834  17.842  1.00  0.00     0.033 C 
ATOM     27  C   UNL     1     -18.796  55.443  17.310  1.00  0.00     0.120 C 
ATOM     28  C   UNL     1     -18.313  52.970  17.238  1.00  0.00     0.014 C 
ATOM     29  C   UNL     1     -18.497  54.083  19.456  1.00  0.00     0.014 C 
ENDROOT
BRANCH   1  30
ATOM     30  C   UNL     1     -11.963  54.492  14.378  1.00  0.00     0.048 C 
ATOM     31  O   UNL     1     -11.871  53.237  14.254  1.00  0.00    -0.550 OA
ATOM     32  O   UNL     1     -13.076  55.127  13.835  1.00  0.00    -0.550 OA
ENDBRANCH   1  30
BRANCH  27  33
ATOM     33  O   UNL     1     -18.583  55.411  15.911  1.00  0.00    -0.393 OA
ATOM     34  H   UNL     1     -18.587  56.349  15.593  1.00  0.00     0.210 HD
ENDBRANCH  27  33
TORSDOF 2
ENDMDL
MODEL 2
REMARK VINA RESULT:    -5.415     13.341     15.640
REMARK INTER + INTRA:          -6.026
REMARK INTER:                  -5.863
REMARK INTRA:                  -0.163
REMARK UNBOUND:                -0.136
REMARK SMILES C[C@H]1[C@H](C)CC[C@@]2(C(=O)[O-])CC[C@@]3(C)C(=CC[C@@H]4[C@@]5(C)CC[C@@H](O)C(C)(C)[C@@H]5CC[C@]43C)[C@@H]12
REMARK SMILES IDX 7 1 6 2 11 3 33 4 5 5 12 6 15 7 2 8 3 9 13 10 16 11 1 12
REMARK SMILES IDX 4 13 14 14 31 15 17 16 18 17 30 18 32 19 19 20 29 21 28 22
REMARK SMILES IDX 21 23 20 24 25 25 22 26 23 27 26 28 27 29 8 30 9 31 10 32
REMARK SMILES IDX 24 33
REMARK H PARENT 24 34
REMARK Flexibility Score: inf
ROOT
ATOM      1  C   UNL     1     -12.888  49.713  30.111  1.00  0.00     0.017 C 
ATOM      2  C   UNL     1     -11.524  48.995  29.943  1.00  0.00     0.014 C 
ATOM      3  C   UNL     1     -13.973  48.930  29.336  1.00  0.00     0.014 C 
ATOM      4  C   UNL     1     -13.325  49.833  31.619  1.00  0.00     0.030 C 
ATOM      5  C   UNL     1     -11.376  47.733  30.787  1.00  0.00     0.004 C 
ATOM      6  C   UNL     1     -15.283  49.732  29.261  1.00  0.00     0.013 C 
ATOM      7  C   UNL     1     -14.797  50.268  31.774  1.00  0.00    -0.063 C 
ATOM      8  C   UNL     1     -12.915  48.651  32.593  1.00  0.00    -0.003 C 
ATOM      9  C   UNL     1     -11.522  48.038  32.282  1.00  0.00    -0.011 C 
ATOM     10  C   UNL     1     -15.897  50.112  30.661  1.00  0.00    -0.006 C 
ATOM     11  C   UNL     1     -15.167  50.763  32.980  1.00  0.00    -0.027 C 
ATOM     12  C   UNL     1     -13.959  47.533  32.760  1.00  0.00     0.008 C 
ATOM     13  C   UNL     1     -10.363  48.893  32.822  1.00  0.00     0.008 C 
ATOM     14  C   UNL     1     -16.686  48.823  31.089  1.00  0.00     0.017 C 
ATOM     15  C   UNL     1     -16.882  51.447  30.599  1.00  0.00    -0.020 C 
ATOM     16  C   UNL     1     -16.446  51.544  33.125  1.00  0.00     0.032 C 
ATOM     17  C   UNL     1     -16.590  52.388  31.841  1.00  0.00     0.006 C 
ATOM     18  C   UNL     1     -16.654  52.352  29.341  1.00  0.00     0.008 C 
ATOM     19  C   UNL     1     -18.380  50.984  30.521  1.00  0.00     0.012 C 
ATOM     20  C   UNL     1     -17.388  53.758  31.952  1.00  0.00    -0.025 C 
ATOM     21  C   UNL     1     -17.438  53.687  29.349  1.00  0.00     0.005 C 
ATOM     22  C   UNL     1     -17.109  54.535  30.607  1.00  0.00     0.003 C 
ATOM     23  C   UNL     1     -16.796  54.619  33.121  1.00  0.00     0.010 C 
ATOM     24  C   UNL     1     -18.899  53.501  32.253  1.00  0.00     0.012 C 
ATOM     25  C   UNL     1     -17.580  56.039  30.560  1.00  0.00    -0.006 C 
ATOM     26  C   UNL     1     -17.266  56.082  33.123  1.00  0.00     0.033 C 
ATOM     27  C   UNL     1     -16.978  56.792  31.789  1.00  0.00     0.120 C 
ATOM     28  C   UNL     1     -17.048  56.728  29.271  1.00  0.00     0.014 C 
ATOM     29  C   UNL     1     -19.125  56.197  30.534  1.00  0.00     0.014 C 
ENDROOT
BRANCH   1  30
ATOM     30  C   UNL     1     -12.677  51.101  29.484  1.00  0.00     0.048 C 
ATOM     31  O   UNL     1     -12.018  51.224  28.412  1.00  0.00    -0.550 OA
ATOM     32  O   UNL     1     -13.063  52.258  30.154  1.00  0.00    -0.550 OA
ENDBRANCH   1  30
BRANCH  27  33
ATOM     33  O   UNL     1     -15.578  56.930  31.635  1.00  0.00    -0.393 OA
ATOM     34  H   UNL     1     -15.403  57.085  30.672  1.00  0.00     0.210 HD
ENDBRANCH  27  33
TORSDOF 2
ENDMDL
MODEL 3
REMARK VINA RESULT:    -5.205     13.429     16.276
REMARK INTER + INTRA:          -5.797
REMARK INTER:                  -6.677
REMARK INTRA:                   0.880
REMARK UNBOUND:                -0.136
REMARK SMILES C[C@H]1[C@H](C)CC[C@@]2(C(=O)[O-])CC[C@@]3(C)C(=CC[C@@H]4[C@@]5(C)CC[C@@H](O)C(C)(C)[C@@H]5CC[C@]43C)[C@@H]12
REMARK SMILES IDX 7 1 6 2 11 3 33 4 5 5 12 6 15 7 2 8 3 9 13 10 16 11 1 12
REMARK SMILES IDX 4 13 14 14 31 15 17 16 18 17 30 18 32 19 19 20 29 21 28 22
REMARK SMILES IDX 21 23 20 24 25 25 22 26 23 27 26 28 27 29 8 30 9 31 10 32
REMARK SMILES IDX 24 33
REMARK H PARENT 24 34
REMARK Flexibility Score: inf
ROOT
ATOM      1  C   UNL     1     -16.988  54.861  31.837  1.00  0.00     0.017 C 
ATOM      2  C   UNL     1     -17.751  56.210  31.853  1.00  0.00     0.014 C 
ATOM      3  C   UNL     1     -17.738  53.843  32.727  1.00  0.00     0.014 C 
ATOM      4  C   UNL     1     -16.850  54.264  30.386  1.00  0.00     0.030 C 
ATOM      5  C   UNL     1     -19.015  56.223  30.999  1.00  0.00     0.004 C 
ATOM      6  C   UNL     1     -16.894  52.576  32.946  1.00  0.00     0.013 C 
ATOM      7  C   UNL     1     -16.367  52.799  30.394  1.00  0.00    -0.063 C 
ATOM      8  C   UNL     1     -18.042  54.524  29.374  1.00  0.00    -0.003 C 
ATOM      9  C   UNL     1     -18.701  55.923  29.529  1.00  0.00    -0.011 C 
ATOM     10  C   UNL     1     -16.490  51.823  31.622  1.00  0.00    -0.006 C 
ATOM     11  C   UNL     1     -15.857  52.314  29.236  1.00  0.00    -0.027 C 
ATOM     12  C   UNL     1     -19.125  53.433  29.325  1.00  0.00     0.008 C 
ATOM     13  C   UNL     1     -17.883  57.042  28.864  1.00  0.00     0.008 C 
ATOM     14  C   UNL     1     -17.751  50.951  31.285  1.00  0.00     0.017 C 
ATOM     15  C   UNL     1     -15.123  50.896  31.792  1.00  0.00    -0.020 C 
ATOM     16  C   UNL     1     -15.034  51.053  29.233  1.00  0.00     0.032 C 
ATOM     17  C   UNL     1     -14.189  51.079  30.523  1.00  0.00     0.006 C 
ATOM     18  C   UNL     1     -14.230  51.291  33.016  1.00  0.00     0.008 C 
ATOM     19  C   UNL     1     -15.538  49.402  32.035  1.00  0.00     0.012 C 
ATOM     20  C   UNL     1     -12.794  50.319  30.500  1.00  0.00    -0.025 C 
ATOM     21  C   UNL     1     -12.870  50.555  33.093  1.00  0.00     0.005 C 
ATOM     22  C   UNL     1     -12.030  50.771  31.806  1.00  0.00     0.003 C 
ATOM     23  C   UNL     1     -11.950  50.806  29.272  1.00  0.00     0.010 C 
ATOM     24  C   UNL     1     -13.001  48.776  30.369  1.00  0.00     0.012 C 
ATOM     25  C   UNL     1     -10.512  50.357  31.903  1.00  0.00    -0.006 C 
ATOM     26  C   UNL     1     -10.471  50.388  29.321  1.00  0.00     0.033 C 
ATOM     27  C   UNL     1      -9.776  50.844  30.614  1.00  0.00     0.120 C 
ATOM     28  C   UNL     1      -9.843  51.051  33.124  1.00  0.00     0.014 C 
ATOM     29  C   UNL     1     -10.303  48.831  32.100  1.00  0.00     0.014 C 
ENDROOT
BRANCH   1  30
ATOM     30  C   UNL     1     -15.609  55.184  32.435  1.00  0.00     0.048 C 
ATOM     31  O   UNL     1     -14.995  54.321  33.124  1.00  0.00    -0.550 OA
ATOM     32  O   UNL     1     -15.083  56.471  32.371  1.00  0.00    -0.550 OA
ENDBRANCH   1  30
BRANCH  27  33
ATOM     33  O   UNL     1      -9.683  52.256  30.612  1.00  0.00    -0.393 OA
ATOM     34  H   UNL     1      -9.439  52.533  29.692  1.00  0.00     0.210 HD
ENDBRANCH  27  33
TORSDOF 2
ENDMDL
MODEL 4
REMARK VINA RESULT:    -4.786      2.660      7.954
REMARK INTER + INTRA:          -5.342
REMARK INTER:                  -5.298
REMARK INTRA:                  -0.044
REMARK UNBOUND:                -0.136
REMARK SMILES C[C@H]1[C@H](C)CC[C@@]2(C(=O)[O-])CC[C@@]3(C)C(=CC[C@@H]4[C@@]5(C)CC[C@@H](O)C(C)(C)[C@@H]5CC[C@]43C)[C@@H]12
REMARK SMILES IDX 7 1 6 2 11 3 33 4 5 5 12 6 15 7 2 8 3 9 13 10 16 11 1 12
REMARK SMILES IDX 4 13 14 14 31 15 17 16 18 17 30 18 32 19 19 20 29 21 28 22
REMARK SMILES IDX 21 23 20 24 25 25 22 26 23 27 26 28 27 29 8 30 9 31 10 32
REMARK SMILES IDX 24 33
REMARK H PARENT 24 34
REMARK Flexibility Score: inf
ROOT
ATOM      1  C   UNL     1     -12.989  55.159  18.489  1.00  0.00     0.017 C 
ATOM      2  C   UNL     1     -13.837  54.874  19.755  1.00  0.00     0.014 C 
ATOM      3  C   UNL     1     -13.380  54.157  17.379  1.00  0.00     0.014 C 
ATOM      4  C   UNL     1     -13.188  56.624  17.947  1.00  0.00     0.030 C 
ATOM      5  C   UNL     1     -15.279  55.365  19.663  1.00  0.00     0.004 C 
ATOM      6  C   UNL     1     -12.398  54.233  16.198  1.00  0.00     0.013 C 
ATOM      7  C   UNL     1     -12.590  56.818  16.538  1.00  0.00    -0.063 C 
ATOM      8  C   UNL     1     -14.624  57.273  18.113  1.00  0.00    -0.003 C 
ATOM      9  C   UNL     1     -15.342  56.879  19.434  1.00  0.00    -0.011 C 
ATOM     10  C   UNL     1     -12.294  55.653  15.524  1.00  0.00    -0.006 C 
ATOM     11  C   UNL     1     -12.365  58.093  16.137  1.00  0.00    -0.027 C 
ATOM     12  C   UNL     1     -15.579  57.093  16.920  1.00  0.00     0.008 C 
ATOM     13  C   UNL     1     -14.834  57.677  20.647  1.00  0.00     0.008 C 
ATOM     14  C   UNL     1     -13.516  55.692  14.538  1.00  0.00     0.017 C 
ATOM     15  C   UNL     1     -10.854  55.895  14.734  1.00  0.00    -0.020 C 
ATOM     16  C   UNL     1     -11.463  58.377  14.965  1.00  0.00     0.032 C 
ATOM     17  C   UNL     1     -10.311  57.353  15.042  1.00  0.00     0.006 C 
ATOM     18  C   UNL     1      -9.707  54.930  15.185  1.00  0.00     0.008 C 
ATOM     19  C   UNL     1     -11.053  55.629  13.200  1.00  0.00     0.012 C 
ATOM     20  C   UNL     1      -8.910  57.780  14.427  1.00  0.00    -0.025 C 
ATOM     21  C   UNL     1      -8.315  55.249  14.587  1.00  0.00     0.005 C 
ATOM     22  C   UNL     1      -7.870  56.699  14.919  1.00  0.00     0.003 C 
ATOM     23  C   UNL     1      -8.470  59.160  15.027  1.00  0.00     0.010 C 
ATOM     24  C   UNL     1      -9.005  57.932  12.875  1.00  0.00     0.012 C 
ATOM     25  C   UNL     1      -6.350  57.024  14.657  1.00  0.00    -0.006 C 
ATOM     26  C   UNL     1      -7.001  59.522  14.758  1.00  0.00     0.033 C 
ATOM     27  C   UNL     1      -6.030  58.435  15.249  1.00  0.00     0.120 C 
ATOM     28  C   UNL     1      -5.446  55.987  15.382  1.00  0.00     0.014 C 
ATOM     29  C   UNL     1      -5.961  56.968  13.155  1.00  0.00     0.014 C 
ENDROOT
BRANCH   1  30
ATOM     30  C   UNL     1     -11.535  54.927  18.934  1.00  0.00     0.048 C 
ATOM     31  O   UNL     1     -11.270  54.076  19.831  1.00  0.00    -0.550 OA
ATOM     32  O   UNL     1     -10.506  55.749  18.484  1.00  0.00    -0.550 OA
ENDBRANCH   1  30
BRANCH  27  33
ATOM     33  O   UNL     1      -6.068  58.388  16.662  1.00  0.00    -0.393 OA
ATOM     34  H   UNL     1      -5.147  58.557  16.987  1.00  0.00     0.210 HD
ENDBRANCH  27  33
TORSDOF 2
ENDMDL
MODEL 5
REMARK VINA RESULT:    -4.744      1.859      7.349
REMARK INTER + INTRA:          -5.296
REMARK INTER:                  -5.560
REMARK INTRA:                   0.263
REMARK UNBOUND:                -0.136
REMARK SMILES C[C@H]1[C@H](C)CC[C@@]2(C(=O)[O-])CC[C@@]3(C)C(=CC[C@@H]4[C@@]5(C)CC[C@@H](O)C(C)(C)[C@@H]5CC[C@]43C)[C@@H]12
REMARK SMILES IDX 7 1 6 2 11 3 33 4 5 5 12 6 15 7 2 8 3 9 13 10 16 11 1 12
REMARK SMILES IDX 4 13 14 14 31 15 17 16 18 17 30 18 32 19 19 20 29 21 28 22
REMARK SMILES IDX 21 23 20 24 25 25 22 26 23 27 26 28 27 29 8 30 9 31 10 32
REMARK SMILES IDX 24 33
REMARK H PARENT 24 34
REMARK Flexibility Score: inf
ROOT
ATOM      1  C   UNL     1     -16.601  56.013  19.984  1.00  0.00     0.017 C 
ATOM      2  C   UNL     1     -17.984  55.747  20.631  1.00  0.00     0.014 C 
ATOM      3  C   UNL     1     -15.639  56.575  21.056  1.00  0.00     0.014 C 
ATOM      4  C   UNL     1     -15.966  54.714  19.360  1.00  0.00     0.030 C 
ATOM      5  C   UNL     1     -18.037  54.491  21.497  1.00  0.00     0.004 C 
ATOM      6  C   UNL     1     -14.340  57.090  20.415  1.00  0.00     0.013 C 
ATOM      7  C   UNL     1     -14.481  54.903  18.988  1.00  0.00    -0.063 C 
ATOM      8  C   UNL     1     -16.259  53.338  20.089  1.00  0.00    -0.003 C 
ATOM      9  C   UNL     1     -17.690  53.237  20.687  1.00  0.00    -0.011 C 
ATOM     10  C   UNL     1     -13.540  56.006  19.598  1.00  0.00    -0.006 C 
ATOM     11  C   UNL     1     -13.948  54.011  18.119  1.00  0.00    -0.027 C 
ATOM     12  C   UNL     1     -15.218  52.902  21.135  1.00  0.00     0.008 C 
ATOM     13  C   UNL     1     -18.755  52.910  19.627  1.00  0.00     0.008 C 
ATOM     14  C   UNL     1     -12.719  55.238  20.694  1.00  0.00     0.017 C 
ATOM     15  C   UNL     1     -12.554  56.664  18.435  1.00  0.00    -0.020 C 
ATOM     16  C   UNL     1     -12.650  54.312  17.416  1.00  0.00     0.032 C 
ATOM     17  C   UNL     1     -12.666  55.821  17.096  1.00  0.00     0.006 C 
ATOM     18  C   UNL     1     -12.934  58.127  18.027  1.00  0.00     0.008 C 
ATOM     19  C   UNL     1     -11.087  56.746  18.985  1.00  0.00     0.012 C 
ATOM     20  C   UNL     1     -11.842  56.309  15.829  1.00  0.00    -0.025 C 
ATOM     21  C   UNL     1     -12.139  58.696  16.827  1.00  0.00     0.005 C 
ATOM     22  C   UNL     1     -12.286  57.801  15.568  1.00  0.00     0.003 C 
ATOM     23  C   UNL     1     -12.262  55.469  14.573  1.00  0.00     0.010 C 
ATOM     24  C   UNL     1     -10.308  56.117  16.052  1.00  0.00     0.012 C 
ATOM     25  C   UNL     1     -11.805  58.445  14.211  1.00  0.00    -0.006 C 
ATOM     26  C   UNL     1     -11.777  56.054  13.236  1.00  0.00     0.033 C 
ATOM     27  C   UNL     1     -12.229  57.509  13.034  1.00  0.00     0.120 C 
ATOM     28  C   UNL     1     -12.494  59.823  13.996  1.00  0.00     0.014 C 
ATOM     29  C   UNL     1     -10.276  58.710  14.167  1.00  0.00     0.014 C 
ENDROOT
BRANCH   1  30
ATOM     30  C   UNL     1     -16.874  57.071  18.901  1.00  0.00     0.048 C 
ATOM     31  O   UNL     1     -16.446  58.252  19.042  1.00  0.00    -0.550 OA
ATOM     32  O   UNL     1     -17.723  56.801  17.832  1.00  0.00    -0.550 OA
ENDBRANCH   1  30
BRANCH  27  33
ATOM     33  O   UNL     1     -13.635  57.536  12.875  1.00  0.00    -0.393 OA
ATOM     34  H   UNL     1     -14.033  57.571  13.782  1.00  0.00     0.210 HD
ENDBRANCH  27  33
TORSDOF 2
ENDMDL
MODEL 6
REMARK VINA RESULT:    -3.838     13.058     15.824
REMARK INTER + INTRA:          -4.311
REMARK INTER:                  -4.275
REMARK INTRA:                  -0.036
REMARK UNBOUND:                -0.136
REMARK SMILES C[C@H]1[C@H](C)CC[C@@]2(C(=O)[O-])CC[C@@]3(C)C(=CC[C@@H]4[C@@]5(C)CC[C@@H](O)C(C)(C)[C@@H]5CC[C@]43C)[C@@H]12
REMARK SMILES IDX 7 1 6 2 11 3 33 4 5 5 12 6 15 7 2 8 3 9 13 10 16 11 1 12
REMARK SMILES IDX 4 13 14 14 31 15 17 16 18 17 30 18 32 19 19 20 29 21 28 22
REMARK SMILES IDX 21 23 20 24 25 25 22 26 23 27 26 28 27 29 8 30 9 31 10 32
REMARK SMILES IDX 24 33
REMARK H PARENT 24 34
REMARK Flexibility Score: inf
ROOT
ATOM      1  C   UNL     1     -18.033  53.891  31.542  1.00  0.00     0.017 C 
ATOM      2  C   UNL     1     -18.832  55.011  32.255  1.00  0.00     0.014 C 
ATOM      3  C   UNL     1     -18.978  53.119  30.593  1.00  0.00     0.014 C 
ATOM      4  C   UNL     1     -16.821  54.452  30.708  1.00  0.00     0.030 C 
ATOM      5  C   UNL     1     -19.125  56.224  31.377  1.00  0.00     0.004 C 
ATOM      6  C   UNL     1     -18.301  51.847  30.056  1.00  0.00     0.013 C 
ATOM      7  C   UNL     1     -16.212  53.392  29.766  1.00  0.00    -0.063 C 
ATOM      8  C   UNL     1     -17.001  55.869  30.022  1.00  0.00    -0.003 C 
ATOM      9  C   UNL     1     -17.833  56.873  30.868  1.00  0.00    -0.011 C 
ATOM     10  C   UNL     1     -16.961  52.103  29.267  1.00  0.00    -0.006 C 
ATOM     11  C   UNL     1     -14.964  53.633  29.297  1.00  0.00    -0.027 C 
ATOM     12  C   UNL     1     -17.515  55.847  28.572  1.00  0.00     0.008 C 
ATOM     13  C   UNL     1     -17.015  57.518  31.999  1.00  0.00     0.008 C 
ATOM     14  C   UNL     1     -17.442  52.483  27.822  1.00  0.00     0.017 C 
ATOM     15  C   UNL     1     -15.950  50.786  29.256  1.00  0.00    -0.020 C 
ATOM     16  C   UNL     1     -14.148  52.522  28.689  1.00  0.00     0.032 C 
ATOM     17  C   UNL     1     -14.456  51.254  29.512  1.00  0.00     0.006 C 
ATOM     18  C   UNL     1     -16.248  49.742  30.384  1.00  0.00     0.008 C 
ATOM     19  C   UNL     1     -16.124  50.010  27.904  1.00  0.00     0.012 C 
ATOM     20  C   UNL     1     -13.324  50.143  29.597  1.00  0.00    -0.025 C 
ATOM     21  C   UNL     1     -15.214  48.596  30.500  1.00  0.00     0.005 C 
ATOM     22  C   UNL     1     -13.779  49.141  30.729  1.00  0.00     0.003 C 
ATOM     23  C   UNL     1     -11.978  50.798  30.065  1.00  0.00     0.010 C 
ATOM     24  C   UNL     1     -13.085  49.483  28.201  1.00  0.00     0.012 C 
ATOM     25  C   UNL     1     -12.710  48.079  31.191  1.00  0.00    -0.006 C 
ATOM     26  C   UNL     1     -10.902  49.786  30.490  1.00  0.00     0.033 C 
ATOM     27  C   UNL     1     -11.397  48.829  31.587  1.00  0.00     0.120 C 
ATOM     28  C   UNL     1     -13.219  47.315  32.446  1.00  0.00     0.014 C 
ATOM     29  C   UNL     1     -12.411  47.000  30.115  1.00  0.00     0.014 C 
ENDROOT
BRANCH   1  30
ATOM     30  C   UNL     1     -17.547  52.975  32.677  1.00  0.00     0.048 C 
ATOM     31  O   UNL     1     -16.369  53.084  33.125  1.00  0.00    -0.550 OA
ATOM     32  O   UNL     1     -18.324  51.911  33.125  1.00  0.00    -0.550 OA
ENDBRANCH   1  30
BRANCH  27  33
ATOM     33  O   UNL     1     -11.599  49.564  32.780  1.00  0.00    -0.393 OA
ATOM     34  H   UNL     1     -10.896  49.283  33.420  1.00  0.00     0.210 HD
ENDBRANCH  27  33
TORSDOF 2
ENDMDL
MODEL 7
REMARK VINA RESULT:    -3.685      1.891      2.753
REMARK INTER + INTRA:          -4.145
REMARK INTER:                  -4.059
REMARK INTRA:                  -0.086
REMARK UNBOUND:                -0.136
REMARK SMILES C[C@H]1[C@H](C)CC[C@@]2(C(=O)[O-])CC[C@@]3(C)C(=CC[C@@H]4[C@@]5(C)CC[C@@H](O)C(C)(C)[C@@H]5CC[C@]43C)[C@@H]12
REMARK SMILES IDX 7 1 6 2 11 3 33 4 5 5 12 6 15 7 2 8 3 9 13 10 16 11 1 12
REMARK SMILES IDX 4 13 14 14 31 15 17 16 18 17 30 18 32 19 19 20 29 21 28 22
REMARK SMILES IDX 21 23 20 24 25 25 22 26 23 27 26 28 27 29 8 30 9 31 10 32
REMARK SMILES IDX 24 33
REMARK H PARENT 24 34
REMARK Flexibility Score: inf
ROOT
ATOM      1  C   UNL     1     -11.729  56.936  14.342  1.00  0.00     0.017 C 
ATOM      2  C   UNL     1     -11.260  57.807  13.148  1.00  0.00     0.014 C 
ATOM      3  C   UNL     1     -11.443  55.450  14.028  1.00  0.00     0.014 C 
ATOM      4  C   UNL     1     -11.010  57.320  15.689  1.00  0.00     0.030 C 
ATOM      5  C   UNL     1      -9.748  57.998  13.071  1.00  0.00     0.004 C 
ATOM      6  C   UNL     1     -12.115  54.530  15.061  1.00  0.00     0.013 C 
ATOM      7  C   UNL     1     -11.243  56.277  16.800  1.00  0.00    -0.063 C 
ATOM      8  C   UNL     1      -9.506  57.813  15.597  1.00  0.00    -0.003 C 
ATOM      9  C   UNL     1      -9.202  58.669  14.337  1.00  0.00    -0.011 C 
ATOM     10  C   UNL     1     -11.667  54.783  16.550  1.00  0.00    -0.006 C 
ATOM     11  C   UNL     1     -11.004  56.673  18.074  1.00  0.00    -0.027 C 
ATOM     12  C   UNL     1      -8.436  56.720  15.763  1.00  0.00     0.008 C 
ATOM     13  C   UNL     1      -9.677  60.125  14.479  1.00  0.00     0.008 C 
ATOM     14  C   UNL     1     -10.322  53.983  16.681  1.00  0.00     0.017 C 
ATOM     15  C   UNL     1     -12.794  54.284  17.663  1.00  0.00    -0.020 C 
ATOM     16  C   UNL     1     -11.542  55.879  19.235  1.00  0.00     0.032 C 
ATOM     17  C   UNL     1     -12.935  55.371  18.809  1.00  0.00     0.006 C 
ATOM     18  C   UNL     1     -14.238  54.117  17.080  1.00  0.00     0.008 C 
ATOM     19  C   UNL     1     -12.392  52.869  18.209  1.00  0.00     0.012 C 
ATOM     20  C   UNL     1     -14.005  55.121  19.956  1.00  0.00    -0.025 C 
ATOM     21  C   UNL     1     -15.334  53.820  18.132  1.00  0.00     0.005 C 
ATOM     22  C   UNL     1     -15.390  54.921  19.225  1.00  0.00     0.003 C 
ATOM     23  C   UNL     1     -14.129  56.403  20.850  1.00  0.00     0.010 C 
ATOM     24  C   UNL     1     -13.575  53.929  20.870  1.00  0.00     0.012 C 
ATOM     25  C   UNL     1     -16.669  54.904  20.147  1.00  0.00    -0.006 C 
ATOM     26  C   UNL     1     -15.348  56.400  21.786  1.00  0.00     0.033 C 
ATOM     27  C   UNL     1     -16.669  56.195  21.027  1.00  0.00     0.120 C 
ATOM     28  C   UNL     1     -17.958  54.920  19.277  1.00  0.00     0.014 C 
ATOM     29  C   UNL     1     -16.762  53.640  21.044  1.00  0.00     0.014 C 
ENDROOT
BRANCH   1  30
ATOM     30  C   UNL     1     -13.244  57.184  14.433  1.00  0.00     0.048 C 
ATOM     31  O   UNL     1     -13.784  57.428  15.550  1.00  0.00    -0.550 OA
ATOM     32  O   UNL     1     -14.071  56.989  13.331  1.00  0.00    -0.550 OA
ENDBRANCH   1  30
BRANCH  27  33
ATOM     33  O   UNL     1     -16.918  57.332  20.221  1.00  0.00    -0.393 OA
ATOM     34  H   UNL     1     -17.860  57.599  20.373  1.00  0.00     0.210 HD
ENDBRANCH  27  33
TORSDOF 2
ENDMDL
MODEL 8
REMARK VINA RESULT:    -3.164      2.674      4.892
REMARK INTER + INTRA:          -3.578
REMARK INTER:                  -3.442
REMARK INTRA:                  -0.135
REMARK UNBOUND:                -0.136
REMARK SMILES C[C@H]1[C@H](C)CC[C@@]2(C(=O)[O-])CC[C@@]3(C)C(=CC[C@@H]4[C@@]5(C)CC[C@@H](O)C(C)(C)[C@@H]5CC[C@]43C)[C@@H]12
REMARK SMILES IDX 7 1 6 2 11 3 33 4 5 5 12 6 15 7 2 8 3 9 13 10 16 11 1 12
REMARK SMILES IDX 4 13 14 14 31 15 17 16 18 17 30 18 32 19 19 20 29 21 28 22
REMARK SMILES IDX 21 23 20 24 25 25 22 26 23 27 26 28 27 29 8 30 9 31 10 32
REMARK SMILES IDX 24 33
REMARK H PARENT 24 34
REMARK Flexibility Score: inf
ROOT
ATOM      1  C   UNL     1      -8.517  58.120  14.257  1.00  0.00     0.017 C 
ATOM      2  C   UNL     1      -7.260  58.935  13.860  1.00  0.00     0.014 C 
ATOM      3  C   UNL     1      -9.458  58.012  13.035  1.00  0.00     0.014 C 
ATOM      4  C   UNL     1      -8.163  56.670  14.757  1.00  0.00     0.030 C 
ATOM      5  C   UNL     1      -6.255  58.159  13.013  1.00  0.00     0.004 C 
ATOM      6  C   UNL     1     -10.825  57.436  13.442  1.00  0.00     0.013 C 
ATOM      7  C   UNL     1      -9.406  55.763  14.866  1.00  0.00    -0.063 C 
ATOM      8  C   UNL     1      -6.920  55.951  14.087  1.00  0.00    -0.003 C 
ATOM      9  C   UNL     1      -5.748  56.913  13.746  1.00  0.00    -0.011 C 
ATOM     10  C   UNL     1     -10.761  56.008  14.105  1.00  0.00    -0.006 C 
ATOM     11  C   UNL     1      -9.289  54.648  15.627  1.00  0.00    -0.027 C 
ATOM     12  C   UNL     1      -7.240  55.059  12.875  1.00  0.00     0.008 C 
ATOM     13  C   UNL     1      -4.891  57.263  14.975  1.00  0.00     0.008 C 
ATOM     14  C   UNL     1     -10.688  55.028  12.881  1.00  0.00     0.017 C 
ATOM     15  C   UNL     1     -12.065  55.684  15.080  1.00  0.00    -0.020 C 
ATOM     16  C   UNL     1     -10.515  53.909  16.094  1.00  0.00     0.032 C 
ATOM     17  C   UNL     1     -11.576  54.982  16.416  1.00  0.00     0.006 C 
ATOM     18  C   UNL     1     -12.843  56.958  15.552  1.00  0.00     0.008 C 
ATOM     19  C   UNL     1     -13.107  54.822  14.284  1.00  0.00     0.012 C 
ATOM     20  C   UNL     1     -12.660  54.631  17.522  1.00  0.00    -0.025 C 
ATOM     21  C   UNL     1     -13.954  56.693  16.597  1.00  0.00     0.005 C 
ATOM     22  C   UNL     1     -13.394  55.987  17.860  1.00  0.00     0.003 C 
ATOM     23  C   UNL     1     -11.941  54.149  18.829  1.00  0.00     0.010 C 
ATOM     24  C   UNL     1     -13.604  53.485  17.035  1.00  0.00     0.012 C 
ATOM     25  C   UNL     1     -14.349  55.969  19.114  1.00  0.00    -0.006 C 
ATOM     26  C   UNL     1     -12.857  54.087  20.063  1.00  0.00     0.033 C 
ATOM     27  C   UNL     1     -13.552  55.429  20.345  1.00  0.00     0.120 C 
ATOM     28  C   UNL     1     -14.823  57.411  19.449  1.00  0.00     0.014 C 
ATOM     29  C   UNL     1     -15.635  55.127  18.893  1.00  0.00     0.014 C 
ENDROOT
BRANCH   1  30
ATOM     30  C   UNL     1      -9.180  58.945  15.374  1.00  0.00     0.048 C 
ATOM     31  O   UNL     1      -9.243  58.489  16.551  1.00  0.00    -0.550 OA
ATOM     32  O   UNL     1      -9.860  60.125  15.088  1.00  0.00    -0.550 OA
ENDBRANCH   1  30
BRANCH  27  33
ATOM     33  O   UNL     1     -12.579  56.375  20.746  1.00  0.00    -0.393 OA
ATOM     34  H   UNL     1     -12.666  57.158  20.145  1.00  0.00     0.210 HD
ENDBRANCH  27  33
TORSDOF 2
ENDMDL
