MODEL 1
REMARK VINA RESULT:    -5.015      0.000      0.000
REMARK INTER + INTRA:          -6.192
REMARK INTER:                  -5.894
REMARK INTRA:                  -0.298
REMARK UNBOUND:                -0.298
REMARK SMILES O=C([O-])C=Cc1ccc(O)c(O)c1
REMARK SMILES IDX 6 1 13 2 7 3 11 4 8 5 9 6 5 7 4 8 2 9 1 10 3 11 12 12 10 14
REMARK H PARENT 12 13 10 15
REMARK Flexibility Score: inf
ROOT
ATOM      1  C   UNL     1      -4.353   9.172  46.833  1.00  0.00    -0.022 A 
ATOM      2  C   UNL     1      -5.107  10.350  46.723  1.00  0.00     0.058 A 
ATOM      3  C   UNL     1      -3.346   9.091  47.810  1.00  0.00     0.012 A 
ATOM      4  C   UNL     1      -4.827  11.453  47.542  1.00  0.00     0.157 A 
ATOM      5  C   UNL     1      -3.065  10.189  48.627  1.00  0.00     0.051 A 
ATOM      6  C   UNL     1      -3.801  11.374  48.492  1.00  0.00     0.157 A 
ENDROOT
BRANCH   1   7
ATOM      7  C   UNL     1      -4.703   8.007  45.995  1.00  0.00     0.010 C 
ATOM      8  C   UNL     1      -4.108   7.674  44.839  1.00  0.00     0.025 C 
BRANCH   8   9
ATOM      9  C   UNL     1      -3.127   8.497  44.105  1.00  0.00     0.064 C 
ATOM     10  O   UNL     1      -1.887   8.315  44.234  1.00  0.00    -0.545 OA
ATOM     11  O   UNL     1      -3.580   9.538  43.308  1.00  0.00    -0.545 OA
ENDBRANCH   8   9
ENDBRANCH   1   7
BRANCH   4  12
ATOM     12  O   UNL     1      -5.564  12.629  47.418  1.00  0.00    -0.504 OA
ATOM     13  H   UNL     1      -6.296  12.867  48.077  1.00  0.00     0.293 HD
ENDBRANCH   4  12
BRANCH   6  14
ATOM     14  O   UNL     1      -3.522  12.473  49.303  1.00  0.00    -0.504 OA
ATOM     15  H   UNL     1      -4.260  13.049  49.688  1.00  0.00     0.293 HD
ENDBRANCH   6  14
TORSDOF 4
ENDMDL
MODEL 2
REMARK VINA RESULT:    -4.920      2.022      4.257
REMARK INTER + INTRA:          -6.081
REMARK INTER:                  -5.818
REMARK INTRA:                  -0.263
REMARK UNBOUND:                -0.298
REMARK SMILES O=C([O-])C=Cc1ccc(O)c(O)c1
REMARK SMILES IDX 6 1 13 2 7 3 11 4 8 5 9 6 5 7 4 8 2 9 1 10 3 11 12 12 10 14
REMARK H PARENT 12 13 10 15
REMARK Flexibility Score: inf
ROOT
ATOM      1  C   UNL     1      -4.639  10.820  47.545  1.00  0.00    -0.022 A 
ATOM      2  C   UNL     1      -5.197   9.958  46.589  1.00  0.00     0.058 A 
ATOM      3  C   UNL     1      -3.489  10.417  48.245  1.00  0.00     0.012 A 
ATOM      4  C   UNL     1      -4.646   8.688  46.369  1.00  0.00     0.157 A 
ATOM      5  C   UNL     1      -2.939   9.150  48.028  1.00  0.00     0.051 A 
ATOM      6  C   UNL     1      -3.518   8.281  47.093  1.00  0.00     0.157 A 
ENDROOT
BRANCH   1   7
ATOM      7  C   UNL     1      -5.206  12.173  47.719  1.00  0.00     0.010 C 
ATOM      8  C   UNL     1      -4.778  13.282  47.097  1.00  0.00     0.025 C 
BRANCH   8   9
ATOM      9  C   UNL     1      -3.560  13.392  46.271  1.00  0.00     0.064 C 
ATOM     10  O   UNL     1      -3.580  13.156  45.034  1.00  0.00    -0.545 OA
ATOM     11  O   UNL     1      -2.352  13.696  46.884  1.00  0.00    -0.545 OA
ENDBRANCH   8   9
ENDBRANCH   1   7
BRANCH   4  12
ATOM     12  O   UNL     1      -5.212   7.825  45.433  1.00  0.00    -0.504 OA
ATOM     13  H   UNL     1      -5.989   7.220  45.671  1.00  0.00     0.293 HD
ENDBRANCH   4  12
BRANCH   6  14
ATOM     14  O   UNL     1      -2.974   7.016  46.876  1.00  0.00    -0.504 OA
ATOM     15  H   UNL     1      -1.973   6.864  46.862  1.00  0.00     0.293 HD
ENDBRANCH   6  14
TORSDOF 4
ENDMDL
MODEL 3
REMARK VINA RESULT:    -4.860      2.130      4.529
REMARK INTER + INTRA:          -6.010
REMARK INTER:                  -5.810
REMARK INTRA:                  -0.199
REMARK UNBOUND:                -0.298
REMARK SMILES O=C([O-])C=Cc1ccc(O)c(O)c1
REMARK SMILES IDX 6 1 13 2 7 3 11 4 8 5 9 6 5 7 4 8 2 9 1 10 3 11 12 12 10 14
REMARK H PARENT 12 13 10 15
REMARK Flexibility Score: inf
ROOT
ATOM      1  C   UNL     1      -4.244  10.414  47.515  1.00  0.00    -0.022 A 
ATOM      2  C   UNL     1      -3.297   9.513  48.023  1.00  0.00     0.058 A 
ATOM      3  C   UNL     1      -5.105   9.997  46.487  1.00  0.00     0.012 A 
ATOM      4  C   UNL     1      -3.174   8.227  47.478  1.00  0.00     0.157 A 
ATOM      5  C   UNL     1      -4.984   8.716  45.941  1.00  0.00     0.051 A 
ATOM      6  C   UNL     1      -4.016   7.829  46.431  1.00  0.00     0.157 A 
ENDROOT
BRANCH   1   7
ATOM      7  C   UNL     1      -4.388  11.743  48.144  1.00  0.00     0.010 C 
ATOM      8  C   UNL     1      -4.153  12.919  47.539  1.00  0.00     0.025 C 
BRANCH   8   9
ATOM      9  C   UNL     1      -3.542  13.097  46.208  1.00  0.00     0.064 C 
ATOM     10  O   UNL     1      -2.294  13.046  46.044  1.00  0.00    -0.545 OA
ATOM     11  O   UNL     1      -4.357  13.396  45.125  1.00  0.00    -0.545 OA
ENDBRANCH   8   9
ENDBRANCH   1   7
BRANCH   4  12
ATOM     12  O   UNL     1      -2.220   7.339  47.970  1.00  0.00    -0.504 OA
ATOM     13  H   UNL     1      -2.047   7.244  48.964  1.00  0.00     0.293 HD
ENDBRANCH   4  12
BRANCH   6  14
ATOM     14  O   UNL     1      -3.890   6.552  45.887  1.00  0.00    -0.504 OA
ATOM     15  H   UNL     1      -4.370   5.756  46.288  1.00  0.00     0.293 HD
ENDBRANCH   6  14
TORSDOF 4
ENDMDL
MODEL 4
REMARK VINA RESULT:    -4.831     15.658     16.670
REMARK INTER + INTRA:          -5.976
REMARK INTER:                  -5.693
REMARK INTRA:                  -0.283
REMARK UNBOUND:                -0.298
REMARK SMILES O=C([O-])C=Cc1ccc(O)c(O)c1
REMARK SMILES IDX 6 1 13 2 7 3 11 4 8 5 9 6 5 7 4 8 2 9 1 10 3 11 12 12 10 14
REMARK H PARENT 12 13 10 15
REMARK Flexibility Score: inf
ROOT
ATOM      1  C   UNL     1     -18.054   2.270  46.707  1.00  0.00    -0.022 A 
ATOM      2  C   UNL     1     -16.939   1.881  47.463  1.00  0.00     0.058 A 
ATOM      3  C   UNL     1     -19.330   2.226  47.292  1.00  0.00     0.012 A 
ATOM      4  C   UNL     1     -17.098   1.405  48.772  1.00  0.00     0.157 A 
ATOM      5  C   UNL     1     -19.492   1.751  48.596  1.00  0.00     0.051 A 
ATOM      6  C   UNL     1     -18.378   1.335  49.339  1.00  0.00     0.157 A 
ENDROOT
BRANCH   1   7
ATOM      7  C   UNL     1     -17.852   2.817  45.349  1.00  0.00     0.010 C 
ATOM      8  C   UNL     1     -17.923   2.113  44.208  1.00  0.00     0.025 C 
BRANCH   8   9
ATOM      9  C   UNL     1     -18.034   0.646  44.106  1.00  0.00     0.064 C 
ATOM     10  O   UNL     1     -17.033  -0.074  43.848  1.00  0.00    -0.545 OA
ATOM     11  O   UNL     1     -19.282   0.052  44.229  1.00  0.00    -0.545 OA
ENDBRANCH   8   9
ENDBRANCH   1   7
BRANCH   4  12
ATOM     12  O   UNL     1     -15.992   1.001  49.517  1.00  0.00    -0.504 OA
ATOM     13  H   UNL     1     -16.095   0.581  50.433  1.00  0.00     0.293 HD
ENDBRANCH   4  12
BRANCH   6  14
ATOM     14  O   UNL     1     -18.535   0.858  50.639  1.00  0.00    -0.504 OA
ATOM     15  H   UNL     1     -19.120   1.337  51.312  1.00  0.00     0.293 HD
ENDBRANCH   6  14
TORSDOF 4
ENDMDL
MODEL 5
REMARK VINA RESULT:    -4.827     14.144     15.822
REMARK INTER + INTRA:          -5.971
REMARK INTER:                  -5.717
REMARK INTRA:                  -0.255
REMARK UNBOUND:                -0.298
REMARK SMILES O=C([O-])C=Cc1ccc(O)c(O)c1
REMARK SMILES IDX 6 1 13 2 7 3 11 4 8 5 9 6 5 7 4 8 2 9 1 10 3 11 12 12 10 14
REMARK H PARENT 12 13 10 15
REMARK Flexibility Score: inf
ROOT
ATOM      1  C   UNL     1     -16.471   0.492  42.949  1.00  0.00    -0.022 A 
ATOM      2  C   UNL     1     -16.461   1.288  41.794  1.00  0.00     0.058 A 
ATOM      3  C   UNL     1     -15.253   0.156  43.561  1.00  0.00     0.012 A 
ATOM      4  C   UNL     1     -15.248   1.702  41.226  1.00  0.00     0.157 A 
ATOM      5  C   UNL     1     -14.042   0.567  42.997  1.00  0.00     0.051 A 
ATOM      6  C   UNL     1     -14.036   1.337  41.826  1.00  0.00     0.157 A 
ENDROOT
BRANCH   1   7
ATOM      7  C   UNL     1     -17.764   0.113  43.556  1.00  0.00     0.010 C 
ATOM      8  C   UNL     1     -18.397   0.794  44.524  1.00  0.00     0.025 C 
BRANCH   8   9
ATOM      9  C   UNL     1     -17.844   1.933  45.282  1.00  0.00     0.064 C 
ATOM     10  O   UNL     1     -17.140   1.759  46.312  1.00  0.00    -0.545 OA
ATOM     11  O   UNL     1     -18.163   3.225  44.889  1.00  0.00    -0.545 OA
ENDBRANCH   8   9
ENDBRANCH   1   7
BRANCH   4  12
ATOM     12  O   UNL     1     -15.239   2.477  40.068  1.00  0.00    -0.504 OA
ATOM     13  H   UNL     1     -16.059   2.992  39.768  1.00  0.00     0.293 HD
ENDBRANCH   4  12
BRANCH   6  14
ATOM     14  O   UNL     1     -12.831   1.747  41.258  1.00  0.00    -0.504 OA
ATOM     15  H   UNL     1     -12.144   2.268  41.789  1.00  0.00     0.293 HD
ENDBRANCH   6  14
TORSDOF 4
ENDMDL
MODEL 6
REMARK VINA RESULT:    -4.780     15.836     16.533
REMARK INTER + INTRA:          -5.915
REMARK INTER:                  -5.631
REMARK INTRA:                  -0.285
REMARK UNBOUND:                -0.298
REMARK SMILES O=C([O-])C=Cc1ccc(O)c(O)c1
REMARK SMILES IDX 6 1 13 2 7 3 11 4 8 5 9 6 5 7 4 8 2 9 1 10 3 11 12 12 10 14
REMARK H PARENT 12 13 10 15
REMARK Flexibility Score: inf
ROOT
ATOM      1  C   UNL     1     -17.672   3.467  42.779  1.00  0.00    -0.022 A 
ATOM      2  C   UNL     1     -18.152   4.783  42.706  1.00  0.00     0.058 A 
ATOM      3  C   UNL     1     -17.848   2.737  43.966  1.00  0.00     0.012 A 
ATOM      4  C   UNL     1     -18.755   5.383  43.820  1.00  0.00     0.157 A 
ATOM      5  C   UNL     1     -18.448   3.333  45.079  1.00  0.00     0.051 A 
ATOM      6  C   UNL     1     -18.900   4.658  45.011  1.00  0.00     0.157 A 
ENDROOT
BRANCH   1   7
ATOM      7  C   UNL     1     -17.088   2.842  41.574  1.00  0.00     0.010 C 
ATOM      8  C   UNL     1     -17.785   2.271  40.579  1.00  0.00     0.025 C 
BRANCH   8   9
ATOM      9  C   UNL     1     -19.236   2.002  40.586  1.00  0.00     0.064 C 
ATOM     10  O   UNL     1     -20.060   2.821  40.098  1.00  0.00    -0.545 OA
ATOM     11  O   UNL     1     -19.708   0.853  41.205  1.00  0.00    -0.545 OA
ENDBRANCH   8   9
ENDBRANCH   1   7
BRANCH   4  12
ATOM     12  O   UNL     1     -19.215   6.697  43.753  1.00  0.00    -0.504 OA
ATOM     13  H   UNL     1     -18.679   7.423  43.291  1.00  0.00     0.293 HD
ENDBRANCH   4  12
BRANCH   6  14
ATOM     14  O   UNL     1     -19.496   5.258  46.119  1.00  0.00    -0.504 OA
ATOM     15  H   UNL     1     -20.442   5.030  46.400  1.00  0.00     0.293 HD
ENDBRANCH   6  14
TORSDOF 4
ENDMDL
MODEL 7
REMARK VINA RESULT:    -4.738     15.909     16.689
REMARK INTER + INTRA:          -5.867
REMARK INTER:                  -5.580
REMARK INTRA:                  -0.286
REMARK UNBOUND:                -0.298
REMARK SMILES O=C([O-])C=Cc1ccc(O)c(O)c1
REMARK SMILES IDX 6 1 13 2 7 3 11 4 8 5 9 6 5 7 4 8 2 9 1 10 3 11 12 12 10 14
REMARK H PARENT 12 13 10 15
REMARK Flexibility Score: inf
ROOT
ATOM      1  C   UNL     1     -17.743   2.891  43.590  1.00  0.00    -0.022 A 
ATOM      2  C   UNL     1     -18.303   3.453  44.747  1.00  0.00     0.058 A 
ATOM      3  C   UNL     1     -17.670   3.663  42.418  1.00  0.00     0.012 A 
ATOM      4  C   UNL     1     -18.831   4.751  44.723  1.00  0.00     0.157 A 
ATOM      5  C   UNL     1     -18.197   4.957  42.392  1.00  0.00     0.051 A 
ATOM      6  C   UNL     1     -18.782   5.504  43.542  1.00  0.00     0.157 A 
ENDROOT
BRANCH   1   7
ATOM      7  C   UNL     1     -17.146   1.541  43.657  1.00  0.00     0.010 C 
ATOM      8  C   UNL     1     -17.752   0.404  43.281  1.00  0.00     0.025 C 
BRANCH   8   9
ATOM      9  C   UNL     1     -19.173   0.266  42.907  1.00  0.00     0.064 C 
ATOM     10  O   UNL     1     -20.074   0.138  43.778  1.00  0.00    -0.545 OA
ATOM     11  O   UNL     1     -19.515   0.208  41.563  1.00  0.00    -0.545 OA
ENDBRANCH   8   9
ENDBRANCH   1   7
BRANCH   4  12
ATOM     12  O   UNL     1     -19.404   5.302  45.867  1.00  0.00    -0.504 OA
ATOM     13  H   UNL     1     -19.353   4.833  46.764  1.00  0.00     0.293 HD
ENDBRANCH   4  12
BRANCH   6  14
ATOM     14  O   UNL     1     -19.311   6.793  43.519  1.00  0.00    -0.504 OA
ATOM     15  H   UNL     1     -19.658   7.239  44.359  1.00  0.00     0.293 HD
ENDBRANCH   6  14
TORSDOF 4
ENDMDL
MODEL 8
REMARK VINA RESULT:    -4.710     16.000     16.943
REMARK INTER + INTRA:          -5.834
REMARK INTER:                  -5.624
REMARK INTRA:                  -0.210
REMARK UNBOUND:                -0.298
REMARK SMILES O=C([O-])C=Cc1ccc(O)c(O)c1
REMARK SMILES IDX 6 1 13 2 7 3 11 4 8 5 9 6 5 7 4 8 2 9 1 10 3 11 12 12 10 14
REMARK H PARENT 12 13 10 15
REMARK Flexibility Score: inf
ROOT
ATOM      1  C   UNL     1     -19.438   2.395  46.553  1.00  0.00    -0.022 A 
ATOM      2  C   UNL     1     -18.704   2.553  45.368  1.00  0.00     0.058 A 
ATOM      3  C   UNL     1     -20.125   3.498  47.087  1.00  0.00     0.012 A 
ATOM      4  C   UNL     1     -18.614   3.808  44.749  1.00  0.00     0.157 A 
ATOM      5  C   UNL     1     -20.036   4.750  46.473  1.00  0.00     0.051 A 
ATOM      6  C   UNL     1     -19.278   4.910  45.305  1.00  0.00     0.157 A 
ENDROOT
BRANCH   1   7
ATOM      7  C   UNL     1     -19.559   1.052  47.155  1.00  0.00     0.010 C 
ATOM      8  C   UNL     1     -19.060   0.685  48.346  1.00  0.00     0.025 C 
BRANCH   8   9
ATOM      9  C   UNL     1     -18.152   1.490  49.186  1.00  0.00     0.064 C 
ATOM     10  O   UNL     1     -16.901   1.375  49.101  1.00  0.00    -0.545 OA
ATOM     11  O   UNL     1     -18.692   2.343  50.139  1.00  0.00    -0.545 OA
ENDBRANCH   8   9
ENDBRANCH   1   7
BRANCH   4  12
ATOM     12  O   UNL     1     -17.870   3.968  43.582  1.00  0.00    -0.504 OA
ATOM     13  H   UNL     1     -16.870   4.131  43.609  1.00  0.00     0.293 HD
ENDBRANCH   4  12
BRANCH   6  14
ATOM     14  O   UNL     1     -19.184   6.157  44.691  1.00  0.00    -0.504 OA
ATOM     15  H   UNL     1     -20.005   6.644  44.350  1.00  0.00     0.293 HD
ENDBRANCH   6  14
TORSDOF 4
ENDMDL
