MODEL 1
REMARK VINA RESULT:    -3.923      0.000      0.000
REMARK INTER + INTRA:          -4.918
REMARK INTER:                  -4.611
REMARK INTRA:                  -0.307
REMARK UNBOUND:                -0.307
REMARK SMILES O=c1cc(-c2ccc(O)c(O)c2)oc2cc(O)cc(O)c12
REMARK SMILES IDX 4 1 3 2 2 3 1 4 21 5 19 6 18 7 16 8 15 9 14 10 13 11 5 12
REMARK SMILES IDX 6 13 7 14 8 15 12 16 10 17 9 18 11 20 20 22 17 24
REMARK H PARENT 9 19 11 21 20 23 17 25
REMARK Flexibility Score: inf
ROOT
ATOM      1  C   UNL     1    -100.598  34.569 -35.655  1.00  0.00     0.138 A 
ATOM      2  C   UNL     1    -100.614  33.687 -34.562  1.00  0.00     0.100 A 
ATOM      3  C   UNL     1     -99.419  33.377 -33.912  1.00  0.00     0.197 A 
ATOM      4  O   UNL     1     -99.444  32.585 -32.932  1.00  0.00    -0.289 OA
ATOM      5  C   UNL     1     -98.214  33.957 -34.358  1.00  0.00     0.107 A 
ATOM      6  C   UNL     1     -96.960  33.695 -33.756  1.00  0.00     0.134 A 
ATOM      7  C   UNL     1     -95.807  34.318 -34.258  1.00  0.00     0.093 A 
ATOM      8  C   UNL     1     -95.885  35.194 -35.346  1.00  0.00     0.123 A 
ATOM      9  C   UNL     1     -97.120  35.454 -35.942  1.00  0.00     0.094 A 
ATOM     10  C   UNL     1     -98.281  34.844 -35.459  1.00  0.00     0.146 A 
ATOM     11  O   UNL     1     -99.445  35.107 -36.045  1.00  0.00    -0.456 OA
ENDROOT
BRANCH   1  12
ATOM     12  C   UNL     1    -101.839  34.936 -36.384  1.00  0.00     0.021 A 
ATOM     13  C   UNL     1    -103.063  34.949 -35.699  1.00  0.00     0.016 A 
ATOM     14  C   UNL     1    -104.243  35.295 -36.361  1.00  0.00     0.051 A 
ATOM     15  C   UNL     1    -104.226  35.646 -37.714  1.00  0.00     0.157 A 
ATOM     16  C   UNL     1    -101.819  35.303 -37.743  1.00  0.00     0.062 A 
ATOM     17  C   UNL     1    -102.997  35.655 -38.414  1.00  0.00     0.158 A 
BRANCH  15  18
ATOM     18  O   UNL     1    -105.442  35.977 -38.317  1.00  0.00    -0.504 OA
ATOM     19  H   UNL     1    -105.726  35.650 -39.229  1.00  0.00     0.293 HD
ENDBRANCH  15  18
BRANCH  17  20
ATOM     20  O   UNL     1    -102.900  36.009 -39.761  1.00  0.00    -0.504 OA
ATOM     21  H   UNL     1    -102.072  36.406 -40.182  1.00  0.00     0.293 HD
ENDBRANCH  17  20
ENDBRANCH   1  12
BRANCH   6  22
ATOM     22  O   UNL     1     -96.853  32.826 -32.670  1.00  0.00    -0.507 OA
ATOM     23  H   UNL     1     -95.961  32.632 -32.229  1.00  0.00     0.293 HD
ENDBRANCH   6  22
BRANCH   8  24
ATOM     24  O   UNL     1     -94.739  35.813 -35.843  1.00  0.00    -0.508 OA
ATOM     25  H   UNL     1     -93.835  35.684 -35.404  1.00  0.00     0.293 HD
ENDBRANCH   8  24
TORSDOF 5
ENDMDL
MODEL 2
REMARK VINA RESULT:    -3.911      8.339     10.730
REMARK INTER + INTRA:          -4.904
REMARK INTER:                  -4.611
REMARK INTRA:                  -0.293
REMARK UNBOUND:                -0.307
REMARK SMILES O=c1cc(-c2ccc(O)c(O)c2)oc2cc(O)cc(O)c12
REMARK SMILES IDX 4 1 3 2 2 3 1 4 21 5 19 6 18 7 16 8 15 9 14 10 13 11 5 12
REMARK SMILES IDX 6 13 7 14 8 15 12 16 10 17 9 18 11 20 20 22 17 24
REMARK H PARENT 9 19 11 21 20 23 17 25
REMARK Flexibility Score: inf
ROOT
ATOM      1  C   UNL     1     -99.546  27.527 -39.341  1.00  0.00     0.138 A 
ATOM      2  C   UNL     1    -100.292  27.875 -38.202  1.00  0.00     0.100 A 
ATOM      3  C   UNL     1    -101.630  28.244 -38.345  1.00  0.00     0.197 A 
ATOM      4  O   UNL     1    -102.291  28.554 -37.317  1.00  0.00    -0.289 OA
ATOM      5  C   UNL     1    -102.215  28.259 -39.627  1.00  0.00     0.107 A 
ATOM      6  C   UNL     1    -103.563  28.622 -39.858  1.00  0.00     0.134 A 
ATOM      7  C   UNL     1    -104.071  28.605 -41.166  1.00  0.00     0.093 A 
ATOM      8  C   UNL     1    -103.259  28.234 -42.243  1.00  0.00     0.123 A 
ATOM      9  C   UNL     1    -101.928  27.875 -42.018  1.00  0.00     0.094 A 
ATOM     10  C   UNL     1    -101.402  27.886 -40.723  1.00  0.00     0.146 A 
ATOM     11  O   UNL     1    -100.131  27.542 -40.536  1.00  0.00    -0.456 OA
ENDROOT
BRANCH   1  12
ATOM     12  C   UNL     1     -98.119  27.125 -39.250  1.00  0.00     0.021 A 
ATOM     13  C   UNL     1     -97.245  27.862 -38.438  1.00  0.00     0.016 A 
ATOM     14  C   UNL     1     -95.901  27.502 -38.331  1.00  0.00     0.051 A 
ATOM     15  C   UNL     1     -95.402  26.393 -39.021  1.00  0.00     0.157 A 
ATOM     16  C   UNL     1     -97.621  26.000 -39.935  1.00  0.00     0.062 A 
ATOM     17  C   UNL     1     -96.275  25.629 -39.830  1.00  0.00     0.158 A 
BRANCH  15  18
ATOM     18  O   UNL     1     -94.046  26.090 -38.875  1.00  0.00    -0.504 OA
ATOM     19  H   UNL     1     -93.680  25.472 -38.165  1.00  0.00     0.293 HD
ENDBRANCH  15  18
BRANCH  17  20
ATOM     20  O   UNL     1     -95.853  24.501 -40.537  1.00  0.00    -0.504 OA
ATOM     21  H   UNL     1     -96.454  23.951 -41.134  1.00  0.00     0.293 HD
ENDBRANCH  17  20
ENDBRANCH   1  12
BRANCH   6  22
ATOM     22  O   UNL     1    -104.397  28.997 -38.804  1.00  0.00    -0.507 OA
ATOM     23  H   UNL     1    -104.031  29.187 -37.878  1.00  0.00     0.293 HD
ENDBRANCH   6  22
BRANCH   8  24
ATOM     24  O   UNL     1    -103.764  28.216 -43.541  1.00  0.00    -0.508 OA
ATOM     25  H   UNL     1    -104.058  29.067 -44.006  1.00  0.00     0.293 HD
ENDBRANCH   8  24
TORSDOF 5
ENDMDL
MODEL 3
REMARK VINA RESULT:    -3.879      8.810     11.205
REMARK INTER + INTRA:          -4.866
REMARK INTER:                  -4.592
REMARK INTRA:                  -0.274
REMARK UNBOUND:                -0.307
REMARK SMILES O=c1cc(-c2ccc(O)c(O)c2)oc2cc(O)cc(O)c12
REMARK SMILES IDX 4 1 3 2 2 3 1 4 21 5 19 6 18 7 16 8 15 9 14 10 13 11 5 12
REMARK SMILES IDX 6 13 7 14 8 15 12 16 10 17 9 18 11 20 20 22 17 24
REMARK H PARENT 9 19 11 21 20 23 17 25
REMARK Flexibility Score: inf
ROOT
ATOM      1  C   UNL     1     -98.943  27.155 -39.323  1.00  0.00     0.138 A 
ATOM      2  C   UNL     1     -99.913  28.039 -38.823  1.00  0.00     0.100 A 
ATOM      3  C   UNL     1    -101.127  28.179 -39.497  1.00  0.00     0.197 A 
ATOM      4  O   UNL     1    -101.992  28.973 -39.041  1.00  0.00    -0.289 OA
ATOM      5  C   UNL     1    -101.363  27.428 -40.667  1.00  0.00     0.107 A 
ATOM      6  C   UNL     1    -102.565  27.511 -41.410  1.00  0.00     0.134 A 
ATOM      7  C   UNL     1    -102.724  26.725 -42.562  1.00  0.00     0.093 A 
ATOM      8  C   UNL     1    -101.706  25.861 -42.982  1.00  0.00     0.123 A 
ATOM      9  C   UNL     1    -100.520  25.777 -42.251  1.00  0.00     0.094 A 
ATOM     10  C   UNL     1    -100.340  26.551 -41.101  1.00  0.00     0.146 A 
ATOM     11  O   UNL     1     -99.200  26.454 -40.424  1.00  0.00    -0.456 OA
ENDROOT
BRANCH   1  12
ATOM     12  C   UNL     1     -97.634  26.966 -38.647  1.00  0.00     0.021 A 
ATOM     13  C   UNL     1     -97.595  26.399 -37.365  1.00  0.00     0.016 A 
ATOM     14  C   UNL     1     -96.377  26.206 -36.710  1.00  0.00     0.051 A 
ATOM     15  C   UNL     1     -95.172  26.562 -37.324  1.00  0.00     0.157 A 
ATOM     16  C   UNL     1     -96.420  27.312 -39.272  1.00  0.00     0.062 A 
ATOM     17  C   UNL     1     -95.193  27.118 -38.624  1.00  0.00     0.158 A 
BRANCH  15  18
ATOM     18  O   UNL     1     -93.989  26.347 -36.613  1.00  0.00    -0.504 OA
ATOM     19  H   UNL     1     -93.120  26.821 -36.808  1.00  0.00     0.293 HD
ENDBRANCH  15  18
BRANCH  17  20
ATOM     20  O   UNL     1     -94.031  27.484 -39.306  1.00  0.00    -0.504 OA
ATOM     21  H   UNL     1     -93.995  27.677 -40.297  1.00  0.00     0.293 HD
ENDBRANCH  17  20
ENDBRANCH   1  12
BRANCH   6  22
ATOM     22  O   UNL     1    -103.596  28.363 -41.015  1.00  0.00    -0.507 OA
ATOM     23  H   UNL     1    -103.610  29.341 -41.281  1.00  0.00     0.293 HD
ENDBRANCH   6  22
BRANCH   8  24
ATOM     24  O   UNL     1    -101.865  25.080 -44.125  1.00  0.00    -0.508 OA
ATOM     25  H   UNL     1    -102.000  24.077 -44.066  1.00  0.00     0.293 HD
ENDBRANCH   8  24
TORSDOF 5
ENDMDL
MODEL 4
REMARK VINA RESULT:    -3.872     12.236     14.496
REMARK INTER + INTRA:          -4.858
REMARK INTER:                  -4.594
REMARK INTRA:                  -0.265
REMARK UNBOUND:                -0.307
REMARK SMILES O=c1cc(-c2ccc(O)c(O)c2)oc2cc(O)cc(O)c12
REMARK SMILES IDX 4 1 3 2 2 3 1 4 21 5 19 6 18 7 16 8 15 9 14 10 13 11 5 12
REMARK SMILES IDX 6 13 7 14 8 15 12 16 10 17 9 18 11 20 20 22 17 24
REMARK H PARENT 9 19 11 21 20 23 17 25
REMARK Flexibility Score: inf
ROOT
ATOM      1  C   UNL     1    -100.664  24.106 -28.945  1.00  0.00     0.138 A 
ATOM      2  C   UNL     1    -101.420  23.821 -30.094  1.00  0.00     0.100 A 
ATOM      3  C   UNL     1    -102.746  24.249 -30.167  1.00  0.00     0.197 A 
ATOM      4  O   UNL     1    -103.417  23.990 -31.202  1.00  0.00    -0.289 OA
ATOM      5  C   UNL     1    -103.306  24.965 -29.090  1.00  0.00     0.107 A 
ATOM      6  C   UNL     1    -104.642  25.434 -29.082  1.00  0.00     0.134 A 
ATOM      7  C   UNL     1    -105.121  26.144 -27.972  1.00  0.00     0.093 A 
ATOM      8  C   UNL     1    -104.293  26.394 -26.872  1.00  0.00     0.123 A 
ATOM      9  C   UNL     1    -102.975  25.933 -26.876  1.00  0.00     0.094 A 
ATOM     10  C   UNL     1    -102.477  25.222 -27.972  1.00  0.00     0.146 A 
ATOM     11  O   UNL     1    -101.219  24.792 -27.950  1.00  0.00    -0.456 OA
ENDROOT
BRANCH   1  12
ATOM     12  C   UNL     1     -99.249  23.676 -28.813  1.00  0.00     0.021 A 
ATOM     13  C   UNL     1     -98.223  24.542 -29.221  1.00  0.00     0.016 A 
ATOM     14  C   UNL     1     -96.885  24.163 -29.102  1.00  0.00     0.051 A 
ATOM     15  C   UNL     1     -96.539  22.920 -28.563  1.00  0.00     0.157 A 
ATOM     16  C   UNL     1     -98.902  22.430 -28.257  1.00  0.00     0.062 A 
ATOM     17  C   UNL     1     -97.561  22.043 -28.130  1.00  0.00     0.158 A 
BRANCH  15  18
ATOM     18  O   UNL     1     -95.182  22.601 -28.477  1.00  0.00    -0.504 OA
ATOM     19  H   UNL     1     -94.666  22.567 -27.610  1.00  0.00     0.293 HD
ENDBRANCH  15  18
BRANCH  17  20
ATOM     20  O   UNL     1     -97.294  20.794 -27.568  1.00  0.00    -0.504 OA
ATOM     21  H   UNL     1     -97.983  20.064 -27.459  1.00  0.00     0.293 HD
ENDBRANCH  17  20
ENDBRANCH   1  12
BRANCH   6  22
ATOM     22  O   UNL     1    -105.490  25.200 -30.165  1.00  0.00    -0.507 OA
ATOM     23  H   UNL     1    -106.299  25.784 -30.344  1.00  0.00     0.293 HD
ENDBRANCH   6  22
BRANCH   8  24
ATOM     24  O   UNL     1    -104.769  27.100 -25.769  1.00  0.00    -0.508 OA
ATOM     25  H   UNL     1    -104.523  28.071 -25.616  1.00  0.00     0.293 HD
ENDBRANCH   8  24
TORSDOF 5
ENDMDL
MODEL 5
REMARK VINA RESULT:    -3.819     10.633     12.189
REMARK INTER + INTRA:          -4.796
REMARK INTER:                  -4.507
REMARK INTRA:                  -0.289
REMARK UNBOUND:                -0.307
REMARK SMILES O=c1cc(-c2ccc(O)c(O)c2)oc2cc(O)cc(O)c12
REMARK SMILES IDX 4 1 3 2 2 3 1 4 21 5 19 6 18 7 16 8 15 9 14 10 13 11 5 12
REMARK SMILES IDX 6 13 7 14 8 15 12 16 10 17 9 18 11 20 20 22 17 24
REMARK H PARENT 9 19 11 21 20 23 17 25
REMARK Flexibility Score: inf
ROOT
ATOM      1  C   UNL     1     -96.740  24.336 -37.363  1.00  0.00     0.138 A 
ATOM      2  C   UNL     1     -98.027  23.783 -37.471  1.00  0.00     0.100 A 
ATOM      3  C   UNL     1     -98.326  22.601 -36.791  1.00  0.00     0.197 A 
ATOM      4  O   UNL     1     -99.483  22.114 -36.893  1.00  0.00    -0.289 OA
ATOM      5  C   UNL     1     -97.334  21.982 -36.004  1.00  0.00     0.107 A 
ATOM      6  C   UNL     1     -97.554  20.783 -35.284  1.00  0.00     0.134 A 
ATOM      7  C   UNL     1     -96.515  20.233 -34.519  1.00  0.00     0.093 A 
ATOM      8  C   UNL     1     -95.264  20.859 -34.459  1.00  0.00     0.123 A 
ATOM      9  C   UNL     1     -95.044  22.041 -35.167  1.00  0.00     0.094 A 
ATOM     10  C   UNL     1     -96.065  22.606 -35.937  1.00  0.00     0.146 A 
ATOM     11  O   UNL     1     -95.829  23.732 -36.604  1.00  0.00    -0.456 OA
ENDROOT
BRANCH   1  12
ATOM     12  C   UNL     1     -96.366  25.591 -38.063  1.00  0.00     0.021 A 
ATOM     13  C   UNL     1     -95.034  25.792 -38.454  1.00  0.00     0.016 A 
ATOM     14  C   UNL     1     -94.657  26.961 -39.118  1.00  0.00     0.051 A 
ATOM     15  C   UNL     1     -95.602  27.949 -39.416  1.00  0.00     0.157 A 
ATOM     16  C   UNL     1     -97.320  26.578 -38.375  1.00  0.00     0.062 A 
ATOM     17  C   UNL     1     -96.952  27.752 -39.044  1.00  0.00     0.158 A 
BRANCH  15  18
ATOM     18  O   UNL     1     -95.158  29.096 -40.078  1.00  0.00    -0.504 OA
ATOM     19  H   UNL     1     -95.642  29.520 -40.857  1.00  0.00     0.293 HD
ENDBRANCH  15  18
BRANCH  17  20
ATOM     20  O   UNL     1     -97.953  28.686 -39.321  1.00  0.00    -0.504 OA
ATOM     21  H   UNL     1     -98.889  28.441 -39.609  1.00  0.00     0.293 HD
ENDBRANCH  17  20
ENDBRANCH   1  12
BRANCH   6  22
ATOM     22  O   UNL     1     -98.790  20.138 -35.325  1.00  0.00    -0.507 OA
ATOM     23  H   UNL     1     -98.974  19.380 -35.972  1.00  0.00     0.293 HD
ENDBRANCH   6  22
BRANCH   8  24
ATOM     24  O   UNL     1     -94.233  20.313 -33.697  1.00  0.00    -0.508 OA
ATOM     25  H   UNL     1     -93.440  20.871 -33.403  1.00  0.00     0.293 HD
ENDBRANCH   8  24
TORSDOF 5
ENDMDL
MODEL 6
REMARK VINA RESULT:    -3.737      8.395      8.580
REMARK INTER + INTRA:          -4.700
REMARK INTER:                  -4.434
REMARK INTRA:                  -0.266
REMARK UNBOUND:                -0.307
REMARK SMILES O=c1cc(-c2ccc(O)c(O)c2)oc2cc(O)cc(O)c12
REMARK SMILES IDX 4 1 3 2 2 3 1 4 21 5 19 6 18 7 16 8 15 9 14 10 13 11 5 12
REMARK SMILES IDX 6 13 7 14 8 15 12 16 10 17 9 18 11 20 20 22 17 24
REMARK H PARENT 9 19 11 21 20 23 17 25
REMARK Flexibility Score: inf
ROOT
ATOM      1  C   UNL     1    -100.139  27.317 -38.963  1.00  0.00     0.138 A 
ATOM      2  C   UNL     1    -100.316  26.087 -39.619  1.00  0.00     0.100 A 
ATOM      3  C   UNL     1     -99.203  25.411 -40.120  1.00  0.00     0.197 A 
ATOM      4  O   UNL     1     -99.371  24.307 -40.705  1.00  0.00    -0.289 OA
ATOM      5  C   UNL     1     -97.919  25.969 -39.959  1.00  0.00     0.107 A 
ATOM      6  C   UNL     1     -96.740  25.350 -40.438  1.00  0.00     0.134 A 
ATOM      7  C   UNL     1     -95.498  25.969 -40.232  1.00  0.00     0.093 A 
ATOM      8  C   UNL     1     -95.414  27.192 -39.557  1.00  0.00     0.123 A 
ATOM      9  C   UNL     1     -96.575  27.806 -39.083  1.00  0.00     0.094 A 
ATOM     10  C   UNL     1     -97.822  27.207 -39.279  1.00  0.00     0.146 A 
ATOM     11  O   UNL     1     -98.913  27.812 -38.819  1.00  0.00    -0.456 OA
ENDROOT
BRANCH   1  12
ATOM     12  C   UNL     1    -101.287  28.081 -38.409  1.00  0.00     0.021 A 
ATOM     13  C   UNL     1    -101.369  28.295 -37.025  1.00  0.00     0.016 A 
ATOM     14  C   UNL     1    -102.434  29.014 -36.480  1.00  0.00     0.051 A 
ATOM     15  C   UNL     1    -103.433  29.544 -37.302  1.00  0.00     0.157 A 
ATOM     16  C   UNL     1    -102.284  28.626 -39.239  1.00  0.00     0.062 A 
ATOM     17  C   UNL     1    -103.355  29.352 -38.701  1.00  0.00     0.158 A 
BRANCH  15  18
ATOM     18  O   UNL     1    -104.474  30.248 -36.692  1.00  0.00    -0.504 OA
ATOM     19  H   UNL     1    -104.454  30.564 -35.733  1.00  0.00     0.293 HD
ENDBRANCH  15  18
BRANCH  17  20
ATOM     20  O   UNL     1    -104.306  29.864 -39.586  1.00  0.00    -0.504 OA
ATOM     21  H   UNL     1    -105.299  29.879 -39.402  1.00  0.00     0.293 HD
ENDBRANCH  17  20
ENDBRANCH   1  12
BRANCH   6  22
ATOM     22  O   UNL     1     -96.794  24.130 -41.114  1.00  0.00    -0.507 OA
ATOM     23  H   UNL     1     -97.661  23.770 -41.493  1.00  0.00     0.293 HD
ENDBRANCH   6  22
BRANCH   8  24
ATOM     24  O   UNL     1     -94.180  27.807 -39.351  1.00  0.00    -0.508 OA
ATOM     25  H   UNL     1     -94.103  28.809 -39.226  1.00  0.00     0.293 HD
ENDBRANCH   8  24
TORSDOF 5
ENDMDL
MODEL 7
REMARK VINA RESULT:    -3.729      7.565     10.294
REMARK INTER + INTRA:          -4.689
REMARK INTER:                  -4.398
REMARK INTRA:                  -0.291
REMARK UNBOUND:                -0.307
REMARK SMILES O=c1cc(-c2ccc(O)c(O)c2)oc2cc(O)cc(O)c12
REMARK SMILES IDX 4 1 3 2 2 3 1 4 21 5 19 6 18 7 16 8 15 9 14 10 13 11 5 12
REMARK SMILES IDX 6 13 7 14 8 15 12 16 10 17 9 18 11 20 20 22 17 24
REMARK H PARENT 9 19 11 21 20 23 17 25
REMARK Flexibility Score: inf
ROOT
ATOM      1  C   UNL     1    -100.978  28.152 -39.022  1.00  0.00     0.138 A 
ATOM      2  C   UNL     1    -101.966  28.628 -38.144  1.00  0.00     0.100 A 
ATOM      3  C   UNL     1    -103.236  28.927 -38.638  1.00  0.00     0.197 A 
ATOM      4  O   UNL     1    -104.117  29.353 -37.843  1.00  0.00    -0.289 OA
ATOM      5  C   UNL     1    -103.511  28.743 -40.008  1.00  0.00     0.107 A 
ATOM      6  C   UNL     1    -104.770  29.023 -40.590  1.00  0.00     0.134 A 
ATOM      7  C   UNL     1    -104.964  28.808 -41.963  1.00  0.00     0.093 A 
ATOM      8  C   UNL     1    -103.924  28.319 -42.762  1.00  0.00     0.123 A 
ATOM      9  C   UNL     1    -102.680  28.042 -42.192  1.00  0.00     0.094 A 
ATOM     10  C   UNL     1    -102.466  28.250 -40.826  1.00  0.00     0.146 A 
ATOM     11  O   UNL     1    -101.272  27.980 -40.308  1.00  0.00    -0.456 OA
ENDROOT
BRANCH   1  12
ATOM     12  C   UNL     1     -99.609  27.817 -38.552  1.00  0.00     0.021 A 
ATOM     13  C   UNL     1     -99.447  27.034 -37.399  1.00  0.00     0.016 A 
ATOM     14  C   UNL     1     -98.172  26.700 -36.940  1.00  0.00     0.051 A 
ATOM     15  C   UNL     1     -97.031  27.130 -37.626  1.00  0.00     0.157 A 
ATOM     16  C   UNL     1     -98.462  28.238 -39.251  1.00  0.00     0.062 A 
ATOM     17  C   UNL     1     -97.178  27.905 -38.799  1.00  0.00     0.158 A 
BRANCH  15  18
ATOM     18  O   UNL     1     -95.785  26.766 -37.110  1.00  0.00    -0.504 OA
ATOM     19  H   UNL     1     -95.482  26.974 -36.170  1.00  0.00     0.293 HD
ENDBRANCH  15  18
BRANCH  17  20
ATOM     20  O   UNL     1     -96.088  28.357 -39.545  1.00  0.00    -0.504 OA
ATOM     21  H   UNL     1     -95.124  28.245 -39.262  1.00  0.00     0.293 HD
ENDBRANCH  17  20
ENDBRANCH   1  12
BRANCH   6  22
ATOM     22  O   UNL     1    -105.825  29.511 -39.817  1.00  0.00    -0.507 OA
ATOM     23  H   UNL     1    -106.114  30.481 -39.864  1.00  0.00     0.293 HD
ENDBRANCH   6  22
BRANCH   8  24
ATOM     24  O   UNL     1    -104.117  28.104 -44.125  1.00  0.00    -0.508 OA
ATOM     25  H   UNL     1    -104.454  28.840 -44.734  1.00  0.00     0.293 HD
ENDBRANCH   8  24
TORSDOF 5
ENDMDL
MODEL 8
REMARK VINA RESULT:    -3.716      9.204      9.435
REMARK INTER + INTRA:          -4.674
REMARK INTER:                  -4.375
REMARK INTRA:                  -0.299
REMARK UNBOUND:                -0.307
REMARK SMILES O=c1cc(-c2ccc(O)c(O)c2)oc2cc(O)cc(O)c12
REMARK SMILES IDX 4 1 3 2 2 3 1 4 21 5 19 6 18 7 16 8 15 9 14 10 13 11 5 12
REMARK SMILES IDX 6 13 7 14 8 15 12 16 10 17 9 18 11 20 20 22 17 24
REMARK H PARENT 9 19 11 21 20 23 17 25
REMARK Flexibility Score: inf
ROOT
ATOM      1  C   UNL     1     -99.485  27.263 -39.647  1.00  0.00     0.138 A 
ATOM      2  C   UNL     1     -98.447  27.905 -38.951  1.00  0.00     0.100 A 
ATOM      3  C   UNL     1     -97.161  27.363 -38.983  1.00  0.00     0.197 A 
ATOM      4  O   UNL     1     -96.236  27.947 -38.357  1.00  0.00    -0.289 OA
ATOM      5  C   UNL     1     -96.922  26.183 -39.714  1.00  0.00     0.107 A 
ATOM      6  C   UNL     1     -95.650  25.567 -39.797  1.00  0.00     0.134 A 
ATOM      7  C   UNL     1     -95.494  24.395 -40.552  1.00  0.00     0.093 A 
ATOM      8  C   UNL     1     -96.584  23.829 -41.223  1.00  0.00     0.123 A 
ATOM      9  C   UNL     1     -97.839  24.433 -41.144  1.00  0.00     0.094 A 
ATOM     10  C   UNL     1     -98.017  25.601 -40.397  1.00  0.00     0.146 A 
ATOM     11  O   UNL     1     -99.224  26.155 -40.336  1.00  0.00    -0.456 OA
ENDROOT
BRANCH   1  12
ATOM     12  C   UNL     1    -100.872  27.795 -39.649  1.00  0.00     0.021 A 
ATOM     13  C   UNL     1    -101.392  28.371 -38.481  1.00  0.00     0.016 A 
ATOM     14  C   UNL     1    -102.690  28.883 -38.459  1.00  0.00     0.051 A 
ATOM     15  C   UNL     1    -103.494  28.842 -39.603  1.00  0.00     0.157 A 
ATOM     16  C   UNL     1    -101.674  27.766 -40.806  1.00  0.00     0.062 A 
ATOM     17  C   UNL     1    -102.977  28.281 -40.794  1.00  0.00     0.158 A 
BRANCH  15  18
ATOM     18  O   UNL     1    -104.785  29.367 -39.512  1.00  0.00    -0.504 OA
ATOM     19  H   UNL     1    -105.106  30.166 -40.039  1.00  0.00     0.293 HD
ENDBRANCH  15  18
BRANCH  17  20
ATOM     20  O   UNL     1    -103.713  28.219 -41.979  1.00  0.00    -0.504 OA
ATOM     21  H   UNL     1    -103.587  28.853 -42.755  1.00  0.00     0.293 HD
ENDBRANCH  17  20
ENDBRANCH   1  12
BRANCH   6  22
ATOM     22  O   UNL     1     -94.546  26.110 -39.138  1.00  0.00    -0.507 OA
ATOM     23  H   UNL     1     -93.910  25.532 -38.602  1.00  0.00     0.293 HD
ENDBRANCH   6  22
BRANCH   8  24
ATOM     24  O   UNL     1     -96.428  22.665 -41.974  1.00  0.00    -0.508 OA
ATOM     25  H   UNL     1     -95.655  22.550 -42.618  1.00  0.00     0.293 HD
ENDBRANCH   8  24
TORSDOF 5
ENDMDL
MODEL 9
REMARK VINA RESULT:    -3.638     11.683     13.165
REMARK INTER + INTRA:          -4.583
REMARK INTER:                  -4.309
REMARK INTRA:                  -0.274
REMARK UNBOUND:                -0.307
REMARK SMILES O=c1cc(-c2ccc(O)c(O)c2)oc2cc(O)cc(O)c12
REMARK SMILES IDX 4 1 3 2 2 3 1 4 21 5 19 6 18 7 16 8 15 9 14 10 13 11 5 12
REMARK SMILES IDX 6 13 7 14 8 15 12 16 10 17 9 18 11 20 20 22 17 24
REMARK H PARENT 9 19 11 21 20 23 17 25
REMARK Flexibility Score: inf
ROOT
ATOM      1  C   UNL     1     -99.200  24.926 -42.107  1.00  0.00     0.138 A 
ATOM      2  C   UNL     1     -99.079  25.468 -40.816  1.00  0.00     0.100 A 
ATOM      3  C   UNL     1     -99.994  26.430 -40.387  1.00  0.00     0.197 A 
ATOM      4  O   UNL     1     -99.878  26.909 -39.227  1.00  0.00    -0.289 OA
ATOM      5  C   UNL     1    -101.027  26.841 -41.252  1.00  0.00     0.107 A 
ATOM      6  C   UNL     1    -101.994  27.812 -40.897  1.00  0.00     0.134 A 
ATOM      7  C   UNL     1    -102.996  28.162 -41.815  1.00  0.00     0.093 A 
ATOM      8  C   UNL     1    -103.047  27.562 -43.078  1.00  0.00     0.123 A 
ATOM      9  C   UNL     1    -102.095  26.605 -43.432  1.00  0.00     0.094 A 
ATOM     10  C   UNL     1    -101.088  26.242 -42.533  1.00  0.00     0.146 A 
ATOM     11  O   UNL     1    -100.192  25.329 -42.895  1.00  0.00    -0.456 OA
ENDROOT
BRANCH   1  12
ATOM     12  C   UNL     1     -98.256  23.899 -42.616  1.00  0.00     0.021 A 
ATOM     13  C   UNL     1     -98.760  22.718 -43.181  1.00  0.00     0.016 A 
ATOM     14  C   UNL     1     -97.894  21.739 -43.672  1.00  0.00     0.051 A 
ATOM     15  C   UNL     1     -96.508  21.921 -43.621  1.00  0.00     0.157 A 
ATOM     16  C   UNL     1     -96.861  24.089 -42.578  1.00  0.00     0.062 A 
ATOM     17  C   UNL     1     -95.985  23.114 -43.071  1.00  0.00     0.158 A 
BRANCH  15  18
ATOM     18  O   UNL     1     -95.698  20.901 -44.125  1.00  0.00    -0.504 OA
ATOM     19  H   UNL     1     -94.767  20.703 -43.788  1.00  0.00     0.293 HD
ENDBRANCH  15  18
BRANCH  17  20
ATOM     20  O   UNL     1     -94.615  23.374 -43.001  1.00  0.00    -0.504 OA
ATOM     21  H   UNL     1     -94.051  23.212 -42.178  1.00  0.00     0.293 HD
ENDBRANCH  17  20
ENDBRANCH   1  12
BRANCH   6  22
ATOM     22  O   UNL     1    -101.968  28.426 -39.644  1.00  0.00    -0.507 OA
ATOM     23  H   UNL     1    -101.593  29.359 -39.517  1.00  0.00     0.293 HD
ENDBRANCH   6  22
BRANCH   8  24
ATOM     24  O   UNL     1    -104.042  27.910 -43.989  1.00  0.00    -0.508 OA
ATOM     25  H   UNL     1    -104.241  28.878 -44.212  1.00  0.00     0.293 HD
ENDBRANCH   8  24
TORSDOF 5
ENDMDL
