MODEL 1
REMARK VINA RESULT:    -3.132      0.000      0.000
REMARK INTER + INTRA:          -8.867
REMARK INTER:                  -6.061
REMARK INTRA:                  -2.806
REMARK UNBOUND:                -2.806
REMARK SMILES CCCCCCCCCCCCCCCCCC(=O)[O-]
REMARK SMILES IDX 10 1 11 2 12 3 13 4 14 5 15 6 16 7 17 8 18 9 19 10 20 11
REMARK SMILES IDX 9 12 8 13 7 14 6 15 5 16 4 17 3 18 2 19 1 20
REMARK H PARENT
REMARK Flexibility Score: inf
ROOT
ATOM      1  C   UNL     1      27.641  61.774  82.612  1.00  0.00     0.000 C 
ENDROOT
BRANCH   1   2
ATOM      2  C   UNL     1      26.569  61.779  81.503  1.00  0.00     0.000 C 
BRANCH   2   3
ATOM      3  C   UNL     1      26.846  60.733  80.413  1.00  0.00     0.000 C 
BRANCH   3   4
ATOM      4  C   UNL     1      26.227  59.380  80.778  1.00  0.00     0.000 C 
BRANCH   4   5
ATOM      5  C   UNL     1      27.254  58.248  80.624  1.00  0.00     0.000 C 
BRANCH   5   6
ATOM      6  C   UNL     1      27.825  57.767  81.969  1.00  0.00     0.000 C 
BRANCH   6   7
ATOM      7  C   UNL     1      29.165  58.408  82.379  1.00  0.00     0.006 C 
BRANCH   7   8
ATOM      8  C   UNL     1      30.137  58.638  81.206  1.00  0.00     0.053 C 
BRANCH   8   9
ATOM      9  C   UNL     1      31.572  58.453  81.603  1.00  0.00     0.041 C 
ATOM     10  O   UNL     1      31.913  57.458  82.297  1.00  0.00    -0.550 OA
ATOM     11  O   UNL     1      32.536  59.359  81.183  1.00  0.00    -0.550 OA
ENDBRANCH   8   9
ENDBRANCH   7   8
ENDBRANCH   6   7
ENDBRANCH   5   6
ENDBRANCH   4   5
ENDBRANCH   3   4
ENDBRANCH   2   3
ENDBRANCH   1   2
BRANCH   1  12
ATOM     12  C   UNL     1      27.118  61.291  83.979  1.00  0.00     0.000 C 
BRANCH  12  13
ATOM     13  C   UNL     1      25.593  61.396  84.169  1.00  0.00    -0.000 C 
BRANCH  13  14
ATOM     14  C   UNL     1      24.888  60.072  84.519  1.00  0.00    -0.000 C 
BRANCH  14  15
ATOM     15  C   UNL     1      25.855  58.881  84.589  1.00  0.00    -0.000 C 
BRANCH  15  16
ATOM     16  C   UNL     1      26.088  58.448  86.042  1.00  0.00    -0.000 C 
BRANCH  16  17
ATOM     17  C   UNL     1      27.521  57.937  86.241  1.00  0.00    -0.000 C 
BRANCH  17  18
ATOM     18  C   UNL     1      28.302  58.849  87.197  1.00  0.00    -0.000 C 
BRANCH  18  19
ATOM     19  C   UNL     1      27.445  60.001  87.745  1.00  0.00    -0.003 C 
ATOM     20  C   UNL     1      28.054  61.376  87.466  1.00  0.00     0.004 C 
ENDBRANCH  18  19
ENDBRANCH  17  18
ENDBRANCH  16  17
ENDBRANCH  15  16
ENDBRANCH  14  15
ENDBRANCH  13  14
ENDBRANCH  12  13
ENDBRANCH   1  12
TORSDOF 16
ENDMDL
MODEL 2
REMARK VINA RESULT:    -3.058      1.705      4.600
REMARK INTER + INTRA:          -8.725
REMARK INTER:                  -6.181
REMARK INTRA:                  -2.544
REMARK UNBOUND:                -2.806
REMARK SMILES CCCCCCCCCCCCCCCCCC(=O)[O-]
REMARK SMILES IDX 10 1 11 2 12 3 13 4 14 5 15 6 16 7 17 8 18 9 19 10 20 11
REMARK SMILES IDX 9 12 8 13 7 14 6 15 5 16 4 17 3 18 2 19 1 20
REMARK H PARENT
REMARK Flexibility Score: inf
ROOT
ATOM      1  C   UNL     1      26.742  58.974  88.172  1.00  0.00     0.000 C 
ENDROOT
BRANCH   1   2
ATOM      2  C   UNL     1      27.578  60.050  87.449  1.00  0.00     0.000 C 
BRANCH   2   3
ATOM      3  C   UNL     1      28.855  59.476  86.818  1.00  0.00     0.000 C 
BRANCH   3   4
ATOM      4  C   UNL     1      28.963  57.967  87.069  1.00  0.00     0.000 C 
BRANCH   4   5
ATOM      5  C   UNL     1      29.754  57.281  85.945  1.00  0.00     0.000 C 
BRANCH   5   6
ATOM      6  C   UNL     1      31.251  57.632  85.961  1.00  0.00     0.000 C 
BRANCH   6   7
ATOM      7  C   UNL     1      32.057  57.122  84.750  1.00  0.00     0.006 C 
BRANCH   7   8
ATOM      8  C   UNL     1      31.221  56.944  83.468  1.00  0.00     0.053 C 
BRANCH   8   9
ATOM      9  C   UNL     1      31.302  58.135  82.559  1.00  0.00     0.041 C 
ATOM     10  O   UNL     1      30.405  59.018  82.591  1.00  0.00    -0.550 OA
ATOM     11  O   UNL     1      32.382  58.285  81.700  1.00  0.00    -0.550 OA
ENDBRANCH   8   9
ENDBRANCH   7   8
ENDBRANCH   6   7
ENDBRANCH   5   6
ENDBRANCH   4   5
ENDBRANCH   3   4
ENDBRANCH   2   3
ENDBRANCH   1   2
BRANCH   1  12
ATOM     12  C   UNL     1      25.364  58.723  87.531  1.00  0.00     0.000 C 
BRANCH  12  13
ATOM     13  C   UNL     1      25.300  57.520  86.571  1.00  0.00    -0.000 C 
BRANCH  13  14
ATOM     14  C   UNL     1      25.033  57.878  85.096  1.00  0.00    -0.000 C 
BRANCH  14  15
ATOM     15  C   UNL     1      26.240  57.606  84.187  1.00  0.00    -0.000 C 
BRANCH  15  16
ATOM     16  C   UNL     1      26.973  58.908  83.841  1.00  0.00    -0.000 C 
BRANCH  16  17
ATOM     17  C   UNL     1      26.071  60.126  84.072  1.00  0.00    -0.000 C 
BRANCH  17  18
ATOM     18  C   UNL     1      26.871  61.431  83.963  1.00  0.00    -0.000 C 
BRANCH  18  19
ATOM     19  C   UNL     1      27.673  61.524  82.655  1.00  0.00    -0.003 C 
ATOM     20  C   UNL     1      26.798  61.861  81.448  1.00  0.00     0.004 C 
ENDBRANCH  18  19
ENDBRANCH  17  18
ENDBRANCH  16  17
ENDBRANCH  15  16
ENDBRANCH  14  15
ENDBRANCH  13  14
ENDBRANCH  12  13
ENDBRANCH   1  12
TORSDOF 16
ENDMDL
MODEL 3
REMARK VINA RESULT:    -3.045      1.341      4.766
REMARK INTER + INTRA:          -8.699
REMARK INTER:                  -6.062
REMARK INTRA:                  -2.637
REMARK UNBOUND:                -2.806
REMARK SMILES CCCCCCCCCCCCCCCCCC(=O)[O-]
REMARK SMILES IDX 10 1 11 2 12 3 13 4 14 5 15 6 16 7 17 8 18 9 19 10 20 11
REMARK SMILES IDX 9 12 8 13 7 14 6 15 5 16 4 17 3 18 2 19 1 20
REMARK H PARENT
REMARK Flexibility Score: inf
ROOT
ATOM      1  C   UNL     1      28.069  60.601  87.401  1.00  0.00     0.000 C 
ENDROOT
BRANCH   1   2
ATOM      2  C   UNL     1      27.281  59.475  88.102  1.00  0.00     0.000 C 
BRANCH   2   3
ATOM      3  C   UNL     1      28.078  58.164  88.184  1.00  0.00     0.000 C 
BRANCH   3   4
ATOM      4  C   UNL     1      28.168  57.488  86.812  1.00  0.00     0.000 C 
BRANCH   4   5
ATOM      5  C   UNL     1      29.632  57.299  86.390  1.00  0.00     0.000 C 
BRANCH   5   6
ATOM      6  C   UNL     1      30.105  58.348  85.369  1.00  0.00     0.000 C 
BRANCH   6   7
ATOM      7  C   UNL     1      29.717  58.060  83.906  1.00  0.00     0.006 C 
BRANCH   7   8
ATOM      8  C   UNL     1      30.201  59.126  82.905  1.00  0.00     0.053 C 
BRANCH   8   9
ATOM      9  C   UNL     1      31.005  58.539  81.783  1.00  0.00     0.041 C 
ATOM     10  O   UNL     1      30.632  58.691  80.589  1.00  0.00    -0.550 OA
ATOM     11  O   UNL     1      32.181  57.851  82.051  1.00  0.00    -0.550 OA
ENDBRANCH   8   9
ENDBRANCH   7   8
ENDBRANCH   6   7
ENDBRANCH   5   6
ENDBRANCH   4   5
ENDBRANCH   3   4
ENDBRANCH   2   3
ENDBRANCH   1   2
BRANCH   1  12
ATOM     12  C   UNL     1      27.256  61.358  86.334  1.00  0.00     0.000 C 
BRANCH  12  13
ATOM     13  C   UNL     1      27.197  60.675  84.953  1.00  0.00    -0.000 C 
BRANCH  13  14
ATOM     14  C   UNL     1      25.928  59.841  84.694  1.00  0.00    -0.000 C 
BRANCH  14  15
ATOM     15  C   UNL     1      26.132  58.759  83.623  1.00  0.00    -0.000 C 
BRANCH  15  16
ATOM     16  C   UNL     1      25.824  59.305  82.224  1.00  0.00    -0.000 C 
BRANCH  16  17
ATOM     17  C   UNL     1      27.061  59.236  81.320  1.00  0.00    -0.000 C 
BRANCH  17  18
ATOM     18  C   UNL     1      27.417  60.624  80.770  1.00  0.00    -0.000 C 
BRANCH  18  19
ATOM     19  C   UNL     1      26.657  61.754  81.481  1.00  0.00    -0.003 C 
ATOM     20  C   UNL     1      25.697  62.498  80.551  1.00  0.00     0.004 C 
ENDBRANCH  18  19
ENDBRANCH  17  18
ENDBRANCH  16  17
ENDBRANCH  15  16
ENDBRANCH  14  15
ENDBRANCH  13  14
ENDBRANCH  12  13
ENDBRANCH   1  12
TORSDOF 16
ENDMDL
MODEL 4
REMARK VINA RESULT:    -3.037      3.059      6.420
REMARK INTER + INTRA:          -8.685
REMARK INTER:                  -6.485
REMARK INTRA:                  -2.200
REMARK UNBOUND:                -2.806
REMARK SMILES CCCCCCCCCCCCCCCCCC(=O)[O-]
REMARK SMILES IDX 10 1 11 2 12 3 13 4 14 5 15 6 16 7 17 8 18 9 19 10 20 11
REMARK SMILES IDX 9 12 8 13 7 14 6 15 5 16 4 17 3 18 2 19 1 20
REMARK H PARENT
REMARK Flexibility Score: inf
ROOT
ATOM      1  C   UNL     1      30.812  58.653  81.546  1.00  0.00     0.000 C 
ENDROOT
BRANCH   1   2
ATOM      2  C   UNL     1      31.884  57.711  82.132  1.00  0.00     0.000 C 
BRANCH   2   3
ATOM      3  C   UNL     1      31.407  56.999  83.406  1.00  0.00     0.000 C 
BRANCH   3   4
ATOM      4  C   UNL     1      32.477  57.057  84.503  1.00  0.00     0.000 C 
BRANCH   4   5
ATOM      5  C   UNL     1      31.837  57.291  85.879  1.00  0.00     0.000 C 
BRANCH   5   6
ATOM      6  C   UNL     1      30.318  57.521  85.805  1.00  0.00     0.000 C 
BRANCH   6   7
ATOM      7  C   UNL     1      29.835  58.884  86.340  1.00  0.00     0.006 C 
BRANCH   7   8
ATOM      8  C   UNL     1      28.304  59.007  86.455  1.00  0.00     0.053 C 
BRANCH   8   9
ATOM      9  C   UNL     1      27.884  60.042  87.457  1.00  0.00     0.041 C 
ATOM     10  O   UNL     1      28.312  61.223  87.365  1.00  0.00    -0.550 OA
ATOM     11  O   UNL     1      26.997  59.711  88.473  1.00  0.00    -0.550 OA
ENDBRANCH   8   9
ENDBRANCH   7   8
ENDBRANCH   6   7
ENDBRANCH   5   6
ENDBRANCH   4   5
ENDBRANCH   3   4
ENDBRANCH   2   3
ENDBRANCH   1   2
BRANCH   1  12
ATOM     12  C   UNL     1      29.777  59.136  82.580  1.00  0.00     0.000 C 
BRANCH  12  13
ATOM     13  C   UNL     1      28.350  58.591  82.379  1.00  0.00    -0.000 C 
BRANCH  13  14
ATOM     14  C   UNL     1      27.230  59.460  82.982  1.00  0.00    -0.000 C 
BRANCH  14  15
ATOM     15  C   UNL     1      27.569  60.958  82.979  1.00  0.00    -0.000 C 
BRANCH  15  16
ATOM     16  C   UNL     1      26.606  61.738  82.075  1.00  0.00    -0.000 C 
BRANCH  16  17
ATOM     17  C   UNL     1      27.240  62.019  80.707  1.00  0.00    -0.000 C 
BRANCH  17  18
ATOM     18  C   UNL     1      26.680  61.073  79.637  1.00  0.00    -0.000 C 
BRANCH  18  19
ATOM     19  C   UNL     1      27.749  60.126  79.068  1.00  0.00    -0.003 C 
ATOM     20  C   UNL     1      28.794  60.853  78.222  1.00  0.00     0.004 C 
ENDBRANCH  18  19
ENDBRANCH  17  18
ENDBRANCH  16  17
ENDBRANCH  15  16
ENDBRANCH  14  15
ENDBRANCH  13  14
ENDBRANCH  12  13
ENDBRANCH   1  12
TORSDOF 16
ENDMDL
MODEL 5
REMARK VINA RESULT:    -3.028      2.358      4.067
REMARK INTER + INTRA:          -8.666
REMARK INTER:                  -6.066
REMARK INTRA:                  -2.600
REMARK UNBOUND:                -2.806
REMARK SMILES CCCCCCCCCCCCCCCCCC(=O)[O-]
REMARK SMILES IDX 10 1 11 2 12 3 13 4 14 5 15 6 16 7 17 8 18 9 19 10 20 11
REMARK SMILES IDX 9 12 8 13 7 14 6 15 5 16 4 17 3 18 2 19 1 20
REMARK H PARENT
REMARK Flexibility Score: inf
ROOT
ATOM      1  C   UNL     1      27.184  61.250  83.782  1.00  0.00     0.000 C 
ENDROOT
BRANCH   1   2
ATOM      2  C   UNL     1      25.834  61.601  84.441  1.00  0.00     0.000 C 
BRANCH   2   3
ATOM      3  C   UNL     1      24.634  61.201  83.570  1.00  0.00     0.000 C 
BRANCH   3   4
ATOM      4  C   UNL     1      24.046  62.419  82.849  1.00  0.00     0.000 C 
BRANCH   4   5
ATOM      5  C   UNL     1      24.521  62.474  81.390  1.00  0.00     0.000 C 
BRANCH   5   6
ATOM      6  C   UNL     1      24.446  61.110  80.681  1.00  0.00     0.000 C 
BRANCH   6   7
ATOM      7  C   UNL     1      25.786  60.582  80.134  1.00  0.00     0.006 C 
BRANCH   7   8
ATOM      8  C   UNL     1      26.846  61.675  79.901  1.00  0.00     0.053 C 
BRANCH   8   9
ATOM      9  C   UNL     1      27.707  61.397  78.705  1.00  0.00     0.041 C 
ATOM     10  O   UNL     1      28.783  60.755  78.834  1.00  0.00    -0.550 OA
ATOM     11  O   UNL     1      27.307  61.817  77.443  1.00  0.00    -0.550 OA
ENDBRANCH   8   9
ENDBRANCH   7   8
ENDBRANCH   6   7
ENDBRANCH   5   6
ENDBRANCH   4   5
ENDBRANCH   3   4
ENDBRANCH   2   3
ENDBRANCH   1   2
BRANCH   1  12
ATOM     12  C   UNL     1      27.294  59.779  83.336  1.00  0.00     0.000 C 
BRANCH  12  13
ATOM     13  C   UNL     1      28.498  59.461  82.429  1.00  0.00    -0.000 C 
BRANCH  13  14
ATOM     14  C   UNL     1      29.706  58.829  83.148  1.00  0.00    -0.000 C 
BRANCH  14  15
ATOM     15  C   UNL     1      29.303  58.003  84.378  1.00  0.00    -0.000 C 
BRANCH  15  16
ATOM     16  C   UNL     1      30.240  58.284  85.559  1.00  0.00    -0.000 C 
BRANCH  16  17
ATOM     17  C   UNL     1      29.591  59.247  86.561  1.00  0.00    -0.000 C 
BRANCH  17  18
ATOM     18  C   UNL     1      28.166  58.798  86.911  1.00  0.00    -0.000 C 
BRANCH  18  19
ATOM     19  C   UNL     1      27.281  59.961  87.386  1.00  0.00    -0.003 C 
ATOM     20  C   UNL     1      28.038  61.287  87.464  1.00  0.00     0.004 C 
ENDBRANCH  18  19
ENDBRANCH  17  18
ENDBRANCH  16  17
ENDBRANCH  15  16
ENDBRANCH  14  15
ENDBRANCH  13  14
ENDBRANCH  12  13
ENDBRANCH   1  12
TORSDOF 16
ENDMDL
MODEL 6
REMARK VINA RESULT:    -2.991      1.594      5.427
REMARK INTER + INTRA:          -8.594
REMARK INTER:                  -6.607
REMARK INTRA:                  -1.987
REMARK UNBOUND:                -2.806
REMARK SMILES CCCCCCCCCCCCCCCCCC(=O)[O-]
REMARK SMILES IDX 10 1 11 2 12 3 13 4 14 5 15 6 16 7 17 8 18 9 19 10 20 11
REMARK SMILES IDX 9 12 8 13 7 14 6 15 5 16 4 17 3 18 2 19 1 20
REMARK H PARENT
REMARK Flexibility Score: inf
ROOT
ATOM      1  C   UNL     1      27.795  60.727  87.120  1.00  0.00     0.000 C 
ENDROOT
BRANCH   1   2
ATOM      2  C   UNL     1      27.075  59.438  87.567  1.00  0.00     0.000 C 
BRANCH   2   3
ATOM      3  C   UNL     1      28.050  58.365  88.072  1.00  0.00     0.000 C 
BRANCH   3   4
ATOM      4  C   UNL     1      28.976  57.888  86.946  1.00  0.00     0.000 C 
BRANCH   4   5
ATOM      5  C   UNL     1      28.162  57.386  85.745  1.00  0.00     0.000 C 
BRANCH   5   6
ATOM      6  C   UNL     1      28.991  57.294  84.452  1.00  0.00     0.000 C 
BRANCH   6   7
ATOM      7  C   UNL     1      30.014  58.428  84.248  1.00  0.00     0.006 C 
BRANCH   7   8
ATOM      8  C   UNL     1      29.933  59.107  82.867  1.00  0.00     0.053 C 
BRANCH   8   9
ATOM      9  C   UNL     1      30.886  58.508  81.876  1.00  0.00     0.041 C 
ATOM     10  O   UNL     1      31.799  57.731  82.264  1.00  0.00    -0.550 OA
ATOM     11  O   UNL     1      30.749  58.782  80.521  1.00  0.00    -0.550 OA
ENDBRANCH   8   9
ENDBRANCH   7   8
ENDBRANCH   6   7
ENDBRANCH   5   6
ENDBRANCH   4   5
ENDBRANCH   3   4
ENDBRANCH   2   3
ENDBRANCH   1   2
BRANCH   1  12
ATOM     12  C   UNL     1      27.235  61.333  85.819  1.00  0.00     0.000 C 
BRANCH  12  13
ATOM     13  C   UNL     1      26.232  60.441  85.063  1.00  0.00    -0.000 C 
BRANCH  13  14
ATOM     14  C   UNL     1      26.559  60.211  83.575  1.00  0.00    -0.000 C 
BRANCH  14  15
ATOM     15  C   UNL     1      27.125  61.462  82.887  1.00  0.00    -0.000 C 
BRANCH  15  16
ATOM     16  C   UNL     1      26.352  61.779  81.601  1.00  0.00    -0.000 C 
BRANCH  16  17
ATOM     17  C   UNL     1      27.290  61.808  80.387  1.00  0.00    -0.000 C 
BRANCH  17  18
ATOM     18  C   UNL     1      26.508  61.600  79.083  1.00  0.00    -0.000 C 
BRANCH  18  19
ATOM     19  C   UNL     1      27.427  61.450  77.861  1.00  0.00    -0.003 C 
ATOM     20  C   UNL     1      28.720  60.700  78.182  1.00  0.00     0.004 C 
ENDBRANCH  18  19
ENDBRANCH  17  18
ENDBRANCH  16  17
ENDBRANCH  15  16
ENDBRANCH  14  15
ENDBRANCH  13  14
ENDBRANCH  12  13
ENDBRANCH   1  12
TORSDOF 16
ENDMDL
MODEL 7
REMARK VINA RESULT:    -2.987      2.220      4.227
REMARK INTER + INTRA:          -8.586
REMARK INTER:                  -5.718
REMARK INTRA:                  -2.868
REMARK UNBOUND:                -2.806
REMARK SMILES CCCCCCCCCCCCCCCCCC(=O)[O-]
REMARK SMILES IDX 10 1 11 2 12 3 13 4 14 5 15 6 16 7 17 8 18 9 19 10 20 11
REMARK SMILES IDX 9 12 8 13 7 14 6 15 5 16 4 17 3 18 2 19 1 20
REMARK H PARENT
REMARK Flexibility Score: inf
ROOT
ATOM      1  C   UNL     1      28.733  59.528  86.899  1.00  0.00     0.000 C 
ENDROOT
BRANCH   1   2
ATOM      2  C   UNL     1      28.981  58.027  87.159  1.00  0.00     0.000 C 
BRANCH   2   3
ATOM      3  C   UNL     1      29.531  57.300  85.923  1.00  0.00     0.000 C 
BRANCH   3   4
ATOM      4  C   UNL     1      30.348  58.252  85.042  1.00  0.00     0.000 C 
BRANCH   4   5
ATOM      5  C   UNL     1      30.317  57.803  83.574  1.00  0.00     0.000 C 
BRANCH   5   6
ATOM      6  C   UNL     1      30.398  58.977  82.584  1.00  0.00     0.000 C 
BRANCH   6   7
ATOM      7  C   UNL     1      30.935  58.618  81.184  1.00  0.00     0.006 C 
BRANCH   7   8
ATOM      8  C   UNL     1      29.871  58.042  80.231  1.00  0.00     0.053 C 
BRANCH   8   9
ATOM      9  C   UNL     1      29.308  59.078  79.304  1.00  0.00     0.041 C 
ATOM     10  O   UNL     1      29.605  59.063  78.080  1.00  0.00    -0.550 OA
ATOM     11  O   UNL     1      28.431  60.042  79.785  1.00  0.00    -0.550 OA
ENDBRANCH   8   9
ENDBRANCH   7   8
ENDBRANCH   6   7
ENDBRANCH   5   6
ENDBRANCH   4   5
ENDBRANCH   3   4
ENDBRANCH   2   3
ENDBRANCH   1   2
BRANCH   1  12
ATOM     12  C   UNL     1      27.528  60.101  87.669  1.00  0.00     0.000 C 
BRANCH  12  13
ATOM     13  C   UNL     1      26.524  59.052  88.184  1.00  0.00    -0.000 C 
BRANCH  13  14
ATOM     14  C   UNL     1      25.323  58.790  87.255  1.00  0.00    -0.000 C 
BRANCH  14  15
ATOM     15  C   UNL     1      25.320  57.371  86.668  1.00  0.00    -0.000 C 
BRANCH  15  16
ATOM     16  C   UNL     1      25.887  57.365  85.243  1.00  0.00    -0.000 C 
BRANCH  16  17
ATOM     17  C   UNL     1      25.623  58.701  84.538  1.00  0.00    -0.000 C 
BRANCH  17  18
ATOM     18  C   UNL     1      26.788  59.071  83.609  1.00  0.00    -0.000 C 
BRANCH  18  19
ATOM     19  C   UNL     1      27.246  60.527  83.787  1.00  0.00    -0.003 C 
ATOM     20  C   UNL     1      26.186  61.402  84.457  1.00  0.00     0.004 C 
ENDBRANCH  18  19
ENDBRANCH  17  18
ENDBRANCH  16  17
ENDBRANCH  15  16
ENDBRANCH  14  15
ENDBRANCH  13  14
ENDBRANCH  12  13
ENDBRANCH   1  12
TORSDOF 16
ENDMDL
MODEL 8
REMARK VINA RESULT:    -2.963      2.956      5.688
REMARK INTER + INTRA:          -8.542
REMARK INTER:                  -5.673
REMARK INTRA:                  -2.869
REMARK UNBOUND:                -2.806
REMARK SMILES CCCCCCCCCCCCCCCCCC(=O)[O-]
REMARK SMILES IDX 10 1 11 2 12 3 13 4 14 5 15 6 16 7 17 8 18 9 19 10 20 11
REMARK SMILES IDX 9 12 8 13 7 14 6 15 5 16 4 17 3 18 2 19 1 20
REMARK H PARENT
REMARK Flexibility Score: inf
ROOT
ATOM      1  C   UNL     1      26.900  59.136  83.174  1.00  0.00     0.000 C 
ENDROOT
BRANCH   1   2
ATOM      2  C   UNL     1      27.969  58.137  82.687  1.00  0.00     0.000 C 
BRANCH   2   3
ATOM      3  C   UNL     1      29.299  58.823  82.339  1.00  0.00     0.000 C 
BRANCH   3   4
ATOM      4  C   UNL     1      30.459  58.208  83.130  1.00  0.00     0.000 C 
BRANCH   4   5
ATOM      5  C   UNL     1      29.955  57.568  84.432  1.00  0.00     0.000 C 
BRANCH   5   6
ATOM      6  C   UNL     1      30.164  58.465  85.664  1.00  0.00     0.000 C 
BRANCH   6   7
ATOM      7  C   UNL     1      29.137  58.273  86.797  1.00  0.00     0.006 C 
BRANCH   7   8
ATOM      8  C   UNL     1      28.382  59.558  87.187  1.00  0.00     0.053 C 
BRANCH   8   9
ATOM      9  C   UNL     1      27.001  59.280  87.701  1.00  0.00     0.041 C 
ATOM     10  O   UNL     1      26.067  59.017  86.898  1.00  0.00    -0.550 OA
ATOM     11  O   UNL     1      26.751  59.281  89.068  1.00  0.00    -0.550 OA
ENDBRANCH   8   9
ENDBRANCH   7   8
ENDBRANCH   6   7
ENDBRANCH   5   6
ENDBRANCH   4   5
ENDBRANCH   3   4
ENDBRANCH   2   3
ENDBRANCH   1   2
BRANCH   1  12
ATOM     12  C   UNL     1      27.484  60.422  83.789  1.00  0.00     0.000 C 
BRANCH  12  13
ATOM     13  C   UNL     1      26.443  61.405  84.358  1.00  0.00    -0.000 C 
BRANCH  13  14
ATOM     14  C   UNL     1      24.976  61.041  84.065  1.00  0.00    -0.000 C 
BRANCH  14  15
ATOM     15  C   UNL     1      24.364  61.885  82.937  1.00  0.00    -0.000 C 
BRANCH  15  16
ATOM     16  C   UNL     1      23.940  61.002  81.757  1.00  0.00    -0.000 C 
BRANCH  16  17
ATOM     17  C   UNL     1      24.911  61.151  80.580  1.00  0.00    -0.000 C 
BRANCH  17  18
ATOM     18  C   UNL     1      25.762  62.420  80.726  1.00  0.00    -0.000 C 
BRANCH  18  19
ATOM     19  C   UNL     1      27.270  62.132  80.645  1.00  0.00    -0.003 C 
ATOM     20  C   UNL     1      27.594  60.918  79.774  1.00  0.00     0.004 C 
ENDBRANCH  18  19
ENDBRANCH  17  18
ENDBRANCH  16  17
ENDBRANCH  15  16
ENDBRANCH  14  15
ENDBRANCH  13  14
ENDBRANCH  12  13
ENDBRANCH   1  12
TORSDOF 16
ENDMDL
MODEL 9
REMARK VINA RESULT:    -2.959      3.071      6.476
REMARK INTER + INTRA:          -8.532
REMARK INTER:                  -5.916
REMARK INTRA:                  -2.616
REMARK UNBOUND:                -2.806
REMARK SMILES CCCCCCCCCCCCCCCCCC(=O)[O-]
REMARK SMILES IDX 10 1 11 2 12 3 13 4 14 5 15 6 16 7 17 8 18 9 19 10 20 11
REMARK SMILES IDX 9 12 8 13 7 14 6 15 5 16 4 17 3 18 2 19 1 20
REMARK H PARENT
REMARK Flexibility Score: inf
ROOT
ATOM      1  C   UNL     1      27.246  61.759  81.464  1.00  0.00     0.000 C 
ENDROOT
BRANCH   1   2
ATOM      2  C   UNL     1      26.044  62.472  80.812  1.00  0.00     0.000 C 
BRANCH   2   3
ATOM      3  C   UNL     1      24.699  61.871  81.245  1.00  0.00     0.000 C 
BRANCH   3   4
ATOM      4  C   UNL     1      24.469  62.062  82.749  1.00  0.00     0.000 C 
BRANCH   4   5
ATOM      5  C   UNL     1      24.078  60.735  83.416  1.00  0.00     0.000 C 
BRANCH   5   6
ATOM      6  C   UNL     1      25.083  60.282  84.488  1.00  0.00     0.000 C 
BRANCH   6   7
ATOM      7  C   UNL     1      26.146  61.329  84.875  1.00  0.00     0.006 C 
BRANCH   7   8
ATOM      8  C   UNL     1      27.464  60.725  85.396  1.00  0.00     0.053 C 
BRANCH   8   9
ATOM      9  C   UNL     1      27.553  60.746  86.894  1.00  0.00     0.041 C 
ATOM     10  O   UNL     1      28.098  61.717  87.482  1.00  0.00    -0.550 OA
ATOM     11  O   UNL     1      27.007  59.710  87.641  1.00  0.00    -0.550 OA
ENDBRANCH   8   9
ENDBRANCH   7   8
ENDBRANCH   6   7
ENDBRANCH   5   6
ENDBRANCH   4   5
ENDBRANCH   3   4
ENDBRANCH   2   3
ENDBRANCH   1   2
BRANCH   1  12
ATOM     12  C   UNL     1      27.222  60.227  81.302  1.00  0.00     0.000 C 
BRANCH  12  13
ATOM     13  C   UNL     1      28.401  59.482  81.959  1.00  0.00    -0.000 C 
BRANCH  13  14
ATOM     14  C   UNL     1      29.065  58.409  81.075  1.00  0.00    -0.000 C 
BRANCH  14  15
ATOM     15  C   UNL     1      29.772  59.000  79.847  1.00  0.00    -0.000 C 
BRANCH  15  16
ATOM     16  C   UNL     1      29.163  58.458  78.548  1.00  0.00    -0.000 C 
BRANCH  16  17
ATOM     17  C   UNL     1      29.112  59.544  77.466  1.00  0.00    -0.000 C 
BRANCH  17  18
ATOM     18  C   UNL     1      28.723  60.901  78.069  1.00  0.00    -0.000 C 
BRANCH  18  19
ATOM     19  C   UNL     1      27.384  61.426  77.526  1.00  0.00    -0.003 C 
ATOM     20  C   UNL     1      26.250  60.409  77.667  1.00  0.00     0.004 C 
ENDBRANCH  18  19
ENDBRANCH  17  18
ENDBRANCH  16  17
ENDBRANCH  15  16
ENDBRANCH  14  15
ENDBRANCH  13  14
ENDBRANCH  12  13
ENDBRANCH   1  12
TORSDOF 16
ENDMDL
