MODEL 1
REMARK VINA RESULT:    -7.841      0.000      0.000
REMARK INTER + INTRA:          -9.803
REMARK INTER:                  -9.445
REMARK INTRA:                  -0.358
REMARK UNBOUND:                -0.358
REMARK SMILES O=c1c(O)c(-c2ccc(O)cc2O)oc2cc(O)cc(O)c12
REMARK SMILES IDX 5 1 3 2 2 3 1 4 22 5 20 6 19 7 17 8 16 9 15 10 14 11 6 12
REMARK SMILES IDX 8 13 7 14 9 15 11 16 12 17 10 18 13 20 4 22 21 24 18 26
REMARK H PARENT 10 19 13 21 4 23 21 25 18 27
REMARK Flexibility Score: inf
ROOT
ATOM      1  C   UNL     1      21.754  28.858  38.474  1.00  0.00     0.184 A 
ATOM      2  C   UNL     1      21.338  28.026  37.421  1.00  0.00     0.208 A 
ATOM      3  C   UNL     1      20.225  28.402  36.654  1.00  0.00     0.238 A 
ATOM      4  O   UNL     1      19.814  27.617  35.760  1.00  0.00    -0.285 OA
ATOM      5  C   UNL     1      19.572  29.632  36.915  1.00  0.00     0.111 A 
ATOM      6  C   UNL     1      18.462  30.136  36.171  1.00  0.00     0.134 A 
ATOM      7  C   UNL     1      17.830  31.314  36.589  1.00  0.00     0.093 A 
ATOM      8  C   UNL     1      18.305  32.039  37.684  1.00  0.00     0.123 A 
ATOM      9  C   UNL     1      19.422  31.585  38.382  1.00  0.00     0.094 A 
ATOM     10  C   UNL     1      20.052  30.393  38.013  1.00  0.00     0.146 A 
ATOM     11  O   UNL     1      21.100  29.987  38.718  1.00  0.00    -0.451 OA
ENDROOT
BRANCH   1  12
ATOM     12  C   UNL     1      22.911  28.514  39.333  1.00  0.00     0.063 A 
ATOM     13  C   UNL     1      23.803  27.657  41.428  1.00  0.00     0.047 A 
ATOM     14  C   UNL     1      22.712  27.956  40.608  1.00  0.00     0.020 A 
ATOM     15  C   UNL     1      25.106  27.923  40.991  1.00  0.00     0.119 A 
ATOM     16  C   UNL     1      25.313  28.490  39.731  1.00  0.00     0.093 A 
ATOM     17  C   UNL     1      24.223  28.791  38.901  1.00  0.00     0.130 A 
BRANCH  15  18
ATOM     18  O   UNL     1      26.200  27.629  41.802  1.00  0.00    -0.508 OA
ATOM     19  H   UNL     1      26.304  26.723  42.245  1.00  0.00     0.293 HD
ENDBRANCH  15  18
BRANCH  17  20
ATOM     20  O   UNL     1      24.445  29.353  37.642  1.00  0.00    -0.507 OA
ATOM     21  H   UNL     1      23.719  29.864  37.153  1.00  0.00     0.293 HD
ENDBRANCH  17  20
ENDBRANCH   1  12
BRANCH   2  22
ATOM     22  O   UNL     1      22.038  26.849  37.139  1.00  0.00    -0.502 OA
ATOM     23  H   UNL     1      21.669  25.932  37.355  1.00  0.00     0.293 HD
ENDBRANCH   2  22
BRANCH   6  24
ATOM     24  O   UNL     1      17.961  29.539  35.011  1.00  0.00    -0.507 OA
ATOM     25  H   UNL     1      18.514  29.033  34.336  1.00  0.00     0.293 HD
ENDBRANCH   6  24
BRANCH   8  26
ATOM     26  O   UNL     1      17.680  33.218  38.082  1.00  0.00    -0.508 OA
ATOM     27  H   UNL     1      17.112  33.759  37.441  1.00  0.00     0.293 HD
ENDBRANCH   8  26
TORSDOF 6
ENDMDL
MODEL 2
REMARK VINA RESULT:    -7.675      0.765      1.463
REMARK INTER + INTRA:          -9.604
REMARK INTER:                  -9.200
REMARK INTRA:                  -0.404
REMARK UNBOUND:                -0.358
REMARK SMILES O=c1c(O)c(-c2ccc(O)cc2O)oc2cc(O)cc(O)c12
REMARK SMILES IDX 5 1 3 2 2 3 1 4 22 5 20 6 19 7 17 8 16 9 15 10 14 11 6 12
REMARK SMILES IDX 8 13 7 14 9 15 11 16 12 17 10 18 13 20 4 22 21 24 18 26
REMARK H PARENT 10 19 13 21 4 23 21 25 18 27
REMARK Flexibility Score: inf
ROOT
ATOM      1  C   UNL     1      21.861  28.916  38.562  1.00  0.00     0.184 A 
ATOM      2  C   UNL     1      21.460  28.024  37.553  1.00  0.00     0.208 A 
ATOM      3  C   UNL     1      20.312  28.317  36.800  1.00  0.00     0.238 A 
ATOM      4  O   UNL     1      19.919  27.478  35.949  1.00  0.00    -0.285 OA
ATOM      5  C   UNL     1      19.608  29.524  37.029  1.00  0.00     0.111 A 
ATOM      6  C   UNL     1      18.459  29.946  36.295  1.00  0.00     0.134 A 
ATOM      7  C   UNL     1      17.781  31.110  36.682  1.00  0.00     0.093 A 
ATOM      8  C   UNL     1      18.248  31.899  37.735  1.00  0.00     0.123 A 
ATOM      9  C   UNL     1      19.401  31.526  38.422  1.00  0.00     0.094 A 
ATOM     10  C   UNL     1      20.078  30.351  38.084  1.00  0.00     0.146 A 
ATOM     11  O   UNL     1      21.160  30.022  38.778  1.00  0.00    -0.451 OA
ENDROOT
BRANCH   1  12
ATOM     12  C   UNL     1      23.053  28.662  39.403  1.00  0.00     0.063 A 
ATOM     13  C   UNL     1      25.456  28.802  39.755  1.00  0.00     0.047 A 
ATOM     14  C   UNL     1      24.329  29.066  38.974  1.00  0.00     0.020 A 
ATOM     15  C   UNL     1      25.326  28.120  40.971  1.00  0.00     0.119 A 
ATOM     16  C   UNL     1      24.064  27.701  41.399  1.00  0.00     0.093 A 
ATOM     17  C   UNL     1      22.927  27.964  40.621  1.00  0.00     0.130 A 
BRANCH  15  18
ATOM     18  O   UNL     1      26.445  27.851  41.757  1.00  0.00    -0.508 OA
ATOM     19  H   UNL     1      27.087  27.102  41.527  1.00  0.00     0.293 HD
ENDBRANCH  15  18
BRANCH  17  20
ATOM     20  O   UNL     1      21.671  27.545  41.064  1.00  0.00    -0.507 OA
ATOM     21  H   UNL     1      21.515  27.257  42.023  1.00  0.00     0.293 HD
ENDBRANCH  17  20
ENDBRANCH   1  12
BRANCH   2  22
ATOM     22  O   UNL     1      22.208  26.871  37.300  1.00  0.00    -0.502 OA
ATOM     23  H   UNL     1      22.988  26.860  36.654  1.00  0.00     0.293 HD
ENDBRANCH   2  22
BRANCH   6  24
ATOM     24  O   UNL     1      17.960  29.281  35.172  1.00  0.00    -0.507 OA
ATOM     25  H   UNL     1      17.599  28.339  35.171  1.00  0.00     0.293 HD
ENDBRANCH   6  24
BRANCH   8  26
ATOM     26  O   UNL     1      17.577  33.064  38.102  1.00  0.00    -0.508 OA
ATOM     27  H   UNL     1      17.695  33.928  37.587  1.00  0.00     0.293 HD
ENDBRANCH   8  26
TORSDOF 6
ENDMDL
MODEL 3
REMARK VINA RESULT:    -7.325      1.660      6.752
REMARK INTER + INTRA:          -9.182
REMARK INTER:                  -8.739
REMARK INTRA:                  -0.443
REMARK UNBOUND:                -0.358
REMARK SMILES O=c1c(O)c(-c2ccc(O)cc2O)oc2cc(O)cc(O)c12
REMARK SMILES IDX 5 1 3 2 2 3 1 4 22 5 20 6 19 7 17 8 16 9 15 10 14 11 6 12
REMARK SMILES IDX 8 13 7 14 9 15 11 16 12 17 10 18 13 20 4 22 21 24 18 26
REMARK H PARENT 10 19 13 21 4 23 21 25 18 27
REMARK Flexibility Score: inf
ROOT
ATOM      1  C   UNL     1      21.118  29.719  37.519  1.00  0.00     0.184 A 
ATOM      2  C   UNL     1      22.101  30.475  36.860  1.00  0.00     0.208 A 
ATOM      3  C   UNL     1      23.420  30.446  37.339  1.00  0.00     0.238 A 
ATOM      4  O   UNL     1      24.278  31.182  36.788  1.00  0.00    -0.285 OA
ATOM      5  C   UNL     1      23.751  29.620  38.441  1.00  0.00     0.111 A 
ATOM      6  C   UNL     1      25.064  29.476  38.983  1.00  0.00     0.134 A 
ATOM      7  C   UNL     1      25.253  28.713  40.142  1.00  0.00     0.093 A 
ATOM      8  C   UNL     1      24.187  28.037  40.742  1.00  0.00     0.123 A 
ATOM      9  C   UNL     1      22.912  28.125  40.188  1.00  0.00     0.094 A 
ATOM     10  C   UNL     1      22.685  28.909  39.054  1.00  0.00     0.146 A 
ATOM     11  O   UNL     1      21.451  28.982  38.572  1.00  0.00    -0.451 OA
ENDROOT
BRANCH   1  12
ATOM     12  C   UNL     1      19.705  29.715  37.076  1.00  0.00     0.063 A 
ATOM     13  C   UNL     1      17.981  28.975  35.526  1.00  0.00     0.047 A 
ATOM     14  C   UNL     1      19.309  28.957  35.960  1.00  0.00     0.020 A 
ATOM     15  C   UNL     1      17.033  29.760  36.192  1.00  0.00     0.119 A 
ATOM     16  C   UNL     1      17.420  30.528  37.294  1.00  0.00     0.093 A 
ATOM     17  C   UNL     1      18.750  30.514  37.737  1.00  0.00     0.130 A 
BRANCH  15  18
ATOM     18  O   UNL     1      15.707  29.785  35.767  1.00  0.00    -0.508 OA
ATOM     19  H   UNL     1      15.246  28.953  35.416  1.00  0.00     0.293 HD
ENDBRANCH  15  18
BRANCH  17  20
ATOM     20  O   UNL     1      19.122  31.282  38.842  1.00  0.00    -0.507 OA
ATOM     21  H   UNL     1      19.832  30.967  39.493  1.00  0.00     0.293 HD
ENDBRANCH  17  20
ENDBRANCH   1  12
BRANCH   2  22
ATOM     22  O   UNL     1      21.765  31.231  35.733  1.00  0.00    -0.502 OA
ATOM     23  H   UNL     1      20.856  31.664  35.620  1.00  0.00     0.293 HD
ENDBRANCH   2  22
BRANCH   6  24
ATOM     24  O   UNL     1      26.211  30.035  38.413  1.00  0.00    -0.507 OA
ATOM     25  H   UNL     1      26.979  30.433  38.931  1.00  0.00     0.293 HD
ENDBRANCH   6  24
BRANCH   8  26
ATOM     26  O   UNL     1      24.388  27.267  41.885  1.00  0.00    -0.508 OA
ATOM     27  H   UNL     1      24.148  27.614  42.806  1.00  0.00     0.293 HD
ENDBRANCH   8  26
TORSDOF 6
ENDMDL
MODEL 4
REMARK VINA RESULT:    -6.965      1.456      2.851
REMARK INTER + INTRA:          -8.748
REMARK INTER:                  -8.396
REMARK INTRA:                  -0.352
REMARK UNBOUND:                -0.358
REMARK SMILES O=c1c(O)c(-c2ccc(O)cc2O)oc2cc(O)cc(O)c12
REMARK SMILES IDX 5 1 3 2 2 3 1 4 22 5 20 6 19 7 17 8 16 9 15 10 14 11 6 12
REMARK SMILES IDX 8 13 7 14 9 15 11 16 12 17 10 18 13 20 4 22 21 24 18 26
REMARK H PARENT 10 19 13 21 4 23 21 25 18 27
REMARK Flexibility Score: inf
ROOT
ATOM      1  C   UNL     1      22.491  29.420  38.535  1.00  0.00     0.184 A 
ATOM      2  C   UNL     1      22.385  30.821  38.504  1.00  0.00     0.208 A 
ATOM      3  C   UNL     1      21.393  31.412  37.707  1.00  0.00     0.238 A 
ATOM      4  O   UNL     1      21.351  32.667  37.628  1.00  0.00    -0.285 OA
ATOM      5  C   UNL     1      20.484  30.595  36.990  1.00  0.00     0.111 A 
ATOM      6  C   UNL     1      19.410  31.085  36.187  1.00  0.00     0.134 A 
ATOM      7  C   UNL     1      18.642  30.185  35.438  1.00  0.00     0.093 A 
ATOM      8  C   UNL     1      18.868  28.809  35.512  1.00  0.00     0.123 A 
ATOM      9  C   UNL     1      19.877  28.316  36.337  1.00  0.00     0.094 A 
ATOM     10  C   UNL     1      20.685  29.191  37.067  1.00  0.00     0.146 A 
ATOM     11  O   UNL     1      21.648  28.681  37.824  1.00  0.00    -0.451 OA
ENDROOT
BRANCH   1  12
ATOM     12  C   UNL     1      23.523  28.731  39.343  1.00  0.00     0.063 A 
ATOM     13  C   UNL     1      24.191  27.592  41.387  1.00  0.00     0.047 A 
ATOM     14  C   UNL     1      23.210  28.218  40.615  1.00  0.00     0.020 A 
ATOM     15  C   UNL     1      25.501  27.479  40.906  1.00  0.00     0.119 A 
ATOM     16  C   UNL     1      25.825  27.998  39.649  1.00  0.00     0.093 A 
ATOM     17  C   UNL     1      24.845  28.626  38.866  1.00  0.00     0.130 A 
BRANCH  15  18
ATOM     18  O   UNL     1      26.486  26.857  41.669  1.00  0.00    -0.508 OA
ATOM     19  H   UNL     1      26.804  25.917  41.460  1.00  0.00     0.293 HD
ENDBRANCH  15  18
BRANCH  17  20
ATOM     20  O   UNL     1      25.182  29.134  37.611  1.00  0.00    -0.507 OA
ATOM     21  H   UNL     1      24.963  28.632  36.758  1.00  0.00     0.293 HD
ENDBRANCH  17  20
ENDBRANCH   1  12
BRANCH   2  22
ATOM     22  O   UNL     1      23.249  31.606  39.272  1.00  0.00    -0.502 OA
ATOM     23  H   UNL     1      24.184  31.846  38.964  1.00  0.00     0.293 HD
ENDBRANCH   2  22
BRANCH   6  24
ATOM     24  O   UNL     1      19.042  32.431  36.110  1.00  0.00    -0.507 OA
ATOM     25  H   UNL     1      18.444  32.906  36.768  1.00  0.00     0.293 HD
ENDBRANCH   6  24
BRANCH   8  26
ATOM     26  O   UNL     1      18.088  27.920  34.776  1.00  0.00    -0.508 OA
ATOM     27  H   UNL     1      17.087  27.850  34.919  1.00  0.00     0.293 HD
ENDBRANCH   8  26
TORSDOF 6
ENDMDL
MODEL 5
REMARK VINA RESULT:    -6.720      2.081      6.559
REMARK INTER + INTRA:          -8.454
REMARK INTER:                  -7.988
REMARK INTRA:                  -0.466
REMARK UNBOUND:                -0.358
REMARK SMILES O=c1c(O)c(-c2ccc(O)cc2O)oc2cc(O)cc(O)c12
REMARK SMILES IDX 5 1 3 2 2 3 1 4 22 5 20 6 19 7 17 8 16 9 15 10 14 11 6 12
REMARK SMILES IDX 8 13 7 14 9 15 11 16 12 17 10 18 13 20 4 22 21 24 18 26
REMARK H PARENT 10 19 13 21 4 23 21 25 18 27
REMARK Flexibility Score: inf
ROOT
ATOM      1  C   UNL     1      21.848  29.579  37.975  1.00  0.00     0.184 A 
ATOM      2  C   UNL     1      22.274  28.665  38.954  1.00  0.00     0.208 A 
ATOM      3  C   UNL     1      23.570  28.782  39.478  1.00  0.00     0.238 A 
ATOM      4  O   UNL     1      23.968  27.917  40.301  1.00  0.00    -0.285 OA
ATOM      5  C   UNL     1      24.408  29.843  39.055  1.00  0.00     0.111 A 
ATOM      6  C   UNL     1      25.725  30.086  39.553  1.00  0.00     0.134 A 
ATOM      7  C   UNL     1      26.502  31.102  38.982  1.00  0.00     0.093 A 
ATOM      8  C   UNL     1      25.988  31.924  37.977  1.00  0.00     0.123 A 
ATOM      9  C   UNL     1      24.685  31.731  37.524  1.00  0.00     0.094 A 
ATOM     10  C   UNL     1      23.898  30.702  38.046  1.00  0.00     0.146 A 
ATOM     11  O   UNL     1      22.669  30.541  37.571  1.00  0.00    -0.451 OA
ENDROOT
BRANCH   1  12
ATOM     12  C   UNL     1      20.499  29.504  37.369  1.00  0.00     0.063 A 
ATOM     13  C   UNL     1      18.970  28.551  35.733  1.00  0.00     0.047 A 
ATOM     14  C   UNL     1      20.235  28.601  36.323  1.00  0.00     0.020 A 
ATOM     15  C   UNL     1      17.954  29.409  36.171  1.00  0.00     0.119 A 
ATOM     16  C   UNL     1      18.211  30.319  37.199  1.00  0.00     0.093 A 
ATOM     17  C   UNL     1      19.478  30.375  37.798  1.00  0.00     0.130 A 
BRANCH  15  18
ATOM     18  O   UNL     1      16.689  29.366  35.588  1.00  0.00    -0.508 OA
ATOM     19  H   UNL     1      16.553  29.551  34.601  1.00  0.00     0.293 HD
ENDBRANCH  15  18
BRANCH  17  20
ATOM     20  O   UNL     1      19.718  31.286  38.829  1.00  0.00    -0.507 OA
ATOM     21  H   UNL     1      20.659  31.499  39.140  1.00  0.00     0.293 HD
ENDBRANCH  17  20
ENDBRANCH   1  12
BRANCH   2  22
ATOM     22  O   UNL     1      21.406  27.667  39.405  1.00  0.00    -0.502 OA
ATOM     23  H   UNL     1      20.939  27.026  38.775  1.00  0.00     0.293 HD
ENDBRANCH   2  22
BRANCH   6  24
ATOM     24  O   UNL     1      26.303  29.382  40.613  1.00  0.00    -0.507 OA
ATOM     25  H   UNL     1      27.260  29.069  40.645  1.00  0.00     0.293 HD
ENDBRANCH   6  24
BRANCH   8  26
ATOM     26  O   UNL     1      26.762  32.943  37.427  1.00  0.00    -0.508 OA
ATOM     27  H   UNL     1      26.406  33.540  36.689  1.00  0.00     0.293 HD
ENDBRANCH   8  26
TORSDOF 6
ENDMDL
MODEL 6
REMARK VINA RESULT:    -6.623      2.038      6.585
REMARK INTER + INTRA:          -8.337
REMARK INTER:                  -7.989
REMARK INTRA:                  -0.348
REMARK UNBOUND:                -0.358
REMARK SMILES O=c1c(O)c(-c2ccc(O)cc2O)oc2cc(O)cc(O)c12
REMARK SMILES IDX 5 1 3 2 2 3 1 4 22 5 20 6 19 7 17 8 16 9 15 10 14 11 6 12
REMARK SMILES IDX 8 13 7 14 9 15 11 16 12 17 10 18 13 20 4 22 21 24 18 26
REMARK H PARENT 10 19 13 21 4 23 21 25 18 27
REMARK Flexibility Score: inf
ROOT
ATOM      1  C   UNL     1      22.085  29.697  38.080  1.00  0.00     0.184 A 
ATOM      2  C   UNL     1      22.440  28.793  39.095  1.00  0.00     0.208 A 
ATOM      3  C   UNL     1      23.738  28.838  39.625  1.00  0.00     0.238 A 
ATOM      4  O   UNL     1      24.071  27.978  40.481  1.00  0.00    -0.285 OA
ATOM      5  C   UNL     1      24.652  29.820  39.170  1.00  0.00     0.111 A 
ATOM      6  C   UNL     1      25.979  29.989  39.669  1.00  0.00     0.134 A 
ATOM      7  C   UNL     1      26.829  30.926  39.067  1.00  0.00     0.093 A 
ATOM      8  C   UNL     1      26.380  31.744  38.028  1.00  0.00     0.123 A 
ATOM      9  C   UNL     1      25.069  31.627  37.572  1.00  0.00     0.094 A 
ATOM     10  C   UNL     1      24.208  30.676  38.126  1.00  0.00     0.146 A 
ATOM     11  O   UNL     1      22.974  30.583  37.648  1.00  0.00    -0.451 OA
ENDROOT
BRANCH   1  12
ATOM     12  C   UNL     1      20.737  29.696  37.466  1.00  0.00     0.063 A 
ATOM     13  C   UNL     1      18.477  30.588  37.336  1.00  0.00     0.047 A 
ATOM     14  C   UNL     1      19.756  30.607  37.896  1.00  0.00     0.020 A 
ATOM     15  C   UNL     1      18.155  29.649  36.348  1.00  0.00     0.119 A 
ATOM     16  C   UNL     1      19.118  28.730  35.925  1.00  0.00     0.093 A 
ATOM     17  C   UNL     1      20.406  28.745  36.480  1.00  0.00     0.130 A 
BRANCH  15  18
ATOM     18  O   UNL     1      16.882  29.621  35.783  1.00  0.00    -0.508 OA
ATOM     19  H   UNL     1      16.127  29.091  36.203  1.00  0.00     0.293 HD
ENDBRANCH  15  18
BRANCH  17  20
ATOM     20  O   UNL     1      21.360  27.824  36.044  1.00  0.00    -0.507 OA
ATOM     21  H   UNL     1      22.106  28.091  35.411  1.00  0.00     0.293 HD
ENDBRANCH  17  20
ENDBRANCH   1  12
BRANCH   2  22
ATOM     22  O   UNL     1      21.501  27.876  39.576  1.00  0.00    -0.502 OA
ATOM     23  H   UNL     1      21.449  26.923  39.236  1.00  0.00     0.293 HD
ENDBRANCH   2  22
BRANCH   6  24
ATOM     24  O   UNL     1      26.501  29.286  40.758  1.00  0.00    -0.507 OA
ATOM     25  H   UNL     1      25.995  28.602  41.301  1.00  0.00     0.293 HD
ENDBRANCH   6  24
BRANCH   8  26
ATOM     26  O   UNL     1      27.227  32.685  37.448  1.00  0.00    -0.508 OA
ATOM     27  H   UNL     1      27.389  33.588  37.877  1.00  0.00     0.293 HD
ENDBRANCH   8  26
TORSDOF 6
ENDMDL
MODEL 7
REMARK VINA RESULT:    -6.490      2.218      3.839
REMARK INTER + INTRA:          -8.177
REMARK INTER:                  -7.729
REMARK INTRA:                  -0.448
REMARK UNBOUND:                -0.358
REMARK SMILES O=c1c(O)c(-c2ccc(O)cc2O)oc2cc(O)cc(O)c12
REMARK SMILES IDX 5 1 3 2 2 3 1 4 22 5 20 6 19 7 17 8 16 9 15 10 14 11 6 12
REMARK SMILES IDX 8 13 7 14 9 15 11 16 12 17 10 18 13 20 4 22 21 24 18 26
REMARK H PARENT 10 19 13 21 4 23 21 25 18 27
REMARK Flexibility Score: inf
ROOT
ATOM      1  C   UNL     1      22.545  31.043  38.212  1.00  0.00     0.184 A 
ATOM      2  C   UNL     1      21.700  32.053  38.699  1.00  0.00     0.208 A 
ATOM      3  C   UNL     1      20.340  32.031  38.353  1.00  0.00     0.238 A 
ATOM      4  O   UNL     1      19.605  32.979  38.733  1.00  0.00    -0.285 OA
ATOM      5  C   UNL     1      19.831  30.970  37.565  1.00  0.00     0.111 A 
ATOM      6  C   UNL     1      18.461  30.821  37.191  1.00  0.00     0.134 A 
ATOM      7  C   UNL     1      18.092  29.788  36.319  1.00  0.00     0.093 A 
ATOM      8  C   UNL     1      19.031  28.863  35.859  1.00  0.00     0.123 A 
ATOM      9  C   UNL     1      20.360  28.966  36.263  1.00  0.00     0.094 A 
ATOM     10  C   UNL     1      20.766  30.007  37.102  1.00  0.00     0.146 A 
ATOM     11  O   UNL     1      22.046  30.080  37.446  1.00  0.00    -0.451 OA
ENDROOT
BRANCH   1  12
ATOM     12  C   UNL     1      23.992  31.013  38.527  1.00  0.00     0.063 A 
ATOM     13  C   UNL     1      26.226  31.945  38.275  1.00  0.00     0.047 A 
ATOM     14  C   UNL     1      24.857  31.989  38.001  1.00  0.00     0.020 A 
ATOM     15  C   UNL     1      26.752  30.919  39.069  1.00  0.00     0.119 A 
ATOM     16  C   UNL     1      25.903  29.937  39.585  1.00  0.00     0.093 A 
ATOM     17  C   UNL     1      24.527  29.975  39.316  1.00  0.00     0.130 A 
BRANCH  15  18
ATOM     18  O   UNL     1      28.116  30.866  39.349  1.00  0.00    -0.508 OA
ATOM     19  H   UNL     1      28.683  31.706  39.384  1.00  0.00     0.293 HD
ENDBRANCH  15  18
BRANCH  17  20
ATOM     20  O   UNL     1      23.689  28.990  39.842  1.00  0.00    -0.507 OA
ATOM     21  H   UNL     1      22.680  29.072  39.799  1.00  0.00     0.293 HD
ENDBRANCH  17  20
ENDBRANCH   1  12
BRANCH   2  22
ATOM     22  O   UNL     1      22.211  33.054  39.530  1.00  0.00    -0.502 OA
ATOM     23  H   UNL     1      23.161  33.396  39.449  1.00  0.00     0.293 HD
ENDBRANCH   2  22
BRANCH   6  24
ATOM     24  O   UNL     1      17.428  31.636  37.662  1.00  0.00    -0.507 OA
ATOM     25  H   UNL     1      16.546  31.303  38.021  1.00  0.00     0.293 HD
ENDBRANCH   6  24
BRANCH   8  26
ATOM     26  O   UNL     1      18.651  27.830  35.006  1.00  0.00    -0.508 OA
ATOM     27  H   UNL     1      18.757  27.906  34.001  1.00  0.00     0.293 HD
ENDBRANCH   8  26
TORSDOF 6
ENDMDL
MODEL 8
REMARK VINA RESULT:    -6.247      3.181      5.073
REMARK INTER + INTRA:          -7.884
REMARK INTER:                  -7.545
REMARK INTRA:                  -0.339
REMARK UNBOUND:                -0.358
REMARK SMILES O=c1c(O)c(-c2ccc(O)cc2O)oc2cc(O)cc(O)c12
REMARK SMILES IDX 5 1 3 2 2 3 1 4 22 5 20 6 19 7 17 8 16 9 15 10 14 11 6 12
REMARK SMILES IDX 8 13 7 14 9 15 11 16 12 17 10 18 13 20 4 22 21 24 18 26
REMARK H PARENT 10 19 13 21 4 23 21 25 18 27
REMARK Flexibility Score: inf
ROOT
ATOM      1  C   UNL     1      21.275  32.235  38.316  1.00  0.00     0.184 A 
ATOM      2  C   UNL     1      20.254  32.614  37.428  1.00  0.00     0.208 A 
ATOM      3  C   UNL     1      19.645  31.633  36.630  1.00  0.00     0.238 A 
ATOM      4  O   UNL     1      18.783  31.992  35.786  1.00  0.00    -0.285 OA
ATOM      5  C   UNL     1      20.027  30.276  36.767  1.00  0.00     0.111 A 
ATOM      6  C   UNL     1      19.446  29.191  36.043  1.00  0.00     0.134 A 
ATOM      7  C   UNL     1      19.979  27.904  36.183  1.00  0.00     0.093 A 
ATOM      8  C   UNL     1      21.030  27.651  37.066  1.00  0.00     0.123 A 
ATOM      9  C   UNL     1      21.568  28.692  37.819  1.00  0.00     0.094 A 
ATOM     10  C   UNL     1      21.083  29.995  37.674  1.00  0.00     0.146 A 
ATOM     11  O   UNL     1      21.638  30.960  38.396  1.00  0.00    -0.451 OA
ENDROOT
BRANCH   1  12
ATOM     12  C   UNL     1      21.970  33.220  39.176  1.00  0.00     0.063 A 
ATOM     13  C   UNL     1      21.899  34.952  40.884  1.00  0.00     0.047 A 
ATOM     14  C   UNL     1      21.247  34.004  40.092  1.00  0.00     0.020 A 
ATOM     15  C   UNL     1      23.281  35.139  40.762  1.00  0.00     0.119 A 
ATOM     16  C   UNL     1      24.007  34.375  39.845  1.00  0.00     0.093 A 
ATOM     17  C   UNL     1      23.360  33.420  39.047  1.00  0.00     0.130 A 
BRANCH  15  18
ATOM     18  O   UNL     1      23.941  36.083  41.547  1.00  0.00    -0.508 OA
ATOM     19  H   UNL     1      23.752  36.173  42.539  1.00  0.00     0.293 HD
ENDBRANCH  15  18
BRANCH  17  20
ATOM     20  O   UNL     1      24.098  32.660  38.139  1.00  0.00    -0.507 OA
ATOM     21  H   UNL     1      24.762  31.959  38.448  1.00  0.00     0.293 HD
ENDBRANCH  17  20
ENDBRANCH   1  12
BRANCH   2  22
ATOM     22  O   UNL     1      19.847  33.949  37.358  1.00  0.00    -0.502 OA
ATOM     23  H   UNL     1      20.269  34.614  36.721  1.00  0.00     0.293 HD
ENDBRANCH   2  22
BRANCH   6  24
ATOM     24  O   UNL     1      18.337  29.318  35.202  1.00  0.00    -0.507 OA
ATOM     25  H   UNL     1      18.124  28.705  34.430  1.00  0.00     0.293 HD
ENDBRANCH   6  24
BRANCH   8  26
ATOM     26  O   UNL     1      21.543  26.364  37.211  1.00  0.00    -0.508 OA
ATOM     27  H   UNL     1      21.690  25.759  36.412  1.00  0.00     0.293 HD
ENDBRANCH   8  26
TORSDOF 6
ENDMDL
MODEL 9
REMARK VINA RESULT:    -5.963      3.098      5.208
REMARK INTER + INTRA:          -7.541
REMARK INTER:                  -7.066
REMARK INTRA:                  -0.475
REMARK UNBOUND:                -0.358
REMARK SMILES O=c1c(O)c(-c2ccc(O)cc2O)oc2cc(O)cc(O)c12
REMARK SMILES IDX 5 1 3 2 2 3 1 4 22 5 20 6 19 7 17 8 16 9 15 10 14 11 6 12
REMARK SMILES IDX 8 13 7 14 9 15 11 16 12 17 10 18 13 20 4 22 21 24 18 26
REMARK H PARENT 10 19 13 21 4 23 21 25 18 27
REMARK Flexibility Score: inf
ROOT
ATOM      1  C   UNL     1      21.404  32.048  38.178  1.00  0.00     0.184 A 
ATOM      2  C   UNL     1      22.254  30.969  38.477  1.00  0.00     0.208 A 
ATOM      3  C   UNL     1      21.944  29.697  37.973  1.00  0.00     0.238 A 
ATOM      4  O   UNL     1      22.668  28.723  38.306  1.00  0.00    -0.285 OA
ATOM      5  C   UNL     1      20.816  29.527  37.133  1.00  0.00     0.111 A 
ATOM      6  C   UNL     1      20.432  28.291  36.528  1.00  0.00     0.134 A 
ATOM      7  C   UNL     1      19.237  28.220  35.802  1.00  0.00     0.093 A 
ATOM      8  C   UNL     1      18.444  29.353  35.606  1.00  0.00     0.123 A 
ATOM      9  C   UNL     1      18.838  30.576  36.145  1.00  0.00     0.094 A 
ATOM     10  C   UNL     1      20.006  30.671  36.906  1.00  0.00     0.146 A 
ATOM     11  O   UNL     1      20.334  31.851  37.417  1.00  0.00    -0.451 OA
ENDROOT
BRANCH   1  12
ATOM     12  C   UNL     1      21.664  33.413  38.689  1.00  0.00     0.063 A 
ATOM     13  C   UNL     1      21.551  35.051  40.485  1.00  0.00     0.047 A 
ATOM     14  C   UNL     1      21.332  33.755  40.012  1.00  0.00     0.020 A 
ATOM     15  C   UNL     1      22.094  36.026  39.640  1.00  0.00     0.119 A 
ATOM     16  C   UNL     1      22.414  35.700  38.320  1.00  0.00     0.093 A 
ATOM     17  C   UNL     1      22.198  34.401  37.837  1.00  0.00     0.130 A 
BRANCH  15  18
ATOM     18  O   UNL     1      22.317  37.322  40.102  1.00  0.00    -0.508 OA
ATOM     19  H   UNL     1      23.246  37.648  40.341  1.00  0.00     0.293 HD
ENDBRANCH  15  18
BRANCH  17  20
ATOM     20  O   UNL     1      22.528  34.087  36.518  1.00  0.00    -0.507 OA
ATOM     21  H   UNL     1      23.410  33.649  36.280  1.00  0.00     0.293 HD
ENDBRANCH  17  20
ENDBRANCH   1  12
BRANCH   2  22
ATOM     22  O   UNL     1      23.398  31.173  39.254  1.00  0.00    -0.502 OA
ATOM     23  H   UNL     1      23.373  31.184  40.266  1.00  0.00     0.293 HD
ENDBRANCH   2  22
BRANCH   6  24
ATOM     24  O   UNL     1      21.195  27.121  36.587  1.00  0.00    -0.507 OA
ATOM     25  H   UNL     1      22.182  27.084  36.790  1.00  0.00     0.293 HD
ENDBRANCH   6  24
BRANCH   8  26
ATOM     26  O   UNL     1      17.265  29.277  34.869  1.00  0.00    -0.508 OA
ATOM     27  H   UNL     1      16.975  28.416  34.421  1.00  0.00     0.293 HD
ENDBRANCH   8  26
TORSDOF 6
ENDMDL
