MODEL 1
REMARK VINA RESULT:     0.000      0.000      0.000
REMARK INTER + INTRA:          -0.335
REMARK INTER:                   0.000
REMARK INTRA:                  -0.335
REMARK UNBOUND:                -0.335
REMARK SMILES O=c1c(O)c(-c2ccc(O)c(O)c2)oc2cc(O)cc(O)c12
REMARK SMILES IDX 5 1 3 2 2 3 1 4 22 5 20 6 19 7 17 8 16 9 15 10 14 11 6 12
REMARK SMILES IDX 7 13 8 14 9 15 13 16 11 17 10 18 12 20 4 22 21 24 18 26
REMARK H PARENT 10 19 12 21 4 23 21 25 18 27
REMARK Flexibility Score: inf
ROOT
ATOM      1  C   UNL     1      -5.151  -1.984  -6.560  1.00  0.00     0.180 A 
ATOM      2  C   UNL     1      -5.167  -1.095  -7.647  1.00  0.00     0.208 A 
ATOM      3  C   UNL     1      -6.073  -1.319  -8.697  1.00  0.00     0.238 A 
ATOM      4  O   UNL     1      -6.120  -0.489  -9.643  1.00  0.00    -0.285 OA
ATOM      5  C   UNL     1      -6.940  -2.437  -8.652  1.00  0.00     0.111 A 
ATOM      6  C   UNL     1      -7.869  -2.783  -9.678  1.00  0.00     0.134 A 
ATOM      7  C   UNL     1      -8.769  -3.836  -9.468  1.00  0.00     0.093 A 
ATOM      8  C   UNL     1      -8.729  -4.596  -8.301  1.00  0.00     0.123 A 
ATOM      9  C   UNL     1      -7.783  -4.304  -7.316  1.00  0.00     0.094 A 
ATOM     10  C   UNL     1      -6.898  -3.237  -7.480  1.00  0.00     0.146 A 
ATOM     11  O   UNL     1      -6.021  -2.986  -6.516  1.00  0.00    -0.452 OA
ENDROOT
BRANCH   1  12
ATOM     12  C   UNL     1      -4.208  -1.828  -5.429  1.00  0.00     0.025 A 
ATOM     13  C   UNL     1      -2.929  -2.412  -5.456  1.00  0.00     0.016 A 
ATOM     14  C   UNL     1      -2.064  -2.273  -4.367  1.00  0.00     0.051 A 
ATOM     15  C   UNL     1      -2.469  -1.559  -3.231  1.00  0.00     0.157 A 
ATOM     16  C   UNL     1      -4.615  -1.132  -4.278  1.00  0.00     0.062 A 
ATOM     17  C   UNL     1      -3.748  -0.991  -3.186  1.00  0.00     0.158 A 
BRANCH  15  18
ATOM     18  O   UNL     1      -1.609  -1.416  -2.144  1.00  0.00    -0.504 OA
ATOM     19  H   UNL     1      -1.774  -1.903  -1.271  1.00  0.00     0.293 HD
ENDBRANCH  15  18
BRANCH  17  20
ATOM     20  O   UNL     1      -4.150  -0.287  -2.051  1.00  0.00    -0.504 OA
ATOM     21  H   UNL     1      -5.002   0.263  -2.043  1.00  0.00     0.293 HD
ENDBRANCH  17  20
ENDBRANCH   1  12
BRANCH   2  22
ATOM     22  O   UNL     1      -4.318   0.015  -7.662  1.00  0.00    -0.502 OA
ATOM     23  H   UNL     1      -4.052   0.487  -8.518  1.00  0.00     0.293 HD
ENDBRANCH   2  22
BRANCH   6  24
ATOM     24  O   UNL     1      -7.933  -2.148 -10.921  1.00  0.00    -0.507 OA
ATOM     25  H   UNL     1      -7.599  -2.544 -11.787  1.00  0.00     0.293 HD
ENDBRANCH   6  24
BRANCH   8  26
ATOM     26  O   UNL     1      -9.628  -5.647  -8.133  1.00  0.00    -0.508 OA
ATOM     27  H   UNL     1      -9.466  -6.379  -7.451  1.00  0.00     0.293 HD
ENDBRANCH   8  26
TORSDOF 6
ENDMDL
MODEL 2
REMARK VINA RESULT:     0.000      6.180      8.277
REMARK INTER + INTRA:          -0.335
REMARK INTER:                   0.000
REMARK INTRA:                  -0.335
REMARK UNBOUND:                -0.335
REMARK SMILES O=c1c(O)c(-c2ccc(O)c(O)c2)oc2cc(O)cc(O)c12
REMARK SMILES IDX 5 1 3 2 2 3 1 4 22 5 20 6 19 7 17 8 16 9 15 10 14 11 6 12
REMARK SMILES IDX 7 13 8 14 9 15 13 16 11 17 10 18 12 20 4 22 21 24 18 26
REMARK H PARENT 10 19 12 21 4 23 21 25 18 27
REMARK Flexibility Score: inf
ROOT
ATOM      1  C   UNL     1      -4.440  -6.157 -12.233  1.00  0.00     0.180 A 
ATOM      2  C   UNL     1      -4.536  -5.147 -11.261  1.00  0.00     0.208 A 
ATOM      3  C   UNL     1      -5.237  -3.970 -11.569  1.00  0.00     0.238 A 
ATOM      4  O   UNL     1      -5.366  -3.091 -10.677  1.00  0.00    -0.285 OA
ATOM      5  C   UNL     1      -5.821  -3.812 -12.849  1.00  0.00     0.111 A 
ATOM      6  C   UNL     1      -6.520  -2.647 -13.283  1.00  0.00     0.134 A 
ATOM      7  C   UNL     1      -7.170  -2.652 -14.524  1.00  0.00     0.093 A 
ATOM      8  C   UNL     1      -7.090  -3.754 -15.374  1.00  0.00     0.123 A 
ATOM      9  C   UNL     1      -6.358  -4.877 -14.985  1.00  0.00     0.094 A 
ATOM     10  C   UNL     1      -5.731  -4.916 -13.737  1.00  0.00     0.146 A 
ATOM     11  O   UNL     1      -5.053  -6.007 -13.401  1.00  0.00    -0.452 OA
ENDROOT
BRANCH   1  12
ATOM     12  C   UNL     1      -3.696  -7.414 -11.992  1.00  0.00     0.025 A 
ATOM     13  C   UNL     1      -2.322  -7.518 -12.275  1.00  0.00     0.016 A 
ATOM     14  C   UNL     1      -1.645  -8.721 -12.063  1.00  0.00     0.051 A 
ATOM     15  C   UNL     1      -2.333  -9.842 -11.577  1.00  0.00     0.157 A 
ATOM     16  C   UNL     1      -4.384  -8.547 -11.526  1.00  0.00     0.062 A 
ATOM     17  C   UNL     1      -3.705  -9.755 -11.312  1.00  0.00     0.158 A 
BRANCH  15  18
ATOM     18  O   UNL     1      -1.661 -11.044 -11.362  1.00  0.00    -0.504 OA
ATOM     19  H   UNL     1      -0.650 -11.101 -11.407  1.00  0.00     0.293 HD
ENDBRANCH  15  18
BRANCH  17  20
ATOM     20  O   UNL     1      -4.387 -10.874 -10.836  1.00  0.00    -0.504 OA
ATOM     21  H   UNL     1      -5.008 -10.816 -10.036  1.00  0.00     0.293 HD
ENDBRANCH  17  20
ENDBRANCH   1  12
BRANCH   2  22
ATOM     22  O   UNL     1      -3.971  -5.331  -9.997  1.00  0.00    -0.502 OA
ATOM     23  H   UNL     1      -4.530  -5.504  -9.170  1.00  0.00     0.293 HD
ENDBRANCH   2  22
BRANCH   6  24
ATOM     24  O   UNL     1      -6.585  -1.457 -12.551  1.00  0.00    -0.507 OA
ATOM     25  H   UNL     1      -7.291  -1.244 -11.862  1.00  0.00     0.293 HD
ENDBRANCH   6  24
BRANCH   8  26
ATOM     26  O   UNL     1      -7.735  -3.719 -16.608  1.00  0.00    -0.508 OA
ATOM     27  H   UNL     1      -7.751  -2.878 -17.174  1.00  0.00     0.293 HD
ENDBRANCH   8  26
TORSDOF 6
ENDMDL
MODEL 3
REMARK VINA RESULT:     0.000      3.365      7.439
REMARK INTER + INTRA:          -0.335
REMARK INTER:                   0.000
REMARK INTRA:                  -0.335
REMARK UNBOUND:                -0.335
REMARK SMILES O=c1c(O)c(-c2ccc(O)c(O)c2)oc2cc(O)cc(O)c12
REMARK SMILES IDX 5 1 3 2 2 3 1 4 22 5 20 6 19 7 17 8 16 9 15 10 14 11 6 12
REMARK SMILES IDX 7 13 8 14 9 15 13 16 11 17 10 18 12 20 4 22 21 24 18 26
REMARK H PARENT 10 19 12 21 4 23 21 25 18 27
REMARK Flexibility Score: inf
ROOT
ATOM      1  C   UNL     1      -2.836  -2.443  -4.977  1.00  0.00     0.180 A 
ATOM      2  C   UNL     1      -3.170  -2.915  -3.696  1.00  0.00     0.208 A 
ATOM      3  C   UNL     1      -3.273  -1.998  -2.638  1.00  0.00     0.238 A 
ATOM      4  O   UNL     1      -3.626  -2.418  -1.505  1.00  0.00    -0.285 OA
ATOM      5  C   UNL     1      -3.025  -0.623  -2.870  1.00  0.00     0.111 A 
ATOM      6  C   UNL     1      -3.062   0.388  -1.865  1.00  0.00     0.134 A 
ATOM      7  C   UNL     1      -2.930   1.733  -2.232  1.00  0.00     0.093 A 
ATOM      8  C   UNL     1      -2.697   2.098  -3.557  1.00  0.00     0.123 A 
ATOM      9  C   UNL     1      -2.599   1.112  -4.540  1.00  0.00     0.094 A 
ATOM     10  C   UNL     1      -2.764  -0.235  -4.211  1.00  0.00     0.146 A 
ATOM     11  O   UNL     1      -2.674  -1.141  -5.177  1.00  0.00    -0.452 OA
ENDROOT
BRANCH   1  12
ATOM     12  C   UNL     1      -2.684  -3.352  -6.136  1.00  0.00     0.025 A 
ATOM     13  C   UNL     1      -1.451  -3.957  -6.436  1.00  0.00     0.016 A 
ATOM     14  C   UNL     1      -1.324  -4.791  -7.548  1.00  0.00     0.051 A 
ATOM     15  C   UNL     1      -2.424  -5.024  -8.386  1.00  0.00     0.157 A 
ATOM     16  C   UNL     1      -3.777  -3.571  -6.991  1.00  0.00     0.062 A 
ATOM     17  C   UNL     1      -3.651  -4.410  -8.108  1.00  0.00     0.158 A 
BRANCH  15  18
ATOM     18  O   UNL     1      -2.302  -5.857  -9.496  1.00  0.00    -0.504 OA
ATOM     19  H   UNL     1      -2.582  -5.551 -10.421  1.00  0.00     0.293 HD
ENDBRANCH  15  18
BRANCH  17  20
ATOM     20  O   UNL     1      -4.741  -4.637  -8.947  1.00  0.00    -0.504 OA
ATOM     21  H   UNL     1      -5.270  -5.501  -8.906  1.00  0.00     0.293 HD
ENDBRANCH  17  20
ENDBRANCH   1  12
BRANCH   2  22
ATOM     22  O   UNL     1      -3.432  -4.272  -3.492  1.00  0.00    -0.502 OA
ATOM     23  H   UNL     1      -4.321  -4.697  -3.726  1.00  0.00     0.293 HD
ENDBRANCH   2  22
BRANCH   6  24
ATOM     24  O   UNL     1      -3.199   0.126  -0.498  1.00  0.00    -0.507 OA
ATOM     25  H   UNL     1      -2.456  -0.201   0.101  1.00  0.00     0.293 HD
ENDBRANCH   6  24
BRANCH   8  26
ATOM     26  O   UNL     1      -2.554   3.445  -3.885  1.00  0.00    -0.508 OA
ATOM     27  H   UNL     1      -2.886   3.813  -4.769  1.00  0.00     0.293 HD
ENDBRANCH   8  26
TORSDOF 6
ENDMDL
MODEL 4
REMARK VINA RESULT:     0.000      8.508      9.850
REMARK INTER + INTRA:          -0.335
REMARK INTER:                   0.000
REMARK INTRA:                  -0.335
REMARK UNBOUND:                -0.335
REMARK SMILES O=c1c(O)c(-c2ccc(O)c(O)c2)oc2cc(O)cc(O)c12
REMARK SMILES IDX 5 1 3 2 2 3 1 4 22 5 20 6 19 7 17 8 16 9 15 10 14 11 6 12
REMARK SMILES IDX 7 13 8 14 9 15 13 16 11 17 10 18 12 20 4 22 21 24 18 26
REMARK H PARENT 10 19 12 21 4 23 21 25 18 27
REMARK Flexibility Score: inf
ROOT
ATOM      1  C   UNL     1       3.216   0.413  -5.509  1.00  0.00     0.180 A 
ATOM      2  C   UNL     1       4.205  -0.583  -5.465  1.00  0.00     0.208 A 
ATOM      3  C   UNL     1       4.400  -1.400  -6.591  1.00  0.00     0.238 A 
ATOM      4  O   UNL     1       5.324  -2.255  -6.565  1.00  0.00    -0.285 OA
ATOM      5  C   UNL     1       3.593  -1.220  -7.739  1.00  0.00     0.111 A 
ATOM      6  C   UNL     1       3.676  -2.016  -8.921  1.00  0.00     0.134 A 
ATOM      7  C   UNL     1       2.918  -1.665 -10.045  1.00  0.00     0.093 A 
ATOM      8  C   UNL     1       2.033  -0.588 -10.010  1.00  0.00     0.123 A 
ATOM      9  C   UNL     1       1.900   0.160  -8.840  1.00  0.00     0.094 A 
ATOM     10  C   UNL     1       2.669  -0.143  -7.714  1.00  0.00     0.146 A 
ATOM     11  O   UNL     1       2.519   0.600  -6.624  1.00  0.00    -0.452 OA
ENDROOT
BRANCH   1  12
ATOM     12  C   UNL     1       2.935   1.296  -4.354  1.00  0.00     0.025 A 
ATOM     13  C   UNL     1       2.007   0.931  -3.362  1.00  0.00     0.016 A 
ATOM     14  C   UNL     1       1.739   1.790  -2.294  1.00  0.00     0.051 A 
ATOM     15  C   UNL     1       2.384   3.031  -2.207  1.00  0.00     0.157 A 
ATOM     16  C   UNL     1       3.561   2.550  -4.273  1.00  0.00     0.062 A 
ATOM     17  C   UNL     1       3.294   3.413  -3.200  1.00  0.00     0.158 A 
BRANCH  15  18
ATOM     18  O   UNL     1       2.121   3.891  -1.143  1.00  0.00    -0.504 OA
ATOM     19  H   UNL     1       1.487   3.631  -0.396  1.00  0.00     0.293 HD
ENDBRANCH  15  18
BRANCH  17  20
ATOM     20  O   UNL     1       3.928   4.651  -3.115  1.00  0.00    -0.504 OA
ATOM     21  H   UNL     1       4.242   5.144  -3.944  1.00  0.00     0.293 HD
ENDBRANCH  17  20
ENDBRANCH   1  12
BRANCH   2  22
ATOM     22  O   UNL     1       5.006  -0.730  -4.329  1.00  0.00    -0.502 OA
ATOM     23  H   UNL     1       5.660  -0.018  -4.028  1.00  0.00     0.293 HD
ENDBRANCH   2  22
BRANCH   6  24
ATOM     24  O   UNL     1       4.461  -3.167  -9.033  1.00  0.00    -0.507 OA
ATOM     25  H   UNL     1       4.738  -3.752  -8.259  1.00  0.00     0.293 HD
ENDBRANCH   6  24
BRANCH   8  26
ATOM     26  O   UNL     1       1.283  -0.277 -11.142  1.00  0.00    -0.508 OA
ATOM     27  H   UNL     1       1.718   0.085 -11.982  1.00  0.00     0.293 HD
ENDBRANCH   8  26
TORSDOF 6
ENDMDL
MODEL 5
REMARK VINA RESULT:     0.000      3.537      7.664
REMARK INTER + INTRA:          -0.335
REMARK INTER:                   0.000
REMARK INTRA:                  -0.335
REMARK UNBOUND:                -0.335
REMARK SMILES O=c1c(O)c(-c2ccc(O)c(O)c2)oc2cc(O)cc(O)c12
REMARK SMILES IDX 5 1 3 2 2 3 1 4 22 5 20 6 19 7 17 8 16 9 15 10 14 11 6 12
REMARK SMILES IDX 7 13 8 14 9 15 13 16 11 17 10 18 12 20 4 22 21 24 18 26
REMARK H PARENT 10 19 12 21 4 23 21 25 18 27
REMARK Flexibility Score: inf
ROOT
ATOM      1  C   UNL     1      -2.214  -0.146  -6.591  1.00  0.00     0.180 A 
ATOM      2  C   UNL     1      -1.285   0.881  -6.831  1.00  0.00     0.208 A 
ATOM      3  C   UNL     1      -0.888   1.703  -5.763  1.00  0.00     0.238 A 
ATOM      4  O   UNL     1      -0.015   2.586  -5.972  1.00  0.00    -0.285 OA
ATOM      5  C   UNL     1      -1.435   1.497  -4.474  1.00  0.00     0.111 A 
ATOM      6  C   UNL     1      -1.135   2.293  -3.329  1.00  0.00     0.134 A 
ATOM      7  C   UNL     1      -1.634   1.918  -2.076  1.00  0.00     0.093 A 
ATOM      8  C   UNL     1      -2.475   0.814  -1.936  1.00  0.00     0.123 A 
ATOM      9  C   UNL     1      -2.824   0.063  -3.059  1.00  0.00     0.094 A 
ATOM     10  C   UNL     1      -2.312   0.391  -4.317  1.00  0.00     0.146 A 
ATOM     11  O   UNL     1      -2.660  -0.356  -5.358  1.00  0.00    -0.452 OA
ENDROOT
BRANCH   1  12
ATOM     12  C   UNL     1      -2.699  -1.036  -7.670  1.00  0.00     0.025 A 
ATOM     13  C   UNL     1      -3.822  -0.700  -8.447  1.00  0.00     0.016 A 
ATOM     14  C   UNL     1      -4.278  -1.565  -9.443  1.00  0.00     0.051 A 
ATOM     15  C   UNL     1      -3.628  -2.786  -9.670  1.00  0.00     0.157 A 
ATOM     16  C   UNL     1      -2.065  -2.270  -7.887  1.00  0.00     0.062 A 
ATOM     17  C   UNL     1      -2.521  -3.140  -8.888  1.00  0.00     0.158 A 
BRANCH  15  18
ATOM     18  O   UNL     1      -4.078  -3.652 -10.664  1.00  0.00    -0.504 OA
ATOM     19  H   UNL     1      -4.758  -4.377 -10.467  1.00  0.00     0.293 HD
ENDBRANCH  15  18
BRANCH  17  20
ATOM     20  O   UNL     1      -1.881  -4.358  -9.111  1.00  0.00    -0.504 OA
ATOM     21  H   UNL     1      -1.019  -4.414  -9.643  1.00  0.00     0.293 HD
ENDBRANCH  17  20
ENDBRANCH   1  12
BRANCH   2  22
ATOM     22  O   UNL     1      -0.740   1.054  -8.105  1.00  0.00    -0.502 OA
ATOM     23  H   UNL     1       0.255   1.150  -8.264  1.00  0.00     0.293 HD
ENDBRANCH   2  22
BRANCH   6  24
ATOM     24  O   UNL     1      -0.379   3.469  -3.372  1.00  0.00    -0.507 OA
ATOM     25  H   UNL     1       0.515   3.561  -3.831  1.00  0.00     0.293 HD
ENDBRANCH   6  24
BRANCH   8  26
ATOM     26  O   UNL     1      -2.966   0.479  -0.676  1.00  0.00    -0.508 OA
ATOM     27  H   UNL     1      -2.462   0.719   0.170  1.00  0.00     0.293 HD
ENDBRANCH   8  26
TORSDOF 6
ENDMDL
MODEL 6
REMARK VINA RESULT:     0.000      3.878      5.684
REMARK INTER + INTRA:          -0.335
REMARK INTER:                   0.000
REMARK INTRA:                  -0.335
REMARK UNBOUND:                -0.335
REMARK SMILES O=c1c(O)c(-c2ccc(O)c(O)c2)oc2cc(O)cc(O)c12
REMARK SMILES IDX 5 1 3 2 2 3 1 4 22 5 20 6 19 7 17 8 16 9 15 10 14 11 6 12
REMARK SMILES IDX 7 13 8 14 9 15 13 16 11 17 10 18 12 20 4 22 21 24 18 26
REMARK H PARENT 10 19 12 21 4 23 21 25 18 27
REMARK Flexibility Score: inf
ROOT
ATOM      1  C   UNL     1      -2.979  -4.547  -4.263  1.00  0.00     0.180 A 
ATOM      2  C   UNL     1      -1.616  -4.207  -4.260  1.00  0.00     0.208 A 
ATOM      3  C   UNL     1      -1.011  -3.807  -5.462  1.00  0.00     0.238 A 
ATOM      4  O   UNL     1       0.196  -3.451  -5.443  1.00  0.00    -0.285 OA
ATOM      5  C   UNL     1      -1.773  -3.766  -6.655  1.00  0.00     0.111 A 
ATOM      6  C   UNL     1      -1.255  -3.414  -7.936  1.00  0.00     0.134 A 
ATOM      7  C   UNL     1      -2.129  -3.281  -9.023  1.00  0.00     0.093 A 
ATOM      8  C   UNL     1      -3.490  -3.550  -8.889  1.00  0.00     0.123 A 
ATOM      9  C   UNL     1      -3.998  -3.954  -7.654  1.00  0.00     0.094 A 
ATOM     10  C   UNL     1      -3.158  -4.060  -6.543  1.00  0.00     0.146 A 
ATOM     11  O   UNL     1      -3.683  -4.437  -5.384  1.00  0.00    -0.452 OA
ENDROOT
BRANCH   1  12
ATOM     12  C   UNL     1      -3.680  -5.002  -3.041  1.00  0.00     0.025 A 
ATOM     13  C   UNL     1      -3.717  -6.362  -2.681  1.00  0.00     0.016 A 
ATOM     14  C   UNL     1      -4.405  -6.772  -1.537  1.00  0.00     0.051 A 
ATOM     15  C   UNL     1      -5.077  -5.834  -0.742  1.00  0.00     0.157 A 
ATOM     16  C   UNL     1      -4.375  -4.070  -2.253  1.00  0.00     0.062 A 
ATOM     17  C   UNL     1      -5.064  -4.481  -1.103  1.00  0.00     0.158 A 
BRANCH  15  18
ATOM     18  O   UNL     1      -5.764  -6.238   0.401  1.00  0.00    -0.504 OA
ATOM     19  H   UNL     1      -6.492  -6.942   0.360  1.00  0.00     0.293 HD
ENDBRANCH  15  18
BRANCH  17  20
ATOM     20  O   UNL     1      -5.740  -3.550  -0.315  1.00  0.00    -0.504 OA
ATOM     21  H   UNL     1      -6.612  -3.782   0.148  1.00  0.00     0.293 HD
ENDBRANCH  17  20
ENDBRANCH   1  12
BRANCH   2  22
ATOM     22  O   UNL     1      -0.887  -4.233  -3.068  1.00  0.00    -0.502 OA
ATOM     23  H   UNL     1      -0.920  -3.479  -2.393  1.00  0.00     0.293 HD
ENDBRANCH   2  22
BRANCH   6  24
ATOM     24  O   UNL     1       0.103  -3.212  -8.201  1.00  0.00    -0.507 OA
ATOM     25  H   UNL     1       0.474  -2.461  -8.764  1.00  0.00     0.293 HD
ENDBRANCH   6  24
BRANCH   8  26
ATOM     26  O   UNL     1      -4.328  -3.423  -9.995  1.00  0.00    -0.508 OA
ATOM     27  H   UNL     1      -4.900  -4.194 -10.318  1.00  0.00     0.293 HD
ENDBRANCH   8  26
TORSDOF 6
ENDMDL
MODEL 7
REMARK VINA RESULT:     0.000      3.793      5.724
REMARK INTER + INTRA:          -0.335
REMARK INTER:                   0.000
REMARK INTRA:                  -0.335
REMARK UNBOUND:                -0.335
REMARK SMILES O=c1c(O)c(-c2ccc(O)c(O)c2)oc2cc(O)cc(O)c12
REMARK SMILES IDX 5 1 3 2 2 3 1 4 22 5 20 6 19 7 17 8 16 9 15 10 14 11 6 12
REMARK SMILES IDX 7 13 8 14 9 15 13 16 11 17 10 18 12 20 4 22 21 24 18 26
REMARK H PARENT 10 19 12 21 4 23 21 25 18 27
REMARK Flexibility Score: inf
ROOT
ATOM      1  C   UNL     1      -5.414  -3.243  -3.261  1.00  0.00     0.180 A 
ATOM      2  C   UNL     1      -5.553  -2.295  -2.234  1.00  0.00     0.208 A 
ATOM      3  C   UNL     1      -6.022  -1.010  -2.553  1.00  0.00     0.238 A 
ATOM      4  O   UNL     1      -6.196  -0.181  -1.621  1.00  0.00    -0.285 OA
ATOM      5  C   UNL     1      -6.332  -0.686  -3.896  1.00  0.00     0.111 A 
ATOM      6  C   UNL     1      -6.777   0.596  -4.338  1.00  0.00     0.134 A 
ATOM      7  C   UNL     1      -7.178   0.765  -5.669  1.00  0.00     0.093 A 
ATOM      8  C   UNL     1      -7.090  -0.280  -6.588  1.00  0.00     0.123 A 
ATOM      9  C   UNL     1      -6.599  -1.521  -6.179  1.00  0.00     0.094 A 
ATOM     10  C   UNL     1      -6.226  -1.732  -4.850  1.00  0.00     0.146 A 
ATOM     11  O   UNL     1      -5.774  -2.930  -4.500  1.00  0.00    -0.452 OA
ENDROOT
BRANCH   1  12
ATOM     12  C   UNL     1      -4.902  -4.609  -3.007  1.00  0.00     0.025 A 
ATOM     13  C   UNL     1      -3.526  -4.896  -3.054  1.00  0.00     0.016 A 
ATOM     14  C   UNL     1      -3.067  -6.197  -2.835  1.00  0.00     0.051 A 
ATOM     15  C   UNL     1      -3.976  -7.233  -2.580  1.00  0.00     0.157 A 
ATOM     16  C   UNL     1      -5.809  -5.656  -2.773  1.00  0.00     0.062 A 
ATOM     17  C   UNL     1      -5.349  -6.962  -2.552  1.00  0.00     0.158 A 
BRANCH  15  18
ATOM     18  O   UNL     1      -3.522  -8.532  -2.360  1.00  0.00    -0.504 OA
ATOM     19  H   UNL     1      -2.692  -8.889  -2.821  1.00  0.00     0.293 HD
ENDBRANCH  15  18
BRANCH  17  20
ATOM     20  O   UNL     1      -6.251  -7.996  -2.306  1.00  0.00    -0.504 OA
ATOM     21  H   UNL     1      -7.128  -7.831  -1.823  1.00  0.00     0.293 HD
ENDBRANCH  17  20
ENDBRANCH   1  12
BRANCH   2  22
ATOM     22  O   UNL     1      -5.263  -2.641  -0.912  1.00  0.00    -0.502 OA
ATOM     23  H   UNL     1      -5.851  -2.365  -0.135  1.00  0.00     0.293 HD
ENDBRANCH   2  22
BRANCH   6  24
ATOM     24  O   UNL     1      -6.817   1.732  -3.525  1.00  0.00    -0.507 OA
ATOM     25  H   UNL     1      -6.072   2.027  -2.912  1.00  0.00     0.293 HD
ENDBRANCH   6  24
BRANCH   8  26
ATOM     26  O   UNL     1      -7.483  -0.070  -7.908  1.00  0.00    -0.508 OA
ATOM     27  H   UNL     1      -6.938  -0.425  -8.685  1.00  0.00     0.293 HD
ENDBRANCH   8  26
TORSDOF 6
ENDMDL
MODEL 8
REMARK VINA RESULT:     0.000      6.364      8.198
REMARK INTER + INTRA:          -0.335
REMARK INTER:                   0.000
REMARK INTRA:                  -0.335
REMARK UNBOUND:                -0.335
REMARK SMILES O=c1c(O)c(-c2ccc(O)c(O)c2)oc2cc(O)cc(O)c12
REMARK SMILES IDX 5 1 3 2 2 3 1 4 22 5 20 6 19 7 17 8 16 9 15 10 14 11 6 12
REMARK SMILES IDX 7 13 8 14 9 15 13 16 11 17 10 18 12 20 4 22 21 24 18 26
REMARK H PARENT 10 19 12 21 4 23 21 25 18 27
REMARK Flexibility Score: inf
ROOT
ATOM      1  C   UNL     1       0.419  -3.639  -8.899  1.00  0.00     0.180 A 
ATOM      2  C   UNL     1      -0.884  -3.496  -9.405  1.00  0.00     0.208 A 
ATOM      3  C   UNL     1      -1.087  -2.708 -10.549  1.00  0.00     0.238 A 
ATOM      4  O   UNL     1      -2.248  -2.627 -11.030  1.00  0.00    -0.285 OA
ATOM      5  C   UNL     1       0.012  -2.060 -11.163  1.00  0.00     0.111 A 
ATOM      6  C   UNL     1      -0.084  -1.207 -12.302  1.00  0.00     0.134 A 
ATOM      7  C   UNL     1       1.086  -0.725 -12.904  1.00  0.00     0.093 A 
ATOM      8  C   UNL     1       2.341  -1.011 -12.371  1.00  0.00     0.123 A 
ATOM      9  C   UNL     1       2.443  -1.796 -11.222  1.00  0.00     0.094 A 
ATOM     10  C   UNL     1       1.297  -2.322 -10.620  1.00  0.00     0.146 A 
ATOM     11  O   UNL     1       1.438  -3.073  -9.534  1.00  0.00    -0.452 OA
ENDROOT
BRANCH   1  12
ATOM     12  C   UNL     1       0.709  -4.433  -7.683  1.00  0.00     0.025 A 
ATOM     13  C   UNL     1       0.667  -3.852  -6.402  1.00  0.00     0.016 A 
ATOM     14  C   UNL     1       0.968  -4.613  -5.270  1.00  0.00     0.051 A 
ATOM     15  C   UNL     1       1.328  -5.961  -5.401  1.00  0.00     0.157 A 
ATOM     16  C   UNL     1       1.092  -5.778  -7.809  1.00  0.00     0.062 A 
ATOM     17  C   UNL     1       1.393  -6.543  -6.673  1.00  0.00     0.158 A 
BRANCH  15  18
ATOM     18  O   UNL     1       1.627  -6.725  -4.275  1.00  0.00    -0.504 OA
ATOM     19  H   UNL     1       2.547  -7.127  -4.137  1.00  0.00     0.293 HD
ENDBRANCH  15  18
BRANCH  17  20
ATOM     20  O   UNL     1       1.758  -7.883  -6.801  1.00  0.00    -0.504 OA
ATOM     21  H   UNL     1       2.138  -8.405  -6.019  1.00  0.00     0.293 HD
ENDBRANCH  17  20
ENDBRANCH   1  12
BRANCH   2  22
ATOM     22  O   UNL     1      -1.952  -4.161  -8.797  1.00  0.00    -0.502 OA
ATOM     23  H   UNL     1      -2.908  -4.059  -9.113  1.00  0.00     0.293 HD
ENDBRANCH   2  22
BRANCH   6  24
ATOM     24  O   UNL     1      -1.293  -0.783 -12.861  1.00  0.00    -0.507 OA
ATOM     25  H   UNL     1      -2.167  -1.280 -12.785  1.00  0.00     0.293 HD
ENDBRANCH   6  24
BRANCH   8  26
ATOM     26  O   UNL     1       3.483  -0.502 -12.987  1.00  0.00    -0.508 OA
ATOM     27  H   UNL     1       4.266  -1.098 -13.226  1.00  0.00     0.293 HD
ENDBRANCH   8  26
TORSDOF 6
ENDMDL
MODEL 9
REMARK VINA RESULT:     0.000      4.441      7.795
REMARK INTER + INTRA:          -0.335
REMARK INTER:                   0.000
REMARK INTRA:                  -0.335
REMARK UNBOUND:                -0.335
REMARK SMILES O=c1c(O)c(-c2ccc(O)c(O)c2)oc2cc(O)cc(O)c12
REMARK SMILES IDX 5 1 3 2 2 3 1 4 22 5 20 6 19 7 17 8 16 9 15 10 14 11 6 12
REMARK SMILES IDX 7 13 8 14 9 15 13 16 11 17 10 18 12 20 4 22 21 24 18 26
REMARK H PARENT 10 19 12 21 4 23 21 25 18 27
REMARK Flexibility Score: inf
ROOT
ATOM      1  C   UNL     1      -6.143  -6.982  -9.416  1.00  0.00     0.180 A 
ATOM      2  C   UNL     1      -5.060  -6.564 -10.208  1.00  0.00     0.208 A 
ATOM      3  C   UNL     1      -4.594  -5.244 -10.083  1.00  0.00     0.238 A 
ATOM      4  O   UNL     1      -3.590  -4.891 -10.755  1.00  0.00    -0.285 OA
ATOM      5  C   UNL     1      -5.227  -4.356  -9.180  1.00  0.00     0.111 A 
ATOM      6  C   UNL     1      -4.864  -2.988  -9.002  1.00  0.00     0.134 A 
ATOM      7  C   UNL     1      -5.473  -2.239  -7.987  1.00  0.00     0.093 A 
ATOM      8  C   UNL     1      -6.476  -2.787  -7.189  1.00  0.00     0.123 A 
ATOM      9  C   UNL     1      -6.880  -4.107  -7.395  1.00  0.00     0.094 A 
ATOM     10  C   UNL     1      -6.266  -4.891  -8.374  1.00  0.00     0.146 A 
ATOM     11  O   UNL     1      -6.673  -6.145  -8.531  1.00  0.00    -0.452 OA
ENDROOT
BRANCH   1  12
ATOM     12  C   UNL     1      -6.706  -8.348  -9.509  1.00  0.00     0.025 A 
ATOM     13  C   UNL     1      -7.727  -8.658 -10.424  1.00  0.00     0.016 A 
ATOM     14  C   UNL     1      -8.261  -9.948 -10.478  1.00  0.00     0.051 A 
ATOM     15  C   UNL     1      -7.791 -10.943  -9.610  1.00  0.00     0.157 A 
ATOM     16  C   UNL     1      -6.255  -9.344  -8.627  1.00  0.00     0.062 A 
ATOM     17  C   UNL     1      -6.789 -10.639  -8.681  1.00  0.00     0.158 A 
BRANCH  15  18
ATOM     18  O   UNL     1      -8.319 -12.231  -9.661  1.00  0.00    -0.504 OA
ATOM     19  H   UNL     1      -8.639 -12.639 -10.533  1.00  0.00     0.293 HD
ENDBRANCH  15  18
BRANCH  17  20
ATOM     20  O   UNL     1      -6.329 -11.629  -7.813  1.00  0.00    -0.504 OA
ATOM     21  H   UNL     1      -6.791 -11.816  -6.930  1.00  0.00     0.293 HD
ENDBRANCH  17  20
ENDBRANCH   1  12
BRANCH   2  22
ATOM     22  O   UNL     1      -4.436  -7.462 -11.077  1.00  0.00    -0.502 OA
ATOM     23  H   UNL     1      -4.697  -8.439 -11.131  1.00  0.00     0.293 HD
ENDBRANCH   2  22
BRANCH   6  24
ATOM     24  O   UNL     1      -3.940  -2.314  -9.804  1.00  0.00    -0.507 OA
ATOM     25  H   UNL     1      -3.236  -1.678  -9.461  1.00  0.00     0.293 HD
ENDBRANCH   6  24
BRANCH   8  26
ATOM     26  O   UNL     1      -7.071  -2.008  -6.199  1.00  0.00    -0.508 OA
ATOM     27  H   UNL     1      -7.547  -1.142  -6.422  1.00  0.00     0.293 HD
ENDBRANCH   8  26
TORSDOF 6
ENDMDL
