MODEL 1
REMARK VINA RESULT:    -5.644      0.000      0.000
REMARK INTER + INTRA:          -9.873
REMARK INTER:                  -8.943
REMARK INTRA:                  -0.929
REMARK UNBOUND:                -0.929
REMARK SMILES CCCCCCCCCCCC(=O)[O-]
REMARK SMILES IDX 7 1 8 2 9 3 10 4 11 5 12 6 13 7 14 8 6 9 5 10 4 11 3 12 2 13
REMARK SMILES IDX 1 14
REMARK H PARENT
REMARK Flexibility Score: inf
ROOT
ATOM      1  C   UNL     1     -13.968  -0.172 -11.043  1.00  0.00     0.000 C 
ENDROOT
BRANCH   1   2
ATOM      2  C   UNL     1     -12.734  -1.091 -11.017  1.00  0.00     0.000 C 
BRANCH   2   3
ATOM      3  C   UNL     1     -11.388  -0.375 -10.790  1.00  0.00     0.000 C 
BRANCH   3   4
ATOM      4  C   UNL     1     -10.429  -1.070  -9.804  1.00  0.00     0.006 C 
BRANCH   4   5
ATOM      5  C   UNL     1     -10.697  -2.576  -9.625  1.00  0.00     0.053 C 
BRANCH   5   6
ATOM      6  C   UNL     1      -9.721  -3.230  -8.695  1.00  0.00     0.041 C 
ATOM      7  O   UNL     1      -8.498  -3.281  -8.992  1.00  0.00    -0.550 OA
ATOM      8  O   UNL     1     -10.154  -3.751  -7.482  1.00  0.00    -0.550 OA
ENDBRANCH   5   6
ENDBRANCH   4   5
ENDBRANCH   3   4
ENDBRANCH   2   3
ENDBRANCH   1   2
BRANCH   1   9
ATOM      9  C   UNL     1     -14.732  -0.158  -9.711  1.00  0.00     0.000 C 
BRANCH   9  10
ATOM     10  C   UNL     1     -14.766   1.252  -9.111  1.00  0.00    -0.000 C 
BRANCH  10  11
ATOM     11  C   UNL     1     -14.023   2.252 -10.010  1.00  0.00    -0.000 C 
BRANCH  11  12
ATOM     12  C   UNL     1     -13.130   3.216  -9.215  1.00  0.00    -0.000 C 
BRANCH  12  13
ATOM     13  C   UNL     1     -11.719   2.658  -8.979  1.00  0.00    -0.003 C 
ATOM     14  C   UNL     1     -10.816   3.705  -8.334  1.00  0.00     0.004 C 
ENDBRANCH  12  13
ENDBRANCH  11  12
ENDBRANCH  10  11
ENDBRANCH   9  10
ENDBRANCH   1   9
TORSDOF 10
ENDMDL
MODEL 2
REMARK VINA RESULT:    -5.619      1.072      1.662
REMARK INTER + INTRA:          -9.834
REMARK INTER:                  -9.153
REMARK INTRA:                  -0.681
REMARK UNBOUND:                -0.929
REMARK SMILES CCCCCCCCCCCC(=O)[O-]
REMARK SMILES IDX 7 1 8 2 9 3 10 4 11 5 12 6 13 7 14 8 6 9 5 10 4 11 3 12 2 13
REMARK SMILES IDX 1 14
REMARK H PARENT
REMARK Flexibility Score: inf
ROOT
ATOM      1  C   UNL     1     -11.928   0.869 -10.020  1.00  0.00     0.000 C 
ENDROOT
BRANCH   1   2
ATOM      2  C   UNL     1     -11.312  -0.304 -10.804  1.00  0.00     0.000 C 
BRANCH   2   3
ATOM      3  C   UNL     1     -12.150  -1.597 -10.814  1.00  0.00     0.000 C 
BRANCH   3   4
ATOM      4  C   UNL     1     -11.544  -2.783 -10.038  1.00  0.00     0.006 C 
BRANCH   4   5
ATOM      5  C   UNL     1     -10.303  -2.417  -9.204  1.00  0.00     0.053 C 
BRANCH   5   6
ATOM      6  C   UNL     1      -9.715  -3.599  -8.494  1.00  0.00     0.041 C 
ATOM      7  O   UNL     1     -10.081  -3.881  -7.323  1.00  0.00    -0.550 OA
ATOM      8  O   UNL     1      -8.791  -4.412  -9.139  1.00  0.00    -0.550 OA
ENDBRANCH   5   6
ENDBRANCH   4   5
ENDBRANCH   3   4
ENDBRANCH   2   3
ENDBRANCH   1   2
BRANCH   1   9
ATOM      9  C   UNL     1     -13.462   0.883 -10.070  1.00  0.00     0.000 C 
BRANCH   9  10
ATOM     10  C   UNL     1     -14.005   2.307  -9.905  1.00  0.00    -0.000 C 
BRANCH  10  11
ATOM     11  C   UNL     1     -13.770   2.825  -8.478  1.00  0.00    -0.000 C 
BRANCH  11  12
ATOM     12  C   UNL     1     -13.143   4.228  -8.452  1.00  0.00    -0.000 C 
BRANCH  12  13
ATOM     13  C   UNL     1     -11.779   4.279  -9.157  1.00  0.00    -0.003 C 
ATOM     14  C   UNL     1     -10.672   3.753  -8.249  1.00  0.00     0.004 C 
ENDBRANCH  12  13
ENDBRANCH  11  12
ENDBRANCH  10  11
ENDBRANCH   9  10
ENDBRANCH   1   9
TORSDOF 10
ENDMDL
MODEL 3
REMARK VINA RESULT:    -5.444      3.234      5.697
REMARK INTER + INTRA:          -9.555
REMARK INTER:                  -8.721
REMARK INTRA:                  -0.834
REMARK UNBOUND:                -0.929
REMARK SMILES CCCCCCCCCCCC(=O)[O-]
REMARK SMILES IDX 7 1 8 2 9 3 10 4 11 5 12 6 13 7 14 8 6 9 5 10 4 11 3 12 2 13
REMARK SMILES IDX 1 14
REMARK H PARENT
REMARK Flexibility Score: inf
ROOT
ATOM      1  C   UNL     1     -14.004  -0.241 -11.124  1.00  0.00     0.000 C 
ENDROOT
BRANCH   1   2
ATOM      2  C   UNL     1     -14.813  -0.093  -9.822  1.00  0.00     0.000 C 
BRANCH   2   3
ATOM      3  C   UNL     1     -14.679   1.270  -9.117  1.00  0.00     0.000 C 
BRANCH   3   4
ATOM      4  C   UNL     1     -13.783   2.298  -9.834  1.00  0.00     0.006 C 
BRANCH   4   5
ATOM      5  C   UNL     1     -12.372   2.429  -9.230  1.00  0.00     0.053 C 
BRANCH   5   6
ATOM      6  C   UNL     1     -12.079   3.814  -8.740  1.00  0.00     0.041 C 
ATOM      7  O   UNL     1     -10.899   4.254  -8.750  1.00  0.00    -0.550 OA
ATOM      8  O   UNL     1     -13.113   4.635  -8.306  1.00  0.00    -0.550 OA
ENDBRANCH   5   6
ENDBRANCH   4   5
ENDBRANCH   3   4
ENDBRANCH   2   3
ENDBRANCH   1   2
BRANCH   1   9
ATOM      9  C   UNL     1     -12.884  -1.285 -11.016  1.00  0.00     0.000 C 
BRANCH   9  10
ATOM     10  C   UNL     1     -11.504  -0.625 -11.125  1.00  0.00    -0.000 C 
BRANCH  10  11
ATOM     11  C   UNL     1     -10.595  -1.054  -9.963  1.00  0.00    -0.000 C 
BRANCH  11  12
ATOM     12  C   UNL     1     -10.708  -2.553  -9.644  1.00  0.00    -0.000 C 
BRANCH  12  13
ATOM     13  C   UNL     1      -9.932  -2.949  -8.380  1.00  0.00    -0.003 C 
ATOM     14  C   UNL     1      -8.746  -3.847  -8.723  1.00  0.00     0.004 C 
ENDBRANCH  12  13
ENDBRANCH  11  12
ENDBRANCH  10  11
ENDBRANCH   9  10
ENDBRANCH   1   9
TORSDOF 10
ENDMDL
MODEL 4
REMARK VINA RESULT:    -5.088      1.007      2.733
REMARK INTER + INTRA:          -8.992
REMARK INTER:                  -8.012
REMARK INTRA:                  -0.980
REMARK UNBOUND:                -0.929
REMARK SMILES CCCCCCCCCCCC(=O)[O-]
REMARK SMILES IDX 7 1 8 2 9 3 10 4 11 5 12 6 13 7 14 8 6 9 5 10 4 11 3 12 2 13
REMARK SMILES IDX 1 14
REMARK H PARENT
REMARK Flexibility Score: inf
ROOT
ATOM      1  C   UNL     1     -11.127   0.664  -9.460  1.00  0.00     0.000 C 
ENDROOT
BRANCH   1   2
ATOM      2  C   UNL     1     -10.836  -0.272 -10.647  1.00  0.00     0.000 C 
BRANCH   2   3
ATOM      3  C   UNL     1     -11.885  -1.374 -10.886  1.00  0.00     0.000 C 
BRANCH   3   4
ATOM      4  C   UNL     1     -11.741  -2.627 -10.001  1.00  0.00     0.006 C 
BRANCH   4   5
ATOM      5  C   UNL     1     -10.321  -3.221  -9.981  1.00  0.00     0.053 C 
BRANCH   5   6
ATOM      6  C   UNL     1      -9.699  -3.185  -8.618  1.00  0.00     0.041 C 
ATOM      7  O   UNL     1      -9.794  -2.152  -7.904  1.00  0.00    -0.550 OA
ATOM      8  O   UNL     1      -9.045  -4.305  -8.119  1.00  0.00    -0.550 OA
ENDBRANCH   5   6
ENDBRANCH   4   5
ENDBRANCH   3   4
ENDBRANCH   2   3
ENDBRANCH   1   2
BRANCH   1   9
ATOM      9  C   UNL     1     -11.631   2.047  -9.899  1.00  0.00     0.000 C 
BRANCH   9  10
ATOM     10  C   UNL     1     -11.890   2.948  -8.685  1.00  0.00    -0.000 C 
BRANCH  10  11
ATOM     11  C   UNL     1     -13.382   3.292  -8.563  1.00  0.00    -0.000 C 
BRANCH  11  12
ATOM     12  C   UNL     1     -14.257   2.491  -9.540  1.00  0.00    -0.000 C 
BRANCH  12  13
ATOM     13  C   UNL     1     -15.124   1.440  -8.830  1.00  0.00    -0.003 C 
ATOM     14  C   UNL     1     -15.023   0.085  -9.525  1.00  0.00     0.004 C 
ENDBRANCH  12  13
ENDBRANCH  11  12
ENDBRANCH  10  11
ENDBRANCH   9  10
ENDBRANCH   1   9
TORSDOF 10
ENDMDL
MODEL 5
REMARK VINA RESULT:    -4.806      1.525      2.224
REMARK INTER + INTRA:          -8.544
REMARK INTER:                  -7.952
REMARK INTRA:                  -0.593
REMARK UNBOUND:                -0.929
REMARK SMILES CCCCCCCCCCCC(=O)[O-]
REMARK SMILES IDX 7 1 8 2 9 3 10 4 11 5 12 6 13 7 14 8 6 9 5 10 4 11 3 12 2 13
REMARK SMILES IDX 1 14
REMARK H PARENT
REMARK Flexibility Score: inf
ROOT
ATOM      1  C   UNL     1     -14.184  -0.032 -10.197  1.00  0.00     0.000 C 
ENDROOT
BRANCH   1   2
ATOM      2  C   UNL     1     -14.964  -1.348 -10.020  1.00  0.00     0.000 C 
BRANCH   2   3
ATOM      3  C   UNL     1     -14.231  -2.614 -10.502  1.00  0.00     0.000 C 
BRANCH   3   4
ATOM      4  C   UNL     1     -12.770  -2.403 -10.945  1.00  0.00     0.006 C 
BRANCH   4   5
ATOM      5  C   UNL     1     -11.731  -3.031  -9.999  1.00  0.00     0.053 C 
BRANCH   5   6
ATOM      6  C   UNL     1     -10.518  -2.170  -9.819  1.00  0.00     0.041 C 
ATOM      7  O   UNL     1     -10.637  -0.921  -9.706  1.00  0.00    -0.550 OA
ATOM      8  O   UNL     1      -9.257  -2.748  -9.738  1.00  0.00    -0.550 OA
ENDBRANCH   5   6
ENDBRANCH   4   5
ENDBRANCH   3   4
ENDBRANCH   2   3
ENDBRANCH   1   2
BRANCH   1   9
ATOM      9  C   UNL     1     -14.791   1.134  -9.404  1.00  0.00     0.000 C 
BRANCH   9  10
ATOM     10  C   UNL     1     -14.007   2.430  -9.645  1.00  0.00    -0.000 C 
BRANCH  10  11
ATOM     11  C   UNL     1     -12.494   2.167  -9.645  1.00  0.00    -0.000 C 
BRANCH  11  12
ATOM     12  C   UNL     1     -11.684   3.365  -9.126  1.00  0.00    -0.000 C 
BRANCH  12  13
ATOM     13  C   UNL     1     -12.575   4.525  -8.661  1.00  0.00    -0.003 C 
ATOM     14  C   UNL     1     -12.733   4.521  -7.143  1.00  0.00     0.004 C 
ENDBRANCH  12  13
ENDBRANCH  11  12
ENDBRANCH  10  11
ENDBRANCH   9  10
ENDBRANCH   1   9
TORSDOF 10
ENDMDL
MODEL 6
REMARK VINA RESULT:    -4.611      3.709      6.211
REMARK INTER + INTRA:          -8.236
REMARK INTER:                  -7.516
REMARK INTRA:                  -0.719
REMARK UNBOUND:                -0.929
REMARK SMILES CCCCCCCCCCCC(=O)[O-]
REMARK SMILES IDX 7 1 8 2 9 3 10 4 11 5 12 6 13 7 14 8 6 9 5 10 4 11 3 12 2 13
REMARK SMILES IDX 1 14
REMARK H PARENT
REMARK Flexibility Score: inf
ROOT
ATOM      1  C   UNL     1     -10.955  -0.260 -10.913  1.00  0.00     0.000 C 
ENDROOT
BRANCH   1   2
ATOM      2  C   UNL     1     -11.003   0.489  -9.568  1.00  0.00     0.000 C 
BRANCH   2   3
ATOM      3  C   UNL     1     -11.923   1.724  -9.539  1.00  0.00     0.000 C 
BRANCH   3   4
ATOM      4  C   UNL     1     -11.213   3.070  -9.296  1.00  0.00     0.006 C 
BRANCH   4   5
ATOM      5  C   UNL     1     -12.171   4.260  -9.112  1.00  0.00     0.053 C 
BRANCH   5   6
ATOM      6  C   UNL     1     -12.941   4.189  -7.828  1.00  0.00     0.041 C 
ATOM      7  O   UNL     1     -12.423   4.594  -6.754  1.00  0.00    -0.550 OA
ATOM      8  O   UNL     1     -14.246   3.710  -7.821  1.00  0.00    -0.550 OA
ENDBRANCH   5   6
ENDBRANCH   4   5
ENDBRANCH   3   4
ENDBRANCH   2   3
ENDBRANCH   1   2
BRANCH   1   9
ATOM      9  C   UNL     1     -12.048  -1.331 -11.041  1.00  0.00     0.000 C 
BRANCH   9  10
ATOM     10  C   UNL     1     -11.820  -2.471 -10.041  1.00  0.00    -0.000 C 
BRANCH  10  11
ATOM     11  C   UNL     1     -10.675  -3.387 -10.499  1.00  0.00    -0.000 C 
BRANCH  11  12
ATOM     12  C   UNL     1      -9.438  -3.289  -9.593  1.00  0.00    -0.000 C 
BRANCH  12  13
ATOM     13  C   UNL     1      -9.781  -2.814  -8.174  1.00  0.00    -0.003 C 
ATOM     14  C   UNL     1      -9.915  -3.995  -7.217  1.00  0.00     0.004 C 
ENDBRANCH  12  13
ENDBRANCH  11  12
ENDBRANCH  10  11
ENDBRANCH   9  10
ENDBRANCH   1   9
TORSDOF 10
ENDMDL
MODEL 7
REMARK VINA RESULT:    -4.301     17.154     18.921
REMARK INTER + INTRA:          -7.744
REMARK INTER:                  -7.067
REMARK INTRA:                  -0.677
REMARK UNBOUND:                -0.929
REMARK SMILES CCCCCCCCCCCC(=O)[O-]
REMARK SMILES IDX 7 1 8 2 9 3 10 4 11 5 12 6 13 7 14 8 6 9 5 10 4 11 3 12 2 13
REMARK SMILES IDX 1 14
REMARK H PARENT
REMARK Flexibility Score: inf
ROOT
ATOM      1  C   UNL     1      -9.379   6.949   5.737  1.00  0.00     0.000 C 
ENDROOT
BRANCH   1   2
ATOM      2  C   UNL     1      -8.441   8.095   6.157  1.00  0.00     0.000 C 
BRANCH   2   3
ATOM      3  C   UNL     1      -8.020   9.048   5.022  1.00  0.00     0.000 C 
BRANCH   3   4
ATOM      4  C   UNL     1      -7.896  10.532   5.418  1.00  0.00     0.006 C 
BRANCH   4   5
ATOM      5  C   UNL     1      -6.463  11.088   5.325  1.00  0.00     0.053 C 
BRANCH   5   6
ATOM      6  C   UNL     1      -5.659  10.823   6.561  1.00  0.00     0.041 C 
ATOM      7  O   UNL     1      -6.213  10.830   7.692  1.00  0.00    -0.550 OA
ATOM      8  O   UNL     1      -4.304  10.531   6.464  1.00  0.00    -0.550 OA
ENDBRANCH   5   6
ENDBRANCH   4   5
ENDBRANCH   3   4
ENDBRANCH   2   3
ENDBRANCH   1   2
BRANCH   1   9
ATOM      9  C   UNL     1      -9.154   5.664   6.546  1.00  0.00     0.000 C 
BRANCH   9  10
ATOM     10  C   UNL     1      -9.843   5.747   7.913  1.00  0.00    -0.000 C 
BRANCH  10  11
ATOM     11  C   UNL     1     -10.518   4.415   8.272  1.00  0.00    -0.000 C 
BRANCH  11  12
ATOM     12  C   UNL     1     -11.356   3.845   7.117  1.00  0.00    -0.000 C 
BRANCH  12  13
ATOM     13  C   UNL     1     -12.724   4.530   6.984  1.00  0.00    -0.003 C 
ATOM     14  C   UNL     1     -12.809   5.340   5.693  1.00  0.00     0.004 C 
ENDBRANCH  12  13
ENDBRANCH  11  12
ENDBRANCH  10  11
ENDBRANCH   9  10
ENDBRANCH   1   9
TORSDOF 10
ENDMDL
MODEL 8
REMARK VINA RESULT:    -4.240     16.381     17.946
REMARK INTER + INTRA:          -7.647
REMARK INTER:                  -7.043
REMARK INTRA:                  -0.604
REMARK UNBOUND:                -0.929
REMARK SMILES CCCCCCCCCCCC(=O)[O-]
REMARK SMILES IDX 7 1 8 2 9 3 10 4 11 5 12 6 13 7 14 8 6 9 5 10 4 11 3 12 2 13
REMARK SMILES IDX 1 14
REMARK H PARENT
REMARK Flexibility Score: inf
ROOT
ATOM      1  C   UNL     1      -9.089   5.842   6.472  1.00  0.00     0.000 C 
ENDROOT
BRANCH   1   2
ATOM      2  C   UNL     1      -9.863   5.698   7.796  1.00  0.00     0.000 C 
BRANCH   2   3
ATOM      3  C   UNL     1     -10.531   4.328   8.020  1.00  0.00     0.000 C 
BRANCH   3   4
ATOM      4  C   UNL     1     -11.493   3.873   6.906  1.00  0.00     0.006 C 
BRANCH   4   5
ATOM      5  C   UNL     1     -12.840   4.619   6.897  1.00  0.00     0.053 C 
BRANCH   5   6
ATOM      6  C   UNL     1     -13.044   5.429   5.653  1.00  0.00     0.041 C 
ATOM      7  O   UNL     1     -12.156   5.455   4.760  1.00  0.00    -0.550 OA
ATOM      8  O   UNL     1     -14.230   6.127   5.461  1.00  0.00    -0.550 OA
ENDBRANCH   5   6
ENDBRANCH   4   5
ENDBRANCH   3   4
ENDBRANCH   2   3
ENDBRANCH   1   2
BRANCH   1   9
ATOM      9  C   UNL     1      -9.321   7.197   5.788  1.00  0.00     0.000 C 
BRANCH   9  10
ATOM     10  C   UNL     1      -8.176   8.170   6.093  1.00  0.00    -0.000 C 
BRANCH  10  11
ATOM     11  C   UNL     1      -8.167   9.340   5.098  1.00  0.00    -0.000 C 
BRANCH  11  12
ATOM     12  C   UNL     1      -7.718  10.661   5.740  1.00  0.00    -0.000 C 
BRANCH  12  13
ATOM     13  C   UNL     1      -6.271  11.030   5.384  1.00  0.00    -0.003 C 
ATOM     14  C   UNL     1      -5.308  10.603   6.488  1.00  0.00     0.004 C 
ENDBRANCH  12  13
ENDBRANCH  11  12
ENDBRANCH  10  11
ENDBRANCH   9  10
ENDBRANCH   1   9
TORSDOF 10
ENDMDL
MODEL 9
REMARK VINA RESULT:    -4.217     16.795     18.608
REMARK INTER + INTRA:          -7.611
REMARK INTER:                  -6.762
REMARK INTRA:                  -0.849
REMARK UNBOUND:                -0.929
REMARK SMILES CCCCCCCCCCCC(=O)[O-]
REMARK SMILES IDX 7 1 8 2 9 3 10 4 11 5 12 6 13 7 14 8 6 9 5 10 4 11 3 12 2 13
REMARK SMILES IDX 1 14
REMARK H PARENT
REMARK Flexibility Score: inf
ROOT
ATOM      1  C   UNL     1      -9.235   5.700   6.500  1.00  0.00     0.000 C 
ENDROOT
BRANCH   1   2
ATOM      2  C   UNL     1      -9.353   7.051   5.770  1.00  0.00     0.000 C 
BRANCH   2   3
ATOM      3  C   UNL     1      -8.357   8.133   6.228  1.00  0.00     0.000 C 
BRANCH   3   4
ATOM      4  C   UNL     1      -7.957   9.160   5.152  1.00  0.00     0.006 C 
BRANCH   4   5
ATOM      5  C   UNL     1      -7.696  10.575   5.701  1.00  0.00     0.053 C 
BRANCH   5   6
ATOM      6  C   UNL     1      -6.604  10.605   6.727  1.00  0.00     0.041 C 
ATOM      7  O   UNL     1      -5.439  10.236   6.423  1.00  0.00    -0.550 OA
ATOM      8  O   UNL     1      -6.862  11.076   8.008  1.00  0.00    -0.550 OA
ENDBRANCH   5   6
ENDBRANCH   4   5
ENDBRANCH   3   4
ENDBRANCH   2   3
ENDBRANCH   1   2
BRANCH   1   9
ATOM      9  C   UNL     1      -9.875   5.716   7.895  1.00  0.00     0.000 C 
BRANCH   9  10
ATOM     10  C   UNL     1     -10.661   4.425   8.154  1.00  0.00    -0.000 C 
BRANCH  10  11
ATOM     11  C   UNL     1     -11.389   3.959   6.885  1.00  0.00    -0.000 C 
BRANCH  11  12
ATOM     12  C   UNL     1     -12.716   4.700   6.657  1.00  0.00    -0.000 C 
BRANCH  12  13
ATOM     13  C   UNL     1     -12.762   5.427   5.305  1.00  0.00    -0.003 C 
ATOM     14  C   UNL     1     -13.105   6.903   5.486  1.00  0.00     0.004 C 
ENDBRANCH  12  13
ENDBRANCH  11  12
ENDBRANCH  10  11
ENDBRANCH   9  10
ENDBRANCH   1   9
TORSDOF 10
ENDMDL
