MODEL 1
REMARK VINA RESULT:    -2.385      0.000      0.000
REMARK INTER + INTRA:          -2.385
REMARK INTER:                  -2.385
REMARK INTRA:                   0.000
REMARK UNBOUND:                 0.000
REMARK SMILES CC1(C)O[C@]2(C)CC[C@H]1CC2
REMARK SMILES IDX 1 1 2 2 9 3 8 4 7 5 5 6 4 7 11 8 10 9 6 10 3 11
REMARK H PARENT
REMARK Flexibility Score: inf
ROOT
ATOM      1  C   UNL     1       4.046  -2.552  12.653  1.00  0.00     0.042 C 
ATOM      2  C   UNL     1       3.071  -2.261  13.814  1.00  0.00     0.066 C 
ATOM      3  C   UNL     1       1.915  -3.333  13.854  1.00  0.00     0.021 C 
ATOM      4  C   UNL     1       1.097  -3.221  12.545  1.00  0.00     0.009 C 
ATOM      5  C   UNL     1       0.676  -1.747  12.334  1.00  0.00     0.035 C 
ATOM      6  C   UNL     1       1.134  -0.888  13.549  1.00  0.00     0.066 C 
ATOM      7  O   UNL     1       2.558  -0.931  13.643  1.00  0.00    -0.369 OA
ATOM      8  C   UNL     1       0.517  -1.483  14.848  1.00  0.00     0.035 C 
ATOM      9  C   UNL     1       0.943  -2.964  15.000  1.00  0.00     0.009 C 
ATOM     10  C   UNL     1       0.694   0.568  13.368  1.00  0.00     0.042 C 
ATOM     11  C   UNL     1       3.891  -2.294  15.122  1.00  0.00     0.042 C 
ENDROOT
TORSDOF 0
ENDMDL
MODEL 2
REMARK VINA RESULT:    -2.357      6.954      8.628
REMARK INTER + INTRA:          -2.357
REMARK INTER:                  -2.357
REMARK INTRA:                   0.000
REMARK UNBOUND:                 0.000
REMARK SMILES CC1(C)O[C@]2(C)CC[C@H]1CC2
REMARK SMILES IDX 1 1 2 2 9 3 8 4 7 5 5 6 4 7 11 8 10 9 6 10 3 11
REMARK H PARENT
REMARK Flexibility Score: inf
ROOT
ATOM      1  C   UNL     1       7.843  -2.842  20.484  1.00  0.00     0.042 C 
ATOM      2  C   UNL     1       7.733  -2.681  18.953  1.00  0.00     0.066 C 
ATOM      3  C   UNL     1       7.508  -4.080  18.260  1.00  0.00     0.021 C 
ATOM      4  C   UNL     1       8.750  -4.965  18.528  1.00  0.00     0.009 C 
ATOM      5  C   UNL     1      10.025  -4.185  18.129  1.00  0.00     0.035 C 
ATOM      6  C   UNL     1       9.632  -2.812  17.509  1.00  0.00     0.066 C 
ATOM      7  O   UNL     1       8.930  -2.041  18.484  1.00  0.00    -0.369 OA
ATOM      8  C   UNL     1       8.702  -3.060  16.286  1.00  0.00     0.035 C 
ATOM      9  C   UNL     1       7.457  -3.866  16.728  1.00  0.00     0.009 C 
ATOM     10  C   UNL     1      10.885  -2.043  17.079  1.00  0.00     0.042 C 
ATOM     11  C   UNL     1       6.543  -1.737  18.675  1.00  0.00     0.042 C 
ENDROOT
TORSDOF 0
ENDMDL
MODEL 3
REMARK VINA RESULT:    -2.275      1.513      3.741
REMARK INTER + INTRA:          -2.275
REMARK INTER:                  -2.275
REMARK INTRA:                   0.000
REMARK UNBOUND:                 0.000
REMARK SMILES CC1(C)O[C@]2(C)CC[C@H]1CC2
REMARK SMILES IDX 1 1 2 2 9 3 8 4 7 5 5 6 4 7 11 8 10 9 6 10 3 11
REMARK H PARENT
REMARK Flexibility Score: inf
ROOT
ATOM      1  C   UNL     1       2.543  -1.993  15.535  1.00  0.00     0.042 C 
ATOM      2  C   UNL     1       2.772  -2.082  14.011  1.00  0.00     0.066 C 
ATOM      3  C   UNL     1       2.373  -3.509  13.469  1.00  0.00     0.021 C 
ATOM      4  C   UNL     1       3.304  -4.559  14.123  1.00  0.00     0.009 C 
ATOM      5  C   UNL     1       4.776  -4.124  13.928  1.00  0.00     0.035 C 
ATOM      6  C   UNL     1       4.835  -2.830  13.065  1.00  0.00     0.066 C 
ATOM      7  O   UNL     1       4.151  -1.779  13.748  1.00  0.00    -0.369 OA
ATOM      8  C   UNL     1       4.128  -3.099  11.704  1.00  0.00     0.035 C 
ATOM      9  C   UNL     1       2.671  -3.558  11.951  1.00  0.00     0.009 C 
ATOM     10  C   UNL     1       6.289  -2.406  12.836  1.00  0.00     0.042 C 
ATOM     11  C   UNL     1       1.906  -0.987  13.352  1.00  0.00     0.042 C 
ENDROOT
TORSDOF 0
ENDMDL
MODEL 4
REMARK VINA RESULT:    -2.272      6.160      7.794
REMARK INTER + INTRA:          -2.272
REMARK INTER:                  -2.272
REMARK INTRA:                   0.000
REMARK UNBOUND:                 0.000
REMARK SMILES CC1(C)O[C@]2(C)CC[C@H]1CC2
REMARK SMILES IDX 1 1 2 2 9 3 8 4 7 5 5 6 4 7 11 8 10 9 6 10 3 11
REMARK H PARENT
REMARK Flexibility Score: inf
ROOT
ATOM      1  C   UNL     1       5.431  -4.631  17.343  1.00  0.00     0.042 C 
ATOM      2  C   UNL     1       5.714  -4.385  18.840  1.00  0.00     0.066 C 
ATOM      3  C   UNL     1       4.898  -3.141  19.365  1.00  0.00     0.021 C 
ATOM      4  C   UNL     1       5.383  -1.881  18.605  1.00  0.00     0.009 C 
ATOM      5  C   UNL     1       6.925  -1.795  18.697  1.00  0.00     0.035 C 
ATOM      6  C   UNL     1       7.466  -2.945  19.595  1.00  0.00     0.066 C 
ATOM      7  O   UNL     1       7.129  -4.200  19.002  1.00  0.00    -0.369 OA
ATOM      8  C   UNL     1       6.799  -2.847  20.997  1.00  0.00     0.035 C 
ATOM      9  C   UNL     1       5.259  -2.909  20.851  1.00  0.00     0.009 C 
ATOM     10  C   UNL     1       8.990  -2.852  19.721  1.00  0.00     0.042 C 
ATOM     11  C   UNL     1       5.307  -5.665  19.601  1.00  0.00     0.042 C 
ENDROOT
TORSDOF 0
ENDMDL
MODEL 5
REMARK VINA RESULT:    -2.242      8.179      9.624
REMARK INTER + INTRA:          -2.242
REMARK INTER:                  -2.242
REMARK INTRA:                   0.000
REMARK UNBOUND:                 0.000
REMARK SMILES CC1(C)O[C@]2(C)CC[C@H]1CC2
REMARK SMILES IDX 1 1 2 2 9 3 8 4 7 5 5 6 4 7 11 8 10 9 6 10 3 11
REMARK H PARENT
REMARK Flexibility Score: inf
ROOT
ATOM      1  C   UNL     1       4.346   5.204  15.900  1.00  0.00     0.042 C 
ATOM      2  C   UNL     1       5.872   5.383  16.046  1.00  0.00     0.066 C 
ATOM      3  C   UNL     1       6.289   6.876  15.754  1.00  0.00     0.021 C 
ATOM      4  C   UNL     1       5.939   7.203  14.281  1.00  0.00     0.009 C 
ATOM      5  C   UNL     1       6.545   6.116  13.362  1.00  0.00     0.035 C 
ATOM      6  C   UNL     1       7.377   5.111  14.210  1.00  0.00     0.066 C 
ATOM      7  O   UNL     1       6.517   4.466  15.149  1.00  0.00    -0.369 OA
ATOM      8  C   UNL     1       8.480   5.894  14.981  1.00  0.00     0.035 C 
ATOM      9  C   UNL     1       7.828   6.986  15.863  1.00  0.00     0.009 C 
ATOM     10  C   UNL     1       8.010   4.048  13.308  1.00  0.00     0.042 C 
ATOM     11  C   UNL     1       6.246   4.985  17.490  1.00  0.00     0.042 C 
ENDROOT
TORSDOF 0
ENDMDL
MODEL 6
REMARK VINA RESULT:    -2.212      6.517      7.767
REMARK INTER + INTRA:          -2.212
REMARK INTER:                  -2.212
REMARK INTRA:                   0.000
REMARK UNBOUND:                 0.000
REMARK SMILES CC1(C)O[C@]2(C)CC[C@H]1CC2
REMARK SMILES IDX 1 1 2 2 9 3 8 4 7 5 5 6 4 7 11 8 10 9 6 10 3 11
REMARK H PARENT
REMARK Flexibility Score: inf
ROOT
ATOM      1  C   UNL     1       6.817  -5.784  19.475  1.00  0.00     0.042 C 
ATOM      2  C   UNL     1       6.594  -4.421  18.786  1.00  0.00     0.066 C 
ATOM      3  C   UNL     1       7.643  -3.359  19.296  1.00  0.00     0.021 C 
ATOM      4  C   UNL     1       7.416  -3.136  20.812  1.00  0.00     0.009 C 
ATOM      5  C   UNL     1       5.923  -2.818  21.061  1.00  0.00     0.035 C 
ATOM      6  C   UNL     1       5.166  -2.738  19.703  1.00  0.00     0.066 C 
ATOM      7  O   UNL     1       5.245  -4.004  19.047  1.00  0.00    -0.369 OA
ATOM      8  C   UNL     1       5.845  -1.658  18.811  1.00  0.00     0.035 C 
ATOM      9  C   UNL     1       7.341  -2.004  18.614  1.00  0.00     0.009 C 
ATOM     10  C   UNL     1       3.692  -2.391  19.933  1.00  0.00     0.042 C 
ATOM     11  C   UNL     1       6.740  -4.645  17.265  1.00  0.00     0.042 C 
ENDROOT
TORSDOF 0
ENDMDL
MODEL 7
REMARK VINA RESULT:    -2.179      5.577      7.434
REMARK INTER + INTRA:          -2.179
REMARK INTER:                  -2.179
REMARK INTRA:                   0.000
REMARK UNBOUND:                 0.000
REMARK SMILES CC1(C)O[C@]2(C)CC[C@H]1CC2
REMARK SMILES IDX 1 1 2 2 9 3 8 4 7 5 5 6 4 7 11 8 10 9 6 10 3 11
REMARK H PARENT
REMARK Flexibility Score: inf
ROOT
ATOM      1  C   UNL     1       4.141  -3.333  20.631  1.00  0.00     0.042 C 
ATOM      2  C   UNL     1       5.577  -3.179  20.088  1.00  0.00     0.066 C 
ATOM      3  C   UNL     1       5.683  -1.920  19.142  1.00  0.00     0.021 C 
ATOM      4  C   UNL     1       4.764  -2.149  17.918  1.00  0.00     0.009 C 
ATOM      5  C   UNL     1       5.088  -3.525  17.289  1.00  0.00     0.035 C 
ATOM      6  C   UNL     1       6.287  -4.178  18.037  1.00  0.00     0.066 C 
ATOM      7  O   UNL     1       5.927  -4.391  19.402  1.00  0.00    -0.369 OA
ATOM      8  C   UNL     1       7.507  -3.213  17.973  1.00  0.00     0.035 C 
ATOM      9  C   UNL     1       7.126  -1.845  18.587  1.00  0.00     0.009 C 
ATOM     10  C   UNL     1       6.640  -5.527  17.402  1.00  0.00     0.042 C 
ATOM     11  C   UNL     1       6.515  -3.027  21.305  1.00  0.00     0.042 C 
ENDROOT
TORSDOF 0
ENDMDL
MODEL 8
REMARK VINA RESULT:    -2.160      1.426      3.020
REMARK INTER + INTRA:          -2.160
REMARK INTER:                  -2.160
REMARK INTRA:                   0.000
REMARK UNBOUND:                 0.000
REMARK SMILES CC1(C)O[C@]2(C)CC[C@H]1CC2
REMARK SMILES IDX 1 1 2 2 9 3 8 4 7 5 5 6 4 7 11 8 10 9 6 10 3 11
REMARK H PARENT
REMARK Flexibility Score: inf
ROOT
ATOM      1  C   UNL     1       2.044  -4.237  13.104  1.00  0.00     0.042 C 
ATOM      2  C   UNL     1       1.294  -2.887  13.090  1.00  0.00     0.066 C 
ATOM      3  C   UNL     1       2.301  -1.688  13.279  1.00  0.00     0.021 C 
ATOM      4  C   UNL     1       2.962  -1.818  14.673  1.00  0.00     0.009 C 
ATOM      5  C   UNL     1       1.858  -1.979  15.745  1.00  0.00     0.035 C 
ATOM      6  C   UNL     1       0.455  -1.865  15.081  1.00  0.00     0.066 C 
ATOM      7  O   UNL     1       0.302  -2.917  14.128  1.00  0.00    -0.369 OA
ATOM      8  C   UNL     1       0.353  -0.495  14.349  1.00  0.00     0.035 C 
ATOM      9  C   UNL     1       1.493  -0.369  13.309  1.00  0.00     0.009 C 
ATOM     10  C   UNL     1      -0.647  -1.990  16.136  1.00  0.00     0.042 C 
ATOM     11  C   UNL     1       0.566  -2.780  11.733  1.00  0.00     0.042 C 
ENDROOT
TORSDOF 0
ENDMDL
MODEL 9
REMARK VINA RESULT:    -2.147      4.513      5.804
REMARK INTER + INTRA:          -2.147
REMARK INTER:                  -2.147
REMARK INTRA:                   0.000
REMARK UNBOUND:                 0.000
REMARK SMILES CC1(C)O[C@]2(C)CC[C@H]1CC2
REMARK SMILES IDX 1 1 2 2 9 3 8 4 7 5 5 6 4 7 11 8 10 9 6 10 3 11
REMARK H PARENT
REMARK Flexibility Score: inf
ROOT
ATOM      1  C   UNL     1       6.896  -1.770  18.682  1.00  0.00     0.042 C 
ATOM      2  C   UNL     1       5.688  -2.578  19.202  1.00  0.00     0.066 C 
ATOM      3  C   UNL     1       5.473  -3.879  18.335  1.00  0.00     0.021 C 
ATOM      4  C   UNL     1       5.135  -3.452  16.886  1.00  0.00     0.009 C 
ATOM      5  C   UNL     1       3.972  -2.431  16.915  1.00  0.00     0.035 C 
ATOM      6  C   UNL     1       3.471  -2.244  18.377  1.00  0.00     0.066 C 
ATOM      7  O   UNL     1       4.535  -1.724  19.175  1.00  0.00    -0.369 OA
ATOM      8  C   UNL     1       3.038  -3.628  18.943  1.00  0.00     0.035 C 
ATOM      9  C   UNL     1       4.223  -4.620  18.866  1.00  0.00     0.009 C 
ATOM     10  C   UNL     1       2.297  -1.261  18.417  1.00  0.00     0.042 C 
ATOM     11  C   UNL     1       5.979  -2.945  20.673  1.00  0.00     0.042 C 
ENDROOT
TORSDOF 0
ENDMDL
