MODEL 1
REMARK VINA RESULT:    -4.586      0.000      0.000
REMARK INTER + INTRA:         -11.522
REMARK INTER:                  -8.876
REMARK INTRA:                  -2.646
REMARK UNBOUND:                -2.646
REMARK SMILES CCCCCCCCCCCCCCCCCC(=O)[O-]
REMARK SMILES IDX 10 1 11 2 12 3 13 4 14 5 15 6 16 7 17 8 18 9 19 10 20 11
REMARK SMILES IDX 9 12 8 13 7 14 6 15 5 16 4 17 3 18 2 19 1 20
REMARK H PARENT
REMARK Flexibility Score: inf
ROOT
ATOM      1  C   UNL     1       6.994 -13.760  -2.122  1.00  0.00     0.000 C 
ENDROOT
BRANCH   1   2
ATOM      2  C   UNL     1       7.573 -13.282  -3.466  1.00  0.00     0.000 C 
BRANCH   2   3
ATOM      3  C   UNL     1       6.515 -12.613  -4.357  1.00  0.00     0.000 C 
BRANCH   3   4
ATOM      4  C   UNL     1       5.120 -13.243  -4.190  1.00  0.00     0.000 C 
BRANCH   4   5
ATOM      5  C   UNL     1       4.102 -12.699  -5.203  1.00  0.00     0.000 C 
BRANCH   5   6
ATOM      6  C   UNL     1       4.705 -11.635  -6.133  1.00  0.00     0.000 C 
BRANCH   6   7
ATOM      7  C   UNL     1       3.776 -10.418  -6.251  1.00  0.00     0.006 C 
BRANCH   7   8
ATOM      8  C   UNL     1       4.553  -9.095  -6.294  1.00  0.00     0.053 C 
BRANCH   8   9
ATOM      9  C   UNL     1       4.621  -8.536  -7.682  1.00  0.00     0.041 C 
ATOM     10  O   UNL     1       3.893  -9.013  -8.593  1.00  0.00    -0.550 OA
ATOM     11  O   UNL     1       5.515  -7.515  -7.979  1.00  0.00    -0.550 OA
ENDBRANCH   8   9
ENDBRANCH   7   8
ENDBRANCH   6   7
ENDBRANCH   5   6
ENDBRANCH   4   5
ENDBRANCH   3   4
ENDBRANCH   2   3
ENDBRANCH   1   2
BRANCH   1  12
ATOM     12  C   UNL     1       7.081 -12.687  -1.026  1.00  0.00     0.000 C 
BRANCH  12  13
ATOM     13  C   UNL     1       8.491 -12.564  -0.430  1.00  0.00    -0.000 C 
BRANCH  13  14
ATOM     14  C   UNL     1       8.823 -11.103  -0.102  1.00  0.00    -0.000 C 
BRANCH  14  15
ATOM     15  C   UNL     1       8.037 -10.145  -1.006  1.00  0.00    -0.000 C 
BRANCH  15  16
ATOM     16  C   UNL     1       7.227  -9.142  -0.174  1.00  0.00    -0.000 C 
BRANCH  16  17
ATOM     17  C   UNL     1       5.918  -8.769  -0.880  1.00  0.00    -0.000 C 
BRANCH  17  18
ATOM     18  C   UNL     1       5.805  -9.474  -2.239  1.00  0.00    -0.000 C 
BRANCH  18  19
ATOM     19  C   UNL     1       4.397 -10.033  -2.498  1.00  0.00    -0.003 C 
ATOM     20  C   UNL     1       3.929 -10.990  -1.403  1.00  0.00     0.004 C 
ENDBRANCH  18  19
ENDBRANCH  17  18
ENDBRANCH  16  17
ENDBRANCH  15  16
ENDBRANCH  14  15
ENDBRANCH  13  14
ENDBRANCH  12  13
ENDBRANCH   1  12
TORSDOF 16
ENDMDL
MODEL 2
REMARK VINA RESULT:    -4.547      3.886      5.067
REMARK INTER + INTRA:         -11.447
REMARK INTER:                  -9.029
REMARK INTRA:                  -2.417
REMARK UNBOUND:                -2.646
REMARK SMILES CCCCCCCCCCCCCCCCCC(=O)[O-]
REMARK SMILES IDX 10 1 11 2 12 3 13 4 14 5 15 6 16 7 17 8 18 9 19 10 20 11
REMARK SMILES IDX 9 12 8 13 7 14 6 15 5 16 4 17 3 18 2 19 1 20
REMARK H PARENT
REMARK Flexibility Score: inf
ROOT
ATOM      1  C   UNL     1       7.738 -13.877  -2.352  1.00  0.00     0.000 C 
ENDROOT
BRANCH   1   2
ATOM      2  C   UNL     1       7.262 -13.387  -3.732  1.00  0.00     0.000 C 
BRANCH   2   3
ATOM      3  C   UNL     1       6.097 -12.390  -3.632  1.00  0.00     0.000 C 
BRANCH   3   4
ATOM      4  C   UNL     1       4.832 -12.889  -4.352  1.00  0.00     0.000 C 
BRANCH   4   5
ATOM      5  C   UNL     1       3.952 -13.774  -3.456  1.00  0.00     0.000 C 
BRANCH   5   6
ATOM      6  C   UNL     1       3.897 -13.272  -2.004  1.00  0.00     0.000 C 
BRANCH   6   7
ATOM      7  C   UNL     1       2.762 -13.958  -1.230  1.00  0.00     0.006 C 
BRANCH   7   8
ATOM      8  C   UNL     1       3.104 -15.407  -0.857  1.00  0.00     0.053 C 
BRANCH   8   9
ATOM      9  C   UNL     1       2.085 -16.372  -1.380  1.00  0.00     0.041 C 
ATOM     10  O   UNL     1       1.172 -16.800  -0.625  1.00  0.00    -0.550 OA
ATOM     11  O   UNL     1       2.165 -16.827  -2.690  1.00  0.00    -0.550 OA
ENDBRANCH   8   9
ENDBRANCH   7   8
ENDBRANCH   6   7
ENDBRANCH   5   6
ENDBRANCH   4   5
ENDBRANCH   3   4
ENDBRANCH   2   3
ENDBRANCH   1   2
BRANCH   1  12
ATOM     12  C   UNL     1       7.447 -12.866  -1.233  1.00  0.00     0.000 C 
BRANCH  12  13
ATOM     13  C   UNL     1       8.687 -12.553  -0.382  1.00  0.00    -0.000 C 
BRANCH  13  14
ATOM     14  C   UNL     1       8.723 -11.070   0.010  1.00  0.00    -0.000 C 
BRANCH  14  15
ATOM     15  C   UNL     1       7.753 -10.251  -0.849  1.00  0.00    -0.000 C 
BRANCH  15  16
ATOM     16  C   UNL     1       7.303  -8.982  -0.113  1.00  0.00    -0.000 C 
BRANCH  16  17
ATOM     17  C   UNL     1       5.775  -8.852  -0.122  1.00  0.00    -0.000 C 
BRANCH  17  18
ATOM     18  C   UNL     1       5.125 -10.031  -0.860  1.00  0.00    -0.000 C 
BRANCH  18  19
ATOM     19  C   UNL     1       4.064  -9.579  -1.876  1.00  0.00    -0.003 C 
ATOM     20  C   UNL     1       4.674  -9.058  -3.177  1.00  0.00     0.004 C 
ENDBRANCH  18  19
ENDBRANCH  17  18
ENDBRANCH  16  17
ENDBRANCH  15  16
ENDBRANCH  14  15
ENDBRANCH  13  14
ENDBRANCH  12  13
ENDBRANCH   1  12
TORSDOF 16
ENDMDL
MODEL 3
REMARK VINA RESULT:    -4.512      1.534      2.664
REMARK INTER + INTRA:         -11.378
REMARK INTER:                  -8.158
REMARK INTRA:                  -3.220
REMARK UNBOUND:                -2.646
REMARK SMILES CCCCCCCCCCCCCCCCCC(=O)[O-]
REMARK SMILES IDX 10 1 11 2 12 3 13 4 14 5 15 6 16 7 17 8 18 9 19 10 20 11
REMARK SMILES IDX 9 12 8 13 7 14 6 15 5 16 4 17 3 18 2 19 1 20
REMARK H PARENT
REMARK Flexibility Score: inf
ROOT
ATOM      1  C   UNL     1       7.614 -12.668  -1.212  1.00  0.00     0.000 C 
ENDROOT
BRANCH   1   2
ATOM      2  C   UNL     1       7.417 -13.662  -2.370  1.00  0.00     0.000 C 
BRANCH   2   3
ATOM      3  C   UNL     1       7.260 -12.959  -3.728  1.00  0.00     0.000 C 
BRANCH   3   4
ATOM      4  C   UNL     1       5.907 -13.263  -4.395  1.00  0.00     0.000 C 
BRANCH   4   5
ATOM      5  C   UNL     1       5.441 -12.134  -5.328  1.00  0.00     0.000 C 
BRANCH   5   6
ATOM      6  C   UNL     1       3.918 -12.121  -5.523  1.00  0.00     0.000 C 
BRANCH   6   7
ATOM      7  C   UNL     1       3.483 -10.913  -6.367  1.00  0.00     0.006 C 
BRANCH   7   8
ATOM      8  C   UNL     1       3.270  -9.654  -5.515  1.00  0.00     0.053 C 
BRANCH   8   9
ATOM      9  C   UNL     1       4.269  -8.587  -5.839  1.00  0.00     0.041 C 
ATOM     10  O   UNL     1       4.995  -8.690  -6.864  1.00  0.00    -0.550 OA
ATOM     11  O   UNL     1       4.426  -7.498  -4.992  1.00  0.00    -0.550 OA
ENDBRANCH   8   9
ENDBRANCH   7   8
ENDBRANCH   6   7
ENDBRANCH   5   6
ENDBRANCH   4   5
ENDBRANCH   3   4
ENDBRANCH   2   3
ENDBRANCH   1   2
BRANCH   1  12
ATOM     12  C   UNL     1       7.865 -11.233  -1.701  1.00  0.00     0.000 C 
BRANCH  12  13
ATOM     13  C   UNL     1       7.248 -10.176  -0.772  1.00  0.00    -0.000 C 
BRANCH  13  14
ATOM     14  C   UNL     1       6.331  -9.227  -1.554  1.00  0.00    -0.000 C 
BRANCH  14  15
ATOM     15  C   UNL     1       5.274 -10.010  -2.342  1.00  0.00    -0.000 C 
BRANCH  15  16
ATOM     16  C   UNL     1       4.148 -10.496  -1.421  1.00  0.00    -0.000 C 
BRANCH  16  17
ATOM     17  C   UNL     1       3.621 -11.865  -1.867  1.00  0.00    -0.000 C 
BRANCH  17  18
ATOM     18  C   UNL     1       4.027 -12.962  -0.873  1.00  0.00    -0.000 C 
BRANCH  18  19
ATOM     19  C   UNL     1       3.811 -14.376  -1.434  1.00  0.00    -0.003 C 
ATOM     20  C   UNL     1       2.919 -14.391  -2.675  1.00  0.00     0.004 C 
ENDBRANCH  18  19
ENDBRANCH  17  18
ENDBRANCH  16  17
ENDBRANCH  15  16
ENDBRANCH  14  15
ENDBRANCH  13  14
ENDBRANCH  12  13
ENDBRANCH   1  12
TORSDOF 16
ENDMDL
MODEL 4
REMARK VINA RESULT:    -4.492      4.008      7.640
REMARK INTER + INTRA:         -11.340
REMARK INTER:                  -9.516
REMARK INTRA:                  -1.824
REMARK UNBOUND:                -2.646
REMARK SMILES CCCCCCCCCCCCCCCCCC(=O)[O-]
REMARK SMILES IDX 10 1 11 2 12 3 13 4 14 5 15 6 16 7 17 8 18 9 19 10 20 11
REMARK SMILES IDX 9 12 8 13 7 14 6 15 5 16 4 17 3 18 2 19 1 20
REMARK H PARENT
REMARK Flexibility Score: inf
ROOT
ATOM      1  C   UNL     1       3.606 -10.107  -6.111  1.00  0.00     0.000 C 
ENDROOT
BRANCH   1   2
ATOM      2  C   UNL     1       4.458 -11.373  -5.913  1.00  0.00     0.000 C 
BRANCH   2   3
ATOM      3  C   UNL     1       3.794 -12.387  -4.968  1.00  0.00     0.000 C 
BRANCH   3   4
ATOM      4  C   UNL     1       4.818 -13.301  -4.271  1.00  0.00     0.000 C 
BRANCH   4   5
ATOM      5  C   UNL     1       6.269 -12.935  -4.620  1.00  0.00     0.000 C 
BRANCH   5   6
ATOM      6  C   UNL     1       7.267 -13.389  -3.544  1.00  0.00     0.000 C 
BRANCH   6   7
ATOM      7  C   UNL     1       6.723 -13.103  -2.136  1.00  0.00     0.006 C 
BRANCH   7   8
ATOM      8  C   UNL     1       7.020 -11.668  -1.677  1.00  0.00     0.053 C 
BRANCH   8   9
ATOM      9  C   UNL     1       8.100 -11.628  -0.641  1.00  0.00     0.041 C 
ATOM     10  O   UNL     1       8.644 -12.697  -0.251  1.00  0.00    -0.550 OA
ATOM     11  O   UNL     1       8.481 -10.417  -0.077  1.00  0.00    -0.550 OA
ENDBRANCH   8   9
ENDBRANCH   7   8
ENDBRANCH   6   7
ENDBRANCH   5   6
ENDBRANCH   4   5
ENDBRANCH   3   4
ENDBRANCH   2   3
ENDBRANCH   1   2
BRANCH   1  12
ATOM     12  C   UNL     1       3.061  -9.980  -7.542  1.00  0.00     0.000 C 
BRANCH  12  13
ATOM     13  C   UNL     1       2.720  -8.530  -7.918  1.00  0.00    -0.000 C 
BRANCH  13  14
ATOM     14  C   UNL     1       1.340  -8.134  -7.377  1.00  0.00    -0.000 C 
BRANCH  14  15
ATOM     15  C   UNL     1       0.258  -8.312  -8.449  1.00  0.00    -0.000 C 
BRANCH  15  16
ATOM     16  C   UNL     1      -1.023  -8.903  -7.846  1.00  0.00    -0.000 C 
BRANCH  16  17
ATOM     17  C   UNL     1      -0.799  -9.337  -6.392  1.00  0.00    -0.000 C 
BRANCH  17  18
ATOM     18  C   UNL     1      -1.095 -10.833  -6.213  1.00  0.00    -0.000 C 
BRANCH  18  19
ATOM     19  C   UNL     1       0.167 -11.650  -5.894  1.00  0.00    -0.003 C 
ATOM     20  C   UNL     1       0.540 -12.624  -7.012  1.00  0.00     0.004 C 
ENDBRANCH  18  19
ENDBRANCH  17  18
ENDBRANCH  16  17
ENDBRANCH  15  16
ENDBRANCH  14  15
ENDBRANCH  13  14
ENDBRANCH  12  13
ENDBRANCH   1  12
TORSDOF 16
ENDMDL
MODEL 5
REMARK VINA RESULT:    -4.460      2.927      4.019
REMARK INTER + INTRA:         -11.278
REMARK INTER:                  -8.152
REMARK INTRA:                  -3.126
REMARK UNBOUND:                -2.646
REMARK SMILES CCCCCCCCCCCCCCCCCC(=O)[O-]
REMARK SMILES IDX 10 1 11 2 12 3 13 4 14 5 15 6 16 7 17 8 18 9 19 10 20 11
REMARK SMILES IDX 9 12 8 13 7 14 6 15 5 16 4 17 3 18 2 19 1 20
REMARK H PARENT
REMARK Flexibility Score: inf
ROOT
ATOM      1  C   UNL     1       7.215 -13.296  -1.415  1.00  0.00     0.000 C 
ENDROOT
BRANCH   1   2
ATOM      2  C   UNL     1       7.840 -13.792  -2.731  1.00  0.00     0.000 C 
BRANCH   2   3
ATOM      3  C   UNL     1       7.305 -13.037  -3.958  1.00  0.00     0.000 C 
BRANCH   3   4
ATOM      4  C   UNL     1       5.770 -13.090  -4.058  1.00  0.00     0.000 C 
BRANCH   4   5
ATOM      5  C   UNL     1       5.198 -11.975  -4.948  1.00  0.00     0.000 C 
BRANCH   5   6
ATOM      6  C   UNL     1       3.798 -12.308  -5.484  1.00  0.00     0.000 C 
BRANCH   6   7
ATOM      7  C   UNL     1       3.472 -13.796  -5.282  1.00  0.00     0.006 C 
BRANCH   7   8
ATOM      8  C   UNL     1       1.963 -14.052  -5.172  1.00  0.00     0.053 C 
BRANCH   8   9
ATOM      9  C   UNL     1       1.494 -15.052  -6.183  1.00  0.00     0.041 C 
ATOM     10  O   UNL     1       0.687 -14.708  -7.088  1.00  0.00    -0.550 OA
ATOM     11  O   UNL     1       1.916 -16.373  -6.104  1.00  0.00    -0.550 OA
ENDBRANCH   8   9
ENDBRANCH   7   8
ENDBRANCH   6   7
ENDBRANCH   5   6
ENDBRANCH   4   5
ENDBRANCH   3   4
ENDBRANCH   2   3
ENDBRANCH   1   2
BRANCH   1  12
ATOM     12  C   UNL     1       8.099 -12.269  -0.691  1.00  0.00     0.000 C 
BRANCH  12  13
ATOM     13  C   UNL     1       7.361 -10.953  -0.403  1.00  0.00    -0.000 C 
BRANCH  13  14
ATOM     14  C   UNL     1       7.285 -10.081  -1.663  1.00  0.00    -0.000 C 
BRANCH  14  15
ATOM     15  C   UNL     1       5.830  -9.740  -2.010  1.00  0.00    -0.000 C 
BRANCH  15  16
ATOM     16  C   UNL     1       4.856 -10.662  -1.266  1.00  0.00    -0.000 C 
BRANCH  16  17
ATOM     17  C   UNL     1       3.493 -10.705  -1.967  1.00  0.00    -0.000 C 
BRANCH  17  18
ATOM     18  C   UNL     1       2.854 -12.096  -1.843  1.00  0.00    -0.000 C 
BRANCH  18  19
ATOM     19  C   UNL     1       3.650 -13.031  -0.918  1.00  0.00    -0.003 C 
ATOM     20  C   UNL     1       3.668 -14.477  -1.412  1.00  0.00     0.004 C 
ENDBRANCH  18  19
ENDBRANCH  17  18
ENDBRANCH  16  17
ENDBRANCH  15  16
ENDBRANCH  14  15
ENDBRANCH  13  14
ENDBRANCH  12  13
ENDBRANCH   1  12
TORSDOF 16
ENDMDL
MODEL 6
REMARK VINA RESULT:    -4.457      1.470      3.097
REMARK INTER + INTRA:         -11.272
REMARK INTER:                  -8.549
REMARK INTRA:                  -2.723
REMARK UNBOUND:                -2.646
REMARK SMILES CCCCCCCCCCCCCCCCCC(=O)[O-]
REMARK SMILES IDX 10 1 11 2 12 3 13 4 14 5 15 6 16 7 17 8 18 9 19 10 20 11
REMARK SMILES IDX 9 12 8 13 7 14 6 15 5 16 4 17 3 18 2 19 1 20
REMARK H PARENT
REMARK Flexibility Score: inf
ROOT
ATOM      1  C   UNL     1       8.713 -11.102  -0.581  1.00  0.00     0.000 C 
ENDROOT
BRANCH   1   2
ATOM      2  C   UNL     1       8.511 -12.627  -0.542  1.00  0.00     0.000 C 
BRANCH   2   3
ATOM      3  C   UNL     1       7.265 -13.075  -1.322  1.00  0.00     0.000 C 
BRANCH   3   4
ATOM      4  C   UNL     1       7.583 -13.428  -2.786  1.00  0.00     0.000 C 
BRANCH   4   5
ATOM      5  C   UNL     1       6.819 -12.545  -3.785  1.00  0.00     0.000 C 
BRANCH   5   6
ATOM      6  C   UNL     1       5.772 -13.332  -4.588  1.00  0.00     0.000 C 
BRANCH   6   7
ATOM      7  C   UNL     1       5.117 -12.443  -5.656  1.00  0.00     0.006 C 
BRANCH   7   8
ATOM      8  C   UNL     1       4.320 -11.284  -5.039  1.00  0.00     0.053 C 
BRANCH   8   9
ATOM      9  C   UNL     1       4.493 -10.015  -5.815  1.00  0.00     0.041 C 
ATOM     10  O   UNL     1       4.563  -8.910  -5.213  1.00  0.00    -0.550 OA
ATOM     11  O   UNL     1       4.538 -10.048  -7.202  1.00  0.00    -0.550 OA
ENDBRANCH   8   9
ENDBRANCH   7   8
ENDBRANCH   6   7
ENDBRANCH   5   6
ENDBRANCH   4   5
ENDBRANCH   3   4
ENDBRANCH   2   3
ENDBRANCH   1   2
BRANCH   1  12
ATOM     12  C   UNL     1       8.002 -10.381   0.574  1.00  0.00     0.000 C 
BRANCH  12  13
ATOM     13  C   UNL     1       6.909  -9.418   0.086  1.00  0.00    -0.000 C 
BRANCH  13  14
ATOM     14  C   UNL     1       6.751  -9.495  -1.437  1.00  0.00    -0.000 C 
BRANCH  14  15
ATOM     15  C   UNL     1       5.345  -9.970  -1.821  1.00  0.00    -0.000 C 
BRANCH  15  16
ATOM     16  C   UNL     1       4.385  -9.871  -0.629  1.00  0.00    -0.000 C 
BRANCH  16  17
ATOM     17  C   UNL     1       3.593 -11.171  -0.448  1.00  0.00    -0.000 C 
BRANCH  17  18
ATOM     18  C   UNL     1       3.744 -12.083  -1.674  1.00  0.00    -0.000 C 
BRANCH  18  19
ATOM     19  C   UNL     1       3.842 -13.569  -1.295  1.00  0.00    -0.003 C 
ATOM     20  C   UNL     1       3.193 -14.487  -2.331  1.00  0.00     0.004 C 
ENDBRANCH  18  19
ENDBRANCH  17  18
ENDBRANCH  16  17
ENDBRANCH  15  16
ENDBRANCH  14  15
ENDBRANCH  13  14
ENDBRANCH  12  13
ENDBRANCH   1  12
TORSDOF 16
ENDMDL
MODEL 7
REMARK VINA RESULT:    -4.454      1.583      1.961
REMARK INTER + INTRA:         -11.266
REMARK INTER:                  -9.166
REMARK INTRA:                  -2.101
REMARK UNBOUND:                -2.646
REMARK SMILES CCCCCCCCCCCCCCCCCC(=O)[O-]
REMARK SMILES IDX 10 1 11 2 12 3 13 4 14 5 15 6 16 7 17 8 18 9 19 10 20 11
REMARK SMILES IDX 9 12 8 13 7 14 6 15 5 16 4 17 3 18 2 19 1 20
REMARK H PARENT
REMARK Flexibility Score: inf
ROOT
ATOM      1  C   UNL     1       7.596 -13.483  -2.747  1.00  0.00     0.000 C 
ENDROOT
BRANCH   1   2
ATOM      2  C   UNL     1       6.876 -12.679  -3.844  1.00  0.00     0.000 C 
BRANCH   2   3
ATOM      3  C   UNL     1       5.392 -13.056  -3.973  1.00  0.00     0.000 C 
BRANCH   3   4
ATOM      4  C   UNL     1       4.916 -13.086  -5.437  1.00  0.00     0.000 C 
BRANCH   4   5
ATOM      5  C   UNL     1       4.067 -11.860  -5.806  1.00  0.00     0.000 C 
BRANCH   5   6
ATOM      6  C   UNL     1       4.856 -10.817  -6.612  1.00  0.00     0.000 C 
BRANCH   6   7
ATOM      7  C   UNL     1       3.910  -9.791  -7.255  1.00  0.00     0.006 C 
BRANCH   7   8
ATOM      8  C   UNL     1       2.473  -9.916  -6.730  1.00  0.00     0.053 C 
BRANCH   8   9
ATOM      9  C   UNL     1       1.928  -8.595  -6.283  1.00  0.00     0.041 C 
ATOM     10  O   UNL     1       2.374  -7.525  -6.778  1.00  0.00    -0.550 OA
ATOM     11  O   UNL     1       0.955  -8.541  -5.293  1.00  0.00    -0.550 OA
ENDBRANCH   8   9
ENDBRANCH   7   8
ENDBRANCH   6   7
ENDBRANCH   5   6
ENDBRANCH   4   5
ENDBRANCH   3   4
ENDBRANCH   2   3
ENDBRANCH   1   2
BRANCH   1  12
ATOM     12  C   UNL     1       7.250 -12.993  -1.332  1.00  0.00     0.000 C 
BRANCH  12  13
ATOM     13  C   UNL     1       8.498 -12.662  -0.500  1.00  0.00    -0.000 C 
BRANCH  13  14
ATOM     14  C   UNL     1       8.567 -11.161  -0.190  1.00  0.00    -0.000 C 
BRANCH  14  15
ATOM     15  C   UNL     1       7.167 -10.537  -0.174  1.00  0.00    -0.000 C 
BRANCH  15  16
ATOM     16  C   UNL     1       7.238  -9.019  -0.376  1.00  0.00    -0.000 C 
BRANCH  16  17
ATOM     17  C   UNL     1       6.182  -8.545  -1.382  1.00  0.00    -0.000 C 
BRANCH  17  18
ATOM     18  C   UNL     1       5.278  -9.707  -1.819  1.00  0.00    -0.000 C 
BRANCH  18  19
ATOM     19  C   UNL     1       4.715  -9.517  -3.236  1.00  0.00    -0.003 C 
ATOM     20  C   UNL     1       4.395  -8.058  -3.555  1.00  0.00     0.004 C 
ENDBRANCH  18  19
ENDBRANCH  17  18
ENDBRANCH  16  17
ENDBRANCH  15  16
ENDBRANCH  14  15
ENDBRANCH  13  14
ENDBRANCH  12  13
ENDBRANCH   1  12
TORSDOF 16
ENDMDL
MODEL 8
REMARK VINA RESULT:    -4.442      1.659      3.418
REMARK INTER + INTRA:         -11.242
REMARK INTER:                  -9.320
REMARK INTRA:                  -1.922
REMARK UNBOUND:                -2.646
REMARK SMILES CCCCCCCCCCCCCCCCCC(=O)[O-]
REMARK SMILES IDX 10 1 11 2 12 3 13 4 14 5 15 6 16 7 17 8 18 9 19 10 20 11
REMARK SMILES IDX 9 12 8 13 7 14 6 15 5 16 4 17 3 18 2 19 1 20
REMARK H PARENT
REMARK Flexibility Score: inf
ROOT
ATOM      1  C   UNL     1       5.305 -13.359  -4.505  1.00  0.00     0.000 C 
ENDROOT
BRANCH   1   2
ATOM      2  C   UNL     1       4.846 -12.477  -5.680  1.00  0.00     0.000 C 
BRANCH   2   3
ATOM      3  C   UNL     1       3.543 -11.720  -5.375  1.00  0.00     0.000 C 
BRANCH   3   4
ATOM      4  C   UNL     1       3.798 -10.343  -4.736  1.00  0.00     0.000 C 
BRANCH   4   5
ATOM      5  C   UNL     1       4.424  -9.343  -5.721  1.00  0.00     0.000 C 
BRANCH   5   6
ATOM      6  C   UNL     1       3.772  -9.398  -7.111  1.00  0.00     0.000 C 
BRANCH   6   7
ATOM      7  C   UNL     1       3.365  -7.993  -7.582  1.00  0.00     0.006 C 
BRANCH   7   8
ATOM      8  C   UNL     1       3.053  -7.054  -6.409  1.00  0.00     0.053 C 
BRANCH   8   9
ATOM      9  C   UNL     1       3.900  -5.820  -6.445  1.00  0.00     0.041 C 
ATOM     10  O   UNL     1       3.504  -4.763  -5.883  1.00  0.00    -0.550 OA
ATOM     11  O   UNL     1       5.108  -5.823  -7.129  1.00  0.00    -0.550 OA
ENDBRANCH   8   9
ENDBRANCH   7   8
ENDBRANCH   6   7
ENDBRANCH   5   6
ENDBRANCH   4   5
ENDBRANCH   3   4
ENDBRANCH   2   3
ENDBRANCH   1   2
BRANCH   1  12
ATOM     12  C   UNL     1       6.828 -13.333  -4.307  1.00  0.00     0.000 C 
BRANCH  12  13
ATOM     13  C   UNL     1       7.233 -12.842  -2.909  1.00  0.00    -0.000 C 
BRANCH  13  14
ATOM     14  C   UNL     1       6.044 -12.896  -1.943  1.00  0.00    -0.000 C 
BRANCH  14  15
ATOM     15  C   UNL     1       5.706 -11.499  -1.406  1.00  0.00    -0.000 C 
BRANCH  15  16
ATOM     16  C   UNL     1       6.677 -10.448  -1.959  1.00  0.00    -0.000 C 
BRANCH  16  17
ATOM     17  C   UNL     1       7.158  -9.505  -0.849  1.00  0.00    -0.000 C 
BRANCH  17  18
ATOM     18  C   UNL     1       7.694 -10.296   0.352  1.00  0.00    -0.000 C 
BRANCH  18  19
ATOM     19  C   UNL     1       9.088 -10.889   0.094  1.00  0.00    -0.003 C 
ATOM     20  C   UNL     1       9.087 -12.417   0.083  1.00  0.00     0.004 C 
ENDBRANCH  18  19
ENDBRANCH  17  18
ENDBRANCH  16  17
ENDBRANCH  15  16
ENDBRANCH  14  15
ENDBRANCH  13  14
ENDBRANCH  12  13
ENDBRANCH   1  12
TORSDOF 16
ENDMDL
MODEL 9
REMARK VINA RESULT:    -4.432      1.324      2.431
REMARK INTER + INTRA:         -11.223
REMARK INTER:                  -8.544
REMARK INTRA:                  -2.679
REMARK UNBOUND:                -2.646
REMARK SMILES CCCCCCCCCCCCCCCCCC(=O)[O-]
REMARK SMILES IDX 10 1 11 2 12 3 13 4 14 5 15 6 16 7 17 8 18 9 19 10 20 11
REMARK SMILES IDX 9 12 8 13 7 14 6 15 5 16 4 17 3 18 2 19 1 20
REMARK H PARENT
REMARK Flexibility Score: inf
ROOT
ATOM      1  C   UNL     1       6.908 -12.771  -4.204  1.00  0.00     0.000 C 
ENDROOT
BRANCH   1   2
ATOM      2  C   UNL     1       5.472 -13.099  -4.650  1.00  0.00     0.000 C 
BRANCH   2   3
ATOM      3  C   UNL     1       4.922 -12.080  -5.661  1.00  0.00     0.000 C 
BRANCH   3   4
ATOM      4  C   UNL     1       3.404 -11.869  -5.517  1.00  0.00     0.000 C 
BRANCH   4   5
ATOM      5  C   UNL     1       2.970 -10.441  -5.882  1.00  0.00     0.000 C 
BRANCH   5   6
ATOM      6  C   UNL     1       2.223 -10.377  -7.223  1.00  0.00     0.000 C 
BRANCH   6   7
ATOM      7  C   UNL     1       2.839  -9.314  -8.145  1.00  0.00     0.006 C 
BRANCH   7   8
ATOM      8  C   UNL     1       4.371  -9.284  -8.055  1.00  0.00     0.053 C 
BRANCH   8   9
ATOM      9  C   UNL     1       4.891  -7.891  -7.877  1.00  0.00     0.041 C 
ATOM     10  O   UNL     1       5.193  -7.470  -6.728  1.00  0.00    -0.550 OA
ATOM     11  O   UNL     1       5.006  -7.045  -8.972  1.00  0.00    -0.550 OA
ENDBRANCH   8   9
ENDBRANCH   7   8
ENDBRANCH   6   7
ENDBRANCH   5   6
ENDBRANCH   4   5
ENDBRANCH   3   4
ENDBRANCH   2   3
ENDBRANCH   1   2
BRANCH   1  12
ATOM     12  C   UNL     1       7.328 -13.545  -2.945  1.00  0.00     0.000 C 
BRANCH  12  13
ATOM     13  C   UNL     1       7.302 -12.675  -1.680  1.00  0.00    -0.000 C 
BRANCH  13  14
ATOM     14  C   UNL     1       7.511 -11.196  -2.028  1.00  0.00    -0.000 C 
BRANCH  14  15
ATOM     15  C   UNL     1       6.386 -10.330  -1.451  1.00  0.00    -0.000 C 
BRANCH  15  16
ATOM     16  C   UNL     1       5.293 -10.077  -2.497  1.00  0.00    -0.000 C 
BRANCH  16  17
ATOM     17  C   UNL     1       3.897 -10.286  -1.899  1.00  0.00    -0.000 C 
BRANCH  17  18
ATOM     18  C   UNL     1       3.848 -11.561  -1.045  1.00  0.00    -0.000 C 
BRANCH  18  19
ATOM     19  C   UNL     1       3.262 -12.760  -1.806  1.00  0.00    -0.003 C 
ATOM     20  C   UNL     1       3.839 -14.096  -1.340  1.00  0.00     0.004 C 
ENDBRANCH  18  19
ENDBRANCH  17  18
ENDBRANCH  16  17
ENDBRANCH  15  16
ENDBRANCH  14  15
ENDBRANCH  13  14
ENDBRANCH  12  13
ENDBRANCH   1  12
TORSDOF 16
ENDMDL
