MODEL 1
REMARK VINA RESULT:    -3.321      0.000      0.000
REMARK INTER + INTRA:          -7.202
REMARK INTER:                  -5.650
REMARK INTRA:                  -1.552
REMARK UNBOUND:                -1.552
REMARK SMILES CCCCCCCCCCCCCC(=O)[O-]
REMARK SMILES IDX 8 1 9 2 10 3 11 4 12 5 13 6 14 7 15 8 16 9 7 10 6 11 5 12
REMARK SMILES IDX 4 13 3 14 2 15 1 16
REMARK H PARENT
REMARK Flexibility Score: inf
ROOT
ATOM      1  C   UNL     1      57.789  28.311  51.394  1.00  0.00     0.000 C 
ENDROOT
BRANCH   1   2
ATOM      2  C   UNL     1      57.611  29.101  50.084  1.00  0.00     0.000 C 
BRANCH   2   3
ATOM      3  C   UNL     1      58.921  29.250  49.293  1.00  0.00     0.000 C 
BRANCH   3   4
ATOM      4  C   UNL     1      59.766  27.964  49.289  1.00  0.00     0.000 C 
BRANCH   4   5
ATOM      5  C   UNL     1      61.256  28.164  49.637  1.00  0.00     0.006 C 
BRANCH   5   6
ATOM      6  C   UNL     1      61.521  29.189  50.751  1.00  0.00     0.053 C 
BRANCH   6   7
ATOM      7  C   UNL     1      62.295  30.371  50.253  1.00  0.00     0.041 C 
ATOM      8  O   UNL     1      63.328  30.201  49.555  1.00  0.00    -0.550 OA
ATOM      9  O   UNL     1      61.893  31.658  50.586  1.00  0.00    -0.550 OA
ENDBRANCH   6   7
ENDBRANCH   5   6
ENDBRANCH   4   5
ENDBRANCH   3   4
ENDBRANCH   2   3
ENDBRANCH   1   2
BRANCH   1  10
ATOM     10  C   UNL     1      56.834  27.115  51.567  1.00  0.00     0.000 C 
BRANCH  10  11
ATOM     11  C   UNL     1      56.684  26.277  50.286  1.00  0.00    -0.000 C 
BRANCH  11  12
ATOM     12  C   UNL     1      55.245  26.279  49.744  1.00  0.00    -0.000 C 
BRANCH  12  13
ATOM     13  C   UNL     1      54.272  27.050  50.650  1.00  0.00    -0.000 C 
BRANCH  13  14
ATOM     14  C   UNL     1      53.573  28.174  49.870  1.00  0.00    -0.000 C 
BRANCH  14  15
ATOM     15  C   UNL     1      53.918  29.571  50.411  1.00  0.00    -0.003 C 
ATOM     16  C   UNL     1      54.138  29.582  51.923  1.00  0.00     0.004 C 
ENDBRANCH  14  15
ENDBRANCH  13  14
ENDBRANCH  12  13
ENDBRANCH  11  12
ENDBRANCH  10  11
ENDBRANCH   1  10
TORSDOF 12
ENDMDL
MODEL 2
REMARK VINA RESULT:    -3.315      2.494      2.928
REMARK INTER + INTRA:          -7.192
REMARK INTER:                  -5.381
REMARK INTRA:                  -1.811
REMARK UNBOUND:                -1.552
REMARK SMILES CCCCCCCCCCCCCC(=O)[O-]
REMARK SMILES IDX 8 1 9 2 10 3 11 4 12 5 13 6 14 7 15 8 16 9 7 10 6 11 5 12
REMARK SMILES IDX 4 13 3 14 2 15 1 16
REMARK H PARENT
REMARK Flexibility Score: inf
ROOT
ATOM      1  C   UNL     1      57.677  28.579  51.469  1.00  0.00     0.000 C 
ENDROOT
BRANCH   1   2
ATOM      2  C   UNL     1      57.579  29.156  50.044  1.00  0.00     0.000 C 
BRANCH   2   3
ATOM      3  C   UNL     1      58.947  29.286  49.357  1.00  0.00     0.000 C 
BRANCH   3   4
ATOM      4  C   UNL     1      60.110  28.804  50.243  1.00  0.00     0.000 C 
BRANCH   4   5
ATOM      5  C   UNL     1      60.850  27.554  49.722  1.00  0.00     0.006 C 
BRANCH   5   6
ATOM      6  C   UNL     1      60.003  26.272  49.699  1.00  0.00     0.053 C 
BRANCH   6   7
ATOM      7  C   UNL     1      60.186  25.456  50.942  1.00  0.00     0.041 C 
ATOM      8  O   UNL     1      60.894  25.894  51.886  1.00  0.00    -0.550 OA
ATOM      9  O   UNL     1      59.602  24.200  51.044  1.00  0.00    -0.550 OA
ENDBRANCH   6   7
ENDBRANCH   5   6
ENDBRANCH   4   5
ENDBRANCH   3   4
ENDBRANCH   2   3
ENDBRANCH   1   2
BRANCH   1  10
ATOM     10  C   UNL     1      57.009  27.204  51.661  1.00  0.00     0.000 C 
BRANCH  10  11
ATOM     11  C   UNL     1      56.388  26.652  50.366  1.00  0.00    -0.000 C 
BRANCH  11  12
ATOM     12  C   UNL     1      54.891  26.336  50.517  1.00  0.00    -0.000 C 
BRANCH  12  13
ATOM     13  C   UNL     1      54.013  27.155  49.558  1.00  0.00    -0.000 C 
BRANCH  13  14
ATOM     14  C   UNL     1      53.215  28.221  50.324  1.00  0.00    -0.000 C 
BRANCH  14  15
ATOM     15  C   UNL     1      53.951  29.569  50.400  1.00  0.00    -0.003 C 
ATOM     16  C   UNL     1      54.207  30.022  51.838  1.00  0.00     0.004 C 
ENDBRANCH  14  15
ENDBRANCH  13  14
ENDBRANCH  12  13
ENDBRANCH  11  12
ENDBRANCH  10  11
ENDBRANCH   1  10
TORSDOF 12
ENDMDL
MODEL 3
REMARK VINA RESULT:    -3.282      1.508      3.084
REMARK INTER + INTRA:          -7.136
REMARK INTER:                  -5.957
REMARK INTRA:                  -1.179
REMARK UNBOUND:                -1.552
REMARK SMILES CCCCCCCCCCCCCC(=O)[O-]
REMARK SMILES IDX 8 1 9 2 10 3 11 4 12 5 13 6 14 7 15 8 16 9 7 10 6 11 5 12
REMARK SMILES IDX 4 13 3 14 2 15 1 16
REMARK H PARENT
REMARK Flexibility Score: inf
ROOT
ATOM      1  C   UNL     1      59.604  27.897  49.218  1.00  0.00     0.000 C 
ENDROOT
BRANCH   1   2
ATOM      2  C   UNL     1      60.447  27.497  50.444  1.00  0.00     0.000 C 
BRANCH   2   3
ATOM      3  C   UNL     1      61.912  27.196  50.089  1.00  0.00     0.000 C 
BRANCH   3   4
ATOM      4  C   UNL     1      62.617  28.381  49.404  1.00  0.00     0.000 C 
BRANCH   4   5
ATOM      5  C   UNL     1      63.022  29.531  50.350  1.00  0.00     0.006 C 
BRANCH   5   6
ATOM      6  C   UNL     1      62.205  30.821  50.176  1.00  0.00     0.053 C 
BRANCH   6   7
ATOM      7  C   UNL     1      62.965  31.870  49.424  1.00  0.00     0.041 C 
ATOM      8  O   UNL     1      62.407  32.954  49.112  1.00  0.00    -0.550 OA
ATOM      9  O   UNL     1      64.280  31.637  49.041  1.00  0.00    -0.550 OA
ENDBRANCH   6   7
ENDBRANCH   5   6
ENDBRANCH   4   5
ENDBRANCH   3   4
ENDBRANCH   2   3
ENDBRANCH   1   2
BRANCH   1  10
ATOM     10  C   UNL     1      58.876  29.249  49.342  1.00  0.00     0.000 C 
BRANCH  10  11
ATOM     11  C   UNL     1      58.211  29.449  50.715  1.00  0.00    -0.000 C 
BRANCH  11  12
ATOM     12  C   UNL     1      56.731  29.036  50.719  1.00  0.00    -0.000 C 
BRANCH  12  13
ATOM     13  C   UNL     1      56.510  27.625  51.286  1.00  0.00    -0.000 C 
BRANCH  13  14
ATOM     14  C   UNL     1      56.050  26.658  50.185  1.00  0.00    -0.000 C 
BRANCH  14  15
ATOM     15  C   UNL     1      54.611  26.934  49.720  1.00  0.00    -0.003 C 
ATOM     16  C   UNL     1      53.927  25.694  49.144  1.00  0.00     0.004 C 
ENDBRANCH  14  15
ENDBRANCH  13  14
ENDBRANCH  12  13
ENDBRANCH  11  12
ENDBRANCH  10  11
ENDBRANCH   1  10
TORSDOF 12
ENDMDL
MODEL 4
REMARK VINA RESULT:    -3.270     10.352     12.294
REMARK INTER + INTRA:          -7.116
REMARK INTER:                  -5.679
REMARK INTRA:                  -1.437
REMARK UNBOUND:                -1.552
REMARK SMILES CCCCCCCCCCCCCC(=O)[O-]
REMARK SMILES IDX 8 1 9 2 10 3 11 4 12 5 13 6 14 7 15 8 16 9 7 10 6 11 5 12
REMARK SMILES IDX 4 13 3 14 2 15 1 16
REMARK H PARENT
REMARK Flexibility Score: inf
ROOT
ATOM      1  C   UNL     1      60.591  31.886  58.229  1.00  0.00     0.000 C 
ENDROOT
BRANCH   1   2
ATOM      2  C   UNL     1      60.389  30.961  59.444  1.00  0.00     0.000 C 
BRANCH   2   3
ATOM      3  C   UNL     1      60.828  31.609  60.768  1.00  0.00     0.000 C 
BRANCH   3   4
ATOM      4  C   UNL     1      61.338  30.582  61.795  1.00  0.00     0.000 C 
BRANCH   4   5
ATOM      5  C   UNL     1      62.647  29.864  61.403  1.00  0.00     0.006 C 
BRANCH   5   6
ATOM      6  C   UNL     1      63.838  30.801  61.145  1.00  0.00     0.053 C 
BRANCH   6   7
ATOM      7  C   UNL     1      64.557  30.457  59.877  1.00  0.00     0.041 C 
ATOM      8  O   UNL     1      65.725  29.989  59.920  1.00  0.00    -0.550 OA
ATOM      9  O   UNL     1      63.951  30.684  58.648  1.00  0.00    -0.550 OA
ENDBRANCH   6   7
ENDBRANCH   5   6
ENDBRANCH   4   5
ENDBRANCH   3   4
ENDBRANCH   2   3
ENDBRANCH   1   2
BRANCH   1  10
ATOM     10  C   UNL     1      61.389  33.172  58.516  1.00  0.00     0.000 C 
BRANCH  10  11
ATOM     11  C   UNL     1      60.604  34.452  58.181  1.00  0.00    -0.000 C 
BRANCH  11  12
ATOM     12  C   UNL     1      60.617  35.470  59.333  1.00  0.00    -0.000 C 
BRANCH  12  13
ATOM     13  C   UNL     1      61.607  35.093  60.446  1.00  0.00    -0.000 C 
BRANCH  13  14
ATOM     14  C   UNL     1      62.391  36.327  60.921  1.00  0.00    -0.000 C 
BRANCH  14  15
ATOM     15  C   UNL     1      63.826  35.985  61.350  1.00  0.00    -0.003 C 
ATOM     16  C   UNL     1      64.183  34.519  61.107  1.00  0.00     0.004 C 
ENDBRANCH  14  15
ENDBRANCH  13  14
ENDBRANCH  12  13
ENDBRANCH  11  12
ENDBRANCH  10  11
ENDBRANCH   1  10
TORSDOF 12
ENDMDL
MODEL 5
REMARK VINA RESULT:    -3.256     11.111     12.385
REMARK INTER + INTRA:          -7.092
REMARK INTER:                  -5.639
REMARK INTRA:                  -1.453
REMARK UNBOUND:                -1.552
REMARK SMILES CCCCCCCCCCCCCC(=O)[O-]
REMARK SMILES IDX 8 1 9 2 10 3 11 4 12 5 13 6 14 7 15 8 16 9 7 10 6 11 5 12
REMARK SMILES IDX 4 13 3 14 2 15 1 16
REMARK H PARENT
REMARK Flexibility Score: inf
ROOT
ATOM      1  C   UNL     1      61.900  28.395  61.224  1.00  0.00     0.000 C 
ENDROOT
BRANCH   1   2
ATOM      2  C   UNL     1      62.365  27.896  59.843  1.00  0.00     0.000 C 
BRANCH   2   3
ATOM      3  C   UNL     1      63.397  28.828  59.187  1.00  0.00     0.000 C 
BRANCH   3   4
ATOM      4  C   UNL     1      64.790  28.184  59.062  1.00  0.00     0.000 C 
BRANCH   4   5
ATOM      5  C   UNL     1      65.442  27.780  60.401  1.00  0.00     0.006 C 
BRANCH   5   6
ATOM      6  C   UNL     1      66.402  28.827  60.986  1.00  0.00     0.053 C 
BRANCH   6   7
ATOM      7  C   UNL     1      67.764  28.258  61.242  1.00  0.00     0.041 C 
ATOM      8  O   UNL     1      68.646  28.958  61.805  1.00  0.00    -0.550 OA
ATOM      9  O   UNL     1      68.068  26.967  60.831  1.00  0.00    -0.550 OA
ENDBRANCH   6   7
ENDBRANCH   5   6
ENDBRANCH   4   5
ENDBRANCH   3   4
ENDBRANCH   2   3
ENDBRANCH   1   2
BRANCH   1  10
ATOM     10  C   UNL     1      62.327  29.834  61.573  1.00  0.00     0.000 C 
BRANCH  10  11
ATOM     11  C   UNL     1      61.141  30.810  61.650  1.00  0.00    -0.000 C 
BRANCH  11  12
ATOM     12  C   UNL     1      60.641  31.241  60.261  1.00  0.00    -0.000 C 
BRANCH  12  13
ATOM     13  C   UNL     1      61.644  32.140  59.522  1.00  0.00    -0.000 C 
BRANCH  13  14
ATOM     14  C   UNL     1      61.683  33.544  60.145  1.00  0.00    -0.000 C 
BRANCH  14  15
ATOM     15  C   UNL     1      63.089  33.940  60.621  1.00  0.00    -0.003 C 
ATOM     16  C   UNL     1      64.126  32.842  60.383  1.00  0.00     0.004 C 
ENDBRANCH  14  15
ENDBRANCH  13  14
ENDBRANCH  12  13
ENDBRANCH  11  12
ENDBRANCH  10  11
ENDBRANCH   1  10
TORSDOF 12
ENDMDL
MODEL 6
REMARK VINA RESULT:    -3.236      1.559      2.869
REMARK INTER + INTRA:          -7.058
REMARK INTER:                  -5.491
REMARK INTRA:                  -1.567
REMARK UNBOUND:                -1.552
REMARK SMILES CCCCCCCCCCCCCC(=O)[O-]
REMARK SMILES IDX 8 1 9 2 10 3 11 4 12 5 13 6 14 7 15 8 16 9 7 10 6 11 5 12
REMARK SMILES IDX 4 13 3 14 2 15 1 16
REMARK H PARENT
REMARK Flexibility Score: inf
ROOT
ATOM      1  C   UNL     1      55.745  26.265  50.833  1.00  0.00     0.000 C 
ENDROOT
BRANCH   1   2
ATOM      2  C   UNL     1      57.199  26.740  50.654  1.00  0.00     0.000 C 
BRANCH   2   3
ATOM      3  C   UNL     1      57.472  28.096  51.325  1.00  0.00     0.000 C 
BRANCH   3   4
ATOM      4  C   UNL     1      57.664  29.238  50.310  1.00  0.00     0.000 C 
BRANCH   4   5
ATOM      5  C   UNL     1      58.849  29.052  49.340  1.00  0.00     0.006 C 
BRANCH   5   6
ATOM      6  C   UNL     1      60.235  29.173  49.993  1.00  0.00     0.053 C 
BRANCH   6   7
ATOM      7  C   UNL     1      61.078  27.959  49.749  1.00  0.00     0.041 C 
ATOM      8  O   UNL     1      60.662  26.821  50.093  1.00  0.00    -0.550 OA
ATOM      9  O   UNL     1      62.334  28.087  49.170  1.00  0.00    -0.550 OA
ENDBRANCH   6   7
ENDBRANCH   5   6
ENDBRANCH   4   5
ENDBRANCH   3   4
ENDBRANCH   2   3
ENDBRANCH   1   2
BRANCH   1  10
ATOM     10  C   UNL     1      54.913  26.216  49.538  1.00  0.00     0.000 C 
BRANCH  10  11
ATOM     11  C   UNL     1      53.656  27.102  49.597  1.00  0.00    -0.000 C 
BRANCH  11  12
ATOM     12  C   UNL     1      53.700  28.110  50.757  1.00  0.00    -0.000 C 
BRANCH  12  13
ATOM     13  C   UNL     1      53.752  29.568  50.274  1.00  0.00    -0.000 C 
BRANCH  13  14
ATOM     14  C   UNL     1      53.911  30.531  51.460  1.00  0.00    -0.000 C 
BRANCH  14  15
ATOM     15  C   UNL     1      54.646  29.890  52.648  1.00  0.00    -0.003 C 
ATOM     16  C   UNL     1      55.235  30.924  53.607  1.00  0.00     0.004 C 
ENDBRANCH  14  15
ENDBRANCH  13  14
ENDBRANCH  12  13
ENDBRANCH  11  12
ENDBRANCH  10  11
ENDBRANCH   1  10
TORSDOF 12
ENDMDL
MODEL 7
REMARK VINA RESULT:    -3.186     10.889     12.747
REMARK INTER + INTRA:          -6.974
REMARK INTER:                  -5.595
REMARK INTRA:                  -1.379
REMARK UNBOUND:                -1.552
REMARK SMILES CCCCCCCCCCCCCC(=O)[O-]
REMARK SMILES IDX 8 1 9 2 10 3 11 4 12 5 13 6 14 7 15 8 16 9 7 10 6 11 5 12
REMARK SMILES IDX 4 13 3 14 2 15 1 16
REMARK H PARENT
REMARK Flexibility Score: inf
ROOT
ATOM      1  C   UNL     1      61.101  33.275  59.366  1.00  0.00     0.000 C 
ENDROOT
BRANCH   1   2
ATOM      2  C   UNL     1      61.896  34.097  60.399  1.00  0.00     0.000 C 
BRANCH   2   3
ATOM      3  C   UNL     1      61.495  35.581  60.418  1.00  0.00     0.000 C 
BRANCH   3   4
ATOM      4  C   UNL     1      62.528  36.469  61.135  1.00  0.00     0.000 C 
BRANCH   4   5
ATOM      5  C   UNL     1      63.958  35.892  61.186  1.00  0.00     0.006 C 
BRANCH   5   6
ATOM      6  C   UNL     1      65.003  36.702  60.401  1.00  0.00     0.053 C 
BRANCH   6   7
ATOM      7  C   UNL     1      65.366  36.042  59.105  1.00  0.00     0.041 C 
ATOM      8  O   UNL     1      66.565  36.014  58.725  1.00  0.00    -0.550 OA
ATOM      9  O   UNL     1      64.376  35.488  58.304  1.00  0.00    -0.550 OA
ENDBRANCH   6   7
ENDBRANCH   5   6
ENDBRANCH   4   5
ENDBRANCH   3   4
ENDBRANCH   2   3
ENDBRANCH   1   2
BRANCH   1  10
ATOM     10  C   UNL     1      60.918  31.787  59.720  1.00  0.00     0.000 C 
BRANCH  10  11
ATOM     11  C   UNL     1      60.791  31.541  61.233  1.00  0.00    -0.000 C 
BRANCH  11  12
ATOM     12  C   UNL     1      61.562  30.294  61.696  1.00  0.00    -0.000 C 
BRANCH  12  13
ATOM     13  C   UNL     1      62.566  29.794  60.645  1.00  0.00    -0.000 C 
BRANCH  13  14
ATOM     14  C   UNL     1      64.010  30.035  61.111  1.00  0.00    -0.000 C 
BRANCH  14  15
ATOM     15  C   UNL     1      64.934  30.476  59.965  1.00  0.00    -0.003 C 
ATOM     16  C   UNL     1      64.639  31.896  59.481  1.00  0.00     0.004 C 
ENDBRANCH  14  15
ENDBRANCH  13  14
ENDBRANCH  12  13
ENDBRANCH  11  12
ENDBRANCH  10  11
ENDBRANCH   1  10
TORSDOF 12
ENDMDL
MODEL 8
REMARK VINA RESULT:    -3.174      2.933      3.699
REMARK INTER + INTRA:          -6.952
REMARK INTER:                  -5.400
REMARK INTRA:                  -1.552
REMARK UNBOUND:                -1.552
REMARK SMILES CCCCCCCCCCCCCC(=O)[O-]
REMARK SMILES IDX 8 1 9 2 10 3 11 4 12 5 13 6 14 7 15 8 16 9 7 10 6 11 5 12
REMARK SMILES IDX 4 13 3 14 2 15 1 16
REMARK H PARENT
REMARK Flexibility Score: inf
ROOT
ATOM      1  C   UNL     1      58.299  29.360  50.304  1.00  0.00     0.000 C 
ENDROOT
BRANCH   1   2
ATOM      2  C   UNL     1      59.230  28.790  49.217  1.00  0.00     0.000 C 
BRANCH   2   3
ATOM      3  C   UNL     1      60.133  27.660  49.737  1.00  0.00     0.000 C 
BRANCH   3   4
ATOM      4  C   UNL     1      59.528  26.262  49.516  1.00  0.00     0.000 C 
BRANCH   4   5
ATOM      5  C   UNL     1      59.460  25.376  50.777  1.00  0.00     0.006 C 
BRANCH   5   6
ATOM      6  C   UNL     1      60.569  25.642  51.807  1.00  0.00     0.053 C 
BRANCH   6   7
ATOM      7  C   UNL     1      61.626  24.580  51.779  1.00  0.00     0.041 C 
ATOM      8  O   UNL     1      61.313  23.382  51.553  1.00  0.00    -0.550 OA
ATOM      9  O   UNL     1      62.951  24.909  52.033  1.00  0.00    -0.550 OA
ENDBRANCH   6   7
ENDBRANCH   5   6
ENDBRANCH   4   5
ENDBRANCH   3   4
ENDBRANCH   2   3
ENDBRANCH   1   2
BRANCH   1  10
ATOM     10  C   UNL     1      56.902  28.713  50.368  1.00  0.00     0.000 C 
BRANCH  10  11
ATOM     11  C   UNL     1      56.671  27.912  51.661  1.00  0.00    -0.000 C 
BRANCH  11  12
ATOM     12  C   UNL     1      56.191  26.478  51.388  1.00  0.00    -0.000 C 
BRANCH  12  13
ATOM     13  C   UNL     1      55.711  26.277  49.942  1.00  0.00    -0.000 C 
BRANCH  13  14
ATOM     14  C   UNL     1      54.265  25.760  49.913  1.00  0.00    -0.000 C 
BRANCH  14  15
ATOM     15  C   UNL     1      53.311  26.713  49.175  1.00  0.00    -0.003 C 
ATOM     16  C   UNL     1      53.237  28.095  49.823  1.00  0.00     0.004 C 
ENDBRANCH  14  15
ENDBRANCH  13  14
ENDBRANCH  12  13
ENDBRANCH  11  12
ENDBRANCH  10  11
ENDBRANCH   1  10
TORSDOF 12
ENDMDL
MODEL 9
REMARK VINA RESULT:    -3.166     11.232     12.965
REMARK INTER + INTRA:          -6.939
REMARK INTER:                  -5.408
REMARK INTRA:                  -1.532
REMARK UNBOUND:                -1.552
REMARK SMILES CCCCCCCCCCCCCC(=O)[O-]
REMARK SMILES IDX 8 1 9 2 10 3 11 4 12 5 13 6 14 7 15 8 16 9 7 10 6 11 5 12
REMARK SMILES IDX 4 13 3 14 2 15 1 16
REMARK H PARENT
REMARK Flexibility Score: inf
ROOT
ATOM      1  C   UNL     1      61.622  32.433  59.372  1.00  0.00     0.000 C 
ENDROOT
BRANCH   1   2
ATOM      2  C   UNL     1      61.177  32.210  60.829  1.00  0.00     0.000 C 
BRANCH   2   3
ATOM      3  C   UNL     1      60.921  30.730  61.156  1.00  0.00     0.000 C 
BRANCH   3   4
ATOM      4  C   UNL     1      62.181  30.003  61.661  1.00  0.00     0.000 C 
BRANCH   4   5
ATOM      5  C   UNL     1      62.939  29.194  60.588  1.00  0.00     0.006 C 
BRANCH   5   6
ATOM      6  C   UNL     1      63.149  27.711  60.934  1.00  0.00     0.053 C 
BRANCH   6   7
ATOM      7  C   UNL     1      61.857  27.019  61.244  1.00  0.00     0.041 C 
ATOM      8  O   UNL     1      60.953  26.947  60.371  1.00  0.00    -0.550 OA
ATOM      9  O   UNL     1      61.639  26.484  62.507  1.00  0.00    -0.550 OA
ENDBRANCH   6   7
ENDBRANCH   5   6
ENDBRANCH   4   5
ENDBRANCH   3   4
ENDBRANCH   2   3
ENDBRANCH   1   2
BRANCH   1  10
ATOM     10  C   UNL     1      63.021  33.056  59.207  1.00  0.00     0.000 C 
BRANCH  10  11
ATOM     11  C   UNL     1      63.798  33.146  60.532  1.00  0.00    -0.000 C 
BRANCH  11  12
ATOM     12  C   UNL     1      64.324  34.562  60.813  1.00  0.00    -0.000 C 
BRANCH  12  13
ATOM     13  C   UNL     1      63.205  35.550  61.177  1.00  0.00    -0.000 C 
BRANCH  13  14
ATOM     14  C   UNL     1      63.075  36.647  60.109  1.00  0.00    -0.000 C 
BRANCH  14  15
ATOM     15  C   UNL     1      61.758  36.552  59.321  1.00  0.00    -0.003 C 
ATOM     16  C   UNL     1      60.590  36.064  60.179  1.00  0.00     0.004 C 
ENDBRANCH  14  15
ENDBRANCH  13  14
ENDBRANCH  12  13
ENDBRANCH  11  12
ENDBRANCH  10  11
ENDBRANCH   1  10
TORSDOF 12
ENDMDL
