MODEL 1
REMARK VINA RESULT:    -3.410      0.000      0.000
REMARK INTER + INTRA:         -12.843
REMARK INTER:                  -8.593
REMARK INTRA:                  -4.250
REMARK UNBOUND:                -4.250
REMARK SMILES CCCCCCCCCCCCCCCCCCCCCCCCCCCC(=O)[O-]
REMARK SMILES IDX 15 1 16 2 17 3 18 4 19 5 20 6 21 7 22 8 23 9 24 10 25 11
REMARK SMILES IDX 26 12 27 13 28 14 29 15 30 16 14 17 13 18 12 19 11 20 10 21
REMARK SMILES IDX 9 22 8 23 7 24 6 25 5 26 4 27 3 28 2 29 1 30
REMARK H PARENT
REMARK Flexibility Score: inf
ROOT
ATOM      1  C   UNL     1      21.939  70.370  16.719  1.00  0.00     0.000 C 
ENDROOT
BRANCH   1   2
ATOM      2  C   UNL     1      22.705  70.084  18.028  1.00  0.00     0.000 C 
BRANCH   2   3
ATOM      3  C   UNL     1      22.380  68.714  18.652  1.00  0.00     0.000 C 
BRANCH   3   4
ATOM      4  C   UNL     1      23.045  67.547  17.903  1.00  0.00     0.000 C 
BRANCH   4   5
ATOM      5  C   UNL     1      22.547  66.168  18.374  1.00  0.00     0.000 C 
BRANCH   5   6
ATOM      6  C   UNL     1      21.247  66.185  19.203  1.00  0.00     0.000 C 
BRANCH   6   7
ATOM      7  C   UNL     1      20.081  65.363  18.616  1.00  0.00     0.000 C 
BRANCH   7   8
ATOM      8  C   UNL     1      18.825  66.180  18.255  1.00  0.00     0.000 C 
BRANCH   8   9
ATOM      9  C   UNL     1      19.102  67.570  17.649  1.00  0.00     0.000 C 
BRANCH   9  10
ATOM     10  C   UNL     1      19.073  67.627  16.111  1.00  0.00     0.000 C 
BRANCH  10  11
ATOM     11  C   UNL     1      20.416  67.240  15.474  1.00  0.00     0.000 C 
BRANCH  11  12
ATOM     12  C   UNL     1      20.316  65.886  14.760  1.00  0.00     0.006 C 
BRANCH  12  13
ATOM     13  C   UNL     1      21.445  64.949  15.200  1.00  0.00     0.053 C 
BRANCH  13  14
ATOM     14  C   UNL     1      22.704  65.249  14.450  1.00  0.00     0.041 C 
ATOM     15  O   UNL     1      23.788  65.411  15.072  1.00  0.00    -0.550 OA
ATOM     16  O   UNL     1      22.689  65.319  13.063  1.00  0.00    -0.550 OA
ENDBRANCH  13  14
ENDBRANCH  12  13
ENDBRANCH  11  12
ENDBRANCH  10  11
ENDBRANCH   9  10
ENDBRANCH   8   9
ENDBRANCH   7   8
ENDBRANCH   6   7
ENDBRANCH   5   6
ENDBRANCH   4   5
ENDBRANCH   3   4
ENDBRANCH   2   3
ENDBRANCH   1   2
BRANCH   1  17
ATOM     17  C   UNL     1      20.541  70.957  16.982  1.00  0.00     0.000 C 
BRANCH  17  18
ATOM     18  C   UNL     1      20.107  71.963  15.904  1.00  0.00     0.000 C 
BRANCH  18  19
ATOM     19  C   UNL     1      20.856  71.762  14.577  1.00  0.00     0.000 C 
BRANCH  19  20
ATOM     20  C   UNL     1      21.399  73.078  13.998  1.00  0.00     0.000 C 
BRANCH  20  21
ATOM     21  C   UNL     1      22.856  73.353  14.411  1.00  0.00     0.000 C 
BRANCH  21  22
ATOM     22  C   UNL     1      23.820  72.226  13.993  1.00  0.00    -0.000 C 
BRANCH  22  23
ATOM     23  C   UNL     1      24.488  72.427  12.620  1.00  0.00    -0.000 C 
BRANCH  23  24
ATOM     24  C   UNL     1      24.005  71.418  11.563  1.00  0.00    -0.000 C 
BRANCH  24  25
ATOM     25  C   UNL     1      25.158  70.926  10.662  1.00  0.00    -0.000 C 
BRANCH  25  26
ATOM     26  C   UNL     1      25.850  72.057   9.877  1.00  0.00    -0.000 C 
BRANCH  26  27
ATOM     27  C   UNL     1      27.372  72.143  10.085  1.00  0.00    -0.000 C 
BRANCH  27  28
ATOM     28  C   UNL     1      27.837  71.404  11.353  1.00  0.00    -0.000 C 
BRANCH  28  29
ATOM     29  C   UNL     1      28.452  72.350  12.396  1.00  0.00    -0.003 C 
ATOM     30  C   UNL     1      27.928  72.094  13.809  1.00  0.00     0.004 C 
ENDBRANCH  28  29
ENDBRANCH  27  28
ENDBRANCH  26  27
ENDBRANCH  25  26
ENDBRANCH  24  25
ENDBRANCH  23  24
ENDBRANCH  22  23
ENDBRANCH  21  22
ENDBRANCH  20  21
ENDBRANCH  19  20
ENDBRANCH  18  19
ENDBRANCH  17  18
ENDBRANCH   1  17
TORSDOF 26
ENDMDL
MODEL 2
REMARK VINA RESULT:    -3.188      2.649      8.454
REMARK INTER + INTRA:         -12.285
REMARK INTER:                  -8.219
REMARK INTRA:                  -4.066
REMARK UNBOUND:                -4.250
REMARK SMILES CCCCCCCCCCCCCCCCCCCCCCCCCCCC(=O)[O-]
REMARK SMILES IDX 15 1 16 2 17 3 18 4 19 5 20 6 21 7 22 8 23 9 24 10 25 11
REMARK SMILES IDX 26 12 27 13 28 14 29 15 30 16 14 17 13 18 12 19 11 20 10 21
REMARK SMILES IDX 9 22 8 23 7 24 6 25 5 26 4 27 3 28 2 29 1 30
REMARK H PARENT
REMARK Flexibility Score: inf
ROOT
ATOM      1  C   UNL     1      21.646  70.716  15.750  1.00  0.00     0.000 C 
ENDROOT
BRANCH   1   2
ATOM      2  C   UNL     1      21.869  72.201  15.394  1.00  0.00     0.000 C 
BRANCH   2   3
ATOM      3  C   UNL     1      23.345  72.637  15.440  1.00  0.00     0.000 C 
BRANCH   3   4
ATOM      4  C   UNL     1      24.000  72.669  14.050  1.00  0.00     0.000 C 
BRANCH   4   5
ATOM      5  C   UNL     1      23.129  73.370  12.991  1.00  0.00     0.000 C 
BRANCH   5   6
ATOM      6  C   UNL     1      22.904  72.571  11.690  1.00  0.00     0.000 C 
BRANCH   6   7
ATOM      7  C   UNL     1      22.579  71.076  11.884  1.00  0.00     0.000 C 
BRANCH   7   8
ATOM      8  C   UNL     1      22.286  70.300  10.584  1.00  0.00     0.000 C 
BRANCH   8   9
ATOM      9  C   UNL     1      23.346  70.456   9.477  1.00  0.00     0.000 C 
BRANCH   9  10
ATOM     10  C   UNL     1      24.733  69.880   9.818  1.00  0.00     0.000 C 
BRANCH  10  11
ATOM     11  C   UNL     1      25.796  70.968  10.029  1.00  0.00     0.000 C 
BRANCH  11  12
ATOM     12  C   UNL     1      26.498  70.797  11.381  1.00  0.00     0.006 C 
BRANCH  12  13
ATOM     13  C   UNL     1      26.867  72.155  11.985  1.00  0.00     0.053 C 
BRANCH  13  14
ATOM     14  C   UNL     1      28.246  72.120  12.561  1.00  0.00     0.041 C 
ATOM     15  O   UNL     1      29.231  71.832  11.830  1.00  0.00    -0.550 OA
ATOM     16  O   UNL     1      28.451  72.436  13.898  1.00  0.00    -0.550 OA
ENDBRANCH  13  14
ENDBRANCH  12  13
ENDBRANCH  11  12
ENDBRANCH  10  11
ENDBRANCH   9  10
ENDBRANCH   8   9
ENDBRANCH   7   8
ENDBRANCH   6   7
ENDBRANCH   5   6
ENDBRANCH   4   5
ENDBRANCH   3   4
ENDBRANCH   2   3
ENDBRANCH   1   2
BRANCH   1  17
ATOM     17  C   UNL     1      21.262  70.525  17.228  1.00  0.00     0.000 C 
BRANCH  17  18
ATOM     18  C   UNL     1      22.463  70.155  18.111  1.00  0.00     0.000 C 
BRANCH  18  19
ATOM     19  C   UNL     1      22.346  68.738  18.698  1.00  0.00     0.000 C 
BRANCH  19  20
ATOM     20  C   UNL     1      22.945  67.664  17.776  1.00  0.00     0.000 C 
BRANCH  20  21
ATOM     21  C   UNL     1      22.519  66.239  18.171  1.00  0.00     0.000 C 
BRANCH  21  22
ATOM     22  C   UNL     1      21.298  66.216  19.111  1.00  0.00    -0.000 C 
BRANCH  22  23
ATOM     23  C   UNL     1      20.242  65.148  18.768  1.00  0.00    -0.000 C 
BRANCH  23  24
ATOM     24  C   UNL     1      18.917  65.750  18.268  1.00  0.00    -0.000 C 
BRANCH  24  25
ATOM     25  C   UNL     1      18.938  67.293  18.284  1.00  0.00    -0.000 C 
BRANCH  25  26
ATOM     26  C   UNL     1      18.990  67.922  16.878  1.00  0.00    -0.000 C 
BRANCH  26  27
ATOM     27  C   UNL     1      19.668  67.047  15.810  1.00  0.00    -0.000 C 
BRANCH  27  28
ATOM     28  C   UNL     1      19.663  67.705  14.418  1.00  0.00    -0.000 C 
BRANCH  28  29
ATOM     29  C   UNL     1      18.915  69.046  14.401  1.00  0.00    -0.003 C 
ATOM     30  C   UNL     1      19.134  69.830  13.107  1.00  0.00     0.004 C 
ENDBRANCH  28  29
ENDBRANCH  27  28
ENDBRANCH  26  27
ENDBRANCH  25  26
ENDBRANCH  24  25
ENDBRANCH  23  24
ENDBRANCH  22  23
ENDBRANCH  21  22
ENDBRANCH  20  21
ENDBRANCH  19  20
ENDBRANCH  18  19
ENDBRANCH  17  18
ENDBRANCH   1  17
TORSDOF 26
ENDMDL
MODEL 3
REMARK VINA RESULT:    -3.175      2.736      6.640
REMARK INTER + INTRA:         -12.250
REMARK INTER:                  -7.310
REMARK INTRA:                  -4.940
REMARK UNBOUND:                -4.250
REMARK SMILES CCCCCCCCCCCCCCCCCCCCCCCCCCCC(=O)[O-]
REMARK SMILES IDX 15 1 16 2 17 3 18 4 19 5 20 6 21 7 22 8 23 9 24 10 25 11
REMARK SMILES IDX 26 12 27 13 28 14 29 15 30 16 14 17 13 18 12 19 11 20 10 21
REMARK SMILES IDX 9 22 8 23 7 24 6 25 5 26 4 27 3 28 2 29 1 30
REMARK H PARENT
REMARK Flexibility Score: inf
ROOT
ATOM      1  C   UNL     1      26.473  72.000  13.136  1.00  0.00     0.000 C 
ENDROOT
BRANCH   1   2
ATOM      2  C   UNL     1      25.158  71.643  12.409  1.00  0.00     0.000 C 
BRANCH   2   3
ATOM      3  C   UNL     1      23.910  72.303  13.023  1.00  0.00     0.000 C 
BRANCH   3   4
ATOM      4  C   UNL     1      24.122  72.733  14.483  1.00  0.00     0.000 C 
BRANCH   4   5
ATOM      5  C   UNL     1      23.126  73.815  14.942  1.00  0.00     0.000 C 
BRANCH   5   6
ATOM      6  C   UNL     1      22.104  74.264  13.878  1.00  0.00     0.000 C 
BRANCH   6   7
ATOM      7  C   UNL     1      20.711  73.614  13.987  1.00  0.00     0.000 C 
BRANCH   7   8
ATOM      8  C   UNL     1      20.128  73.556  15.413  1.00  0.00     0.000 C 
BRANCH   8   9
ATOM      9  C   UNL     1      19.738  72.147  15.901  1.00  0.00     0.000 C 
BRANCH   9  10
ATOM     10  C   UNL     1      20.411  70.986  15.147  1.00  0.00     0.000 C 
BRANCH  10  11
ATOM     11  C   UNL     1      21.667  70.461  15.857  1.00  0.00     0.000 C 
BRANCH  11  12
ATOM     12  C   UNL     1      21.703  70.917  17.321  1.00  0.00     0.006 C 
BRANCH  12  13
ATOM     13  C   UNL     1      22.740  70.121  18.119  1.00  0.00     0.053 C 
BRANCH  13  14
ATOM     14  C   UNL     1      22.342  68.683  18.215  1.00  0.00     0.041 C 
ATOM     15  O   UNL     1      23.092  67.785  17.748  1.00  0.00    -0.550 OA
ATOM     16  O   UNL     1      21.158  68.329  18.850  1.00  0.00    -0.550 OA
ENDBRANCH  13  14
ENDBRANCH  12  13
ENDBRANCH  11  12
ENDBRANCH  10  11
ENDBRANCH   9  10
ENDBRANCH   8   9
ENDBRANCH   7   8
ENDBRANCH   6   7
ENDBRANCH   5   6
ENDBRANCH   4   5
ENDBRANCH   3   4
ENDBRANCH   2   3
ENDBRANCH   1   2
BRANCH   1  17
ATOM     17  C   UNL     1      27.710  71.735  12.260  1.00  0.00     0.000 C 
BRANCH  17  18
ATOM     18  C   UNL     1      27.386  70.902  11.010  1.00  0.00     0.000 C 
BRANCH  18  19
ATOM     19  C   UNL     1      28.416  71.103   9.886  1.00  0.00     0.000 C 
BRANCH  19  20
ATOM     20  C   UNL     1      27.799  71.718   8.620  1.00  0.00     0.000 C 
BRANCH  20  21
ATOM     21  C   UNL     1      26.369  72.240   8.849  1.00  0.00     0.000 C 
BRANCH  21  22
ATOM     22  C   UNL     1      26.277  73.777   8.797  1.00  0.00    -0.000 C 
BRANCH  22  23
ATOM     23  C   UNL     1      26.231  74.467  10.173  1.00  0.00    -0.000 C 
BRANCH  23  24
ATOM     24  C   UNL     1      25.261  75.661  10.216  1.00  0.00    -0.000 C 
BRANCH  24  25
ATOM     25  C   UNL     1      23.878  75.264  10.775  1.00  0.00    -0.000 C 
BRANCH  25  26
ATOM     26  C   UNL     1      22.816  75.032   9.682  1.00  0.00    -0.000 C 
BRANCH  26  27
ATOM     27  C   UNL     1      22.544  73.554   9.358  1.00  0.00    -0.000 C 
BRANCH  27  28
ATOM     28  C   UNL     1      21.550  72.907  10.340  1.00  0.00    -0.000 C 
BRANCH  28  29
ATOM     29  C   UNL     1      21.554  71.373  10.259  1.00  0.00    -0.003 C 
ATOM     30  C   UNL     1      20.899  70.714  11.473  1.00  0.00     0.004 C 
ENDBRANCH  28  29
ENDBRANCH  27  28
ENDBRANCH  26  27
ENDBRANCH  25  26
ENDBRANCH  24  25
ENDBRANCH  23  24
ENDBRANCH  22  23
ENDBRANCH  21  22
ENDBRANCH  20  21
ENDBRANCH  19  20
ENDBRANCH  18  19
ENDBRANCH  17  18
ENDBRANCH   1  17
TORSDOF 26
ENDMDL
MODEL 4
REMARK VINA RESULT:    -3.129      2.702      8.476
REMARK INTER + INTRA:         -12.134
REMARK INTER:                  -8.002
REMARK INTRA:                  -4.132
REMARK UNBOUND:                -4.250
REMARK SMILES CCCCCCCCCCCCCCCCCCCCCCCCCCCC(=O)[O-]
REMARK SMILES IDX 15 1 16 2 17 3 18 4 19 5 20 6 21 7 22 8 23 9 24 10 25 11
REMARK SMILES IDX 26 12 27 13 28 14 29 15 30 16 14 17 13 18 12 19 11 20 10 21
REMARK SMILES IDX 9 22 8 23 7 24 6 25 5 26 4 27 3 28 2 29 1 30
REMARK H PARENT
REMARK Flexibility Score: inf
ROOT
ATOM      1  C   UNL     1      22.827  71.630  14.231  1.00  0.00     0.000 C 
ENDROOT
BRANCH   1   2
ATOM      2  C   UNL     1      23.334  72.851  15.028  1.00  0.00     0.000 C 
BRANCH   2   3
ATOM      3  C   UNL     1      22.772  74.195  14.529  1.00  0.00     0.000 C 
BRANCH   3   4
ATOM      4  C   UNL     1      21.236  74.231  14.518  1.00  0.00     0.000 C 
BRANCH   4   5
ATOM      5  C   UNL     1      20.654  74.747  13.189  1.00  0.00     0.000 C 
BRANCH   5   6
ATOM      6  C   UNL     1      21.011  73.909  11.944  1.00  0.00     0.000 C 
BRANCH   6   7
ATOM      7  C   UNL     1      22.077  74.528  11.018  1.00  0.00     0.000 C 
BRANCH   7   8
ATOM      8  C   UNL     1      23.287  73.621  10.720  1.00  0.00     0.000 C 
BRANCH   8   9
ATOM      9  C   UNL     1      22.966  72.117  10.619  1.00  0.00     0.000 C 
BRANCH   9  10
ATOM     10  C   UNL     1      24.194  71.190  10.574  1.00  0.00     0.000 C 
BRANCH  10  11
ATOM     11  C   UNL     1      25.501  71.912  10.935  1.00  0.00     0.000 C 
BRANCH  11  12
ATOM     12  C   UNL     1      25.863  71.690  12.409  1.00  0.00     0.006 C 
BRANCH  12  13
ATOM     13  C   UNL     1      27.309  71.206  12.552  1.00  0.00     0.053 C 
BRANCH  13  14
ATOM     14  C   UNL     1      28.181  72.298  13.087  1.00  0.00     0.041 C 
ATOM     15  O   UNL     1      28.486  73.278  12.357  1.00  0.00    -0.550 OA
ATOM     16  O   UNL     1      28.629  72.251  14.401  1.00  0.00    -0.550 OA
ENDBRANCH  13  14
ENDBRANCH  12  13
ENDBRANCH  11  12
ENDBRANCH  10  11
ENDBRANCH   9  10
ENDBRANCH   8   9
ENDBRANCH   7   8
ENDBRANCH   6   7
ENDBRANCH   5   6
ENDBRANCH   4   5
ENDBRANCH   3   4
ENDBRANCH   2   3
ENDBRANCH   1   2
BRANCH   1  17
ATOM     17  C   UNL     1      21.954  70.699  15.090  1.00  0.00     0.000 C 
BRANCH  17  18
ATOM     18  C   UNL     1      22.144  70.929  16.598  1.00  0.00     0.000 C 
BRANCH  18  19
ATOM     19  C   UNL     1      20.843  70.728  17.392  1.00  0.00     0.000 C 
BRANCH  19  20
ATOM     20  C   UNL     1      19.615  70.557  16.483  1.00  0.00     0.000 C 
BRANCH  20  21
ATOM     21  C   UNL     1      18.906  69.207  16.690  1.00  0.00     0.000 C 
BRANCH  21  22
ATOM     22  C   UNL     1      19.320  68.147  15.650  1.00  0.00    -0.000 C 
BRANCH  22  23
ATOM     23  C   UNL     1      19.245  66.692  16.150  1.00  0.00    -0.000 C 
BRANCH  23  24
ATOM     24  C   UNL     1      19.167  66.586  17.683  1.00  0.00    -0.000 C 
BRANCH  24  25
ATOM     25  C   UNL     1      20.037  65.433  18.229  1.00  0.00    -0.000 C 
BRANCH  25  26
ATOM     26  C   UNL     1      21.187  65.909  19.139  1.00  0.00    -0.000 C 
BRANCH  26  27
ATOM     27  C   UNL     1      21.411  67.430  19.146  1.00  0.00    -0.000 C 
BRANCH  27  28
ATOM     28  C   UNL     1      22.701  67.841  18.413  1.00  0.00    -0.000 C 
BRANCH  28  29
ATOM     29  C   UNL     1      22.742  67.336  16.962  1.00  0.00    -0.003 C 
ATOM     30  C   UNL     1      23.778  66.232  16.750  1.00  0.00     0.004 C 
ENDBRANCH  28  29
ENDBRANCH  27  28
ENDBRANCH  26  27
ENDBRANCH  25  26
ENDBRANCH  24  25
ENDBRANCH  23  24
ENDBRANCH  22  23
ENDBRANCH  21  22
ENDBRANCH  20  21
ENDBRANCH  19  20
ENDBRANCH  18  19
ENDBRANCH  17  18
ENDBRANCH   1  17
TORSDOF 26
ENDMDL
MODEL 5
REMARK VINA RESULT:    -3.077      2.724      4.647
REMARK INTER + INTRA:         -12.004
REMARK INTER:                  -6.127
REMARK INTRA:                  -5.877
REMARK UNBOUND:                -4.250
REMARK SMILES CCCCCCCCCCCCCCCCCCCCCCCCCCCC(=O)[O-]
REMARK SMILES IDX 15 1 16 2 17 3 18 4 19 5 20 6 21 7 22 8 23 9 24 10 25 11
REMARK SMILES IDX 26 12 27 13 28 14 29 15 30 16 14 17 13 18 12 19 11 20 10 21
REMARK SMILES IDX 9 22 8 23 7 24 6 25 5 26 4 27 3 28 2 29 1 30
REMARK H PARENT
REMARK Flexibility Score: inf
ROOT
ATOM      1  C   UNL     1      22.727  67.399  18.602  1.00  0.00     0.000 C 
ENDROOT
BRANCH   1   2
ATOM      2  C   UNL     1      21.461  66.551  18.850  1.00  0.00     0.000 C 
BRANCH   2   3
ATOM      3  C   UNL     1      20.195  67.387  19.115  1.00  0.00     0.000 C 
BRANCH   3   4
ATOM      4  C   UNL     1      19.053  67.063  18.138  1.00  0.00     0.000 C 
BRANCH   4   5
ATOM      5  C   UNL     1      19.385  65.895  17.191  1.00  0.00     0.000 C 
BRANCH   5   6
ATOM      6  C   UNL     1      19.370  66.242  15.688  1.00  0.00     0.000 C 
BRANCH   6   7
ATOM      7  C   UNL     1      20.745  66.581  15.077  1.00  0.00     0.000 C 
BRANCH   7   8
ATOM      8  C   UNL     1      20.736  67.728  14.048  1.00  0.00     0.000 C 
BRANCH   8   9
ATOM      9  C   UNL     1      19.362  68.387  13.818  1.00  0.00     0.000 C 
BRANCH   9  10
ATOM     10  C   UNL     1      18.988  68.618  12.342  1.00  0.00     0.000 C 
BRANCH  10  11
ATOM     11  C   UNL     1      18.843  67.309  11.552  1.00  0.00     0.000 C 
BRANCH  11  12
ATOM     12  C   UNL     1      19.913  67.205  10.458  1.00  0.00     0.006 C 
BRANCH  12  13
ATOM     13  C   UNL     1      20.665  68.530  10.298  1.00  0.00     0.053 C 
BRANCH  13  14
ATOM     14  C   UNL     1      22.141  68.296  10.248  1.00  0.00     0.041 C 
ATOM     15  O   UNL     1      22.597  67.122  10.257  1.00  0.00    -0.550 OA
ATOM     16  O   UNL     1      23.015  69.373  10.158  1.00  0.00    -0.550 OA
ENDBRANCH  13  14
ENDBRANCH  12  13
ENDBRANCH  11  12
ENDBRANCH  10  11
ENDBRANCH   9  10
ENDBRANCH   8   9
ENDBRANCH   7   8
ENDBRANCH   6   7
ENDBRANCH   5   6
ENDBRANCH   4   5
ENDBRANCH   3   4
ENDBRANCH   2   3
ENDBRANCH   1   2
BRANCH   1  17
ATOM     17  C   UNL     1      22.503  68.475  17.524  1.00  0.00     0.000 C 
BRANCH  17  18
ATOM     18  C   UNL     1      22.687  69.902  18.062  1.00  0.00     0.000 C 
BRANCH  18  19
ATOM     19  C   UNL     1      21.576  70.856  17.590  1.00  0.00     0.000 C 
BRANCH  19  20
ATOM     20  C   UNL     1      20.497  70.142  16.760  1.00  0.00     0.000 C 
BRANCH  20  21
ATOM     21  C   UNL     1      19.298  71.051  16.438  1.00  0.00     0.000 C 
BRANCH  21  22
ATOM     22  C   UNL     1      19.681  72.541  16.352  1.00  0.00    -0.000 C 
BRANCH  22  23
ATOM     23  C   UNL     1      19.472  73.181  14.966  1.00  0.00    -0.000 C 
BRANCH  23  24
ATOM     24  C   UNL     1      19.420  72.146  13.828  1.00  0.00    -0.000 C 
BRANCH  24  25
ATOM     25  C   UNL     1      20.561  72.348  12.808  1.00  0.00    -0.000 C 
BRANCH  25  26
ATOM     26  C   UNL     1      21.591  71.201  12.802  1.00  0.00    -0.000 C 
BRANCH  26  27
ATOM     27  C   UNL     1      22.558  71.204  13.998  1.00  0.00    -0.000 C 
BRANCH  27  28
ATOM     28  C   UNL     1      23.485  72.433  14.006  1.00  0.00    -0.000 C 
BRANCH  28  29
ATOM     29  C   UNL     1      23.353  73.264  15.291  1.00  0.00    -0.003 C 
ATOM     30  C   UNL     1      23.022  74.731  15.017  1.00  0.00     0.004 C 
ENDBRANCH  28  29
ENDBRANCH  27  28
ENDBRANCH  26  27
ENDBRANCH  25  26
ENDBRANCH  24  25
ENDBRANCH  23  24
ENDBRANCH  22  23
ENDBRANCH  21  22
ENDBRANCH  20  21
ENDBRANCH  19  20
ENDBRANCH  18  19
ENDBRANCH  17  18
ENDBRANCH   1  17
TORSDOF 26
ENDMDL
MODEL 6
REMARK VINA RESULT:    -3.070      2.592      8.116
REMARK INTER + INTRA:         -11.987
REMARK INTER:                  -7.619
REMARK INTRA:                  -4.368
REMARK UNBOUND:                -4.250
REMARK SMILES CCCCCCCCCCCCCCCCCCCCCCCCCCCC(=O)[O-]
REMARK SMILES IDX 15 1 16 2 17 3 18 4 19 5 20 6 21 7 22 8 23 9 24 10 25 11
REMARK SMILES IDX 26 12 27 13 28 14 29 15 30 16 14 17 13 18 12 19 11 20 10 21
REMARK SMILES IDX 9 22 8 23 7 24 6 25 5 26 4 27 3 28 2 29 1 30
REMARK H PARENT
REMARK Flexibility Score: inf
ROOT
ATOM      1  C   UNL     1      21.174  69.649  14.212  1.00  0.00     0.000 C 
ENDROOT
BRANCH   1   2
ATOM      2  C   UNL     1      19.804  70.063  13.633  1.00  0.00     0.000 C 
BRANCH   2   3
ATOM      3  C   UNL     1      19.648  71.581  13.431  1.00  0.00     0.000 C 
BRANCH   3   4
ATOM      4  C   UNL     1      19.222  72.312  14.714  1.00  0.00     0.000 C 
BRANCH   4   5
ATOM      5  C   UNL     1      20.403  72.971  15.452  1.00  0.00     0.000 C 
BRANCH   5   6
ATOM      6  C   UNL     1      21.340  73.819  14.569  1.00  0.00     0.000 C 
BRANCH   6   7
ATOM      7  C   UNL     1      22.836  73.747  14.937  1.00  0.00     0.000 C 
BRANCH   7   8
ATOM      8  C   UNL     1      23.578  72.504  14.407  1.00  0.00     0.000 C 
BRANCH   8   9
ATOM      9  C   UNL     1      23.359  72.202  12.912  1.00  0.00     0.000 C 
BRANCH   9  10
ATOM     10  C   UNL     1      24.137  73.110  11.943  1.00  0.00     0.000 C 
BRANCH  10  11
ATOM     11  C   UNL     1      24.979  72.320  10.930  1.00  0.00     0.000 C 
BRANCH  11  12
ATOM     12  C   UNL     1      25.843  71.267  11.634  1.00  0.00     0.006 C 
BRANCH  12  13
ATOM     13  C   UNL     1      26.811  71.922  12.623  1.00  0.00     0.053 C 
BRANCH  13  14
ATOM     14  C   UNL     1      28.222  71.796  12.143  1.00  0.00     0.041 C 
ATOM     15  O   UNL     1      29.178  71.873  12.960  1.00  0.00    -0.550 OA
ATOM     16  O   UNL     1      28.482  71.561  10.799  1.00  0.00    -0.550 OA
ENDBRANCH  13  14
ENDBRANCH  12  13
ENDBRANCH  11  12
ENDBRANCH  10  11
ENDBRANCH   9  10
ENDBRANCH   8   9
ENDBRANCH   7   8
ENDBRANCH   6   7
ENDBRANCH   5   6
ENDBRANCH   4   5
ENDBRANCH   3   4
ENDBRANCH   2   3
ENDBRANCH   1   2
BRANCH   1  17
ATOM     17  C   UNL     1      21.075  69.221  15.687  1.00  0.00     0.000 C 
BRANCH  17  18
ATOM     18  C   UNL     1      19.722  68.578  16.030  1.00  0.00     0.000 C 
BRANCH  18  19
ATOM     19  C   UNL     1      19.065  69.217  17.265  1.00  0.00     0.000 C 
BRANCH  19  20
ATOM     20  C   UNL     1      18.033  68.293  17.931  1.00  0.00     0.000 C 
BRANCH  20  21
ATOM     21  C   UNL     1      18.607  67.541  19.145  1.00  0.00     0.000 C 
BRANCH  21  22
ATOM     22  C   UNL     1      19.232  66.184  18.769  1.00  0.00    -0.000 C 
BRANCH  22  23
ATOM     23  C   UNL     1      20.747  66.080  19.025  1.00  0.00    -0.000 C 
BRANCH  23  24
ATOM     24  C   UNL     1      21.396  67.436  19.353  1.00  0.00    -0.000 C 
BRANCH  24  25
ATOM     25  C   UNL     1      22.657  67.697  18.501  1.00  0.00    -0.000 C 
BRANCH  25  26
ATOM     26  C   UNL     1      23.253  66.419  17.878  1.00  0.00    -0.000 C 
BRANCH  26  27
ATOM     27  C   UNL     1      23.660  66.557  16.401  1.00  0.00    -0.000 C 
BRANCH  27  28
ATOM     28  C   UNL     1      23.147  65.391  15.536  1.00  0.00    -0.000 C 
BRANCH  28  29
ATOM     29  C   UNL     1      21.857  65.741  14.778  1.00  0.00    -0.003 C 
ATOM     30  C   UNL     1      20.612  65.114  15.406  1.00  0.00     0.004 C 
ENDBRANCH  28  29
ENDBRANCH  27  28
ENDBRANCH  26  27
ENDBRANCH  25  26
ENDBRANCH  24  25
ENDBRANCH  23  24
ENDBRANCH  22  23
ENDBRANCH  21  22
ENDBRANCH  20  21
ENDBRANCH  19  20
ENDBRANCH  18  19
ENDBRANCH  17  18
ENDBRANCH   1  17
TORSDOF 26
ENDMDL
MODEL 7
REMARK VINA RESULT:    -3.058      2.317      6.265
REMARK INTER + INTRA:         -11.955
REMARK INTER:                  -7.532
REMARK INTRA:                  -4.423
REMARK UNBOUND:                -4.250
REMARK SMILES CCCCCCCCCCCCCCCCCCCCCCCCCCCC(=O)[O-]
REMARK SMILES IDX 15 1 16 2 17 3 18 4 19 5 20 6 21 7 22 8 23 9 24 10 25 11
REMARK SMILES IDX 26 12 27 13 28 14 29 15 30 16 14 17 13 18 12 19 11 20 10 21
REMARK SMILES IDX 9 22 8 23 7 24 6 25 5 26 4 27 3 28 2 29 1 30
REMARK H PARENT
REMARK Flexibility Score: inf
ROOT
ATOM      1  C   UNL     1      26.053  71.957  13.127  1.00  0.00     0.000 C 
ENDROOT
BRANCH   1   2
ATOM      2  C   UNL     1      24.707  71.771  12.393  1.00  0.00     0.000 C 
BRANCH   2   3
ATOM      3  C   UNL     1      23.475  71.970  13.295  1.00  0.00     0.000 C 
BRANCH   3   4
ATOM      4  C   UNL     1      23.795  72.761  14.573  1.00  0.00     0.000 C 
BRANCH   4   5
ATOM      5  C   UNL     1      22.776  73.878  14.862  1.00  0.00     0.000 C 
BRANCH   5   6
ATOM      6  C   UNL     1      21.325  73.573  14.435  1.00  0.00     0.000 C 
BRANCH   6   7
ATOM      7  C   UNL     1      20.496  72.765  15.453  1.00  0.00     0.000 C 
BRANCH   7   8
ATOM      8  C   UNL     1      20.368  71.260  15.142  1.00  0.00     0.000 C 
BRANCH   8   9
ATOM      9  C   UNL     1      21.234  70.337  16.021  1.00  0.00     0.000 C 
BRANCH   9  10
ATOM     10  C   UNL     1      21.821  70.999  17.280  1.00  0.00     0.000 C 
BRANCH  10  11
ATOM     11  C   UNL     1      22.727  70.055  18.084  1.00  0.00     0.000 C 
BRANCH  11  12
ATOM     12  C   UNL     1      22.027  68.718  18.355  1.00  0.00     0.006 C 
BRANCH  12  13
ATOM     13  C   UNL     1      22.816  67.553  17.750  1.00  0.00     0.053 C 
BRANCH  13  14
ATOM     14  C   UNL     1      22.422  66.260  18.390  1.00  0.00     0.041 C 
ATOM     15  O   UNL     1      23.187  65.260  18.322  1.00  0.00    -0.550 OA
ATOM     16  O   UNL     1      21.227  66.164  19.091  1.00  0.00    -0.550 OA
ENDBRANCH  13  14
ENDBRANCH  12  13
ENDBRANCH  11  12
ENDBRANCH  10  11
ENDBRANCH   9  10
ENDBRANCH   8   9
ENDBRANCH   7   8
ENDBRANCH   6   7
ENDBRANCH   5   6
ENDBRANCH   4   5
ENDBRANCH   3   4
ENDBRANCH   2   3
ENDBRANCH   1   2
BRANCH   1  17
ATOM     17  C   UNL     1      27.208  71.233  12.411  1.00  0.00     0.000 C 
BRANCH  17  18
ATOM     18  C   UNL     1      28.400  72.158  12.122  1.00  0.00     0.000 C 
BRANCH  18  19
ATOM     19  C   UNL     1      28.956  71.972  10.701  1.00  0.00     0.000 C 
BRANCH  19  20
ATOM     20  C   UNL     1      28.334  70.768   9.975  1.00  0.00     0.000 C 
BRANCH  20  21
ATOM     21  C   UNL     1      27.621  71.166   8.670  1.00  0.00     0.000 C 
BRANCH  21  22
ATOM     22  C   UNL     1      26.095  70.956   8.733  1.00  0.00    -0.000 C 
BRANCH  22  23
ATOM     23  C   UNL     1      25.265  72.253   8.708  1.00  0.00    -0.000 C 
BRANCH  23  24
ATOM     24  C   UNL     1      26.133  73.523   8.752  1.00  0.00    -0.000 C 
BRANCH  24  25
ATOM     25  C   UNL     1      25.946  74.308  10.068  1.00  0.00    -0.000 C 
BRANCH  25  26
ATOM     26  C   UNL     1      25.649  75.806   9.854  1.00  0.00    -0.000 C 
BRANCH  26  27
ATOM     27  C   UNL     1      24.316  76.287  10.451  1.00  0.00    -0.000 C 
BRANCH  27  28
ATOM     28  C   UNL     1      23.672  75.240  11.379  1.00  0.00    -0.000 C 
BRANCH  28  29
ATOM     29  C   UNL     1      22.266  74.827  10.918  1.00  0.00    -0.003 C 
ATOM     30  C   UNL     1      22.247  74.286   9.488  1.00  0.00     0.004 C 
ENDBRANCH  28  29
ENDBRANCH  27  28
ENDBRANCH  26  27
ENDBRANCH  25  26
ENDBRANCH  24  25
ENDBRANCH  23  24
ENDBRANCH  22  23
ENDBRANCH  21  22
ENDBRANCH  20  21
ENDBRANCH  19  20
ENDBRANCH  18  19
ENDBRANCH  17  18
ENDBRANCH   1  17
TORSDOF 26
ENDMDL
MODEL 8
REMARK VINA RESULT:    -3.041      2.630      7.497
REMARK INTER + INTRA:         -11.912
REMARK INTER:                  -6.651
REMARK INTRA:                  -5.262
REMARK UNBOUND:                -4.250
REMARK SMILES CCCCCCCCCCCCCCCCCCCCCCCCCCCC(=O)[O-]
REMARK SMILES IDX 15 1 16 2 17 3 18 4 19 5 20 6 21 7 22 8 23 9 24 10 25 11
REMARK SMILES IDX 26 12 27 13 28 14 29 15 30 16 14 17 13 18 12 19 11 20 10 21
REMARK SMILES IDX 9 22 8 23 7 24 6 25 5 26 4 27 3 28 2 29 1 30
REMARK H PARENT
REMARK Flexibility Score: inf
ROOT
ATOM      1  C   UNL     1      21.544  69.849  15.141  1.00  0.00     0.000 C 
ENDROOT
BRANCH   1   2
ATOM      2  C   UNL     1      20.464  70.407  14.189  1.00  0.00     0.000 C 
BRANCH   2   3
ATOM      3  C   UNL     1      19.030  69.994  14.567  1.00  0.00     0.000 C 
BRANCH   3   4
ATOM      4  C   UNL     1      18.130  71.198  14.888  1.00  0.00     0.000 C 
BRANCH   4   5
ATOM      5  C   UNL     1      18.354  71.757  16.305  1.00  0.00     0.000 C 
BRANCH   5   6
ATOM      6  C   UNL     1      18.603  73.277  16.381  1.00  0.00     0.000 C 
BRANCH   6   7
ATOM      7  C   UNL     1      19.877  73.772  15.667  1.00  0.00     0.000 C 
BRANCH   7   8
ATOM      8  C   UNL     1      19.652  74.333  14.249  1.00  0.00     0.000 C 
BRANCH   8   9
ATOM      9  C   UNL     1      20.873  74.251  13.313  1.00  0.00     0.000 C 
BRANCH   9  10
ATOM     10  C   UNL     1      22.175  73.775  13.982  1.00  0.00     0.000 C 
BRANCH  10  11
ATOM     11  C   UNL     1      23.291  73.472  12.970  1.00  0.00     0.000 C 
BRANCH  11  12
ATOM     12  C   UNL     1      23.968  72.132  13.281  1.00  0.00     0.006 C 
BRANCH  12  13
ATOM     13  C   UNL     1      24.766  71.627  12.076  1.00  0.00     0.053 C 
BRANCH  13  14
ATOM     14  C   UNL     1      26.225  71.565  12.397  1.00  0.00     0.041 C 
ATOM     15  O   UNL     1      26.648  71.992  13.505  1.00  0.00    -0.550 OA
ATOM     16  O   UNL     1      27.116  71.006  11.489  1.00  0.00    -0.550 OA
ENDBRANCH  13  14
ENDBRANCH  12  13
ENDBRANCH  11  12
ENDBRANCH  10  11
ENDBRANCH   9  10
ENDBRANCH   8   9
ENDBRANCH   7   8
ENDBRANCH   6   7
ENDBRANCH   5   6
ENDBRANCH   4   5
ENDBRANCH   3   4
ENDBRANCH   2   3
ENDBRANCH   1   2
BRANCH   1  17
ATOM     17  C   UNL     1      21.980  70.885  16.193  1.00  0.00     0.000 C 
BRANCH  17  18
ATOM     18  C   UNL     1      21.556  70.498  17.618  1.00  0.00     0.000 C 
BRANCH  18  19
ATOM     19  C   UNL     1      22.646  69.708  18.362  1.00  0.00     0.000 C 
BRANCH  19  20
ATOM     20  C   UNL     1      22.397  68.191  18.340  1.00  0.00     0.000 C 
BRANCH  20  21
ATOM     21  C   UNL     1      21.216  67.770  19.232  1.00  0.00     0.000 C 
BRANCH  21  22
ATOM     22  C   UNL     1      20.216  66.849  18.506  1.00  0.00    -0.000 C 
BRANCH  22  23
ATOM     23  C   UNL     1      19.355  67.549  17.438  1.00  0.00    -0.000 C 
BRANCH  23  24
ATOM     24  C   UNL     1      19.328  66.794  16.097  1.00  0.00    -0.000 C 
BRANCH  24  25
ATOM     25  C   UNL     1      20.644  66.033  15.833  1.00  0.00    -0.000 C 
BRANCH  25  26
ATOM     26  C   UNL     1      21.208  66.254  14.415  1.00  0.00    -0.000 C 
BRANCH  26  27
ATOM     27  C   UNL     1      20.159  66.654  13.364  1.00  0.00    -0.000 C 
BRANCH  27  28
ATOM     28  C   UNL     1      20.783  67.357  12.144  1.00  0.00    -0.000 C 
BRANCH  28  29
ATOM     29  C   UNL     1      19.750  68.142  11.323  1.00  0.00    -0.003 C 
ATOM     30  C   UNL     1      18.312  67.706  11.608  1.00  0.00     0.004 C 
ENDBRANCH  28  29
ENDBRANCH  27  28
ENDBRANCH  26  27
ENDBRANCH  25  26
ENDBRANCH  24  25
ENDBRANCH  23  24
ENDBRANCH  22  23
ENDBRANCH  21  22
ENDBRANCH  20  21
ENDBRANCH  19  20
ENDBRANCH  18  19
ENDBRANCH  17  18
ENDBRANCH   1  17
TORSDOF 26
ENDMDL
MODEL 9
REMARK VINA RESULT:    -3.025      2.078      4.920
REMARK INTER + INTRA:         -11.873
REMARK INTER:                  -6.680
REMARK INTRA:                  -5.193
REMARK UNBOUND:                -4.250
REMARK SMILES CCCCCCCCCCCCCCCCCCCCCCCCCCCC(=O)[O-]
REMARK SMILES IDX 15 1 16 2 17 3 18 4 19 5 20 6 21 7 22 8 23 9 24 10 25 11
REMARK SMILES IDX 26 12 27 13 28 14 29 15 30 16 14 17 13 18 12 19 11 20 10 21
REMARK SMILES IDX 9 22 8 23 7 24 6 25 5 26 4 27 3 28 2 29 1 30
REMARK H PARENT
REMARK Flexibility Score: inf
ROOT
ATOM      1  C   UNL     1      22.783  73.833  13.993  1.00  0.00     0.000 C 
ENDROOT
BRANCH   1   2
ATOM      2  C   UNL     1      21.800  73.777  15.182  1.00  0.00     0.000 C 
BRANCH   2   3
ATOM      3  C   UNL     1      20.319  73.726  14.763  1.00  0.00     0.000 C 
BRANCH   3   4
ATOM      4  C   UNL     1      20.130  73.776  13.238  1.00  0.00     0.000 C 
BRANCH   4   5
ATOM      5  C   UNL     1      19.449  72.515  12.675  1.00  0.00     0.000 C 
BRANCH   5   6
ATOM      6  C   UNL     1      19.316  71.340  13.665  1.00  0.00     0.000 C 
BRANCH   6   7
ATOM      7  C   UNL     1      20.271  70.156  13.413  1.00  0.00     0.000 C 
BRANCH   7   8
ATOM      8  C   UNL     1      20.754  69.428  14.683  1.00  0.00     0.000 C 
BRANCH   8   9
ATOM      9  C   UNL     1      21.776  70.207  15.534  1.00  0.00     0.000 C 
BRANCH   9  10
ATOM     10  C   UNL     1      21.330  70.504  16.977  1.00  0.00     0.000 C 
BRANCH  10  11
ATOM     11  C   UNL     1      22.454  70.296  18.003  1.00  0.00     0.000 C 
BRANCH  11  12
ATOM     12  C   UNL     1      22.457  68.856  18.532  1.00  0.00     0.006 C 
BRANCH  12  13
ATOM     13  C   UNL     1      21.031  68.306  18.635  1.00  0.00     0.053 C 
BRANCH  13  14
ATOM     14  C   UNL     1      20.995  66.858  18.264  1.00  0.00     0.041 C 
ATOM     15  O   UNL     1      21.694  66.433  17.305  1.00  0.00    -0.550 OA
ATOM     16  O   UNL     1      20.217  65.970  18.995  1.00  0.00    -0.550 OA
ENDBRANCH  13  14
ENDBRANCH  12  13
ENDBRANCH  11  12
ENDBRANCH  10  11
ENDBRANCH   9  10
ENDBRANCH   8   9
ENDBRANCH   7   8
ENDBRANCH   6   7
ENDBRANCH   5   6
ENDBRANCH   4   5
ENDBRANCH   3   4
ENDBRANCH   2   3
ENDBRANCH   1   2
BRANCH   1  17
ATOM     17  C   UNL     1      23.975  72.878  14.181  1.00  0.00     0.000 C 
BRANCH  17  18
ATOM     18  C   UNL     1      24.075  71.826  13.066  1.00  0.00     0.000 C 
BRANCH  18  19
ATOM     19  C   UNL     1      22.988  72.002  11.992  1.00  0.00     0.000 C 
BRANCH  19  20
ATOM     20  C   UNL     1      23.098  70.966  10.863  1.00  0.00     0.000 C 
BRANCH  20  21
ATOM     21  C   UNL     1      22.896  71.583   9.468  1.00  0.00     0.000 C 
BRANCH  21  22
ATOM     22  C   UNL     1      22.126  72.918   9.509  1.00  0.00    -0.000 C 
BRANCH  22  23
ATOM     23  C   UNL     1      22.944  74.146   9.066  1.00  0.00    -0.000 C 
BRANCH  23  24
ATOM     24  C   UNL     1      24.455  73.866   8.988  1.00  0.00    -0.000 C 
BRANCH  24  25
ATOM     25  C   UNL     1      25.199  74.337  10.256  1.00  0.00    -0.000 C 
BRANCH  25  26
ATOM     26  C   UNL     1      26.537  73.608  10.489  1.00  0.00    -0.000 C 
BRANCH  26  27
ATOM     27  C   UNL     1      26.488  72.089  10.256  1.00  0.00    -0.000 C 
BRANCH  27  28
ATOM     28  C   UNL     1      27.317  71.305  11.290  1.00  0.00    -0.000 C 
BRANCH  28  29
ATOM     29  C   UNL     1      28.093  72.225  12.244  1.00  0.00    -0.003 C 
ATOM     30  C   UNL     1      27.758  71.972  13.715  1.00  0.00     0.004 C 
ENDBRANCH  28  29
ENDBRANCH  27  28
ENDBRANCH  26  27
ENDBRANCH  25  26
ENDBRANCH  24  25
ENDBRANCH  23  24
ENDBRANCH  22  23
ENDBRANCH  21  22
ENDBRANCH  20  21
ENDBRANCH  19  20
ENDBRANCH  18  19
ENDBRANCH  17  18
ENDBRANCH   1  17
TORSDOF 26
ENDMDL
