MODEL 1
REMARK VINA RESULT:    -4.250      0.000      0.000
REMARK INTER + INTRA:          -7.859
REMARK INTER:                  -7.231
REMARK INTRA:                  -0.628
REMARK UNBOUND:                -0.628
REMARK SMILES CCCCCCCCCCCCCC(=O)[O-]
REMARK SMILES IDX 8 1 9 2 10 3 11 4 12 5 13 6 14 7 15 8 16 9 7 10 6 11 5 12
REMARK SMILES IDX 4 13 3 14 2 15 1 16
REMARK H PARENT
REMARK Flexibility Score: inf
ROOT
ATOM      1  C   UNL     1     -31.306 -21.074 -21.318  1.00  0.00     0.000 C 
ENDROOT
BRANCH   1   2
ATOM      2  C   UNL     1     -31.160 -22.609 -21.349  1.00  0.00     0.000 C 
BRANCH   2   3
ATOM      3  C   UNL     1     -29.758 -23.123 -21.735  1.00  0.00     0.000 C 
BRANCH   3   4
ATOM      4  C   UNL     1     -28.591 -22.469 -20.968  1.00  0.00     0.000 C 
BRANCH   4   5
ATOM      5  C   UNL     1     -28.322 -23.056 -19.568  1.00  0.00     0.006 C 
BRANCH   5   6
ATOM      6  C   UNL     1     -28.520 -22.063 -18.413  1.00  0.00     0.053 C 
BRANCH   6   7
ATOM      7  C   UNL     1     -28.226 -22.686 -17.083  1.00  0.00     0.041 C 
ATOM      8  O   UNL     1     -29.158 -22.907 -16.266  1.00  0.00    -0.550 OA
ATOM      9  O   UNL     1     -26.917 -22.993 -16.734  1.00  0.00    -0.550 OA
ENDBRANCH   6   7
ENDBRANCH   5   6
ENDBRANCH   4   5
ENDBRANCH   3   4
ENDBRANCH   2   3
ENDBRANCH   1   2
BRANCH   1  10
ATOM     10  C   UNL     1     -32.132 -20.480 -22.473  1.00  0.00     0.000 C 
BRANCH  10  11
ATOM     11  C   UNL     1     -31.977 -21.270 -23.784  1.00  0.00    -0.000 C 
BRANCH  11  12
ATOM     12  C   UNL     1     -30.719 -20.872 -24.573  1.00  0.00    -0.000 C 
BRANCH  12  13
ATOM     13  C   UNL     1     -31.004 -19.790 -25.628  1.00  0.00    -0.000 C 
BRANCH  13  14
ATOM     14  C   UNL     1     -30.933 -20.333 -27.065  1.00  0.00    -0.000 C 
BRANCH  14  15
ATOM     15  C   UNL     1     -30.472 -21.797 -27.121  1.00  0.00    -0.003 C 
ATOM     16  C   UNL     1     -31.667 -22.748 -27.123  1.00  0.00     0.004 C 
ENDBRANCH  14  15
ENDBRANCH  13  14
ENDBRANCH  12  13
ENDBRANCH  11  12
ENDBRANCH  10  11
ENDBRANCH   1  10
TORSDOF 12
ENDMDL
MODEL 2
REMARK VINA RESULT:    -3.100      1.378      3.116
REMARK INTER + INTRA:          -5.902
REMARK INTER:                  -5.382
REMARK INTRA:                  -0.520
REMARK UNBOUND:                -0.628
REMARK SMILES CCCCCCCCCCCCCC(=O)[O-]
REMARK SMILES IDX 8 1 9 2 10 3 11 4 12 5 13 6 14 7 15 8 16 9 7 10 6 11 5 12
REMARK SMILES IDX 4 13 3 14 2 15 1 16
REMARK H PARENT
REMARK Flexibility Score: inf
ROOT
ATOM      1  C   UNL     1     -28.352 -21.337 -22.928  1.00  0.00     0.000 C 
ENDROOT
BRANCH   1   2
ATOM      2  C   UNL     1     -27.360 -22.469 -22.593  1.00  0.00     0.000 C 
BRANCH   2   3
ATOM      3  C   UNL     1     -27.561 -23.125 -21.212  1.00  0.00     0.000 C 
BRANCH   3   4
ATOM      4  C   UNL     1     -28.953 -22.910 -20.586  1.00  0.00     0.000 C 
BRANCH   4   5
ATOM      5  C   UNL     1     -29.021 -23.123 -19.059  1.00  0.00     0.006 C 
BRANCH   5   6
ATOM      6  C   UNL     1     -27.827 -22.547 -18.282  1.00  0.00     0.053 C 
BRANCH   6   7
ATOM      7  C   UNL     1     -27.944 -22.800 -16.811  1.00  0.00     0.041 C 
ATOM      8  O   UNL     1     -29.076 -22.964 -16.283  1.00  0.00    -0.550 OA
ATOM      9  O   UNL     1     -26.805 -22.822 -16.017  1.00  0.00    -0.550 OA
ENDBRANCH   6   7
ENDBRANCH   5   6
ENDBRANCH   4   5
ENDBRANCH   3   4
ENDBRANCH   2   3
ENDBRANCH   1   2
BRANCH   1  10
ATOM     10  C   UNL     1     -29.578 -21.773 -23.750  1.00  0.00     0.000 C 
BRANCH  10  11
ATOM     11  C   UNL     1     -29.919 -20.785 -24.880  1.00  0.00    -0.000 C 
BRANCH  11  12
ATOM     12  C   UNL     1     -31.431 -20.552 -25.028  1.00  0.00    -0.000 C 
BRANCH  12  13
ATOM     13  C   UNL     1     -32.207 -20.888 -23.742  1.00  0.00    -0.000 C 
BRANCH  13  14
ATOM     14  C   UNL     1     -32.561 -19.636 -22.923  1.00  0.00    -0.000 C 
BRANCH  14  15
ATOM     15  C   UNL     1     -32.180 -19.772 -21.441  1.00  0.00    -0.003 C 
ATOM     16  C   UNL     1     -31.502 -21.113 -21.171  1.00  0.00     0.004 C 
ENDBRANCH  14  15
ENDBRANCH  13  14
ENDBRANCH  12  13
ENDBRANCH  11  12
ENDBRANCH  10  11
ENDBRANCH   1  10
TORSDOF 12
ENDMDL
MODEL 3
REMARK VINA RESULT:    -3.037      1.552      3.143
REMARK INTER + INTRA:          -5.796
REMARK INTER:                  -4.497
REMARK INTRA:                  -1.299
REMARK UNBOUND:                -0.628
REMARK SMILES CCCCCCCCCCCCCC(=O)[O-]
REMARK SMILES IDX 8 1 9 2 10 3 11 4 12 5 13 6 14 7 15 8 16 9 7 10 6 11 5 12
REMARK SMILES IDX 4 13 3 14 2 15 1 16
REMARK H PARENT
REMARK Flexibility Score: inf
ROOT
ATOM      1  C   UNL     1     -27.962 -22.231 -21.997  1.00  0.00     0.000 C 
ENDROOT
BRANCH   1   2
ATOM      2  C   UNL     1     -29.116 -23.094 -21.445  1.00  0.00     0.000 C 
BRANCH   2   3
ATOM      3  C   UNL     1     -29.658 -22.656 -20.070  1.00  0.00     0.000 C 
BRANCH   3   4
ATOM      4  C   UNL     1     -29.182 -21.269 -19.594  1.00  0.00     0.000 C 
BRANCH   4   5
ATOM      5  C   UNL     1     -28.176 -21.290 -18.425  1.00  0.00     0.006 C 
BRANCH   5   6
ATOM      6  C   UNL     1     -27.656 -22.688 -18.059  1.00  0.00     0.053 C 
BRANCH   6   7
ATOM      7  C   UNL     1     -27.819 -22.979 -16.598  1.00  0.00     0.041 C 
ATOM      8  O   UNL     1     -26.806 -23.123 -15.863  1.00  0.00    -0.550 OA
ATOM      9  O   UNL     1     -29.089 -23.123 -16.056  1.00  0.00    -0.550 OA
ENDBRANCH   6   7
ENDBRANCH   5   6
ENDBRANCH   4   5
ENDBRANCH   3   4
ENDBRANCH   2   3
ENDBRANCH   1   2
BRANCH   1  10
ATOM     10  C   UNL     1     -28.036 -21.940 -23.506  1.00  0.00     0.000 C 
BRANCH  10  11
ATOM     11  C   UNL     1     -29.063 -20.847 -23.852  1.00  0.00    -0.000 C 
BRANCH  11  12
ATOM     12  C   UNL     1     -30.148 -21.339 -24.824  1.00  0.00    -0.000 C 
BRANCH  12  13
ATOM     13  C   UNL     1     -31.570 -21.082 -24.298  1.00  0.00    -0.000 C 
BRANCH  13  14
ATOM     14  C   UNL     1     -31.724 -21.444 -22.811  1.00  0.00    -0.000 C 
BRANCH  14  15
ATOM     15  C   UNL     1     -32.327 -20.299 -21.984  1.00  0.00    -0.003 C 
ATOM     16  C   UNL     1     -33.123 -19.344 -22.869  1.00  0.00     0.004 C 
ENDBRANCH  14  15
ENDBRANCH  13  14
ENDBRANCH  12  13
ENDBRANCH  11  12
ENDBRANCH  10  11
ENDBRANCH   1  10
TORSDOF 12
ENDMDL
MODEL 4
REMARK VINA RESULT:    -2.821      4.041      7.579
REMARK INTER + INTRA:          -5.428
REMARK INTER:                  -5.659
REMARK INTRA:                   0.231
REMARK UNBOUND:                -0.628
REMARK SMILES CCCCCCCCCCCCCC(=O)[O-]
REMARK SMILES IDX 8 1 9 2 10 3 11 4 12 5 13 6 14 7 15 8 16 9 7 10 6 11 5 12
REMARK SMILES IDX 4 13 3 14 2 15 1 16
REMARK H PARENT
REMARK Flexibility Score: inf
ROOT
ATOM      1  C   UNL     1     -30.634 -21.260 -20.990  1.00  0.00     0.000 C 
ENDROOT
BRANCH   1   2
ATOM      2  C   UNL     1     -31.761 -20.330 -21.484  1.00  0.00     0.000 C 
BRANCH   2   3
ATOM      3  C   UNL     1     -32.619 -20.898 -22.633  1.00  0.00     0.000 C 
BRANCH   3   4
ATOM      4  C   UNL     1     -32.159 -20.495 -24.048  1.00  0.00     0.000 C 
BRANCH   4   5
ATOM      5  C   UNL     1     -30.633 -20.354 -24.224  1.00  0.00     0.006 C 
BRANCH   5   6
ATOM      6  C   UNL     1     -30.030 -21.266 -25.303  1.00  0.00     0.053 C 
BRANCH   6   7
ATOM      7  C   UNL     1     -30.870 -21.296 -26.542  1.00  0.00     0.041 C 
ATOM      8  O   UNL     1     -31.173 -22.396 -27.077  1.00  0.00    -0.550 OA
ATOM      9  O   UNL     1     -31.291 -20.108 -27.125  1.00  0.00    -0.550 OA
ENDBRANCH   6   7
ENDBRANCH   5   6
ENDBRANCH   4   5
ENDBRANCH   3   4
ENDBRANCH   2   3
ENDBRANCH   1   2
BRANCH   1  10
ATOM     10  C   UNL     1     -30.542 -22.610 -21.722  1.00  0.00     0.000 C 
BRANCH  10  11
ATOM     11  C   UNL     1     -29.090 -23.065 -21.950  1.00  0.00    -0.000 C 
BRANCH  11  12
ATOM     12  C   UNL     1     -28.275 -23.125 -20.647  1.00  0.00    -0.000 C 
BRANCH  12  13
ATOM     13  C   UNL     1     -29.164 -23.056 -19.394  1.00  0.00    -0.000 C 
BRANCH  13  14
ATOM     14  C   UNL     1     -28.528 -22.229 -18.264  1.00  0.00    -0.000 C 
BRANCH  14  15
ATOM     15  C   UNL     1     -28.296 -23.052 -16.988  1.00  0.00    -0.003 C 
ATOM     16  C   UNL     1     -26.835 -22.982 -16.549  1.00  0.00     0.004 C 
ENDBRANCH  14  15
ENDBRANCH  13  14
ENDBRANCH  12  13
ENDBRANCH  11  12
ENDBRANCH  10  11
ENDBRANCH   1  10
TORSDOF 12
ENDMDL
MODEL 5
REMARK VINA RESULT:    -2.716      1.342      2.833
REMARK INTER + INTRA:          -5.249
REMARK INTER:                  -4.436
REMARK INTRA:                  -0.813
REMARK UNBOUND:                -0.628
REMARK SMILES CCCCCCCCCCCCCC(=O)[O-]
REMARK SMILES IDX 8 1 9 2 10 3 11 4 12 5 13 6 14 7 15 8 16 9 7 10 6 11 5 12
REMARK SMILES IDX 4 13 3 14 2 15 1 16
REMARK H PARENT
REMARK Flexibility Score: inf
ROOT
ATOM      1  C   UNL     1     -32.471 -20.797 -22.877  1.00  0.00     0.000 C 
ENDROOT
BRANCH   1   2
ATOM      2  C   UNL     1     -31.898 -20.898 -21.449  1.00  0.00     0.000 C 
BRANCH   2   3
ATOM      3  C   UNL     1     -31.174 -22.221 -21.129  1.00  0.00     0.000 C 
BRANCH   3   4
ATOM      4  C   UNL     1     -29.770 -22.062 -20.512  1.00  0.00     0.000 C 
BRANCH   4   5
ATOM      5  C   UNL     1     -29.402 -23.118 -19.449  1.00  0.00     0.006 C 
BRANCH   5   6
ATOM      6  C   UNL     1     -27.947 -23.049 -18.961  1.00  0.00     0.053 C 
BRANCH   6   7
ATOM      7  C   UNL     1     -27.862 -22.956 -17.468  1.00  0.00     0.041 C 
ATOM      8  O   UNL     1     -26.752 -22.757 -16.908  1.00  0.00    -0.550 OA
ATOM      9  O   UNL     1     -29.004 -23.120 -16.696  1.00  0.00    -0.550 OA
ENDBRANCH   6   7
ENDBRANCH   5   6
ENDBRANCH   4   5
ENDBRANCH   3   4
ENDBRANCH   2   3
ENDBRANCH   1   2
BRANCH   1  10
ATOM     10  C   UNL     1     -31.975 -19.588 -23.690  1.00  0.00     0.000 C 
BRANCH  10  11
ATOM     11  C   UNL     1     -31.538 -19.968 -25.116  1.00  0.00    -0.000 C 
BRANCH  11  12
ATOM     12  C   UNL     1     -30.626 -21.205 -25.147  1.00  0.00    -0.000 C 
BRANCH  12  13
ATOM     13  C   UNL     1     -29.221 -20.915 -24.590  1.00  0.00    -0.000 C 
BRANCH  13  14
ATOM     14  C   UNL     1     -28.800 -21.915 -23.501  1.00  0.00    -0.000 C 
BRANCH  14  15
ATOM     15  C   UNL     1     -27.280 -21.949 -23.286  1.00  0.00    -0.003 C 
ATOM     16  C   UNL     1     -26.883 -23.092 -22.356  1.00  0.00     0.004 C 
ENDBRANCH  14  15
ENDBRANCH  13  14
ENDBRANCH  12  13
ENDBRANCH  11  12
ENDBRANCH  10  11
ENDBRANCH   1  10
TORSDOF 12
ENDMDL
MODEL 6
REMARK VINA RESULT:    -2.681      3.056      4.603
REMARK INTER + INTRA:          -5.189
REMARK INTER:                  -4.754
REMARK INTRA:                  -0.435
REMARK UNBOUND:                -0.628
REMARK SMILES CCCCCCCCCCCCCC(=O)[O-]
REMARK SMILES IDX 8 1 9 2 10 3 11 4 12 5 13 6 14 7 15 8 16 9 7 10 6 11 5 12
REMARK SMILES IDX 4 13 3 14 2 15 1 16
REMARK H PARENT
REMARK Flexibility Score: inf
ROOT
ATOM      1  C   UNL     1     -27.769 -23.114 -20.705  1.00  0.00     0.000 C 
ENDROOT
BRANCH   1   2
ATOM      2  C   UNL     1     -28.763 -22.841 -19.557  1.00  0.00     0.000 C 
BRANCH   2   3
ATOM      3  C   UNL     1     -29.265 -21.386 -19.462  1.00  0.00     0.000 C 
BRANCH   3   4
ATOM      4  C   UNL     1     -30.040 -20.883 -20.696  1.00  0.00     0.000 C 
BRANCH   4   5
ATOM      5  C   UNL     1     -31.358 -21.628 -20.987  1.00  0.00     0.006 C 
BRANCH   5   6
ATOM      6  C   UNL     1     -32.072 -21.182 -22.272  1.00  0.00     0.053 C 
BRANCH   6   7
ATOM      7  C   UNL     1     -32.775 -19.871 -22.094  1.00  0.00     0.041 C 
ATOM      8  O   UNL     1     -33.536 -19.432 -22.996  1.00  0.00    -0.550 OA
ATOM      9  O   UNL     1     -32.564 -19.120 -20.945  1.00  0.00    -0.550 OA
ENDBRANCH   6   7
ENDBRANCH   5   6
ENDBRANCH   4   5
ENDBRANCH   3   4
ENDBRANCH   2   3
ENDBRANCH   1   2
BRANCH   1  10
ATOM     10  C   UNL     1     -28.393 -23.125 -22.111  1.00  0.00     0.000 C 
BRANCH  10  11
ATOM     11  C   UNL     1     -27.582 -22.301 -23.128  1.00  0.00    -0.000 C 
BRANCH  11  12
ATOM     12  C   UNL     1     -28.340 -21.059 -23.623  1.00  0.00    -0.000 C 
BRANCH  12  13
ATOM     13  C   UNL     1     -29.625 -21.419 -24.388  1.00  0.00    -0.000 C 
BRANCH  13  14
ATOM     14  C   UNL     1     -30.236 -20.211 -25.118  1.00  0.00    -0.000 C 
BRANCH  14  15
ATOM     15  C   UNL     1     -31.258 -20.622 -26.188  1.00  0.00    -0.003 C 
ATOM     16  C   UNL     1     -30.780 -21.850 -26.960  1.00  0.00     0.004 C 
ENDBRANCH  14  15
ENDBRANCH  13  14
ENDBRANCH  12  13
ENDBRANCH  11  12
ENDBRANCH  10  11
ENDBRANCH   1  10
TORSDOF 12
ENDMDL
MODEL 7
REMARK VINA RESULT:    -2.653      2.666      6.841
REMARK INTER + INTRA:          -5.141
REMARK INTER:                  -5.016
REMARK INTRA:                  -0.125
REMARK UNBOUND:                -0.628
REMARK SMILES CCCCCCCCCCCCCC(=O)[O-]
REMARK SMILES IDX 8 1 9 2 10 3 11 4 12 5 13 6 14 7 15 8 16 9 7 10 6 11 5 12
REMARK SMILES IDX 4 13 3 14 2 15 1 16
REMARK H PARENT
REMARK Flexibility Score: inf
ROOT
ATOM      1  C   UNL     1     -28.438 -21.263 -23.091  1.00  0.00     0.000 C 
ENDROOT
BRANCH   1   2
ATOM      2  C   UNL     1     -29.545 -21.606 -24.109  1.00  0.00     0.000 C 
BRANCH   2   3
ATOM      3  C   UNL     1     -29.789 -20.535 -25.192  1.00  0.00     0.000 C 
BRANCH   3   4
ATOM      4  C   UNL     1     -31.268 -20.317 -25.570  1.00  0.00     0.000 C 
BRANCH   4   5
ATOM      5  C   UNL     1     -32.191 -19.929 -24.397  1.00  0.00     0.006 C 
BRANCH   5   6
ATOM      6  C   UNL     1     -32.141 -20.894 -23.202  1.00  0.00     0.053 C 
BRANCH   6   7
ATOM      7  C   UNL     1     -32.244 -20.170 -21.895  1.00  0.00     0.041 C 
ATOM      8  O   UNL     1     -32.840 -19.062 -21.828  1.00  0.00    -0.550 OA
ATOM      9  O   UNL     1     -31.653 -20.704 -20.757  1.00  0.00    -0.550 OA
ENDBRANCH   6   7
ENDBRANCH   5   6
ENDBRANCH   4   5
ENDBRANCH   3   4
ENDBRANCH   2   3
ENDBRANCH   1   2
BRANCH   1  10
ATOM     10  C   UNL     1     -27.419 -22.389 -22.841  1.00  0.00     0.000 C 
BRANCH  10  11
ATOM     11  C   UNL     1     -27.523 -22.983 -21.426  1.00  0.00    -0.000 C 
BRANCH  11  12
ATOM     12  C   UNL     1     -28.966 -23.004 -20.896  1.00  0.00    -0.000 C 
BRANCH  12  13
ATOM     13  C   UNL     1     -29.036 -22.821 -19.370  1.00  0.00    -0.000 C 
BRANCH  13  14
ATOM     14  C   UNL     1     -27.697 -23.124 -18.677  1.00  0.00    -0.000 C 
BRANCH  14  15
ATOM     15  C   UNL     1     -27.746 -22.874 -17.163  1.00  0.00    -0.003 C 
ATOM     16  C   UNL     1     -29.178 -22.951 -16.640  1.00  0.00     0.004 C 
ENDBRANCH  14  15
ENDBRANCH  13  14
ENDBRANCH  12  13
ENDBRANCH  11  12
ENDBRANCH  10  11
ENDBRANCH   1  10
TORSDOF 12
ENDMDL
MODEL 8
REMARK VINA RESULT:    -2.313      4.057      6.277
REMARK INTER + INTRA:          -4.563
REMARK INTER:                  -3.280
REMARK INTRA:                  -1.283
REMARK UNBOUND:                -0.628
REMARK SMILES CCCCCCCCCCCCCC(=O)[O-]
REMARK SMILES IDX 8 1 9 2 10 3 11 4 12 5 13 6 14 7 15 8 16 9 7 10 6 11 5 12
REMARK SMILES IDX 4 13 3 14 2 15 1 16
REMARK H PARENT
REMARK Flexibility Score: inf
ROOT
ATOM      1  C   UNL     1     -27.982 -23.120 -20.470  1.00  0.00     0.000 C 
ENDROOT
BRANCH   1   2
ATOM      2  C   UNL     1     -28.296 -22.997 -21.975  1.00  0.00     0.000 C 
BRANCH   2   3
ATOM      3  C   UNL     1     -27.382 -22.031 -22.755  1.00  0.00     0.000 C 
BRANCH   3   4
ATOM      4  C   UNL     1     -28.055 -21.317 -23.944  1.00  0.00     0.000 C 
BRANCH   4   5
ATOM      5  C   UNL     1     -29.549 -21.646 -24.142  1.00  0.00     0.006 C 
BRANCH   5   6
ATOM      6  C   UNL     1     -30.369 -20.518 -24.787  1.00  0.00     0.053 C 
BRANCH   6   7
ATOM      7  C   UNL     1     -30.970 -20.940 -26.093  1.00  0.00     0.041 C 
ATOM      8  O   UNL     1     -31.105 -20.107 -27.027  1.00  0.00    -0.550 OA
ATOM      9  O   UNL     1     -31.409 -22.247 -26.265  1.00  0.00    -0.550 OA
ENDBRANCH   6   7
ENDBRANCH   5   6
ENDBRANCH   4   5
ENDBRANCH   3   4
ENDBRANCH   2   3
ENDBRANCH   1   2
BRANCH   1  10
ATOM     10  C   UNL     1     -29.044 -22.513 -19.536  1.00  0.00     0.000 C 
BRANCH  10  11
ATOM     11  C   UNL     1     -29.124 -20.980 -19.643  1.00  0.00    -0.000 C 
BRANCH  11  12
ATOM     12  C   UNL     1     -30.304 -20.506 -20.507  1.00  0.00    -0.000 C 
BRANCH  12  13
ATOM     13  C   UNL     1     -31.219 -21.664 -20.940  1.00  0.00    -0.000 C 
BRANCH  13  14
ATOM     14  C   UNL     1     -32.295 -21.223 -21.945  1.00  0.00    -0.000 C 
BRANCH  14  15
ATOM     15  C   UNL     1     -32.477 -19.699 -21.986  1.00  0.00    -0.003 C 
ATOM     16  C   UNL     1     -33.509 -19.298 -23.037  1.00  0.00     0.004 C 
ENDBRANCH  14  15
ENDBRANCH  13  14
ENDBRANCH  12  13
ENDBRANCH  11  12
ENDBRANCH  10  11
ENDBRANCH   1  10
TORSDOF 12
ENDMDL
MODEL 9
REMARK VINA RESULT:    -2.280      3.132      7.262
REMARK INTER + INTRA:          -4.507
REMARK INTER:                  -3.781
REMARK INTRA:                  -0.726
REMARK UNBOUND:                -0.628
REMARK SMILES CCCCCCCCCCCCCC(=O)[O-]
REMARK SMILES IDX 8 1 9 2 10 3 11 4 12 5 13 6 14 7 15 8 16 9 7 10 6 11 5 12
REMARK SMILES IDX 4 13 3 14 2 15 1 16
REMARK H PARENT
REMARK Flexibility Score: inf
ROOT
ATOM      1  C   UNL     1     -28.322 -22.759 -22.069  1.00  0.00     0.000 C 
ENDROOT
BRANCH   1   2
ATOM      2  C   UNL     1     -27.907 -21.870 -23.259  1.00  0.00     0.000 C 
BRANCH   2   3
ATOM      3  C   UNL     1     -28.963 -20.836 -23.701  1.00  0.00     0.000 C 
BRANCH   3   4
ATOM      4  C   UNL     1     -29.832 -21.265 -24.900  1.00  0.00     0.000 C 
BRANCH   4   5
ATOM      5  C   UNL     1     -31.345 -21.346 -24.612  1.00  0.00     0.006 C 
BRANCH   5   6
ATOM      6  C   UNL     1     -31.983 -20.016 -24.180  1.00  0.00     0.053 C 
BRANCH   6   7
ATOM      7  C   UNL     1     -32.572 -20.099 -22.805  1.00  0.00     0.041 C 
ATOM      8  O   UNL     1     -32.818 -21.221 -22.287  1.00  0.00    -0.550 OA
ATOM      9  O   UNL     1     -32.879 -18.937 -22.110  1.00  0.00    -0.550 OA
ENDBRANCH   6   7
ENDBRANCH   5   6
ENDBRANCH   4   5
ENDBRANCH   3   4
ENDBRANCH   2   3
ENDBRANCH   1   2
BRANCH   1  10
ATOM     10  C   UNL     1     -29.840 -22.849 -21.828  1.00  0.00     0.000 C 
BRANCH  10  11
ATOM     11  C   UNL     1     -30.268 -22.223 -20.489  1.00  0.00    -0.000 C 
BRANCH  11  12
ATOM     12  C   UNL     1     -29.777 -23.028 -19.274  1.00  0.00    -0.000 C 
BRANCH  12  13
ATOM     13  C   UNL     1     -28.777 -22.240 -18.411  1.00  0.00    -0.000 C 
BRANCH  13  14
ATOM     14  C   UNL     1     -27.648 -23.125 -17.859  1.00  0.00    -0.000 C 
BRANCH  14  15
ATOM     15  C   UNL     1     -27.555 -23.078 -16.327  1.00  0.00    -0.003 C 
ATOM     16  C   UNL     1     -26.129 -22.771 -15.873  1.00  0.00     0.004 C 
ENDBRANCH  14  15
ENDBRANCH  13  14
ENDBRANCH  12  13
ENDBRANCH  11  12
ENDBRANCH  10  11
ENDBRANCH   1  10
TORSDOF 12
ENDMDL
