MODEL 1
REMARK VINA RESULT:    -7.810      0.000      0.000
REMARK INTER + INTRA:          -9.718
REMARK INTER:                  -9.408
REMARK INTRA:                  -0.310
REMARK UNBOUND:                -0.310
REMARK SMILES O=c1c(O)c(-c2ccc(O)c(O)c2)oc2cc(O)cc(O)c12
REMARK SMILES IDX 5 1 3 2 2 3 1 4 22 5 20 6 19 7 17 8 16 9 15 10 14 11 6 12
REMARK SMILES IDX 7 13 8 14 9 15 13 16 11 17 10 18 12 20 4 22 21 24 18 26
REMARK H PARENT 10 19 12 21 4 23 21 25 18 27
REMARK Flexibility Score: inf
ROOT
ATOM      1  C   UNL     1     -14.812   3.498 -21.467  1.00  0.00     0.180 A 
ATOM      2  C   UNL     1     -14.862   3.182 -22.836  1.00  0.00     0.208 A 
ATOM      3  C   UNL     1     -14.762   1.837 -23.227  1.00  0.00     0.238 A 
ATOM      4  O   UNL     1     -14.862   1.555 -24.450  1.00  0.00    -0.285 OA
ATOM      5  C   UNL     1     -14.595   0.828 -22.249  1.00  0.00     0.111 A 
ATOM      6  C   UNL     1     -14.443  -0.561 -22.535  1.00  0.00     0.134 A 
ATOM      7  C   UNL     1     -14.418  -1.485 -21.482  1.00  0.00     0.093 A 
ATOM      8  C   UNL     1     -14.473  -1.062 -20.151  1.00  0.00     0.123 A 
ATOM      9  C   UNL     1     -14.562   0.297 -19.861  1.00  0.00     0.094 A 
ATOM     10  C   UNL     1     -14.627   1.239 -20.890  1.00  0.00     0.146 A 
ATOM     11  O   UNL     1     -14.721   2.524 -20.570  1.00  0.00    -0.452 OA
ENDROOT
BRANCH   1  12
ATOM     12  C   UNL     1     -14.886   4.894 -20.977  1.00  0.00     0.025 A 
ATOM     13  C   UNL     1     -16.107   5.462 -20.568  1.00  0.00     0.016 A 
ATOM     14  C   UNL     1     -16.158   6.788 -20.132  1.00  0.00     0.051 A 
ATOM     15  C   UNL     1     -14.995   7.569 -20.111  1.00  0.00     0.157 A 
ATOM     16  C   UNL     1     -13.729   5.689 -20.974  1.00  0.00     0.062 A 
ATOM     17  C   UNL     1     -13.780   7.020 -20.536  1.00  0.00     0.158 A 
BRANCH  15  18
ATOM     18  O   UNL     1     -15.042   8.893 -19.676  1.00  0.00    -0.504 OA
ATOM     19  H   UNL     1     -14.252   9.327 -19.212  1.00  0.00     0.293 HD
ENDBRANCH  15  18
BRANCH  17  20
ATOM     20  O   UNL     1     -12.626   7.802 -20.522  1.00  0.00    -0.504 OA
ATOM     21  H   UNL     1     -11.710   7.399 -20.675  1.00  0.00     0.293 HD
ENDBRANCH  17  20
ENDBRANCH   1  12
BRANCH   2  22
ATOM     22  O   UNL     1     -15.048   4.191 -23.784  1.00  0.00    -0.502 OA
ATOM     23  H   UNL     1     -15.815   4.849 -23.735  1.00  0.00     0.293 HD
ENDBRANCH   2  22
BRANCH   6  24
ATOM     24  O   UNL     1     -14.286  -1.081 -23.823  1.00  0.00    -0.507 OA
ATOM     25  H   UNL     1     -14.958  -1.672 -24.289  1.00  0.00     0.293 HD
ENDBRANCH   6  24
BRANCH   8  26
ATOM     26  O   UNL     1     -14.431  -1.987 -19.110  1.00  0.00    -0.508 OA
ATOM     27  H   UNL     1     -15.106  -2.739 -19.042  1.00  0.00     0.293 HD
ENDBRANCH   8  26
TORSDOF 6
ENDMDL
MODEL 2
REMARK VINA RESULT:    -7.786      1.944      7.255
REMARK INTER + INTRA:          -9.689
REMARK INTER:                  -9.374
REMARK INTRA:                  -0.315
REMARK UNBOUND:                -0.310
REMARK SMILES O=c1c(O)c(-c2ccc(O)c(O)c2)oc2cc(O)cc(O)c12
REMARK SMILES IDX 5 1 3 2 2 3 1 4 22 5 20 6 19 7 17 8 16 9 15 10 14 11 6 12
REMARK SMILES IDX 7 13 8 14 9 15 13 16 11 17 10 18 12 20 4 22 21 24 18 26
REMARK H PARENT 10 19 12 21 4 23 21 25 18 27
REMARK Flexibility Score: inf
ROOT
ATOM      1  C   UNL     1     -15.569   4.724 -20.898  1.00  0.00     0.180 A 
ATOM      2  C   UNL     1     -16.866   5.172 -21.200  1.00  0.00     0.208 A 
ATOM      3  C   UNL     1     -17.143   6.547 -21.134  1.00  0.00     0.238 A 
ATOM      4  O   UNL     1     -18.292   6.948 -21.458  1.00  0.00    -0.285 OA
ATOM      5  C   UNL     1     -16.126   7.454 -20.751  1.00  0.00     0.111 A 
ATOM      6  C   UNL     1     -16.306   8.863 -20.613  1.00  0.00     0.134 A 
ATOM      7  C   UNL     1     -15.197   9.679 -20.357  1.00  0.00     0.093 A 
ATOM      8  C   UNL     1     -13.926   9.130 -20.168  1.00  0.00     0.123 A 
ATOM      9  C   UNL     1     -13.752   7.750 -20.244  1.00  0.00     0.094 A 
ATOM     10  C   UNL     1     -14.832   6.914 -20.534  1.00  0.00     0.146 A 
ATOM     11  O   UNL     1     -14.619   5.605 -20.606  1.00  0.00    -0.452 OA
ENDROOT
BRANCH   1  12
ATOM     12  C   UNL     1     -15.205   3.288 -20.921  1.00  0.00     0.025 A 
ATOM     13  C   UNL     1     -15.206   2.514 -19.746  1.00  0.00     0.016 A 
ATOM     14  C   UNL     1     -14.837   1.168 -19.788  1.00  0.00     0.051 A 
ATOM     15  C   UNL     1     -14.449   0.579 -20.998  1.00  0.00     0.157 A 
ATOM     16  C   UNL     1     -14.796   2.697 -22.127  1.00  0.00     0.062 A 
ATOM     17  C   UNL     1     -14.426   1.345 -22.169  1.00  0.00     0.158 A 
BRANCH  15  18
ATOM     18  O   UNL     1     -14.081  -0.765 -21.043  1.00  0.00    -0.504 OA
ATOM     19  H   UNL     1     -14.397  -1.426 -20.342  1.00  0.00     0.293 HD
ENDBRANCH  15  18
BRANCH  17  20
ATOM     20  O   UNL     1     -14.032   0.759 -23.371  1.00  0.00    -0.504 OA
ATOM     21  H   UNL     1     -14.279   1.165 -24.265  1.00  0.00     0.293 HD
ENDBRANCH  17  20
ENDBRANCH   1  12
BRANCH   2  22
ATOM     22  O   UNL     1     -17.850   4.263 -21.597  1.00  0.00    -0.502 OA
ATOM     23  H   UNL     1     -17.716   3.617 -22.364  1.00  0.00     0.293 HD
ENDBRANCH   2  22
BRANCH   6  24
ATOM     24  O   UNL     1     -17.547   9.503 -20.690  1.00  0.00    -0.507 OA
ATOM     25  H   UNL     1     -17.688  10.442 -21.032  1.00  0.00     0.293 HD
ENDBRANCH   6  24
BRANCH   8  26
ATOM     26  O   UNL     1     -12.831   9.948 -19.898  1.00  0.00    -0.508 OA
ATOM     27  H   UNL     1     -12.886  10.700 -19.221  1.00  0.00     0.293 HD
ENDBRANCH   8  26
TORSDOF 6
ENDMDL
MODEL 3
REMARK VINA RESULT:    -7.645      1.488      2.211
REMARK INTER + INTRA:          -9.520
REMARK INTER:                  -9.273
REMARK INTRA:                  -0.247
REMARK UNBOUND:                -0.310
REMARK SMILES O=c1c(O)c(-c2ccc(O)c(O)c2)oc2cc(O)cc(O)c12
REMARK SMILES IDX 5 1 3 2 2 3 1 4 22 5 20 6 19 7 17 8 16 9 15 10 14 11 6 12
REMARK SMILES IDX 7 13 8 14 9 15 13 16 11 17 10 18 12 20 4 22 21 24 18 26
REMARK H PARENT 10 19 12 21 4 23 21 25 18 27
REMARK Flexibility Score: inf
ROOT
ATOM      1  C   UNL     1     -14.789   5.197 -21.468  1.00  0.00     0.180 A 
ATOM      2  C   UNL     1     -14.965   4.815 -22.809  1.00  0.00     0.208 A 
ATOM      3  C   UNL     1     -15.038   3.448 -23.123  1.00  0.00     0.238 A 
ATOM      4  O   UNL     1     -15.250   3.113 -24.318  1.00  0.00    -0.285 OA
ATOM      5  C   UNL     1     -14.917   2.481 -22.096  1.00  0.00     0.111 A 
ATOM      6  C   UNL     1     -14.936   1.070 -22.305  1.00  0.00     0.134 A 
ATOM      7  C   UNL     1     -14.941   0.208 -21.201  1.00  0.00     0.093 A 
ATOM      8  C   UNL     1     -14.860   0.706 -19.898  1.00  0.00     0.123 A 
ATOM      9  C   UNL     1     -14.781   2.080 -19.687  1.00  0.00     0.094 A 
ATOM     10  C   UNL     1     -14.812   2.966 -20.766  1.00  0.00     0.146 A 
ATOM     11  O   UNL     1     -14.744   4.269 -20.520  1.00  0.00    -0.452 OA
ENDROOT
BRANCH   1  12
ATOM     12  C   UNL     1     -14.678   6.617 -21.061  1.00  0.00     0.025 A 
ATOM     13  C   UNL     1     -13.451   7.165 -20.645  1.00  0.00     0.016 A 
ATOM     14  C   UNL     1     -13.374   8.500 -20.243  1.00  0.00     0.051 A 
ATOM     15  C   UNL     1     -14.522   9.303 -20.237  1.00  0.00     0.157 A 
ATOM     16  C   UNL     1     -15.829   7.421 -21.033  1.00  0.00     0.062 A 
ATOM     17  C   UNL     1     -15.752   8.762 -20.630  1.00  0.00     0.158 A 
BRANCH  15  18
ATOM     18  O   UNL     1     -14.450  10.637 -19.837  1.00  0.00    -0.504 OA
ATOM     19  H   UNL     1     -14.930  11.370 -20.347  1.00  0.00     0.293 HD
ENDBRANCH  15  18
BRANCH  17  20
ATOM     20  O   UNL     1     -16.895   9.560 -20.617  1.00  0.00    -0.504 OA
ATOM     21  H   UNL     1     -16.885  10.493 -20.224  1.00  0.00     0.293 HD
ENDBRANCH  17  20
ENDBRANCH   1  12
BRANCH   2  22
ATOM     22  O   UNL     1     -15.104   5.785 -23.805  1.00  0.00    -0.502 OA
ATOM     23  H   UNL     1     -15.912   5.829 -24.412  1.00  0.00     0.293 HD
ENDBRANCH   2  22
BRANCH   6  24
ATOM     24  O   UNL     1     -14.924   0.467 -23.567  1.00  0.00    -0.507 OA
ATOM     25  H   UNL     1     -15.579  -0.237 -23.873  1.00  0.00     0.293 HD
ENDBRANCH   6  24
BRANCH   8  26
ATOM     26  O   UNL     1     -14.849  -0.160 -18.806  1.00  0.00    -0.508 OA
ATOM     27  H   UNL     1     -15.705  -0.429 -18.335  1.00  0.00     0.293 HD
ENDBRANCH   8  26
TORSDOF 6
ENDMDL
MODEL 4
REMARK VINA RESULT:    -7.581      2.048      3.767
REMARK INTER + INTRA:          -9.442
REMARK INTER:                  -9.263
REMARK INTRA:                  -0.180
REMARK UNBOUND:                -0.310
REMARK SMILES O=c1c(O)c(-c2ccc(O)c(O)c2)oc2cc(O)cc(O)c12
REMARK SMILES IDX 5 1 3 2 2 3 1 4 22 5 20 6 19 7 17 8 16 9 15 10 14 11 6 12
REMARK SMILES IDX 7 13 8 14 9 15 13 16 11 17 10 18 12 20 4 22 21 24 18 26
REMARK H PARENT 10 19 12 21 4 23 21 25 18 27
REMARK Flexibility Score: inf
ROOT
ATOM      1  C   UNL     1     -14.667   5.011 -21.341  1.00  0.00     0.180 A 
ATOM      2  C   UNL     1     -14.480   3.921 -20.473  1.00  0.00     0.208 A 
ATOM      3  C   UNL     1     -14.862   2.639 -20.899  1.00  0.00     0.238 A 
ATOM      4  O   UNL     1     -14.643   1.659 -20.139  1.00  0.00    -0.285 OA
ATOM      5  C   UNL     1     -15.441   2.464 -22.179  1.00  0.00     0.111 A 
ATOM      6  C   UNL     1     -15.901   1.217 -22.697  1.00  0.00     0.134 A 
ATOM      7  C   UNL     1     -16.336   1.139 -24.026  1.00  0.00     0.093 A 
ATOM      8  C   UNL     1     -16.388   2.277 -24.835  1.00  0.00     0.123 A 
ATOM      9  C   UNL     1     -15.996   3.509 -24.319  1.00  0.00     0.094 A 
ATOM     10  C   UNL     1     -15.524   3.612 -23.009  1.00  0.00     0.146 A 
ATOM     11  O   UNL     1     -15.151   4.805 -22.560  1.00  0.00    -0.452 OA
ENDROOT
BRANCH   1  12
ATOM     12  C   UNL     1     -14.312   6.396 -20.955  1.00  0.00     0.025 A 
ATOM     13  C   UNL     1     -12.974   6.776 -20.742  1.00  0.00     0.016 A 
ATOM     14  C   UNL     1     -12.664   8.082 -20.355  1.00  0.00     0.051 A 
ATOM     15  C   UNL     1     -13.685   9.023 -20.163  1.00  0.00     0.157 A 
ATOM     16  C   UNL     1     -15.331   7.338 -20.741  1.00  0.00     0.062 A 
ATOM     17  C   UNL     1     -15.020   8.649 -20.354  1.00  0.00     0.158 A 
BRANCH  15  18
ATOM     18  O   UNL     1     -13.380  10.327 -19.778  1.00  0.00    -0.504 OA
ATOM     19  H   UNL     1     -13.243  11.063 -20.462  1.00  0.00     0.293 HD
ENDBRANCH  15  18
BRANCH  17  20
ATOM     20  O   UNL     1     -16.035   9.584 -20.154  1.00  0.00    -0.504 OA
ATOM     21  H   UNL     1     -15.955  10.534 -20.495  1.00  0.00     0.293 HD
ENDBRANCH  17  20
ENDBRANCH   1  12
BRANCH   2  22
ATOM     22  O   UNL     1     -13.887   4.112 -19.222  1.00  0.00    -0.502 OA
ATOM     23  H   UNL     1     -14.424   4.139 -18.364  1.00  0.00     0.293 HD
ENDBRANCH   2  22
BRANCH   6  24
ATOM     24  O   UNL     1     -15.977   0.040 -21.946  1.00  0.00    -0.507 OA
ATOM     25  H   UNL     1     -16.176   0.002 -20.957  1.00  0.00     0.293 HD
ENDBRANCH   6  24
BRANCH   8  26
ATOM     26  O   UNL     1     -16.836   2.193 -26.152  1.00  0.00    -0.508 OA
ATOM     27  H   UNL     1     -17.242   1.341 -26.520  1.00  0.00     0.293 HD
ENDBRANCH   8  26
TORSDOF 6
ENDMDL
MODEL 5
REMARK VINA RESULT:    -7.526      1.554      6.883
REMARK INTER + INTRA:          -9.376
REMARK INTER:                  -9.228
REMARK INTRA:                  -0.148
REMARK UNBOUND:                -0.310
REMARK SMILES O=c1c(O)c(-c2ccc(O)c(O)c2)oc2cc(O)cc(O)c12
REMARK SMILES IDX 5 1 3 2 2 3 1 4 22 5 20 6 19 7 17 8 16 9 15 10 14 11 6 12
REMARK SMILES IDX 7 13 8 14 9 15 13 16 11 17 10 18 12 20 4 22 21 24 18 26
REMARK H PARENT 10 19 12 21 4 23 21 25 18 27
REMARK Flexibility Score: inf
ROOT
ATOM      1  C   UNL     1     -15.478   2.794 -21.126  1.00  0.00     0.180 A 
ATOM      2  C   UNL     1     -16.698   3.211 -21.684  1.00  0.00     0.208 A 
ATOM      3  C   UNL     1     -16.948   4.587 -21.823  1.00  0.00     0.238 A 
ATOM      4  O   UNL     1     -18.019   4.954 -22.373  1.00  0.00    -0.285 OA
ATOM      5  C   UNL     1     -15.984   5.526 -21.385  1.00  0.00     0.111 A 
ATOM      6  C   UNL     1     -16.148   6.942 -21.440  1.00  0.00     0.134 A 
ATOM      7  C   UNL     1     -15.075   7.776 -21.102  1.00  0.00     0.093 A 
ATOM      8  C   UNL     1     -13.865   7.245 -20.648  1.00  0.00     0.123 A 
ATOM      9  C   UNL     1     -13.716   5.865 -20.535  1.00  0.00     0.094 A 
ATOM     10  C   UNL     1     -14.755   5.007 -20.900  1.00  0.00     0.146 A 
ATOM     11  O   UNL     1     -14.566   3.698 -20.786  1.00  0.00    -0.452 OA
ENDROOT
BRANCH   1  12
ATOM     12  C   UNL     1     -15.151   1.363 -20.925  1.00  0.00     0.025 A 
ATOM     13  C   UNL     1     -14.940   0.835 -19.638  1.00  0.00     0.016 A 
ATOM     14  C   UNL     1     -14.610  -0.513 -19.474  1.00  0.00     0.051 A 
ATOM     15  C   UNL     1     -14.473  -1.347 -20.590  1.00  0.00     0.157 A 
ATOM     16  C   UNL     1     -14.991   0.526 -22.041  1.00  0.00     0.062 A 
ATOM     17  C   UNL     1     -14.661  -0.826 -21.876  1.00  0.00     0.158 A 
BRANCH  15  18
ATOM     18  O   UNL     1     -14.144  -2.693 -20.430  1.00  0.00    -0.504 OA
ATOM     19  H   UNL     1     -13.677  -3.215 -21.163  1.00  0.00     0.293 HD
ENDBRANCH  15  18
BRANCH  17  20
ATOM     20  O   UNL     1     -14.515  -1.657 -22.986  1.00  0.00    -0.504 OA
ATOM     21  H   UNL     1     -14.441  -1.281 -23.924  1.00  0.00     0.293 HD
ENDBRANCH  17  20
ENDBRANCH   1  12
BRANCH   2  22
ATOM     22  O   UNL     1     -17.628   2.268 -22.129  1.00  0.00    -0.502 OA
ATOM     23  H   UNL     1     -17.553   1.283 -21.907  1.00  0.00     0.293 HD
ENDBRANCH   2  22
BRANCH   6  24
ATOM     24  O   UNL     1     -17.344   7.576 -21.792  1.00  0.00    -0.507 OA
ATOM     25  H   UNL     1     -17.488   8.575 -21.784  1.00  0.00     0.293 HD
ENDBRANCH   6  24
BRANCH   8  26
ATOM     26  O   UNL     1     -12.808   8.083 -20.298  1.00  0.00    -0.508 OA
ATOM     27  H   UNL     1     -12.233   7.899 -19.485  1.00  0.00     0.293 HD
ENDBRANCH   8  26
TORSDOF 6
ENDMDL
MODEL 6
REMARK VINA RESULT:    -7.393      2.963      5.153
REMARK INTER + INTRA:          -9.216
REMARK INTER:                  -9.338
REMARK INTRA:                   0.121
REMARK UNBOUND:                -0.310
REMARK SMILES O=c1c(O)c(-c2ccc(O)c(O)c2)oc2cc(O)cc(O)c12
REMARK SMILES IDX 5 1 3 2 2 3 1 4 22 5 20 6 19 7 17 8 16 9 15 10 14 11 6 12
REMARK SMILES IDX 7 13 8 14 9 15 13 16 11 17 10 18 12 20 4 22 21 24 18 26
REMARK H PARENT 10 19 12 21 4 23 21 25 18 27
REMARK Flexibility Score: inf
ROOT
ATOM      1  C   UNL     1     -13.821  -1.425 -20.893  1.00  0.00     0.180 A 
ATOM      2  C   UNL     1     -13.964  -1.999 -22.168  1.00  0.00     0.208 A 
ATOM      3  C   UNL     1     -13.572  -3.333 -22.362  1.00  0.00     0.238 A 
ATOM      4  O   UNL     1     -13.753  -3.858 -23.493  1.00  0.00    -0.285 OA
ATOM      5  C   UNL     1     -13.026  -4.071 -21.285  1.00  0.00     0.111 A 
ATOM      6  C   UNL     1     -12.559  -5.416 -21.379  1.00  0.00     0.134 A 
ATOM      7  C   UNL     1     -12.160  -6.092 -20.218  1.00  0.00     0.093 A 
ATOM      8  C   UNL     1     -12.150  -5.449 -18.978  1.00  0.00     0.123 A 
ATOM      9  C   UNL     1     -12.548  -4.117 -18.887  1.00  0.00     0.094 A 
ATOM     10  C   UNL     1     -12.986  -3.429 -20.020  1.00  0.00     0.146 A 
ATOM     11  O   UNL     1     -13.367  -2.164 -19.887  1.00  0.00    -0.452 OA
ENDROOT
BRANCH   1  12
ATOM     12  C   UNL     1     -14.189  -0.018 -20.615  1.00  0.00     0.025 A 
ATOM     13  C   UNL     1     -14.928   0.333 -19.471  1.00  0.00     0.016 A 
ATOM     14  C   UNL     1     -15.285   1.664 -19.241  1.00  0.00     0.051 A 
ATOM     15  C   UNL     1     -14.921   2.660 -20.156  1.00  0.00     0.157 A 
ATOM     16  C   UNL     1     -13.846   0.983 -21.539  1.00  0.00     0.062 A 
ATOM     17  C   UNL     1     -14.203   2.318 -21.308  1.00  0.00     0.158 A 
BRANCH  15  18
ATOM     18  O   UNL     1     -15.274   3.990 -19.930  1.00  0.00    -0.504 OA
ATOM     19  H   UNL     1     -16.198   4.244 -19.597  1.00  0.00     0.293 HD
ENDBRANCH  15  18
BRANCH  17  20
ATOM     20  O   UNL     1     -13.848   3.311 -22.221  1.00  0.00    -0.504 OA
ATOM     21  H   UNL     1     -13.143   3.152 -22.930  1.00  0.00     0.293 HD
ENDBRANCH  17  20
ENDBRANCH   1  12
BRANCH   2  22
ATOM     22  O   UNL     1     -14.526  -1.259 -23.213  1.00  0.00    -0.502 OA
ATOM     23  H   UNL     1     -14.186  -0.343 -23.474  1.00  0.00     0.293 HD
ENDBRANCH   2  22
BRANCH   6  24
ATOM     24  O   UNL     1     -12.442  -6.120 -22.582  1.00  0.00    -0.507 OA
ATOM     25  H   UNL     1     -13.186  -6.239 -23.252  1.00  0.00     0.293 HD
ENDBRANCH   6  24
BRANCH   8  26
ATOM     26  O   UNL     1     -11.737  -6.123 -17.831  1.00  0.00    -0.508 OA
ATOM     27  H   UNL     1     -10.810  -6.527 -17.759  1.00  0.00     0.293 HD
ENDBRANCH   8  26
TORSDOF 6
ENDMDL
MODEL 7
REMARK VINA RESULT:    -7.377      1.217      2.914
REMARK INTER + INTRA:          -9.197
REMARK INTER:                  -8.870
REMARK INTRA:                  -0.327
REMARK UNBOUND:                -0.310
REMARK SMILES O=c1c(O)c(-c2ccc(O)c(O)c2)oc2cc(O)cc(O)c12
REMARK SMILES IDX 5 1 3 2 2 3 1 4 22 5 20 6 19 7 17 8 16 9 15 10 14 11 6 12
REMARK SMILES IDX 7 13 8 14 9 15 13 16 11 17 10 18 12 20 4 22 21 24 18 26
REMARK H PARENT 10 19 12 21 4 23 21 25 18 27
REMARK Flexibility Score: inf
ROOT
ATOM      1  C   UNL     1     -14.896   3.562 -21.147  1.00  0.00     0.180 A 
ATOM      2  C   UNL     1     -14.829   2.541 -20.183  1.00  0.00     0.208 A 
ATOM      3  C   UNL     1     -14.757   1.206 -20.611  1.00  0.00     0.238 A 
ATOM      4  O   UNL     1     -14.643   0.299 -19.744  1.00  0.00    -0.285 OA
ATOM      5  C   UNL     1     -14.770   0.907 -21.994  1.00  0.00     0.111 A 
ATOM      6  C   UNL     1     -14.742  -0.412 -22.539  1.00  0.00     0.134 A 
ATOM      7  C   UNL     1     -14.625  -0.585 -23.924  1.00  0.00     0.093 A 
ATOM      8  C   UNL     1     -14.603   0.513 -24.788  1.00  0.00     0.123 A 
ATOM      9  C   UNL     1     -14.689   1.802 -24.269  1.00  0.00     0.094 A 
ATOM     10  C   UNL     1     -14.769   2.008 -22.890  1.00  0.00     0.146 A 
ATOM     11  O   UNL     1     -14.840   3.254 -22.437  1.00  0.00    -0.452 OA
ENDROOT
BRANCH   1  12
ATOM     12  C   UNL     1     -14.999   4.993 -20.774  1.00  0.00     0.025 A 
ATOM     13  C   UNL     1     -16.240   5.583 -20.477  1.00  0.00     0.016 A 
ATOM     14  C   UNL     1     -16.317   6.939 -20.151  1.00  0.00     0.051 A 
ATOM     15  C   UNL     1     -15.158   7.727 -20.132  1.00  0.00     0.157 A 
ATOM     16  C   UNL     1     -13.845   5.792 -20.774  1.00  0.00     0.062 A 
ATOM     17  C   UNL     1     -13.921   7.153 -20.446  1.00  0.00     0.158 A 
BRANCH  15  18
ATOM     18  O   UNL     1     -15.230   9.081 -19.806  1.00  0.00    -0.504 OA
ATOM     19  H   UNL     1     -15.225   9.799 -20.522  1.00  0.00     0.293 HD
ENDBRANCH  15  18
BRANCH  17  20
ATOM     20  O   UNL     1     -12.771   7.941 -20.434  1.00  0.00    -0.504 OA
ATOM     21  H   UNL     1     -11.859   7.546 -20.238  1.00  0.00     0.293 HD
ENDBRANCH  17  20
ENDBRANCH   1  12
BRANCH   2  22
ATOM     22  O   UNL     1     -14.796   2.859 -18.823  1.00  0.00    -0.502 OA
ATOM     23  H   UNL     1     -15.457   3.496 -18.396  1.00  0.00     0.293 HD
ENDBRANCH   2  22
BRANCH   6  24
ATOM     24  O   UNL     1     -14.851  -1.576 -21.772  1.00  0.00    -0.507 OA
ATOM     25  H   UNL     1     -14.421  -2.459 -22.004  1.00  0.00     0.293 HD
ENDBRANCH   6  24
BRANCH   8  26
ATOM     26  O   UNL     1     -14.502   0.331 -26.166  1.00  0.00    -0.508 OA
ATOM     27  H   UNL     1     -13.814  -0.294 -26.569  1.00  0.00     0.293 HD
ENDBRANCH   8  26
TORSDOF 6
ENDMDL
MODEL 8
REMARK VINA RESULT:    -7.374      2.085      7.345
REMARK INTER + INTRA:          -9.193
REMARK INTER:                  -8.893
REMARK INTRA:                  -0.300
REMARK UNBOUND:                -0.310
REMARK SMILES O=c1c(O)c(-c2ccc(O)c(O)c2)oc2cc(O)cc(O)c12
REMARK SMILES IDX 5 1 3 2 2 3 1 4 22 5 20 6 19 7 17 8 16 9 15 10 14 11 6 12
REMARK SMILES IDX 7 13 8 14 9 15 13 16 11 17 10 18 12 20 4 22 21 24 18 26
REMARK H PARENT 10 19 12 21 4 23 21 25 18 27
REMARK Flexibility Score: inf
ROOT
ATOM      1  C   UNL     1     -15.365   4.788 -20.794  1.00  0.00     0.180 A 
ATOM      2  C   UNL     1     -14.371   5.704 -20.407  1.00  0.00     0.208 A 
ATOM      3  C   UNL     1     -14.691   7.070 -20.345  1.00  0.00     0.238 A 
ATOM      4  O   UNL     1     -13.813   7.878 -19.946  1.00  0.00    -0.285 OA
ATOM      5  C   UNL     1     -15.994   7.505 -20.687  1.00  0.00     0.111 A 
ATOM      6  C   UNL     1     -16.416   8.868 -20.699  1.00  0.00     0.134 A 
ATOM      7  C   UNL     1     -17.765   9.171 -20.926  1.00  0.00     0.093 A 
ATOM      8  C   UNL     1     -18.692   8.165 -21.207  1.00  0.00     0.123 A 
ATOM      9  C   UNL     1     -18.277   6.836 -21.256  1.00  0.00     0.094 A 
ATOM     10  C   UNL     1     -16.947   6.499 -20.998  1.00  0.00     0.146 A 
ATOM     11  O   UNL     1     -16.595   5.220 -21.045  1.00  0.00    -0.452 OA
ENDROOT
BRANCH   1  12
ATOM     12  C   UNL     1     -15.098   3.335 -20.906  1.00  0.00     0.025 A 
ATOM     13  C   UNL     1     -15.107   2.500 -19.774  1.00  0.00     0.016 A 
ATOM     14  C   UNL     1     -14.829   1.137 -19.900  1.00  0.00     0.051 A 
ATOM     15  C   UNL     1     -14.525   0.591 -21.154  1.00  0.00     0.157 A 
ATOM     16  C   UNL     1     -14.772   2.786 -22.157  1.00  0.00     0.062 A 
ATOM     17  C   UNL     1     -14.494   1.418 -22.284  1.00  0.00     0.158 A 
BRANCH  15  18
ATOM     18  O   UNL     1     -14.248  -0.769 -21.284  1.00  0.00    -0.504 OA
ATOM     19  H   UNL     1     -14.845  -1.382 -21.829  1.00  0.00     0.293 HD
ENDBRANCH  15  18
BRANCH  17  20
ATOM     20  O   UNL     1     -14.184   0.874 -23.530  1.00  0.00    -0.504 OA
ATOM     21  H   UNL     1     -13.378   0.276 -23.662  1.00  0.00     0.293 HD
ENDBRANCH  17  20
ENDBRANCH   1  12
BRANCH   2  22
ATOM     22  O   UNL     1     -13.097   5.251 -20.052  1.00  0.00    -0.502 OA
ATOM     23  H   UNL     1     -12.329   5.882 -19.864  1.00  0.00     0.293 HD
ENDBRANCH   2  22
BRANCH   6  24
ATOM     24  O   UNL     1     -15.554   9.954 -20.521  1.00  0.00    -0.507 OA
ATOM     25  H   UNL     1     -15.085  10.442 -21.269  1.00  0.00     0.293 HD
ENDBRANCH   6  24
BRANCH   8  26
ATOM     26  O   UNL     1     -20.029   8.477 -21.447  1.00  0.00    -0.508 OA
ATOM     27  H   UNL     1     -20.386   9.415 -21.311  1.00  0.00     0.293 HD
ENDBRANCH   8  26
TORSDOF 6
ENDMDL
MODEL 9
REMARK VINA RESULT:    -7.309      3.676      5.771
REMARK INTER + INTRA:          -9.115
REMARK INTER:                  -8.813
REMARK INTRA:                  -0.302
REMARK UNBOUND:                -0.310
REMARK SMILES O=c1c(O)c(-c2ccc(O)c(O)c2)oc2cc(O)cc(O)c12
REMARK SMILES IDX 5 1 3 2 2 3 1 4 22 5 20 6 19 7 17 8 16 9 15 10 14 11 6 12
REMARK SMILES IDX 7 13 8 14 9 15 13 16 11 17 10 18 12 20 4 22 21 24 18 26
REMARK H PARENT 10 19 12 21 4 23 21 25 18 27
REMARK Flexibility Score: inf
ROOT
ATOM      1  C   UNL     1     -14.870  -1.068 -21.695  1.00  0.00     0.180 A 
ATOM      2  C   UNL     1     -14.548  -0.971 -20.330  1.00  0.00     0.208 A 
ATOM      3  C   UNL     1     -13.787  -1.992 -19.737  1.00  0.00     0.238 A 
ATOM      4  O   UNL     1     -13.456  -1.874 -18.527  1.00  0.00    -0.285 OA
ATOM      5  C   UNL     1     -13.374  -3.103 -20.509  1.00  0.00     0.111 A 
ATOM      6  C   UNL     1     -12.635  -4.214 -20.002  1.00  0.00     0.134 A 
ATOM      7  C   UNL     1     -12.166  -5.194 -20.886  1.00  0.00     0.093 A 
ATOM      8  C   UNL     1     -12.467  -5.137 -22.250  1.00  0.00     0.123 A 
ATOM      9  C   UNL     1     -13.237  -4.088 -22.744  1.00  0.00     0.094 A 
ATOM     10  C   UNL     1     -13.688  -3.077 -21.894  1.00  0.00     0.146 A 
ATOM     11  O   UNL     1     -14.411  -2.090 -22.408  1.00  0.00    -0.452 OA
ENDROOT
BRANCH   1  12
ATOM     12  C   UNL     1     -15.688  -0.044 -22.386  1.00  0.00     0.025 A 
ATOM     13  C   UNL     1     -17.060  -0.243 -22.624  1.00  0.00     0.016 A 
ATOM     14  C   UNL     1     -17.807   0.725 -23.299  1.00  0.00     0.051 A 
ATOM     15  C   UNL     1     -17.193   1.898 -23.757  1.00  0.00     0.157 A 
ATOM     16  C   UNL     1     -15.074   1.124 -22.867  1.00  0.00     0.062 A 
ATOM     17  C   UNL     1     -15.824   2.096 -23.544  1.00  0.00     0.158 A 
BRANCH  15  18
ATOM     18  O   UNL     1     -17.935   2.867 -24.431  1.00  0.00    -0.504 OA
ATOM     19  H   UNL     1     -18.917   2.730 -24.643  1.00  0.00     0.293 HD
ENDBRANCH  15  18
BRANCH  17  20
ATOM     20  O   UNL     1     -15.213   3.260 -24.008  1.00  0.00    -0.504 OA
ATOM     21  H   UNL     1     -14.392   3.644 -23.557  1.00  0.00     0.293 HD
ENDBRANCH  17  20
ENDBRANCH   1  12
BRANCH   2  22
ATOM     22  O   UNL     1     -14.947   0.145 -19.590  1.00  0.00    -0.502 OA
ATOM     23  H   UNL     1     -15.897   0.270 -19.264  1.00  0.00     0.293 HD
ENDBRANCH   2  22
BRANCH   6  24
ATOM     24  O   UNL     1     -12.360  -4.414 -18.646  1.00  0.00    -0.507 OA
ATOM     25  H   UNL     1     -12.876  -5.035 -18.041  1.00  0.00     0.293 HD
ENDBRANCH   6  24
BRANCH   8  26
ATOM     26  O   UNL     1     -12.009  -6.125 -23.119  1.00  0.00    -0.508 OA
ATOM     27  H   UNL     1     -12.637  -6.602 -23.756  1.00  0.00     0.293 HD
ENDBRANCH   8  26
TORSDOF 6
ENDMDL
