MODEL 1
REMARK VINA RESULT:    -2.179      0.000      0.000
REMARK INTER + INTRA:          -4.105
REMARK INTER:                  -3.708
REMARK INTRA:                  -0.397
REMARK UNBOUND:                -0.397
REMARK SMILES CCCCCCCCCCCCCC(=O)[O-]
REMARK SMILES IDX 8 1 9 2 10 3 11 4 12 5 13 6 14 7 15 8 16 9 7 10 6 11 5 12
REMARK SMILES IDX 4 13 3 14 2 15 1 16
REMARK H PARENT
REMARK Flexibility Score: inf
ROOT
ATOM      1  C   UNL     1       4.259 134.565 153.545  1.00  0.00     0.000 C 
ENDROOT
BRANCH   1   2
ATOM      2  C   UNL     1       4.607 133.421 154.518  1.00  0.00     0.000 C 
BRANCH   2   3
ATOM      3  C   UNL     1       3.691 132.189 154.421  1.00  0.00     0.000 C 
BRANCH   3   4
ATOM      4  C   UNL     1       2.356 132.431 153.689  1.00  0.00     0.000 C 
BRANCH   4   5
ATOM      5  C   UNL     1       2.355 131.947 152.223  1.00  0.00     0.006 C 
BRANCH   5   6
ATOM      6  C   UNL     1       3.042 132.946 151.281  1.00  0.00     0.053 C 
BRANCH   6   7
ATOM      7  C   UNL     1       4.291 132.352 150.710  1.00  0.00     0.041 C 
ATOM      8  O   UNL     1       5.356 132.352 151.382  1.00  0.00    -0.550 OA
ATOM      9  O   UNL     1       4.293 131.844 149.417  1.00  0.00    -0.550 OA
ENDBRANCH   6   7
ENDBRANCH   5   6
ENDBRANCH   4   5
ENDBRANCH   3   4
ENDBRANCH   2   3
ENDBRANCH   1   2
BRANCH   1  10
ATOM     10  C   UNL     1       4.137 135.943 154.230  1.00  0.00     0.000 C 
BRANCH  10  11
ATOM     11  C   UNL     1       3.684 135.828 155.695  1.00  0.00    -0.000 C 
BRANCH  11  12
ATOM     12  C   UNL     1       2.174 135.571 155.831  1.00  0.00    -0.000 C 
BRANCH  12  13
ATOM     13  C   UNL     1       1.571 136.224 157.084  1.00  0.00    -0.000 C 
BRANCH  13  14
ATOM     14  C   UNL     1       2.503 137.315 157.634  1.00  0.00    -0.000 C 
BRANCH  14  15
ATOM     15  C   UNL     1       1.987 137.927 158.946  1.00  0.00    -0.003 C 
ATOM     16  C   UNL     1       1.502 136.873 159.940  1.00  0.00     0.004 C 
ENDBRANCH  14  15
ENDBRANCH  13  14
ENDBRANCH  12  13
ENDBRANCH  11  12
ENDBRANCH  10  11
ENDBRANCH   1  10
TORSDOF 12
ENDMDL
MODEL 2
REMARK VINA RESULT:    -1.694      3.946      7.369
REMARK INTER + INTRA:          -3.279
REMARK INTER:                  -2.953
REMARK INTRA:                  -0.326
REMARK UNBOUND:                -0.397
REMARK SMILES CCCCCCCCCCCCCC(=O)[O-]
REMARK SMILES IDX 8 1 9 2 10 3 11 4 12 5 13 6 14 7 15 8 16 9 7 10 6 11 5 12
REMARK SMILES IDX 4 13 3 14 2 15 1 16
REMARK H PARENT
REMARK Flexibility Score: inf
ROOT
ATOM      1  C   UNL     1       4.244 134.520 153.562  1.00  0.00     0.000 C 
ENDROOT
BRANCH   1   2
ATOM      2  C   UNL     1       4.199 135.892 154.263  1.00  0.00     0.000 C 
BRANCH   2   3
ATOM      3  C   UNL     1       3.662 135.863 155.704  1.00  0.00     0.000 C 
BRANCH   3   4
ATOM      4  C   UNL     1       2.129 135.779 155.823  1.00  0.00     0.000 C 
BRANCH   4   5
ATOM      5  C   UNL     1       1.590 136.168 157.216  1.00  0.00     0.006 C 
BRANCH   5   6
ATOM      6  C   UNL     1       2.312 137.391 157.798  1.00  0.00     0.053 C 
BRANCH   6   7
ATOM      7  C   UNL     1       1.933 137.589 159.232  1.00  0.00     0.041 C 
ATOM      8  O   UNL     1       1.397 136.653 159.881  1.00  0.00    -0.550 OA
ATOM      9  O   UNL     1       2.125 138.824 159.838  1.00  0.00    -0.550 OA
ENDBRANCH   6   7
ENDBRANCH   5   6
ENDBRANCH   4   5
ENDBRANCH   3   4
ENDBRANCH   2   3
ENDBRANCH   1   2
BRANCH   1  10
ATOM     10  C   UNL     1       4.644 133.359 154.498  1.00  0.00     0.000 C 
BRANCH  10  11
ATOM     11  C   UNL     1       3.713 132.144 154.348  1.00  0.00    -0.000 C 
BRANCH  11  12
ATOM     12  C   UNL     1       2.329 132.520 153.793  1.00  0.00    -0.000 C 
BRANCH  12  13
ATOM     13  C   UNL     1       2.142 132.097 152.329  1.00  0.00    -0.000 C 
BRANCH  13  14
ATOM     14  C   UNL     1       2.986 132.977 151.394  1.00  0.00    -0.000 C 
BRANCH  14  15
ATOM     15  C   UNL     1       4.090 132.186 150.675  1.00  0.00    -0.003 C 
ATOM     16  C   UNL     1       5.494 132.572 151.141  1.00  0.00     0.004 C 
ENDBRANCH  14  15
ENDBRANCH  13  14
ENDBRANCH  12  13
ENDBRANCH  11  12
ENDBRANCH  10  11
ENDBRANCH   1  10
TORSDOF 12
ENDMDL
MODEL 3
REMARK VINA RESULT:    -1.120      4.032      7.580
REMARK INTER + INTRA:          -2.304
REMARK INTER:                  -2.057
REMARK INTRA:                  -0.246
REMARK UNBOUND:                -0.397
REMARK SMILES CCCCCCCCCCCCCC(=O)[O-]
REMARK SMILES IDX 8 1 9 2 10 3 11 4 12 5 13 6 14 7 15 8 16 9 7 10 6 11 5 12
REMARK SMILES IDX 4 13 3 14 2 15 1 16
REMARK H PARENT
REMARK Flexibility Score: inf
ROOT
ATOM      1  C   UNL     1       4.299 134.603 153.532  1.00  0.00     0.000 C 
ENDROOT
BRANCH   1   2
ATOM      2  C   UNL     1       3.940 135.955 154.178  1.00  0.00     0.000 C 
BRANCH   2   3
ATOM      3  C   UNL     1       3.554 135.879 155.665  1.00  0.00     0.000 C 
BRANCH   3   4
ATOM      4  C   UNL     1       2.039 135.918 155.944  1.00  0.00     0.000 C 
BRANCH   4   5
ATOM      5  C   UNL     1       1.686 136.158 157.428  1.00  0.00     0.006 C 
BRANCH   5   6
ATOM      6  C   UNL     1       2.080 137.564 157.900  1.00  0.00     0.053 C 
BRANCH   6   7
ATOM      7  C   UNL     1       1.863 137.700 159.374  1.00  0.00     0.041 C 
ATOM      8  O   UNL     1       2.154 138.776 159.960  1.00  0.00    -0.550 OA
ATOM      9  O   UNL     1       1.388 136.623 160.110  1.00  0.00    -0.550 OA
ENDBRANCH   6   7
ENDBRANCH   5   6
ENDBRANCH   4   5
ENDBRANCH   3   4
ENDBRANCH   2   3
ENDBRANCH   1   2
BRANCH   1  10
ATOM     10  C   UNL     1       4.585 133.484 154.557  1.00  0.00     0.000 C 
BRANCH  10  11
ATOM     11  C   UNL     1       3.510 132.384 154.533  1.00  0.00    -0.000 C 
BRANCH  11  12
ATOM     12  C   UNL     1       2.389 132.671 153.521  1.00  0.00    -0.000 C 
BRANCH  12  13
ATOM     13  C   UNL     1       2.757 132.247 152.092  1.00  0.00    -0.000 C 
BRANCH  13  14
ATOM     14  C   UNL     1       4.145 131.590 152.057  1.00  0.00    -0.000 C 
BRANCH  14  15
ATOM     15  C   UNL     1       5.028 132.133 150.923  1.00  0.00    -0.003 C 
ATOM     16  C   UNL     1       4.344 132.067 149.558  1.00  0.00     0.004 C 
ENDBRANCH  14  15
ENDBRANCH  13  14
ENDBRANCH  12  13
ENDBRANCH  11  12
ENDBRANCH  10  11
ENDBRANCH   1  10
TORSDOF 12
ENDMDL
MODEL 4
REMARK VINA RESULT:    -0.842      3.947      7.106
REMARK INTER + INTRA:          -1.830
REMARK INTER:                  -2.679
REMARK INTRA:                   0.849
REMARK UNBOUND:                -0.397
REMARK SMILES CCCCCCCCCCCCCC(=O)[O-]
REMARK SMILES IDX 8 1 9 2 10 3 11 4 12 5 13 6 14 7 15 8 16 9 7 10 6 11 5 12
REMARK SMILES IDX 4 13 3 14 2 15 1 16
REMARK H PARENT
REMARK Flexibility Score: inf
ROOT
ATOM      1  C   UNL     1       4.400 135.067 152.814  1.00  0.00     0.000 C 
ENDROOT
BRANCH   1   2
ATOM      2  C   UNL     1       4.228 136.064 153.976  1.00  0.00     0.000 C 
BRANCH   2   3
ATOM      3  C   UNL     1       3.507 135.498 155.212  1.00  0.00     0.000 C 
BRANCH   3   4
ATOM      4  C   UNL     1       3.359 136.486 156.385  1.00  0.00     0.000 C 
BRANCH   4   5
ATOM      5  C   UNL     1       2.010 136.372 157.127  1.00  0.00     0.006 C 
BRANCH   5   6
ATOM      6  C   UNL     1       1.633 137.671 157.852  1.00  0.00     0.053 C 
BRANCH   6   7
ATOM      7  C   UNL     1       1.768 137.502 159.333  1.00  0.00     0.041 C 
ATOM      8  O   UNL     1       1.624 136.366 159.856  1.00  0.00    -0.550 OA
ATOM      9  O   UNL     1       2.002 138.607 160.141  1.00  0.00    -0.550 OA
ENDBRANCH   6   7
ENDBRANCH   5   6
ENDBRANCH   4   5
ENDBRANCH   3   4
ENDBRANCH   2   3
ENDBRANCH   1   2
BRANCH   1  10
ATOM     10  C   UNL     1       4.901 133.676 153.260  1.00  0.00     0.000 C 
BRANCH  10  11
ATOM     11  C   UNL     1       5.374 132.820 152.073  1.00  0.00    -0.000 C 
BRANCH  11  12
ATOM     12  C   UNL     1       4.216 132.104 151.358  1.00  0.00    -0.000 C 
BRANCH  12  13
ATOM     13  C   UNL     1       2.917 132.922 151.368  1.00  0.00    -0.000 C 
BRANCH  13  14
ATOM     14  C   UNL     1       2.014 132.500 152.538  1.00  0.00    -0.000 C 
BRANCH  14  15
ATOM     15  C   UNL     1       2.780 131.737 153.630  1.00  0.00    -0.003 C 
ATOM     16  C   UNL     1       2.346 132.131 155.041  1.00  0.00     0.004 C 
ENDBRANCH  14  15
ENDBRANCH  13  14
ENDBRANCH  12  13
ENDBRANCH  11  12
ENDBRANCH  10  11
ENDBRANCH   1  10
TORSDOF 12
ENDMDL
MODEL 5
REMARK VINA RESULT:    -0.689      1.807      2.723
REMARK INTER + INTRA:          -1.570
REMARK INTER:                  -1.758
REMARK INTRA:                   0.187
REMARK UNBOUND:                -0.397
REMARK SMILES CCCCCCCCCCCCCC(=O)[O-]
REMARK SMILES IDX 8 1 9 2 10 3 11 4 12 5 13 6 14 7 15 8 16 9 7 10 6 11 5 12
REMARK SMILES IDX 4 13 3 14 2 15 1 16
REMARK H PARENT
REMARK Flexibility Score: inf
ROOT
ATOM      1  C   UNL     1       4.956 134.307 152.369  1.00  0.00     0.000 C 
ENDROOT
BRANCH   1   2
ATOM      2  C   UNL     1       5.430 132.945 151.827  1.00  0.00     0.000 C 
BRANCH   2   3
ATOM      3  C   UNL     1       4.357 132.141 151.071  1.00  0.00     0.000 C 
BRANCH   3   4
ATOM      4  C   UNL     1       3.025 132.885 150.852  1.00  0.00     0.000 C 
BRANCH   4   5
ATOM      5  C   UNL     1       2.047 132.770 152.040  1.00  0.00     0.006 C 
BRANCH   5   6
ATOM      6  C   UNL     1       2.333 131.541 152.914  1.00  0.00     0.053 C 
BRANCH   6   7
ATOM      7  C   UNL     1       2.628 131.956 154.321  1.00  0.00     0.041 C 
ATOM      8  O   UNL     1       1.753 132.553 155.001  1.00  0.00    -0.550 OA
ATOM      9  O   UNL     1       3.886 131.729 154.864  1.00  0.00    -0.550 OA
ENDBRANCH   6   7
ENDBRANCH   5   6
ENDBRANCH   4   5
ENDBRANCH   3   4
ENDBRANCH   2   3
ENDBRANCH   1   2
BRANCH   1  10
ATOM     10  C   UNL     1       4.616 134.289 153.875  1.00  0.00     0.000 C 
BRANCH  10  11
ATOM     11  C   UNL     1       4.055 135.636 154.362  1.00  0.00    -0.000 C 
BRANCH  11  12
ATOM     12  C   UNL     1       3.086 135.483 155.546  1.00  0.00    -0.000 C 
BRANCH  12  13
ATOM     13  C   UNL     1       3.166 136.656 156.534  1.00  0.00    -0.000 C 
BRANCH  13  14
ATOM     14  C   UNL     1       1.962 136.651 157.488  1.00  0.00    -0.000 C 
BRANCH  14  15
ATOM     15  C   UNL     1       1.988 137.824 158.480  1.00  0.00    -0.003 C 
ATOM     16  C   UNL     1       1.582 137.412 159.894  1.00  0.00     0.004 C 
ENDBRANCH  14  15
ENDBRANCH  13  14
ENDBRANCH  12  13
ENDBRANCH  11  12
ENDBRANCH  10  11
ENDBRANCH   1  10
TORSDOF 12
ENDMDL
MODEL 6
REMARK VINA RESULT:    -0.205      3.957      7.051
REMARK INTER + INTRA:          -0.747
REMARK INTER:                  -0.170
REMARK INTRA:                  -0.576
REMARK UNBOUND:                -0.397
REMARK SMILES CCCCCCCCCCCCCC(=O)[O-]
REMARK SMILES IDX 8 1 9 2 10 3 11 4 12 5 13 6 14 7 15 8 16 9 7 10 6 11 5 12
REMARK SMILES IDX 4 13 3 14 2 15 1 16
REMARK H PARENT
REMARK Flexibility Score: inf
ROOT
ATOM      1  C   UNL     1       2.381 132.084 155.086  1.00  0.00     0.000 C 
ENDROOT
BRANCH   1   2
ATOM      2  C   UNL     1       1.759 133.493 155.059  1.00  0.00     0.000 C 
BRANCH   2   3
ATOM      3  C   UNL     1       2.640 134.601 155.663  1.00  0.00     0.000 C 
BRANCH   3   4
ATOM      4  C   UNL     1       1.867 135.717 156.391  1.00  0.00     0.000 C 
BRANCH   4   5
ATOM      5  C   UNL     1       2.775 136.705 157.156  1.00  0.00     0.006 C 
BRANCH   5   6
ATOM      6  C   UNL     1       1.975 137.827 157.830  1.00  0.00     0.053 C 
BRANCH   6   7
ATOM      7  C   UNL     1       1.867 137.581 159.302  1.00  0.00     0.041 C 
ATOM      8  O   UNL     1       1.595 136.430 159.734  1.00  0.00    -0.550 OA
ATOM      9  O   UNL     1       2.019 138.633 160.197  1.00  0.00    -0.550 OA
ENDBRANCH   6   7
ENDBRANCH   5   6
ENDBRANCH   4   5
ENDBRANCH   3   4
ENDBRANCH   2   3
ENDBRANCH   1   2
BRANCH   1  10
ATOM     10  C   UNL     1       2.923 131.620 153.716  1.00  0.00     0.000 C 
BRANCH  10  11
ATOM     11  C   UNL     1       2.274 132.379 152.546  1.00  0.00    -0.000 C 
BRANCH  11  12
ATOM     12  C   UNL     1       3.302 132.863 151.509  1.00  0.00    -0.000 C 
BRANCH  12  13
ATOM     13  C   UNL     1       4.737 132.870 152.055  1.00  0.00    -0.000 C 
BRANCH  13  14
ATOM     14  C   UNL     1       4.933 134.013 153.063  1.00  0.00    -0.000 C 
BRANCH  14  15
ATOM     15  C   UNL     1       4.033 135.223 152.767  1.00  0.00    -0.003 C 
ATOM     16  C   UNL     1       4.566 136.519 153.376  1.00  0.00     0.004 C 
ENDBRANCH  14  15
ENDBRANCH  13  14
ENDBRANCH  12  13
ENDBRANCH  11  12
ENDBRANCH  10  11
ENDBRANCH   1  10
TORSDOF 12
ENDMDL
MODEL 7
REMARK VINA RESULT:     0.469      2.288      3.290
REMARK INTER + INTRA:           0.400
REMARK INTER:                   0.481
REMARK INTRA:                  -0.081
REMARK UNBOUND:                -0.397
REMARK SMILES CCCCCCCCCCCCCC(=O)[O-]
REMARK SMILES IDX 8 1 9 2 10 3 11 4 12 5 13 6 14 7 15 8 16 9 7 10 6 11 5 12
REMARK SMILES IDX 4 13 3 14 2 15 1 16
REMARK H PARENT
REMARK Flexibility Score: inf
ROOT
ATOM      1  C   UNL     1       2.808 131.731 154.057  1.00  0.00     0.000 C 
ENDROOT
BRANCH   1   2
ATOM      2  C   UNL     1       2.158 132.255 152.762  1.00  0.00     0.000 C 
BRANCH   2   3
ATOM      3  C   UNL     1       3.130 132.451 151.585  1.00  0.00     0.000 C 
BRANCH   3   4
ATOM      4  C   UNL     1       4.617 132.530 151.979  1.00  0.00     0.000 C 
BRANCH   4   5
ATOM      5  C   UNL     1       4.950 133.711 152.916  1.00  0.00     0.006 C 
BRANCH   5   6
ATOM      6  C   UNL     1       4.227 135.001 152.506  1.00  0.00     0.053 C 
BRANCH   6   7
ATOM      7  C   UNL     1       4.471 136.080 153.513  1.00  0.00     0.041 C 
ATOM      8  O   UNL     1       4.413 135.823 154.744  1.00  0.00    -0.550 OA
ATOM      9  O   UNL     1       4.714 137.382 153.093  1.00  0.00    -0.550 OA
ENDBRANCH   6   7
ENDBRANCH   5   6
ENDBRANCH   4   5
ENDBRANCH   3   4
ENDBRANCH   2   3
ENDBRANCH   1   2
BRANCH   1  10
ATOM     10  C   UNL     1       2.240 132.376 155.339  1.00  0.00     0.000 C 
BRANCH  10  11
ATOM     11  C   UNL     1       1.922 133.869 155.148  1.00  0.00    -0.000 C 
BRANCH  11  12
ATOM     12  C   UNL     1       1.879 134.642 156.477  1.00  0.00    -0.000 C 
BRANCH  12  13
ATOM     13  C   UNL     1       1.898 136.165 156.279  1.00  0.00    -0.000 C 
BRANCH  13  14
ATOM     14  C   UNL     1       2.662 136.855 157.420  1.00  0.00    -0.000 C 
BRANCH  14  15
ATOM     15  C   UNL     1       1.753 137.739 158.289  1.00  0.00    -0.003 C 
ATOM     16  C   UNL     1       1.775 137.338 159.763  1.00  0.00     0.004 C 
ENDBRANCH  14  15
ENDBRANCH  13  14
ENDBRANCH  12  13
ENDBRANCH  11  12
ENDBRANCH  10  11
ENDBRANCH   1  10
TORSDOF 12
ENDMDL
MODEL 8
REMARK VINA RESULT:     0.515      1.413      2.339
REMARK INTER + INTRA:           0.479
REMARK INTER:                   0.312
REMARK INTRA:                   0.167
REMARK UNBOUND:                -0.397
REMARK SMILES CCCCCCCCCCCCCC(=O)[O-]
REMARK SMILES IDX 8 1 9 2 10 3 11 4 12 5 13 6 14 7 15 8 16 9 7 10 6 11 5 12
REMARK SMILES IDX 4 13 3 14 2 15 1 16
REMARK H PARENT
REMARK Flexibility Score: inf
ROOT
ATOM      1  C   UNL     1       2.333 132.432 154.408  1.00  0.00     0.000 C 
ENDROOT
BRANCH   1   2
ATOM      2  C   UNL     1       1.342 132.850 153.305  1.00  0.00     0.000 C 
BRANCH   2   3
ATOM      3  C   UNL     1       1.741 132.421 151.882  1.00  0.00     0.000 C 
BRANCH   3   4
ATOM      4  C   UNL     1       2.818 133.301 151.219  1.00  0.00     0.000 C 
BRANCH   4   5
ATOM      5  C   UNL     1       3.775 132.520 150.293  1.00  0.00     0.006 C 
BRANCH   5   6
ATOM      6  C   UNL     1       5.158 132.314 150.925  1.00  0.00     0.053 C 
BRANCH   6   7
ATOM      7  C   UNL     1       5.043 132.211 152.413  1.00  0.00     0.041 C 
ATOM      8  O   UNL     1       5.398 133.172 153.144  1.00  0.00    -0.550 OA
ATOM      9  O   UNL     1       4.589 131.034 152.997  1.00  0.00    -0.550 OA
ENDBRANCH   6   7
ENDBRANCH   5   6
ENDBRANCH   4   5
ENDBRANCH   3   4
ENDBRANCH   2   3
ENDBRANCH   1   2
BRANCH   1  10
ATOM     10  C   UNL     1       2.649 133.560 155.415  1.00  0.00     0.000 C 
BRANCH  10  11
ATOM     11  C   UNL     1       3.516 134.669 154.794  1.00  0.00    -0.000 C 
BRANCH  11  12
ATOM     12  C   UNL     1       3.505 135.964 155.623  1.00  0.00    -0.000 C 
BRANCH  12  13
ATOM     13  C   UNL     1       2.191 136.167 156.391  1.00  0.00    -0.000 C 
BRANCH  13  14
ATOM     14  C   UNL     1       2.372 137.187 157.526  1.00  0.00    -0.000 C 
BRANCH  14  15
ATOM     15  C   UNL     1       1.834 136.676 158.871  1.00  0.00    -0.003 C 
ATOM     16  C   UNL     1       1.714 137.782 159.919  1.00  0.00     0.004 C 
ENDBRANCH  14  15
ENDBRANCH  13  14
ENDBRANCH  12  13
ENDBRANCH  11  12
ENDBRANCH  10  11
ENDBRANCH   1  10
TORSDOF 12
ENDMDL
