MODEL 1
REMARK VINA RESULT:    -5.614      0.000      0.000
REMARK INTER + INTRA:          -6.734
REMARK INTER:                  -6.599
REMARK INTRA:                  -0.135
REMARK UNBOUND:                -0.135
REMARK SMILES O=C([O-])C=Cc1ccc(O)c(O)c1
REMARK SMILES IDX 6 1 13 2 7 3 11 4 8 5 9 6 5 7 4 8 2 9 1 10 3 11 12 12 10 14
REMARK H PARENT 12 13 10 15
REMARK Flexibility Score: inf
ROOT
ATOM      1  C   UNL     1      11.517   7.801  11.370  1.00  0.00    -0.022 A 
ATOM      2  C   UNL     1      12.057   6.963  10.380  1.00  0.00     0.058 A 
ATOM      3  C   UNL     1      10.874   7.216  12.479  1.00  0.00     0.012 A 
ATOM      4  C   UNL     1      11.982   5.568  10.503  1.00  0.00     0.157 A 
ATOM      5  C   UNL     1      10.800   5.825  12.601  1.00  0.00     0.051 A 
ATOM      6  C   UNL     1      11.354   4.999  11.617  1.00  0.00     0.157 A 
ENDROOT
BRANCH   1   7
ATOM      7  C   UNL     1      11.613   9.271  11.187  1.00  0.00     0.010 C 
ATOM      8  C   UNL     1      12.343   9.855  10.226  1.00  0.00     0.025 C 
BRANCH   8   9
ATOM      9  C   UNL     1      12.400  11.318  10.074  1.00  0.00     0.064 C 
ATOM     10  O   UNL     1      12.222  12.054  11.079  1.00  0.00    -0.545 OA
ATOM     11  O   UNL     1      12.646  11.900   8.836  1.00  0.00    -0.545 OA
ENDBRANCH   8   9
ENDBRANCH   1   7
BRANCH   4  12
ATOM     12  O   UNL     1      12.529   4.743   9.522  1.00  0.00    -0.504 OA
ATOM     13  H   UNL     1      13.522   4.745   9.320  1.00  0.00     0.293 HD
ENDBRANCH   4  12
BRANCH   6  14
ATOM     14  O   UNL     1      11.282   3.612  11.737  1.00  0.00    -0.504 OA
ATOM     15  H   UNL     1      10.406   3.140  11.923  1.00  0.00     0.293 HD
ENDBRANCH   6  14
TORSDOF 4
ENDMDL
MODEL 2
REMARK VINA RESULT:    -5.382      1.250      5.843
REMARK INTER + INTRA:          -6.461
REMARK INTER:                  -6.329
REMARK INTRA:                  -0.132
REMARK UNBOUND:                -0.135
REMARK SMILES O=C([O-])C=Cc1ccc(O)c(O)c1
REMARK SMILES IDX 6 1 13 2 7 3 11 4 8 5 9 6 5 7 4 8 2 9 1 10 3 11 12 12 10 14
REMARK H PARENT 12 13 10 15
REMARK Flexibility Score: inf
ROOT
ATOM      1  C   UNL     1      11.756   9.474  11.086  1.00  0.00    -0.022 A 
ATOM      2  C   UNL     1      12.459   9.970   9.976  1.00  0.00     0.058 A 
ATOM      3  C   UNL     1      11.359  10.374  12.096  1.00  0.00     0.012 A 
ATOM      4  C   UNL     1      12.741  11.339   9.859  1.00  0.00     0.157 A 
ATOM      5  C   UNL     1      11.640  11.738  11.979  1.00  0.00     0.051 A 
ATOM      6  C   UNL     1      12.328  12.224  10.861  1.00  0.00     0.157 A 
ENDROOT
BRANCH   1   7
ATOM      7  C   UNL     1      11.493   8.016  11.168  1.00  0.00     0.010 C 
ATOM      8  C   UNL     1      12.033   7.115  10.336  1.00  0.00     0.025 C 
BRANCH   8   9
ATOM      9  C   UNL     1      11.753   5.675  10.460  1.00  0.00     0.064 C 
ATOM     10  O   UNL     1      12.518   4.951  11.148  1.00  0.00    -0.545 OA
ATOM     11  O   UNL     1      10.655   5.102   9.828  1.00  0.00    -0.545 OA
ENDBRANCH   8   9
ENDBRANCH   1   7
BRANCH   4  12
ATOM     12  O   UNL     1      13.431  11.825   8.749  1.00  0.00    -0.504 OA
ATOM     13  H   UNL     1      13.983  11.214   8.159  1.00  0.00     0.293 HD
ENDBRANCH   4  12
BRANCH   6  14
ATOM     14  O   UNL     1      12.609  13.584  10.741  1.00  0.00    -0.504 OA
ATOM     15  H   UNL     1      12.036  14.286  11.194  1.00  0.00     0.293 HD
ENDBRANCH   6  14
TORSDOF 4
ENDMDL
MODEL 3
REMARK VINA RESULT:    -5.290      1.732      6.053
REMARK INTER + INTRA:          -6.353
REMARK INTER:                  -6.221
REMARK INTRA:                  -0.133
REMARK UNBOUND:                -0.135
REMARK SMILES O=C([O-])C=Cc1ccc(O)c(O)c1
REMARK SMILES IDX 6 1 13 2 7 3 11 4 8 5 9 6 5 7 4 8 2 9 1 10 3 11 12 12 10 14
REMARK H PARENT 12 13 10 15
REMARK Flexibility Score: inf
ROOT
ATOM      1  C   UNL     1      12.078   9.632  10.606  1.00  0.00    -0.022 A 
ATOM      2  C   UNL     1      11.505   9.898  11.861  1.00  0.00     0.058 A 
ATOM      3  C   UNL     1      12.518  10.713   9.817  1.00  0.00     0.012 A 
ATOM      4  C   UNL     1      11.395  11.215  12.334  1.00  0.00     0.157 A 
ATOM      5  C   UNL     1      12.408  12.025  10.288  1.00  0.00     0.051 A 
ATOM      6  C   UNL     1      11.849  12.279  11.547  1.00  0.00     0.157 A 
ENDROOT
BRANCH   1   7
ATOM      7  C   UNL     1      12.161   8.223  10.148  1.00  0.00     0.010 C 
ATOM      8  C   UNL     1      11.754   7.177  10.880  1.00  0.00     0.025 C 
BRANCH   8   9
ATOM      9  C   UNL     1      11.844   5.795  10.381  1.00  0.00     0.064 C 
ATOM     10  O   UNL     1      12.931   5.169  10.482  1.00  0.00    -0.545 OA
ATOM     11  O   UNL     1      10.748   5.171   9.797  1.00  0.00    -0.545 OA
ENDBRANCH   8   9
ENDBRANCH   1   7
BRANCH   4  12
ATOM     12  O   UNL     1      10.834  11.470  13.584  1.00  0.00    -0.504 OA
ATOM     13  H   UNL     1      10.439  10.729  14.150  1.00  0.00     0.293 HD
ENDBRANCH   4  12
BRANCH   6  14
ATOM     14  O   UNL     1      11.739  13.585  12.020  1.00  0.00    -0.504 OA
ATOM     15  H   UNL     1      10.900  13.913  12.482  1.00  0.00     0.293 HD
ENDBRANCH   6  14
TORSDOF 4
ENDMDL
MODEL 4
REMARK VINA RESULT:    -5.097      0.821      2.104
REMARK INTER + INTRA:          -6.127
REMARK INTER:                  -5.987
REMARK INTRA:                  -0.139
REMARK UNBOUND:                -0.135
REMARK SMILES O=C([O-])C=Cc1ccc(O)c(O)c1
REMARK SMILES IDX 6 1 13 2 7 3 11 4 8 5 9 6 5 7 4 8 2 9 1 10 3 11 12 12 10 14
REMARK H PARENT 12 13 10 15
REMARK Flexibility Score: inf
ROOT
ATOM      1  C   UNL     1      11.518   7.710  11.274  1.00  0.00    -0.022 A 
ATOM      2  C   UNL     1      10.883   7.178  12.408  1.00  0.00     0.058 A 
ATOM      3  C   UNL     1      12.032   6.826  10.304  1.00  0.00     0.012 A 
ATOM      4  C   UNL     1      10.738   5.791  12.563  1.00  0.00     0.157 A 
ATOM      5  C   UNL     1      11.888   5.444  10.460  1.00  0.00     0.051 A 
ATOM      6  C   UNL     1      11.240   4.924  11.586  1.00  0.00     0.157 A 
ENDROOT
BRANCH   1   7
ATOM      7  C   UNL     1      11.655   9.184  11.163  1.00  0.00     0.010 C 
ATOM      8  C   UNL     1      12.328   9.797  10.178  1.00  0.00     0.025 C 
BRANCH   8   9
ATOM      9  C   UNL     1      12.428  11.263  10.101  1.00  0.00     0.064 C 
ATOM     10  O   UNL     1      12.456  11.825   8.976  1.00  0.00    -0.545 OA
ATOM     11  O   UNL     1      12.495  12.038  11.253  1.00  0.00    -0.545 OA
ENDBRANCH   8   9
ENDBRANCH   1   7
BRANCH   4  12
ATOM     12  O   UNL     1      10.098   5.271  13.687  1.00  0.00    -0.504 OA
ATOM     13  H   UNL     1      10.383   4.392  14.101  1.00  0.00     0.293 HD
ENDBRANCH   4  12
BRANCH   6  14
ATOM     14  O   UNL     1      11.093   3.547  11.743  1.00  0.00    -0.504 OA
ATOM     15  H   UNL     1      11.045   3.119  12.660  1.00  0.00     0.293 HD
ENDBRANCH   6  14
TORSDOF 4
ENDMDL
MODEL 5
REMARK VINA RESULT:    -5.012      1.406      1.979
REMARK INTER + INTRA:          -6.026
REMARK INTER:                  -5.890
REMARK INTRA:                  -0.136
REMARK UNBOUND:                -0.135
REMARK SMILES O=C([O-])C=Cc1ccc(O)c(O)c1
REMARK SMILES IDX 6 1 13 2 7 3 11 4 8 5 9 6 5 7 4 8 2 9 1 10 3 11 12 12 10 14
REMARK H PARENT 12 13 10 15
REMARK Flexibility Score: inf
ROOT
ATOM      1  C   UNL     1      11.741   6.225  10.893  1.00  0.00    -0.022 A 
ATOM      2  C   UNL     1      12.733   5.263  10.636  1.00  0.00     0.058 A 
ATOM      3  C   UNL     1      10.486   5.795  11.368  1.00  0.00     0.012 A 
ATOM      4  C   UNL     1      12.490   3.902  10.870  1.00  0.00     0.157 A 
ATOM      5  C   UNL     1      10.244   4.439  11.601  1.00  0.00     0.051 A 
ATOM      6  C   UNL     1      11.243   3.490  11.356  1.00  0.00     0.157 A 
ENDROOT
BRANCH   1   7
ATOM      7  C   UNL     1      12.046   7.651  10.618  1.00  0.00     0.010 C 
ATOM      8  C   UNL     1      11.587   8.667  11.361  1.00  0.00     0.025 C 
BRANCH   8   9
ATOM      9  C   UNL     1      11.925  10.067  11.058  1.00  0.00     0.064 C 
ATOM     10  O   UNL     1      12.317  10.375   9.903  1.00  0.00    -0.545 OA
ATOM     11  O   UNL     1      11.818  11.057  12.029  1.00  0.00    -0.545 OA
ENDBRANCH   8   9
ENDBRANCH   1   7
BRANCH   4  12
ATOM     12  O   UNL     1      13.482   2.955  10.622  1.00  0.00    -0.504 OA
ATOM     13  H   UNL     1      13.460   2.038  11.051  1.00  0.00     0.293 HD
ENDBRANCH   4  12
BRANCH   6  14
ATOM     14  O   UNL     1      11.005   2.137  11.589  1.00  0.00    -0.504 OA
ATOM     15  H   UNL     1      10.624   1.533  10.870  1.00  0.00     0.293 HD
ENDBRANCH   6  14
TORSDOF 4
ENDMDL
MODEL 6
REMARK VINA RESULT:    -4.828      1.469      5.900
REMARK INTER + INTRA:          -5.810
REMARK INTER:                  -5.678
REMARK INTRA:                  -0.132
REMARK UNBOUND:                -0.135
REMARK SMILES O=C([O-])C=Cc1ccc(O)c(O)c1
REMARK SMILES IDX 6 1 13 2 7 3 11 4 8 5 9 6 5 7 4 8 2 9 1 10 3 11 12 12 10 14
REMARK H PARENT 12 13 10 15
REMARK Flexibility Score: inf
ROOT
ATOM      1  C   UNL     1      11.898   8.544  10.683  1.00  0.00    -0.022 A 
ATOM      2  C   UNL     1      11.157   8.855  11.836  1.00  0.00     0.058 A 
ATOM      3  C   UNL     1      12.475   9.595   9.943  1.00  0.00     0.012 A 
ATOM      4  C   UNL     1      11.014  10.185  12.259  1.00  0.00     0.157 A 
ATOM      5  C   UNL     1      12.333  10.920  10.365  1.00  0.00     0.051 A 
ATOM      6  C   UNL     1      11.605  11.218  11.523  1.00  0.00     0.157 A 
ENDROOT
BRANCH   1   7
ATOM      7  C   UNL     1      12.009   7.122  10.272  1.00  0.00     0.010 C 
ATOM      8  C   UNL     1      11.995   6.095  11.133  1.00  0.00     0.025 C 
BRANCH   8   9
ATOM      9  C   UNL     1      12.097   4.699  10.680  1.00  0.00     0.064 C 
ATOM     10  O   UNL     1      11.538   4.352   9.608  1.00  0.00    -0.545 OA
ATOM     11  O   UNL     1      12.800   3.755  11.420  1.00  0.00    -0.545 OA
ENDBRANCH   8   9
ENDBRANCH   1   7
BRANCH   4  12
ATOM     12  O   UNL     1      10.286  10.484  13.409  1.00  0.00    -0.504 OA
ATOM     13  H   UNL     1       9.418  10.010  13.626  1.00  0.00     0.293 HD
ENDBRANCH   4  12
BRANCH   6  14
ATOM     14  O   UNL     1      11.463  12.538  11.947  1.00  0.00    -0.504 OA
ATOM     15  H   UNL     1      12.177  12.999  12.497  1.00  0.00     0.293 HD
ENDBRANCH   6  14
TORSDOF 4
ENDMDL
MODEL 7
REMARK VINA RESULT:    -4.813      3.809      6.149
REMARK INTER + INTRA:          -5.792
REMARK INTER:                  -5.659
REMARK INTRA:                  -0.133
REMARK UNBOUND:                -0.135
REMARK SMILES O=C([O-])C=Cc1ccc(O)c(O)c1
REMARK SMILES IDX 6 1 13 2 7 3 11 4 8 5 9 6 5 7 4 8 2 9 1 10 3 11 12 12 10 14
REMARK H PARENT 12 13 10 15
REMARK Flexibility Score: inf
ROOT
ATOM      1  C   UNL     1      10.985  10.633  12.129  1.00  0.00    -0.022 A 
ATOM      2  C   UNL     1      11.467  11.937  11.931  1.00  0.00     0.058 A 
ATOM      3  C   UNL     1      11.368   9.622  11.224  1.00  0.00     0.012 A 
ATOM      4  C   UNL     1      12.334  12.227  10.868  1.00  0.00     0.157 A 
ATOM      5  C   UNL     1      12.232   9.912  10.165  1.00  0.00     0.051 A 
ATOM      6  C   UNL     1      12.719  11.212   9.985  1.00  0.00     0.157 A 
ENDROOT
BRANCH   1   7
ATOM      7  C   UNL     1      10.061  10.381  13.263  1.00  0.00     0.010 C 
ATOM      8  C   UNL     1       9.840  11.258  14.252  1.00  0.00     0.025 C 
BRANCH   8   9
ATOM      9  C   UNL     1       8.905  10.971  15.352  1.00  0.00     0.064 C 
ATOM     10  O   UNL     1       9.015   9.895  15.995  1.00  0.00    -0.545 OA
ATOM     11  O   UNL     1       7.900  11.869  15.691  1.00  0.00    -0.545 OA
ENDBRANCH   8   9
ENDBRANCH   1   7
BRANCH   4  12
ATOM     12  O   UNL     1      12.816  13.522  10.684  1.00  0.00    -0.504 OA
ATOM     13  H   UNL     1      13.650  13.706  10.139  1.00  0.00     0.293 HD
ENDBRANCH   4  12
BRANCH   6  14
ATOM     14  O   UNL     1      13.582  11.503   8.930  1.00  0.00    -0.504 OA
ATOM     15  H   UNL     1      14.200  10.802   8.541  1.00  0.00     0.293 HD
ENDBRANCH   6  14
TORSDOF 4
ENDMDL
MODEL 8
REMARK VINA RESULT:    -4.790      3.371      4.935
REMARK INTER + INTRA:          -5.765
REMARK INTER:                  -5.634
REMARK INTRA:                  -0.132
REMARK UNBOUND:                -0.135
REMARK SMILES O=C([O-])C=Cc1ccc(O)c(O)c1
REMARK SMILES IDX 6 1 13 2 7 3 11 4 8 5 9 6 5 7 4 8 2 9 1 10 3 11 12 12 10 14
REMARK H PARENT 12 13 10 15
REMARK Flexibility Score: inf
ROOT
ATOM      1  C   UNL     1      12.473   3.243  10.718  1.00  0.00    -0.022 A 
ATOM      2  C   UNL     1      12.934   2.493  11.813  1.00  0.00     0.058 A 
ATOM      3  C   UNL     1      11.934   2.563   9.607  1.00  0.00     0.012 A 
ATOM      4  C   UNL     1      12.837   1.093  11.814  1.00  0.00     0.157 A 
ATOM      5  C   UNL     1      11.838   1.169   9.609  1.00  0.00     0.051 A 
ATOM      6  C   UNL     1      12.286   0.431  10.711  1.00  0.00     0.157 A 
ENDROOT
BRANCH   1   7
ATOM      7  C   UNL     1      12.608   4.720  10.761  1.00  0.00     0.010 C 
ATOM      8  C   UNL     1      11.568   5.564  10.729  1.00  0.00     0.025 C 
BRANCH   8   9
ATOM      9  C   UNL     1      11.748   7.024  10.786  1.00  0.00     0.064 C 
ATOM     10  O   UNL     1      12.347   7.613   9.849  1.00  0.00    -0.545 OA
ATOM     11  O   UNL     1      11.269   7.764  11.861  1.00  0.00    -0.545 OA
ENDBRANCH   8   9
ENDBRANCH   1   7
BRANCH   4  12
ATOM     12  O   UNL     1      13.288   0.357  12.908  1.00  0.00    -0.504 OA
ATOM     13  H   UNL     1      13.002   0.582  13.854  1.00  0.00     0.293 HD
ENDBRANCH   4  12
BRANCH   6  14
ATOM     14  O   UNL     1      12.191  -0.959  10.716  1.00  0.00    -0.504 OA
ATOM     15  H   UNL     1      11.610  -1.449  11.387  1.00  0.00     0.293 HD
ENDBRANCH   6  14
TORSDOF 4
ENDMDL
