MODEL 1
REMARK VINA RESULT:    -5.047      0.000      0.000
REMARK INTER + INTRA:          -5.926
REMARK INTER:                  -5.785
REMARK INTRA:                  -0.141
REMARK UNBOUND:                -0.141
REMARK SMILES O=C([O-])C=Cc1ccc(O)cc1
REMARK SMILES IDX 6 1 7 2 12 3 8 4 11 5 9 6 5 7 4 8 2 9 1 10 3 11 10 12
REMARK H PARENT 10 13
REMARK Flexibility Score: inf
ROOT
ATOM      1  C   UNL     1       0.283  -5.652 -41.820  1.00  0.00    -0.025 A 
ATOM      2  C   UNL     1       0.965  -5.154 -42.949  1.00  0.00     0.012 A 
ATOM      3  C   UNL     1       0.975  -5.758 -40.602  1.00  0.00     0.012 A 
ATOM      4  C   UNL     1       2.301  -4.750 -42.847  1.00  0.00     0.047 A 
ATOM      5  C   UNL     1       2.309  -5.352 -40.504  1.00  0.00     0.047 A 
ATOM      6  C   UNL     1       2.975  -4.847 -41.623  1.00  0.00     0.115 A 
ENDROOT
BRANCH   1   7
ATOM      7  C   UNL     1      -1.129  -6.105 -41.876  1.00  0.00     0.010 C 
ATOM      8  C   UNL     1      -1.534  -7.331 -41.519  1.00  0.00     0.025 C 
BRANCH   8   9
ATOM      9  C   UNL     1      -2.945  -7.739 -41.602  1.00  0.00     0.064 C 
ATOM     10  O   UNL     1      -3.764  -7.320 -40.742  1.00  0.00    -0.545 OA
ATOM     11  O   UNL     1      -3.391  -8.580 -42.615  1.00  0.00    -0.545 OA
ENDBRANCH   8   9
ENDBRANCH   1   7
BRANCH   6  12
ATOM     12  O   UNL     1       4.305  -4.446 -41.510  1.00  0.00    -0.508 OA
ATOM     13  H   UNL     1       5.025  -5.087 -41.199  1.00  0.00     0.293 HD
ENDBRANCH   6  12
TORSDOF 3
ENDMDL
MODEL 2
REMARK VINA RESULT:    -4.994      5.834      7.412
REMARK INTER + INTRA:          -5.865
REMARK INTER:                  -5.713
REMARK INTRA:                  -0.151
REMARK UNBOUND:                -0.141
REMARK SMILES O=C([O-])C=Cc1ccc(O)cc1
REMARK SMILES IDX 6 1 7 2 12 3 8 4 11 5 9 6 5 7 4 8 2 9 1 10 3 11 10 12
REMARK H PARENT 10 13
REMARK Flexibility Score: inf
ROOT
ATOM      1  C   UNL     1      -0.794 -12.642 -40.143  1.00  0.00    -0.025 A 
ATOM      2  C   UNL     1      -1.228 -13.827 -39.514  1.00  0.00     0.012 A 
ATOM      3  C   UNL     1       0.563 -12.286 -40.053  1.00  0.00     0.012 A 
ATOM      4  C   UNL     1      -0.316 -14.642 -38.834  1.00  0.00     0.047 A 
ATOM      5  C   UNL     1       1.471 -13.103 -39.374  1.00  0.00     0.047 A 
ATOM      6  C   UNL     1       1.035 -14.283 -38.765  1.00  0.00     0.115 A 
ENDROOT
BRANCH   1   7
ATOM      7  C   UNL     1      -1.720 -11.737 -40.867  1.00  0.00     0.010 C 
ATOM      8  C   UNL     1      -1.320 -10.670 -41.572  1.00  0.00     0.025 C 
BRANCH   8   9
ATOM      9  C   UNL     1      -2.277  -9.793 -42.265  1.00  0.00     0.064 C 
ATOM     10  O   UNL     1      -3.021  -9.033 -41.592  1.00  0.00    -0.545 OA
ATOM     11  O   UNL     1      -2.372  -9.789 -43.652  1.00  0.00    -0.545 OA
ENDBRANCH   8   9
ENDBRANCH   1   7
BRANCH   6  12
ATOM     12  O   UNL     1       1.951 -15.088 -38.091  1.00  0.00    -0.508 OA
ATOM     13  H   UNL     1       2.260 -14.866 -37.152  1.00  0.00     0.293 HD
ENDBRANCH   6  12
TORSDOF 3
ENDMDL
MODEL 3
REMARK VINA RESULT:    -4.949      9.586     11.929
REMARK INTER + INTRA:          -5.814
REMARK INTER:                  -5.672
REMARK INTRA:                  -0.142
REMARK UNBOUND:                -0.141
REMARK SMILES O=C([O-])C=Cc1ccc(O)cc1
REMARK SMILES IDX 6 1 7 2 12 3 8 4 11 5 9 6 5 7 4 8 2 9 1 10 3 11 10 12
REMARK H PARENT 10 13
REMARK Flexibility Score: inf
ROOT
ATOM      1  C   UNL     1       8.701 -12.285 -40.976  1.00  0.00    -0.025 A 
ATOM      2  C   UNL     1       8.048 -13.020 -41.987  1.00  0.00     0.012 A 
ATOM      3  C   UNL     1       8.002 -11.996 -39.791  1.00  0.00     0.012 A 
ATOM      4  C   UNL     1       6.737 -13.472 -41.799  1.00  0.00     0.047 A 
ATOM      5  C   UNL     1       6.693 -12.450 -39.607  1.00  0.00     0.047 A 
ATOM      6  C   UNL     1       6.058 -13.189 -40.608  1.00  0.00     0.115 A 
ENDROOT
BRANCH   1   7
ATOM      7  C   UNL     1      10.085 -11.773 -41.127  1.00  0.00     0.010 C 
ATOM      8  C   UNL     1      10.418 -10.480 -41.013  1.00  0.00     0.025 C 
BRANCH   8   9
ATOM      9  C   UNL     1      11.804 -10.016 -41.183  1.00  0.00     0.064 C 
ATOM     10  O   UNL     1      12.694 -10.415 -40.386  1.00  0.00    -0.545 OA
ATOM     11  O   UNL     1      12.149  -9.145 -42.210  1.00  0.00    -0.545 OA
ENDBRANCH   8   9
ENDBRANCH   1   7
BRANCH   6  12
ATOM     12  O   UNL     1       4.753 -13.636 -40.410  1.00  0.00    -0.508 OA
ATOM     13  H   UNL     1       4.559 -14.580 -40.097  1.00  0.00     0.293 HD
ENDBRANCH   6  12
TORSDOF 3
ENDMDL
MODEL 4
REMARK VINA RESULT:    -4.760      7.286      8.951
REMARK INTER + INTRA:          -5.597
REMARK INTER:                  -5.460
REMARK INTRA:                  -0.137
REMARK UNBOUND:                -0.141
REMARK SMILES O=C([O-])C=Cc1ccc(O)cc1
REMARK SMILES IDX 6 1 7 2 12 3 8 4 11 5 9 6 5 7 4 8 2 9 1 10 3 11 10 12
REMARK H PARENT 10 13
REMARK Flexibility Score: inf
ROOT
ATOM      1  C   UNL     1       1.992 -12.580 -39.363  1.00  0.00    -0.025 A 
ATOM      2  C   UNL     1       1.782 -11.321 -38.763  1.00  0.00     0.012 A 
ATOM      3  C   UNL     1       1.263 -13.685 -38.891  1.00  0.00     0.012 A 
ATOM      4  C   UNL     1       0.846 -11.175 -37.733  1.00  0.00     0.047 A 
ATOM      5  C   UNL     1       0.328 -13.535 -37.863  1.00  0.00     0.047 A 
ATOM      6  C   UNL     1       0.116 -12.281 -37.282  1.00  0.00     0.115 A 
ENDROOT
BRANCH   1   7
ATOM      7  C   UNL     1       2.979 -12.792 -40.450  1.00  0.00     0.010 C 
ATOM      8  C   UNL     1       4.274 -12.462 -40.355  1.00  0.00     0.025 C 
BRANCH   8   9
ATOM      9  C   UNL     1       5.216 -12.681 -41.464  1.00  0.00     0.064 C 
ATOM     10  O   UNL     1       5.047 -12.069 -42.551  1.00  0.00    -0.545 OA
ATOM     11  O   UNL     1       6.291 -13.553 -41.332  1.00  0.00    -0.545 OA
ENDBRANCH   8   9
ENDBRANCH   1   7
BRANCH   6  12
ATOM     12  O   UNL     1      -0.819 -12.147 -36.259  1.00  0.00    -0.508 OA
ATOM     13  H   UNL     1      -1.793 -11.946 -36.455  1.00  0.00     0.293 HD
ENDBRANCH   6  12
TORSDOF 3
ENDMDL
MODEL 5
REMARK VINA RESULT:    -4.760      4.559      5.577
REMARK INTER + INTRA:          -5.597
REMARK INTER:                  -5.448
REMARK INTRA:                  -0.148
REMARK UNBOUND:                -0.141
REMARK SMILES O=C([O-])C=Cc1ccc(O)cc1
REMARK SMILES IDX 6 1 7 2 12 3 8 4 11 5 9 6 5 7 4 8 2 9 1 10 3 11 10 12
REMARK H PARENT 10 13
REMARK Flexibility Score: inf
ROOT
ATOM      1  C   UNL     1       3.460  -7.834 -44.468  1.00  0.00    -0.025 A 
ATOM      2  C   UNL     1       3.274  -8.743 -45.530  1.00  0.00     0.012 A 
ATOM      3  C   UNL     1       4.766  -7.586 -44.010  1.00  0.00     0.012 A 
ATOM      4  C   UNL     1       4.374  -9.365 -46.130  1.00  0.00     0.047 A 
ATOM      5  C   UNL     1       5.862  -8.209 -44.613  1.00  0.00     0.047 A 
ATOM      6  C   UNL     1       5.671  -9.098 -45.674  1.00  0.00     0.115 A 
ENDROOT
BRANCH   1   7
ATOM      7  C   UNL     1       2.329  -7.156 -43.789  1.00  0.00     0.010 C 
ATOM      8  C   UNL     1       2.435  -5.978 -43.160  1.00  0.00     0.025 C 
BRANCH   8   9
ATOM      9  C   UNL     1       1.286  -5.348 -42.490  1.00  0.00     0.064 C 
ATOM     10  O   UNL     1       0.321  -4.927 -43.180  1.00  0.00    -0.545 OA
ATOM     11  O   UNL     1       1.248  -5.210 -41.107  1.00  0.00    -0.545 OA
ENDBRANCH   8   9
ENDBRANCH   1   7
BRANCH   6  12
ATOM     12  O   UNL     1       6.773  -9.711 -46.266  1.00  0.00    -0.508 OA
ATOM     13  H   UNL     1       7.383  -9.205 -46.898  1.00  0.00     0.293 HD
ENDBRANCH   6  12
TORSDOF 3
ENDMDL
MODEL 6
REMARK VINA RESULT:    -4.719      5.339      5.809
REMARK INTER + INTRA:          -5.550
REMARK INTER:                  -5.409
REMARK INTRA:                  -0.141
REMARK UNBOUND:                -0.141
REMARK SMILES O=C([O-])C=Cc1ccc(O)cc1
REMARK SMILES IDX 6 1 7 2 12 3 8 4 11 5 9 6 5 7 4 8 2 9 1 10 3 11 10 12
REMARK H PARENT 10 13
REMARK Flexibility Score: inf
ROOT
ATOM      1  C   UNL     1       2.451  -9.457 -45.531  1.00  0.00    -0.025 A 
ATOM      2  C   UNL     1       3.061 -10.722 -45.656  1.00  0.00     0.012 A 
ATOM      3  C   UNL     1       3.249  -8.306 -45.645  1.00  0.00     0.012 A 
ATOM      4  C   UNL     1       4.432 -10.823 -45.914  1.00  0.00     0.047 A 
ATOM      5  C   UNL     1       4.618  -8.411 -45.904  1.00  0.00     0.047 A 
ATOM      6  C   UNL     1       5.213  -9.668 -46.041  1.00  0.00     0.115 A 
ENDROOT
BRANCH   1   7
ATOM      7  C   UNL     1       1.004  -9.293 -45.246  1.00  0.00     0.010 C 
ATOM      8  C   UNL     1       0.290 -10.144 -44.498  1.00  0.00     0.025 C 
BRANCH   8   9
ATOM      9  C   UNL     1      -1.147  -9.947 -44.251  1.00  0.00     0.064 C 
ATOM     10  O   UNL     1      -1.834 -10.896 -43.792  1.00  0.00    -0.545 OA
ATOM     11  O   UNL     1      -1.760  -8.727 -44.516  1.00  0.00    -0.545 OA
ENDBRANCH   8   9
ENDBRANCH   1   7
BRANCH   6  12
ATOM     12  O   UNL     1       6.579  -9.758 -46.299  1.00  0.00    -0.508 OA
ATOM     13  H   UNL     1       6.941 -10.365 -47.026  1.00  0.00     0.293 HD
ENDBRANCH   6  12
TORSDOF 3
ENDMDL
MODEL 7
REMARK VINA RESULT:    -4.676      4.125      5.891
REMARK INTER + INTRA:          -5.501
REMARK INTER:                  -5.358
REMARK INTRA:                  -0.143
REMARK UNBOUND:                -0.141
REMARK SMILES O=C([O-])C=Cc1ccc(O)cc1
REMARK SMILES IDX 6 1 7 2 12 3 8 4 11 5 9 6 5 7 4 8 2 9 1 10 3 11 10 12
REMARK H PARENT 10 13
REMARK Flexibility Score: inf
ROOT
ATOM      1  C   UNL     1       2.367  -7.162 -43.708  1.00  0.00    -0.025 A 
ATOM      2  C   UNL     1       1.222  -7.599 -43.011  1.00  0.00     0.012 A 
ATOM      3  C   UNL     1       3.009  -5.985 -43.286  1.00  0.00     0.012 A 
ATOM      4  C   UNL     1       0.751  -6.883 -41.905  1.00  0.00     0.047 A 
ATOM      5  C   UNL     1       2.536  -5.274 -42.180  1.00  0.00     0.047 A 
ATOM      6  C   UNL     1       1.409  -5.720 -41.486  1.00  0.00     0.115 A 
ENDROOT
BRANCH   1   7
ATOM      7  C   UNL     1       2.901  -7.877 -44.894  1.00  0.00     0.010 C 
ATOM      8  C   UNL     1       4.196  -8.176 -45.063  1.00  0.00     0.025 C 
BRANCH   8   9
ATOM      9  C   UNL     1       4.682  -8.877 -46.262  1.00  0.00     0.064 C 
ATOM     10  O   UNL     1       4.257 -10.034 -46.518  1.00  0.00    -0.545 OA
ATOM     11  O   UNL     1       5.602  -8.282 -47.118  1.00  0.00    -0.545 OA
ENDBRANCH   8   9
ENDBRANCH   1   7
BRANCH   6  12
ATOM     12  O   UNL     1       0.949  -5.001 -40.384  1.00  0.00    -0.508 OA
ATOM     13  H   UNL     1       0.244  -4.280 -40.481  1.00  0.00     0.293 HD
ENDBRANCH   6  12
TORSDOF 3
ENDMDL
MODEL 8
REMARK VINA RESULT:    -4.673      7.445      8.948
REMARK INTER + INTRA:          -5.497
REMARK INTER:                  -5.358
REMARK INTRA:                  -0.139
REMARK UNBOUND:                -0.141
REMARK SMILES O=C([O-])C=Cc1ccc(O)cc1
REMARK SMILES IDX 6 1 7 2 12 3 8 4 11 5 9 6 5 7 4 8 2 9 1 10 3 11 10 12
REMARK H PARENT 10 13
REMARK Flexibility Score: inf
ROOT
ATOM      1  C   UNL     1       5.697 -11.033 -43.563  1.00  0.00    -0.025 A 
ATOM      2  C   UNL     1       4.324 -11.148 -43.262  1.00  0.00     0.012 A 
ATOM      3  C   UNL     1       6.621 -11.770 -42.802  1.00  0.00     0.012 A 
ATOM      4  C   UNL     1       3.893 -12.001 -42.239  1.00  0.00     0.047 A 
ATOM      5  C   UNL     1       6.186 -12.621 -41.783  1.00  0.00     0.047 A 
ATOM      6  C   UNL     1       4.823 -12.740 -41.499  1.00  0.00     0.115 A 
ENDROOT
BRANCH   1   7
ATOM      7  C   UNL     1       6.209 -10.136 -44.628  1.00  0.00     0.010 C 
ATOM      8  C   UNL     1       5.436  -9.295 -45.329  1.00  0.00     0.025 C 
BRANCH   8   9
ATOM      9  C   UNL     1       5.987  -8.431 -46.385  1.00  0.00     0.064 C 
ATOM     10  O   UNL     1       5.859  -8.768 -47.591  1.00  0.00    -0.545 OA
ATOM     11  O   UNL     1       6.645  -7.246 -46.073  1.00  0.00    -0.545 OA
ENDBRANCH   8   9
ENDBRANCH   1   7
BRANCH   6  12
ATOM     12  O   UNL     1       4.404 -13.593 -40.480  1.00  0.00    -0.508 OA
ATOM     13  H   UNL     1       3.577 -13.394 -39.931  1.00  0.00     0.293 HD
ENDBRANCH   6  12
TORSDOF 3
ENDMDL
MODEL 9
REMARK VINA RESULT:    -4.647      7.517      9.010
REMARK INTER + INTRA:          -5.468
REMARK INTER:                  -5.322
REMARK INTRA:                  -0.146
REMARK UNBOUND:                -0.141
REMARK SMILES O=C([O-])C=Cc1ccc(O)cc1
REMARK SMILES IDX 6 1 7 2 12 3 8 4 11 5 9 6 5 7 4 8 2 9 1 10 3 11 10 12
REMARK H PARENT 10 13
REMARK Flexibility Score: inf
ROOT
ATOM      1  C   UNL     1       5.459 -10.805 -44.217  1.00  0.00    -0.025 A 
ATOM      2  C   UNL     1       5.580 -10.443 -45.575  1.00  0.00     0.012 A 
ATOM      3  C   UNL     1       4.220 -10.632 -43.578  1.00  0.00     0.012 A 
ATOM      4  C   UNL     1       4.476  -9.945 -46.275  1.00  0.00     0.047 A 
ATOM      5  C   UNL     1       3.119 -10.135 -44.281  1.00  0.00     0.047 A 
ATOM      6  C   UNL     1       3.242  -9.791 -45.630  1.00  0.00     0.115 A 
ENDROOT
BRANCH   1   7
ATOM      7  C   UNL     1       6.600 -11.327 -43.426  1.00  0.00     0.010 C 
ATOM      8  C   UNL     1       6.476 -12.236 -42.449  1.00  0.00     0.025 C 
BRANCH   8   9
ATOM      9  C   UNL     1       7.636 -12.717 -41.683  1.00  0.00     0.064 C 
ATOM     10  O   UNL     1       7.609 -12.675 -40.425  1.00  0.00    -0.545 OA
ATOM     11  O   UNL     1       8.763 -13.219 -42.325  1.00  0.00    -0.545 OA
ENDBRANCH   8   9
ENDBRANCH   1   7
BRANCH   6  12
ATOM     12  O   UNL     1       2.136  -9.297 -46.319  1.00  0.00    -0.508 OA
ATOM     13  H   UNL     1       1.876  -9.658 -47.229  1.00  0.00     0.293 HD
ENDBRANCH   6  12
TORSDOF 3
ENDMDL
