MODEL 1
REMARK VINA RESULT:    -4.496      0.000      0.000
REMARK INTER + INTRA:          -8.395
REMARK INTER:                  -7.124
REMARK INTRA:                  -1.271
REMARK UNBOUND:                -1.271
REMARK SMILES CCCCCCCCCCCC(=O)[O-]
REMARK SMILES IDX 7 1 8 2 9 3 10 4 11 5 12 6 13 7 14 8 6 9 5 10 4 11 3 12 2 13
REMARK SMILES IDX 1 14
REMARK H PARENT
REMARK Flexibility Score: inf
ROOT
ATOM      1  C   UNL     1      43.512 -12.170 -32.974  1.00  0.00     0.000 C 
ENDROOT
BRANCH   1   2
ATOM      2  C   UNL     1      43.118 -12.444 -34.437  1.00  0.00     0.000 C 
BRANCH   2   3
ATOM      3  C   UNL     1      43.966 -11.652 -35.443  1.00  0.00     0.000 C 
BRANCH   3   4
ATOM      4  C   UNL     1      43.975 -12.342 -36.815  1.00  0.00     0.006 C 
BRANCH   4   5
ATOM      5  C   UNL     1      43.579 -11.386 -37.947  1.00  0.00     0.053 C 
BRANCH   5   6
ATOM      6  C   UNL     1      42.312 -10.650 -37.635  1.00  0.00     0.041 C 
ATOM      7  O   UNL     1      41.233 -11.282 -37.480  1.00  0.00    -0.550 OA
ATOM      8  O   UNL     1      42.316  -9.264 -37.548  1.00  0.00    -0.550 OA
ENDBRANCH   5   6
ENDBRANCH   4   5
ENDBRANCH   3   4
ENDBRANCH   2   3
ENDBRANCH   1   2
BRANCH   1   9
ATOM      9  C   UNL     1      44.168 -13.355 -32.238  1.00  0.00     0.000 C 
BRANCH   9  10
ATOM     10  C   UNL     1      44.353 -14.625 -33.088  1.00  0.00    -0.000 C 
BRANCH  10  11
ATOM     11  C   UNL     1      45.833 -14.950 -33.354  1.00  0.00    -0.000 C 
BRANCH  11  12
ATOM     12  C   UNL     1      46.366 -14.292 -34.640  1.00  0.00    -0.000 C 
BRANCH  12  13
ATOM     13  C   UNL     1      47.432 -13.205 -34.413  1.00  0.00    -0.003 C 
ATOM     14  C   UNL     1      47.860 -13.083 -32.951  1.00  0.00     0.004 C 
ENDBRANCH  12  13
ENDBRANCH  11  12
ENDBRANCH  10  11
ENDBRANCH   9  10
ENDBRANCH   1   9
TORSDOF 10
ENDMDL
MODEL 2
REMARK VINA RESULT:    -4.472      4.594      8.773
REMARK INTER + INTRA:          -8.357
REMARK INTER:                  -7.434
REMARK INTRA:                  -0.923
REMARK UNBOUND:                -1.271
REMARK SMILES CCCCCCCCCCCC(=O)[O-]
REMARK SMILES IDX 7 1 8 2 9 3 10 4 11 5 12 6 13 7 14 8 6 9 5 10 4 11 3 12 2 13
REMARK SMILES IDX 1 14
REMARK H PARENT
REMARK Flexibility Score: inf
ROOT
ATOM      1  C   UNL     1      43.552 -10.031 -41.513  1.00  0.00     0.000 C 
ENDROOT
BRANCH   1   2
ATOM      2  C   UNL     1      43.473 -11.539 -41.210  1.00  0.00     0.000 C 
BRANCH   2   3
ATOM      3  C   UNL     1      44.268 -11.940 -39.959  1.00  0.00     0.000 C 
BRANCH   3   4
ATOM      4  C   UNL     1      44.564 -10.714 -39.082  1.00  0.00     0.006 C 
BRANCH   4   5
ATOM      5  C   UNL     1      43.726 -10.706 -37.797  1.00  0.00     0.053 C 
BRANCH   5   6
ATOM      6  C   UNL     1      42.429  -9.981 -37.985  1.00  0.00     0.041 C 
ATOM      7  O   UNL     1      42.352  -8.745 -37.752  1.00  0.00    -0.550 OA
ATOM      8  O   UNL     1      41.296 -10.676 -38.387  1.00  0.00    -0.550 OA
ENDBRANCH   5   6
ENDBRANCH   4   5
ENDBRANCH   3   4
ENDBRANCH   2   3
ENDBRANCH   1   2
BRANCH   1   9
ATOM      9  C   UNL     1      42.236  -9.389 -41.994  1.00  0.00     0.000 C 
BRANCH   9  10
ATOM     10  C   UNL     1      41.012 -10.322 -41.975  1.00  0.00    -0.000 C 
BRANCH  10  11
ATOM     11  C   UNL     1      40.249 -10.329 -43.311  1.00  0.00    -0.000 C 
BRANCH  11  12
ATOM     12  C   UNL     1      40.979 -11.123 -44.410  1.00  0.00    -0.000 C 
BRANCH  12  13
ATOM     13  C   UNL     1      40.172 -12.290 -45.006  1.00  0.00    -0.003 C 
ATOM     14  C   UNL     1      38.707 -11.935 -45.260  1.00  0.00     0.004 C 
ENDBRANCH  12  13
ENDBRANCH  11  12
ENDBRANCH  10  11
ENDBRANCH   9  10
ENDBRANCH   1   9
TORSDOF 10
ENDMDL
MODEL 3
REMARK VINA RESULT:    -4.467      2.971      5.056
REMARK INTER + INTRA:          -8.350
REMARK INTER:                  -6.929
REMARK INTRA:                  -1.421
REMARK UNBOUND:                -1.271
REMARK SMILES CCCCCCCCCCCC(=O)[O-]
REMARK SMILES IDX 7 1 8 2 9 3 10 4 11 5 12 6 13 7 14 8 6 9 5 10 4 11 3 12 2 13
REMARK SMILES IDX 1 14
REMARK H PARENT
REMARK Flexibility Score: inf
ROOT
ATOM      1  C   UNL     1      45.790 -14.415 -37.317  1.00  0.00     0.000 C 
ENDROOT
BRANCH   1   2
ATOM      2  C   UNL     1      45.760 -13.964 -38.789  1.00  0.00     0.000 C 
BRANCH   2   3
ATOM      3  C   UNL     1      46.481 -12.628 -39.019  1.00  0.00     0.000 C 
BRANCH   3   4
ATOM      4  C   UNL     1      45.536 -11.598 -39.656  1.00  0.00     0.006 C 
BRANCH   4   5
ATOM      5  C   UNL     1      44.443 -12.261 -40.504  1.00  0.00     0.053 C 
BRANCH   5   6
ATOM      6  C   UNL     1      43.859 -11.306 -41.501  1.00  0.00     0.041 C 
ATOM      7  O   UNL     1      43.679 -10.098 -41.193  1.00  0.00    -0.550 OA
ATOM      8  O   UNL     1      43.484 -11.758 -42.759  1.00  0.00    -0.550 OA
ENDBRANCH   5   6
ENDBRANCH   4   5
ENDBRANCH   3   4
ENDBRANCH   2   3
ENDBRANCH   1   2
BRANCH   1   9
ATOM      9  C   UNL     1      44.649 -13.864 -36.438  1.00  0.00     0.000 C 
BRANCH   9  10
ATOM     10  C   UNL     1      44.969 -12.549 -35.706  1.00  0.00    -0.000 C 
BRANCH  10  11
ATOM     11  C   UNL     1      44.096 -11.376 -36.182  1.00  0.00    -0.000 C 
BRANCH  11  12
ATOM     12  C   UNL     1      42.684 -11.818 -36.610  1.00  0.00    -0.000 C 
BRANCH  12  13
ATOM     13  C   UNL     1      42.154 -11.136 -37.883  1.00  0.00    -0.003 C 
ATOM     14  C   UNL     1      42.368  -9.622 -37.884  1.00  0.00     0.004 C 
ENDBRANCH  12  13
ENDBRANCH  11  12
ENDBRANCH  10  11
ENDBRANCH   9  10
ENDBRANCH   1   9
TORSDOF 10
ENDMDL
MODEL 4
REMARK VINA RESULT:    -4.455      5.145      9.022
REMARK INTER + INTRA:          -8.330
REMARK INTER:                  -7.549
REMARK INTRA:                  -0.782
REMARK UNBOUND:                -1.271
REMARK SMILES CCCCCCCCCCCC(=O)[O-]
REMARK SMILES IDX 7 1 8 2 9 3 10 4 11 5 12 6 13 7 14 8 6 9 5 10 4 11 3 12 2 13
REMARK SMILES IDX 1 14
REMARK H PARENT
REMARK Flexibility Score: inf
ROOT
ATOM      1  C   UNL     1      43.240 -11.556 -42.693  1.00  0.00     0.000 C 
ENDROOT
BRANCH   1   2
ATOM      2  C   UNL     1      43.904 -12.369 -41.565  1.00  0.00     0.000 C 
BRANCH   2   3
ATOM      3  C   UNL     1      44.388 -11.492 -40.402  1.00  0.00     0.000 C 
BRANCH   3   4
ATOM      4  C   UNL     1      43.412 -10.335 -40.144  1.00  0.00     0.006 C 
BRANCH   4   5
ATOM      5  C   UNL     1      42.268 -10.740 -39.206  1.00  0.00     0.053 C 
BRANCH   5   6
ATOM      6  C   UNL     1      42.419 -10.125 -37.848  1.00  0.00     0.041 C 
ATOM      7  O   UNL     1      42.316  -8.878 -37.701  1.00  0.00    -0.550 OA
ATOM      8  O   UNL     1      42.705 -10.926 -36.751  1.00  0.00    -0.550 OA
ENDBRANCH   5   6
ENDBRANCH   4   5
ENDBRANCH   3   4
ENDBRANCH   2   3
ENDBRANCH   1   2
BRANCH   1   9
ATOM      9  C   UNL     1      43.297 -12.207 -44.090  1.00  0.00     0.000 C 
BRANCH   9  10
ATOM     10  C   UNL     1      42.245 -11.692 -45.089  1.00  0.00    -0.000 C 
BRANCH  10  11
ATOM     11  C   UNL     1      40.803 -11.943 -44.616  1.00  0.00    -0.000 C 
BRANCH  11  12
ATOM     12  C   UNL     1      40.092 -10.654 -44.164  1.00  0.00    -0.000 C 
BRANCH  12  13
ATOM     13  C   UNL     1      40.823  -9.351 -44.533  1.00  0.00    -0.003 C 
ATOM     14  C   UNL     1      41.166  -8.492 -43.316  1.00  0.00     0.004 C 
ENDBRANCH  12  13
ENDBRANCH  11  12
ENDBRANCH  10  11
ENDBRANCH   9  10
ENDBRANCH   1   9
TORSDOF 10
ENDMDL
MODEL 5
REMARK VINA RESULT:    -4.425      3.118      6.104
REMARK INTER + INTRA:          -8.283
REMARK INTER:                  -7.039
REMARK INTRA:                  -1.244
REMARK UNBOUND:                -1.271
REMARK SMILES CCCCCCCCCCCC(=O)[O-]
REMARK SMILES IDX 7 1 8 2 9 3 10 4 11 5 12 6 13 7 14 8 6 9 5 10 4 11 3 12 2 13
REMARK SMILES IDX 1 14
REMARK H PARENT
REMARK Flexibility Score: inf
ROOT
ATOM      1  C   UNL     1      42.035  -9.012 -39.246  1.00  0.00     0.000 C 
ENDROOT
BRANCH   1   2
ATOM      2  C   UNL     1      42.381  -9.360 -37.786  1.00  0.00     0.000 C 
BRANCH   2   3
ATOM      3  C   UNL     1      42.496 -10.872 -37.543  1.00  0.00     0.000 C 
BRANCH   3   4
ATOM      4  C   UNL     1      43.708 -11.193 -36.657  1.00  0.00     0.006 C 
BRANCH   4   5
ATOM      5  C   UNL     1      43.602 -12.580 -36.011  1.00  0.00     0.053 C 
BRANCH   5   6
ATOM      6  C   UNL     1      42.665 -12.578 -34.842  1.00  0.00     0.041 C 
ATOM      7  O   UNL     1      41.533 -13.123 -34.935  1.00  0.00    -0.550 OA
ATOM      8  O   UNL     1      43.028 -11.945 -33.661  1.00  0.00    -0.550 OA
ENDBRANCH   5   6
ENDBRANCH   4   5
ENDBRANCH   3   4
ENDBRANCH   2   3
ENDBRANCH   1   2
BRANCH   1   9
ATOM      9  C   UNL     1      41.309 -10.122 -40.031  1.00  0.00     0.000 C 
BRANCH   9  10
ATOM     10  C   UNL     1      41.976 -10.522 -41.359  1.00  0.00    -0.000 C 
BRANCH  10  11
ATOM     11  C   UNL     1      43.513 -10.501 -41.283  1.00  0.00    -0.000 C 
BRANCH  11  12
ATOM     12  C   UNL     1      44.108 -11.859 -40.868  1.00  0.00    -0.000 C 
BRANCH  12  13
ATOM     13  C   UNL     1      45.292 -11.772 -39.889  1.00  0.00    -0.003 C 
ATOM     14  C   UNL     1      45.771 -13.140 -39.406  1.00  0.00     0.004 C 
ENDBRANCH  12  13
ENDBRANCH  11  12
ENDBRANCH  10  11
ENDBRANCH   9  10
ENDBRANCH   1   9
TORSDOF 10
ENDMDL
MODEL 6
REMARK VINA RESULT:    -4.400      5.772      8.991
REMARK INTER + INTRA:          -8.243
REMARK INTER:                  -7.290
REMARK INTRA:                  -0.953
REMARK UNBOUND:                -1.271
REMARK SMILES CCCCCCCCCCCC(=O)[O-]
REMARK SMILES IDX 7 1 8 2 9 3 10 4 11 5 12 6 13 7 14 8 6 9 5 10 4 11 3 12 2 13
REMARK SMILES IDX 1 14
REMARK H PARENT
REMARK Flexibility Score: inf
ROOT
ATOM      1  C   UNL     1      40.494  -9.610 -41.292  1.00  0.00     0.000 C 
ENDROOT
BRANCH   1   2
ATOM      2  C   UNL     1      41.445  -9.660 -40.082  1.00  0.00     0.000 C 
BRANCH   2   3
ATOM      3  C   UNL     1      42.177 -11.003 -39.951  1.00  0.00     0.000 C 
BRANCH   3   4
ATOM      4  C   UNL     1      43.523 -10.968 -40.688  1.00  0.00     0.006 C 
BRANCH   4   5
ATOM      5  C   UNL     1      44.712 -10.903 -39.722  1.00  0.00     0.053 C 
BRANCH   5   6
ATOM      6  C   UNL     1      45.602 -12.101 -39.854  1.00  0.00     0.041 C 
ATOM      7  O   UNL     1      46.835 -12.005 -39.616  1.00  0.00    -0.550 OA
ATOM      8  O   UNL     1      45.074 -13.315 -40.273  1.00  0.00    -0.550 OA
ENDBRANCH   5   6
ENDBRANCH   4   5
ENDBRANCH   3   4
ENDBRANCH   2   3
ENDBRANCH   1   2
BRANCH   1   9
ATOM      9  C   UNL     1      41.013  -8.808 -42.502  1.00  0.00     0.000 C 
BRANCH   9  10
ATOM     10  C   UNL     1      40.865  -9.515 -43.862  1.00  0.00    -0.000 C 
BRANCH  10  11
ATOM     11  C   UNL     1      40.207 -10.900 -43.743  1.00  0.00    -0.000 C 
BRANCH  11  12
ATOM     12  C   UNL     1      40.844 -11.946 -44.677  1.00  0.00    -0.000 C 
BRANCH  12  13
ATOM     13  C   UNL     1      42.290 -11.635 -45.100  1.00  0.00    -0.003 C 
ATOM     14  C   UNL     1      43.332 -12.234 -44.155  1.00  0.00     0.004 C 
ENDBRANCH  12  13
ENDBRANCH  11  12
ENDBRANCH  10  11
ENDBRANCH   9  10
ENDBRANCH   1   9
TORSDOF 10
ENDMDL
MODEL 7
REMARK VINA RESULT:    -4.377      2.997      4.318
REMARK INTER + INTRA:          -8.207
REMARK INTER:                  -7.016
REMARK INTRA:                  -1.191
REMARK UNBOUND:                -1.271
REMARK SMILES CCCCCCCCCCCC(=O)[O-]
REMARK SMILES IDX 7 1 8 2 9 3 10 4 11 5 12 6 13 7 14 8 6 9 5 10 4 11 3 12 2 13
REMARK SMILES IDX 1 14
REMARK H PARENT
REMARK Flexibility Score: inf
ROOT
ATOM      1  C   UNL     1      48.379 -13.039 -34.176  1.00  0.00     0.000 C 
ENDROOT
BRANCH   1   2
ATOM      2  C   UNL     1      48.475 -13.265 -35.696  1.00  0.00     0.000 C 
BRANCH   2   3
ATOM      3  C   UNL     1      47.437 -14.268 -36.218  1.00  0.00     0.000 C 
BRANCH   3   4
ATOM      4  C   UNL     1      46.241 -13.540 -36.849  1.00  0.00     0.006 C 
BRANCH   4   5
ATOM      5  C   UNL     1      45.868 -14.118 -38.220  1.00  0.00     0.053 C 
BRANCH   5   6
ATOM      6  C   UNL     1      46.016 -13.101 -39.310  1.00  0.00     0.041 C 
ATOM      7  O   UNL     1      45.062 -12.876 -40.102  1.00  0.00    -0.550 OA
ATOM      8  O   UNL     1      47.218 -12.426 -39.472  1.00  0.00    -0.550 OA
ENDBRANCH   5   6
ENDBRANCH   4   5
ENDBRANCH   3   4
ENDBRANCH   2   3
ENDBRANCH   1   2
BRANCH   1   9
ATOM      9  C   UNL     1      48.716 -14.269 -33.308  1.00  0.00     0.000 C 
BRANCH   9  10
ATOM     10  C   UNL     1      47.637 -14.654 -32.280  1.00  0.00    -0.000 C 
BRANCH  10  11
ATOM     11  C   UNL     1      46.252 -14.084 -32.631  1.00  0.00    -0.000 C 
BRANCH  11  12
ATOM     12  C   UNL     1      45.335 -15.119 -33.309  1.00  0.00    -0.000 C 
BRANCH  12  13
ATOM     13  C   UNL     1      44.088 -14.528 -33.989  1.00  0.00    -0.003 C 
ATOM     14  C   UNL     1      43.535 -15.417 -35.102  1.00  0.00     0.004 C 
ENDBRANCH  12  13
ENDBRANCH  11  12
ENDBRANCH  10  11
ENDBRANCH   9  10
ENDBRANCH   1   9
TORSDOF 10
ENDMDL
MODEL 8
REMARK VINA RESULT:    -4.362      3.128      5.572
REMARK INTER + INTRA:          -8.183
REMARK INTER:                  -6.969
REMARK INTRA:                  -1.214
REMARK UNBOUND:                -1.271
REMARK SMILES CCCCCCCCCCCC(=O)[O-]
REMARK SMILES IDX 7 1 8 2 9 3 10 4 11 5 12 6 13 7 14 8 6 9 5 10 4 11 3 12 2 13
REMARK SMILES IDX 1 14
REMARK H PARENT
REMARK Flexibility Score: inf
ROOT
ATOM      1  C   UNL     1      42.132 -11.259 -38.414  1.00  0.00     0.000 C 
ENDROOT
BRANCH   1   2
ATOM      2  C   UNL     1      42.524 -11.806 -37.029  1.00  0.00     0.000 C 
BRANCH   2   3
ATOM      3  C   UNL     1      43.780 -11.136 -36.455  1.00  0.00     0.000 C 
BRANCH   3   4
ATOM      4  C   UNL     1      44.344 -11.946 -35.278  1.00  0.00     0.006 C 
BRANCH   4   5
ATOM      5  C   UNL     1      43.299 -12.176 -34.179  1.00  0.00     0.053 C 
BRANCH   5   6
ATOM      6  C   UNL     1      43.853 -12.986 -33.047  1.00  0.00     0.041 C 
ATOM      7  O   UNL     1      44.232 -14.172 -33.241  1.00  0.00    -0.550 OA
ATOM      8  O   UNL     1      43.921 -12.442 -31.771  1.00  0.00    -0.550 OA
ENDBRANCH   5   6
ENDBRANCH   4   5
ENDBRANCH   3   4
ENDBRANCH   2   3
ENDBRANCH   1   2
BRANCH   1   9
ATOM      9  C   UNL     1      43.169 -10.323 -39.067  1.00  0.00     0.000 C 
BRANCH   9  10
ATOM     10  C   UNL     1      43.731 -10.814 -40.413  1.00  0.00    -0.000 C 
BRANCH  10  11
ATOM     11  C   UNL     1      44.666 -12.026 -40.260  1.00  0.00    -0.000 C 
BRANCH  11  12
ATOM     12  C   UNL     1      45.914 -11.713 -39.413  1.00  0.00    -0.000 C 
BRANCH  12  13
ATOM     13  C   UNL     1      46.610 -12.947 -38.812  1.00  0.00    -0.003 C 
ATOM     14  C   UNL     1      45.632 -13.934 -38.173  1.00  0.00     0.004 C 
ENDBRANCH  12  13
ENDBRANCH  11  12
ENDBRANCH  10  11
ENDBRANCH   9  10
ENDBRANCH   1   9
TORSDOF 10
ENDMDL
MODEL 9
REMARK VINA RESULT:    -4.362      3.849      5.616
REMARK INTER + INTRA:          -8.183
REMARK INTER:                  -6.878
REMARK INTRA:                  -1.305
REMARK UNBOUND:                -1.271
REMARK SMILES CCCCCCCCCCCC(=O)[O-]
REMARK SMILES IDX 7 1 8 2 9 3 10 4 11 5 12 6 13 7 14 8 6 9 5 10 4 11 3 12 2 13
REMARK SMILES IDX 1 14
REMARK H PARENT
REMARK Flexibility Score: inf
ROOT
ATOM      1  C   UNL     1      42.408 -11.956 -36.804  1.00  0.00     0.000 C 
ENDROOT
BRANCH   1   2
ATOM      2  C   UNL     1      41.627 -11.098 -37.817  1.00  0.00     0.000 C 
BRANCH   2   3
ATOM      3  C   UNL     1      42.283  -9.734 -38.076  1.00  0.00     0.000 C 
BRANCH   3   4
ATOM      4  C   UNL     1      41.652  -9.046 -39.295  1.00  0.00     0.006 C 
BRANCH   4   5
ATOM      5  C   UNL     1      40.853 -10.025 -40.165  1.00  0.00     0.053 C 
BRANCH   5   6
ATOM      6  C   UNL     1      40.574  -9.459 -41.524  1.00  0.00     0.041 C 
ATOM      7  O   UNL     1      40.214 -10.216 -42.464  1.00  0.00    -0.550 OA
ATOM      8  O   UNL     1      40.744  -8.102 -41.760  1.00  0.00    -0.550 OA
ENDBRANCH   5   6
ENDBRANCH   4   5
ENDBRANCH   3   4
ENDBRANCH   2   3
ENDBRANCH   1   2
BRANCH   1   9
ATOM      9  C   UNL     1      43.920 -11.665 -36.726  1.00  0.00     0.000 C 
BRANCH   9  10
ATOM     10  C   UNL     1      44.802 -12.559 -37.617  1.00  0.00    -0.000 C 
BRANCH  10  11
ATOM     11  C   UNL     1      45.371 -11.808 -38.833  1.00  0.00    -0.000 C 
BRANCH  11  12
ATOM     12  C   UNL     1      44.799 -12.317 -40.169  1.00  0.00    -0.000 C 
BRANCH  12  13
ATOM     13  C   UNL     1      44.128 -11.236 -41.035  1.00  0.00    -0.003 C 
ATOM     14  C   UNL     1      43.488 -11.799 -42.304  1.00  0.00     0.004 C 
ENDBRANCH  12  13
ENDBRANCH  11  12
ENDBRANCH  10  11
ENDBRANCH   9  10
ENDBRANCH   1   9
TORSDOF 10
ENDMDL
