MODEL 1
REMARK VINA RESULT:    -4.533      0.000      0.000
REMARK INTER + INTRA:         -11.271
REMARK INTER:                  -8.773
REMARK INTRA:                  -2.498
REMARK UNBOUND:                -2.498
REMARK SMILES CCCCCCCCCCCCCCCCCC(=O)[O-]
REMARK SMILES IDX 10 1 11 2 12 3 13 4 14 5 15 6 16 7 17 8 18 9 19 10 20 11
REMARK SMILES IDX 9 12 8 13 7 14 6 15 5 16 4 17 3 18 2 19 1 20
REMARK H PARENT
REMARK Flexibility Score: inf
ROOT
ATOM      1  C   UNL     1      47.137  34.545 -13.112  1.00  0.00     0.000 C 
ENDROOT
BRANCH   1   2
ATOM      2  C   UNL     1      45.638  34.641 -13.442  1.00  0.00     0.000 C 
BRANCH   2   3
ATOM      3  C   UNL     1      45.126  36.097 -13.407  1.00  0.00     0.000 C 
BRANCH   3   4
ATOM      4  C   UNL     1      43.744  36.246 -12.748  1.00  0.00     0.000 C 
BRANCH   4   5
ATOM      5  C   UNL     1      43.811  36.271 -11.212  1.00  0.00     0.000 C 
BRANCH   5   6
ATOM      6  C   UNL     1      45.091  36.964 -10.697  1.00  0.00     0.000 C 
BRANCH   6   7
ATOM      7  C   UNL     1      45.618  36.378  -9.377  1.00  0.00     0.006 C 
BRANCH   7   8
ATOM      8  C   UNL     1      46.191  34.965  -9.537  1.00  0.00     0.053 C 
BRANCH   8   9
ATOM      9  C   UNL     1      45.633  34.054  -8.490  1.00  0.00     0.041 C 
ATOM     10  O   UNL     1      46.388  33.256  -7.875  1.00  0.00    -0.550 OA
ATOM     11  O   UNL     1      44.286  34.122  -8.155  1.00  0.00    -0.550 OA
ENDBRANCH   8   9
ENDBRANCH   7   8
ENDBRANCH   6   7
ENDBRANCH   5   6
ENDBRANCH   4   5
ENDBRANCH   3   4
ENDBRANCH   2   3
ENDBRANCH   1   2
BRANCH   1  12
ATOM     12  C   UNL     1      47.807  35.921 -12.961  1.00  0.00     0.000 C 
BRANCH  12  13
ATOM     13  C   UNL     1      49.345  35.877 -13.081  1.00  0.00    -0.000 C 
BRANCH  13  14
ATOM     14  C   UNL     1      49.941  37.249 -13.440  1.00  0.00    -0.000 C 
BRANCH  14  15
ATOM     15  C   UNL     1      49.860  37.562 -14.945  1.00  0.00    -0.000 C 
BRANCH  15  16
ATOM     16  C   UNL     1      50.625  36.582 -15.853  1.00  0.00    -0.000 C 
BRANCH  16  17
ATOM     17  C   UNL     1      49.751  36.000 -16.975  1.00  0.00    -0.000 C 
BRANCH  17  18
ATOM     18  C   UNL     1      49.004  34.749 -16.498  1.00  0.00    -0.000 C 
BRANCH  18  19
ATOM     19  C   UNL     1      47.487  34.946 -16.592  1.00  0.00    -0.003 C 
ATOM     20  C   UNL     1      47.144  36.284 -17.239  1.00  0.00     0.004 C 
ENDBRANCH  18  19
ENDBRANCH  17  18
ENDBRANCH  16  17
ENDBRANCH  15  16
ENDBRANCH  14  15
ENDBRANCH  13  14
ENDBRANCH  12  13
ENDBRANCH   1  12
TORSDOF 16
ENDMDL
MODEL 2
REMARK VINA RESULT:    -4.391      0.909      1.785
REMARK INTER + INTRA:         -10.996
REMARK INTER:                  -8.303
REMARK INTRA:                  -2.693
REMARK UNBOUND:                -2.498
REMARK SMILES CCCCCCCCCCCCCCCCCC(=O)[O-]
REMARK SMILES IDX 10 1 11 2 12 3 13 4 14 5 15 6 16 7 17 8 18 9 19 10 20 11
REMARK SMILES IDX 9 12 8 13 7 14 6 15 5 16 4 17 3 18 2 19 1 20
REMARK H PARENT
REMARK Flexibility Score: inf
ROOT
ATOM      1  C   UNL     1      45.627  34.613 -13.254  1.00  0.00     0.000 C 
ENDROOT
BRANCH   1   2
ATOM      2  C   UNL     1      45.170  36.079 -13.310  1.00  0.00     0.000 C 
BRANCH   2   3
ATOM      3  C   UNL     1      43.765  36.275 -12.701  1.00  0.00     0.000 C 
BRANCH   3   4
ATOM      4  C   UNL     1      43.759  37.158 -11.441  1.00  0.00     0.000 C 
BRANCH   4   5
ATOM      5  C   UNL     1      45.161  37.659 -11.053  1.00  0.00     0.000 C 
BRANCH   5   6
ATOM      6  C   UNL     1      45.611  37.122  -9.677  1.00  0.00     0.000 C 
BRANCH   6   7
ATOM      7  C   UNL     1      45.609  35.587  -9.586  1.00  0.00     0.006 C 
BRANCH   7   8
ATOM      8  C   UNL     1      44.675  35.054  -8.493  1.00  0.00     0.053 C 
BRANCH   8   9
ATOM      9  C   UNL     1      45.264  33.838  -7.850  1.00  0.00     0.041 C 
ATOM     10  O   UNL     1      44.517  32.988  -7.297  1.00  0.00    -0.550 OA
ATOM     11  O   UNL     1      46.634  33.616  -7.907  1.00  0.00    -0.550 OA
ENDBRANCH   8   9
ENDBRANCH   7   8
ENDBRANCH   6   7
ENDBRANCH   5   6
ENDBRANCH   4   5
ENDBRANCH   3   4
ENDBRANCH   2   3
ENDBRANCH   1   2
BRANCH   1  12
ATOM     12  C   UNL     1      47.149  34.465 -13.084  1.00  0.00     0.000 C 
BRANCH  12  13
ATOM     13  C   UNL     1      47.836  35.734 -12.536  1.00  0.00    -0.000 C 
BRANCH  13  14
ATOM     14  C   UNL     1      49.293  35.859 -13.014  1.00  0.00    -0.000 C 
BRANCH  14  15
ATOM     15  C   UNL     1      49.540  37.119 -13.863  1.00  0.00    -0.000 C 
BRANCH  15  16
ATOM     16  C   UNL     1      48.298  37.659 -14.595  1.00  0.00    -0.000 C 
BRANCH  16  17
ATOM     17  C   UNL     1      48.308  37.351 -16.100  1.00  0.00    -0.000 C 
BRANCH  17  18
ATOM     18  C   UNL     1      47.403  36.155 -16.422  1.00  0.00    -0.000 C 
BRANCH  18  19
ATOM     19  C   UNL     1      48.223  34.868 -16.564  1.00  0.00    -0.003 C 
ATOM     20  C   UNL     1      49.660  35.172 -16.978  1.00  0.00     0.004 C 
ENDBRANCH  18  19
ENDBRANCH  17  18
ENDBRANCH  16  17
ENDBRANCH  15  16
ENDBRANCH  14  15
ENDBRANCH  13  14
ENDBRANCH  12  13
ENDBRANCH   1  12
TORSDOF 16
ENDMDL
MODEL 3
REMARK VINA RESULT:    -4.390      1.114      3.683
REMARK INTER + INTRA:         -10.993
REMARK INTER:                  -8.307
REMARK INTRA:                  -2.686
REMARK UNBOUND:                -2.498
REMARK SMILES CCCCCCCCCCCCCCCCCC(=O)[O-]
REMARK SMILES IDX 10 1 11 2 12 3 13 4 14 5 15 6 16 7 17 8 18 9 19 10 20 11
REMARK SMILES IDX 9 12 8 13 7 14 6 15 5 16 4 17 3 18 2 19 1 20
REMARK H PARENT
REMARK Flexibility Score: inf
ROOT
ATOM      1  C   UNL     1      50.520  37.122 -14.039  1.00  0.00     0.000 C 
ENDROOT
BRANCH   1   2
ATOM      2  C   UNL     1      49.327  38.060 -13.790  1.00  0.00     0.000 C 
BRANCH   2   3
ATOM      3  C   UNL     1      48.451  37.588 -12.610  1.00  0.00     0.000 C 
BRANCH   3   4
ATOM      4  C   UNL     1      49.057  36.410 -11.827  1.00  0.00     0.000 C 
BRANCH   4   5
ATOM      5  C   UNL     1      48.231  36.027 -10.587  1.00  0.00     0.000 C 
BRANCH   5   6
ATOM      6  C   UNL     1      47.054  36.998 -10.350  1.00  0.00     0.000 C 
BRANCH   6   7
ATOM      7  C   UNL     1      45.897  36.377  -9.551  1.00  0.00     0.006 C 
BRANCH   7   8
ATOM      8  C   UNL     1      45.945  34.845  -9.522  1.00  0.00     0.053 C 
BRANCH   8   9
ATOM      9  C   UNL     1      45.597  34.337  -8.159  1.00  0.00     0.041 C 
ATOM     10  O   UNL     1      45.126  35.118  -7.291  1.00  0.00    -0.550 OA
ATOM     11  O   UNL     1      45.743  32.987  -7.862  1.00  0.00    -0.550 OA
ENDBRANCH   8   9
ENDBRANCH   7   8
ENDBRANCH   6   7
ENDBRANCH   5   6
ENDBRANCH   4   5
ENDBRANCH   3   4
ENDBRANCH   2   3
ENDBRANCH   1   2
BRANCH   1  12
ATOM     12  C   UNL     1      50.654  36.699 -15.512  1.00  0.00     0.000 C 
BRANCH  12  13
ATOM     13  C   UNL     1      49.487  37.177 -16.401  1.00  0.00    -0.000 C 
BRANCH  13  14
ATOM     14  C   UNL     1      48.840  36.021 -17.184  1.00  0.00    -0.000 C 
BRANCH  14  15
ATOM     15  C   UNL     1      48.580  34.779 -16.313  1.00  0.00    -0.000 C 
BRANCH  15  16
ATOM     16  C   UNL     1      47.220  34.765 -15.594  1.00  0.00    -0.000 C 
BRANCH  16  17
ATOM     17  C   UNL     1      47.341  34.482 -14.089  1.00  0.00    -0.000 C 
BRANCH  17  18
ATOM     18  C   UNL     1      45.973  34.571 -13.401  1.00  0.00    -0.000 C 
BRANCH  18  19
ATOM     19  C   UNL     1      45.390  35.983 -13.518  1.00  0.00    -0.003 C 
ATOM     20  C   UNL     1      44.084  36.107 -12.738  1.00  0.00     0.004 C 
ENDBRANCH  18  19
ENDBRANCH  17  18
ENDBRANCH  16  17
ENDBRANCH  15  16
ENDBRANCH  14  15
ENDBRANCH  13  14
ENDBRANCH  12  13
ENDBRANCH   1  12
TORSDOF 16
ENDMDL
MODEL 4
REMARK VINA RESULT:    -4.347      1.124      2.675
REMARK INTER + INTRA:         -10.911
REMARK INTER:                  -8.346
REMARK INTRA:                  -2.565
REMARK UNBOUND:                -2.498
REMARK SMILES CCCCCCCCCCCCCCCCCC(=O)[O-]
REMARK SMILES IDX 10 1 11 2 12 3 13 4 14 5 15 6 16 7 17 8 18 9 19 10 20 11
REMARK SMILES IDX 9 12 8 13 7 14 6 15 5 16 4 17 3 18 2 19 1 20
REMARK H PARENT
REMARK Flexibility Score: inf
ROOT
ATOM      1  C   UNL     1      49.208  37.181 -13.454  1.00  0.00     0.000 C 
ENDROOT
BRANCH   1   2
ATOM      2  C   UNL     1      48.732  35.873 -12.801  1.00  0.00     0.000 C 
BRANCH   2   3
ATOM      3  C   UNL     1      48.370  34.797 -13.847  1.00  0.00     0.000 C 
BRANCH   3   4
ATOM      4  C   UNL     1      46.859  34.528 -13.954  1.00  0.00     0.000 C 
BRANCH   4   5
ATOM      5  C   UNL     1      46.192  34.302 -12.587  1.00  0.00     0.000 C 
BRANCH   5   6
ATOM      6  C   UNL     1      45.175  35.413 -12.246  1.00  0.00     0.000 C 
BRANCH   6   7
ATOM      7  C   UNL     1      45.228  35.865 -10.777  1.00  0.00     0.006 C 
BRANCH   7   8
ATOM      8  C   UNL     1      46.380  35.223  -9.995  1.00  0.00     0.053 C 
BRANCH   8   9
ATOM      9  C   UNL     1      45.853  34.460  -8.822  1.00  0.00     0.041 C 
ATOM     10  O   UNL     1      46.588  33.629  -8.223  1.00  0.00    -0.550 OA
ATOM     11  O   UNL     1      44.568  34.703  -8.353  1.00  0.00    -0.550 OA
ENDBRANCH   8   9
ENDBRANCH   7   8
ENDBRANCH   6   7
ENDBRANCH   5   6
ENDBRANCH   4   5
ENDBRANCH   3   4
ENDBRANCH   2   3
ENDBRANCH   1   2
BRANCH   1  12
ATOM     12  C   UNL     1      50.711  37.177 -13.779  1.00  0.00     0.000 C 
BRANCH  12  13
ATOM     13  C   UNL     1      51.040  37.706 -15.191  1.00  0.00    -0.000 C 
BRANCH  13  14
ATOM     14  C   UNL     1      51.590  36.604 -16.113  1.00  0.00    -0.000 C 
BRANCH  14  15
ATOM     15  C   UNL     1      50.484  35.847 -16.868  1.00  0.00    -0.000 C 
BRANCH  15  16
ATOM     16  C   UNL     1      49.218  36.672 -17.159  1.00  0.00    -0.000 C 
BRANCH  16  17
ATOM     17  C   UNL     1      47.932  35.831 -17.117  1.00  0.00    -0.000 C 
BRANCH  17  18
ATOM     18  C   UNL     1      46.690  36.729 -17.074  1.00  0.00    -0.000 C 
BRANCH  18  19
ATOM     19  C   UNL     1      46.846  37.834 -16.025  1.00  0.00    -0.003 C 
ATOM     20  C   UNL     1      45.676  37.835 -15.046  1.00  0.00     0.004 C 
ENDBRANCH  18  19
ENDBRANCH  17  18
ENDBRANCH  16  17
ENDBRANCH  15  16
ENDBRANCH  14  15
ENDBRANCH  13  14
ENDBRANCH  12  13
ENDBRANCH   1  12
TORSDOF 16
ENDMDL
MODEL 5
REMARK VINA RESULT:    -4.336      1.317      2.988
REMARK INTER + INTRA:         -10.890
REMARK INTER:                  -7.926
REMARK INTRA:                  -2.963
REMARK UNBOUND:                -2.498
REMARK SMILES CCCCCCCCCCCCCCCCCC(=O)[O-]
REMARK SMILES IDX 10 1 11 2 12 3 13 4 14 5 15 6 16 7 17 8 18 9 19 10 20 11
REMARK SMILES IDX 9 12 8 13 7 14 6 15 5 16 4 17 3 18 2 19 1 20
REMARK H PARENT
REMARK Flexibility Score: inf
ROOT
ATOM      1  C   UNL     1      47.205  34.454 -13.331  1.00  0.00     0.000 C 
ENDROOT
BRANCH   1   2
ATOM      2  C   UNL     1      48.570  34.984 -13.799  1.00  0.00     0.000 C 
BRANCH   2   3
ATOM      3  C   UNL     1      49.265  35.838 -12.717  1.00  0.00     0.000 C 
BRANCH   3   4
ATOM      4  C   UNL     1      48.821  37.311 -12.718  1.00  0.00     0.000 C 
BRANCH   4   5
ATOM      5  C   UNL     1      47.918  37.666 -11.526  1.00  0.00     0.000 C 
BRANCH   5   6
ATOM      6  C   UNL     1      47.861  36.530 -10.481  1.00  0.00     0.000 C 
BRANCH   6   7
ATOM      7  C   UNL     1      46.447  36.262  -9.941  1.00  0.00     0.006 C 
BRANCH   7   8
ATOM      8  C   UNL     1      46.050  34.783 -10.013  1.00  0.00     0.053 C 
BRANCH   8   9
ATOM      9  C   UNL     1      45.797  34.242  -8.642  1.00  0.00     0.041 C 
ATOM     10  O   UNL     1      46.715  33.650  -8.014  1.00  0.00    -0.550 OA
ATOM     11  O   UNL     1      44.563  34.437  -8.033  1.00  0.00    -0.550 OA
ENDBRANCH   8   9
ENDBRANCH   7   8
ENDBRANCH   6   7
ENDBRANCH   5   6
ENDBRANCH   4   5
ENDBRANCH   3   4
ENDBRANCH   2   3
ENDBRANCH   1   2
BRANCH   1  12
ATOM     12  C   UNL     1      46.032  35.006 -14.158  1.00  0.00     0.000 C 
BRANCH  12  13
ATOM     13  C   UNL     1      45.363  36.247 -13.531  1.00  0.00    -0.000 C 
BRANCH  13  14
ATOM     14  C   UNL     1      45.574  37.514 -14.378  1.00  0.00    -0.000 C 
BRANCH  14  15
ATOM     15  C   UNL     1      46.246  37.224 -15.732  1.00  0.00    -0.000 C 
BRANCH  15  16
ATOM     16  C   UNL     1      47.479  38.090 -16.042  1.00  0.00    -0.000 C 
BRANCH  16  17
ATOM     17  C   UNL     1      48.324  37.538 -17.201  1.00  0.00    -0.000 C 
BRANCH  17  18
ATOM     18  C   UNL     1      48.532  36.025 -17.056  1.00  0.00    -0.000 C 
BRANCH  18  19
ATOM     19  C   UNL     1      50.019  35.664 -17.143  1.00  0.00    -0.003 C 
ATOM     20  C   UNL     1      50.858  36.560 -16.238  1.00  0.00     0.004 C 
ENDBRANCH  18  19
ENDBRANCH  17  18
ENDBRANCH  16  17
ENDBRANCH  15  16
ENDBRANCH  14  15
ENDBRANCH  13  14
ENDBRANCH  12  13
ENDBRANCH   1  12
TORSDOF 16
ENDMDL
MODEL 6
REMARK VINA RESULT:    -4.286      0.927      1.395
REMARK INTER + INTRA:         -10.793
REMARK INTER:                  -8.278
REMARK INTRA:                  -2.515
REMARK UNBOUND:                -2.498
REMARK SMILES CCCCCCCCCCCCCCCCCC(=O)[O-]
REMARK SMILES IDX 10 1 11 2 12 3 13 4 14 5 15 6 16 7 17 8 18 9 19 10 20 11
REMARK SMILES IDX 9 12 8 13 7 14 6 15 5 16 4 17 3 18 2 19 1 20
REMARK H PARENT
REMARK Flexibility Score: inf
ROOT
ATOM      1  C   UNL     1      45.333  35.043 -13.104  1.00  0.00     0.000 C 
ENDROOT
BRANCH   1   2
ATOM      2  C   UNL     1      44.544  36.343 -13.329  1.00  0.00     0.000 C 
BRANCH   2   3
ATOM      3  C   UNL     1      43.068  36.211 -12.895  1.00  0.00     0.000 C 
BRANCH   3   4
ATOM      4  C   UNL     1      42.682  37.146 -11.736  1.00  0.00     0.000 C 
BRANCH   4   5
ATOM      5  C   UNL     1      43.181  36.645 -10.370  1.00  0.00     0.000 C 
BRANCH   5   6
ATOM      6  C   UNL     1      44.361  37.487  -9.837  1.00  0.00     0.000 C 
BRANCH   6   7
ATOM      7  C   UNL     1      45.569  36.644  -9.399  1.00  0.00     0.006 C 
BRANCH   7   8
ATOM      8  C   UNL     1      45.315  35.135  -9.502  1.00  0.00     0.053 C 
BRANCH   8   9
ATOM      9  C   UNL     1      45.701  34.452  -8.229  1.00  0.00     0.041 C 
ATOM     10  O   UNL     1      46.751  33.759  -8.174  1.00  0.00    -0.550 OA
ATOM     11  O   UNL     1      44.929  34.622  -7.087  1.00  0.00    -0.550 OA
ENDBRANCH   8   9
ENDBRANCH   7   8
ENDBRANCH   6   7
ENDBRANCH   5   6
ENDBRANCH   4   5
ENDBRANCH   3   4
ENDBRANCH   2   3
ENDBRANCH   1   2
BRANCH   1  12
ATOM     12  C   UNL     1      46.857  35.249 -13.162  1.00  0.00     0.000 C 
BRANCH  12  13
ATOM     13  C   UNL     1      47.303  36.675 -12.778  1.00  0.00    -0.000 C 
BRANCH  13  14
ATOM     14  C   UNL     1      48.701  37.015 -13.324  1.00  0.00    -0.000 C 
BRANCH  14  15
ATOM     15  C   UNL     1      49.306  35.880 -14.170  1.00  0.00    -0.000 C 
BRANCH  15  16
ATOM     16  C   UNL     1      50.061  36.342 -15.428  1.00  0.00    -0.000 C 
BRANCH  16  17
ATOM     17  C   UNL     1      49.613  35.604 -16.700  1.00  0.00    -0.000 C 
BRANCH  17  18
ATOM     18  C   UNL     1      48.131  35.221 -16.620  1.00  0.00    -0.000 C 
BRANCH  18  19
ATOM     19  C   UNL     1      47.258  36.241 -17.360  1.00  0.00    -0.003 C 
ATOM     20  C   UNL     1      46.613  37.223 -16.387  1.00  0.00     0.004 C 
ENDBRANCH  18  19
ENDBRANCH  17  18
ENDBRANCH  16  17
ENDBRANCH  15  16
ENDBRANCH  14  15
ENDBRANCH  13  14
ENDBRANCH  12  13
ENDBRANCH   1  12
TORSDOF 16
ENDMDL
MODEL 7
REMARK VINA RESULT:    -4.162      3.125      7.009
REMARK INTER + INTRA:         -10.552
REMARK INTER:                  -7.885
REMARK INTRA:                  -2.667
REMARK UNBOUND:                -2.498
REMARK SMILES CCCCCCCCCCCCCCCCCC(=O)[O-]
REMARK SMILES IDX 10 1 11 2 12 3 13 4 14 5 15 6 16 7 17 8 18 9 19 10 20 11
REMARK SMILES IDX 9 12 8 13 7 14 6 15 5 16 4 17 3 18 2 19 1 20
REMARK H PARENT
REMARK Flexibility Score: inf
ROOT
ATOM      1  C   UNL     1      45.739  34.846 -13.465  1.00  0.00     0.000 C 
ENDROOT
BRANCH   1   2
ATOM      2  C   UNL     1      47.222  34.665 -13.105  1.00  0.00     0.000 C 
BRANCH   2   3
ATOM      3  C   UNL     1      47.878  35.988 -12.654  1.00  0.00     0.000 C 
BRANCH   3   4
ATOM      4  C   UNL     1      49.364  36.100 -13.038  1.00  0.00     0.000 C 
BRANCH   4   5
ATOM      5  C   UNL     1      49.684  37.381 -13.826  1.00  0.00     0.000 C 
BRANCH   5   6
ATOM      6  C   UNL     1      48.407  38.090 -14.327  1.00  0.00     0.000 C 
BRANCH   6   7
ATOM      7  C   UNL     1      48.279  38.113 -15.859  1.00  0.00     0.006 C 
BRANCH   7   8
ATOM      8  C   UNL     1      47.398  36.982 -16.403  1.00  0.00     0.053 C 
BRANCH   8   9
ATOM      9  C   UNL     1      48.231  35.786 -16.738  1.00  0.00     0.041 C 
ATOM     10  O   UNL     1      49.406  35.931 -17.166  1.00  0.00    -0.550 OA
ATOM     11  O   UNL     1      47.728  34.508 -16.527  1.00  0.00    -0.550 OA
ENDBRANCH   8   9
ENDBRANCH   7   8
ENDBRANCH   6   7
ENDBRANCH   5   6
ENDBRANCH   4   5
ENDBRANCH   3   4
ENDBRANCH   2   3
ENDBRANCH   1   2
BRANCH   1  12
ATOM     12  C   UNL     1      45.274  36.310 -13.377  1.00  0.00     0.000 C 
BRANCH  12  13
ATOM     13  C   UNL     1      43.833  36.471 -12.850  1.00  0.00    -0.000 C 
BRANCH  13  14
ATOM     14  C   UNL     1      43.786  36.618 -11.319  1.00  0.00    -0.000 C 
BRANCH  14  15
ATOM     15  C   UNL     1      44.955  37.448 -10.760  1.00  0.00    -0.000 C 
BRANCH  15  16
ATOM     16  C   UNL     1      45.805  36.734  -9.694  1.00  0.00    -0.000 C 
BRANCH  16  17
ATOM     17  C   UNL     1      45.380  35.274  -9.468  1.00  0.00    -0.000 C 
BRANCH  17  18
ATOM     18  C   UNL     1      46.597  34.385  -9.188  1.00  0.00    -0.000 C 
BRANCH  18  19
ATOM     19  C   UNL     1      46.406  33.581  -7.897  1.00  0.00    -0.003 C 
ATOM     20  C   UNL     1      44.934  33.248  -7.669  1.00  0.00     0.004 C 
ENDBRANCH  18  19
ENDBRANCH  17  18
ENDBRANCH  16  17
ENDBRANCH  15  16
ENDBRANCH  14  15
ENDBRANCH  13  14
ENDBRANCH  12  13
ENDBRANCH   1  12
TORSDOF 16
ENDMDL
MODEL 8
REMARK VINA RESULT:    -4.148      2.490      7.182
REMARK INTER + INTRA:         -10.526
REMARK INTER:                  -8.721
REMARK INTRA:                  -1.805
REMARK UNBOUND:                -2.498
REMARK SMILES CCCCCCCCCCCCCCCCCC(=O)[O-]
REMARK SMILES IDX 10 1 11 2 12 3 13 4 14 5 15 6 16 7 17 8 18 9 19 10 20 11
REMARK SMILES IDX 9 12 8 13 7 14 6 15 5 16 4 17 3 18 2 19 1 20
REMARK H PARENT
REMARK Flexibility Score: inf
ROOT
ATOM      1  C   UNL     1      45.337  34.810 -13.031  1.00  0.00     0.000 C 
ENDROOT
BRANCH   1   2
ATOM      2  C   UNL     1      46.804  34.762 -13.488  1.00  0.00     0.000 C 
BRANCH   2   3
ATOM      3  C   UNL     1      46.995  35.359 -14.898  1.00  0.00     0.000 C 
BRANCH   3   4
ATOM      4  C   UNL     1      48.080  34.648 -15.726  1.00  0.00     0.000 C 
BRANCH   4   5
ATOM      5  C   UNL     1      48.568  35.484 -16.920  1.00  0.00     0.000 C 
BRANCH   5   6
ATOM      6  C   UNL     1      50.077  35.797 -16.834  1.00  0.00     0.000 C 
BRANCH   6   7
ATOM      7  C   UNL     1      50.387  37.157 -16.187  1.00  0.00     0.006 C 
BRANCH   7   8
ATOM      8  C   UNL     1      51.101  37.028 -14.837  1.00  0.00     0.053 C 
BRANCH   8   9
ATOM      9  C   UNL     1      50.106  36.997 -13.720  1.00  0.00     0.041 C 
ATOM     10  O   UNL     1      49.200  37.870 -13.653  1.00  0.00    -0.550 OA
ATOM     11  O   UNL     1      50.145  35.973 -12.782  1.00  0.00    -0.550 OA
ENDBRANCH   8   9
ENDBRANCH   7   8
ENDBRANCH   6   7
ENDBRANCH   5   6
ENDBRANCH   4   5
ENDBRANCH   3   4
ENDBRANCH   2   3
ENDBRANCH   1   2
BRANCH   1  12
ATOM     12  C   UNL     1      44.711  36.208 -13.171  1.00  0.00     0.000 C 
BRANCH  12  13
ATOM     13  C   UNL     1      43.225  36.264 -12.759  1.00  0.00    -0.000 C 
BRANCH  13  14
ATOM     14  C   UNL     1      43.026  36.932 -11.387  1.00  0.00    -0.000 C 
BRANCH  14  15
ATOM     15  C   UNL     1      43.337  35.989 -10.211  1.00  0.00    -0.000 C 
BRANCH  15  16
ATOM     16  C   UNL     1      44.324  36.553  -9.173  1.00  0.00    -0.000 C 
BRANCH  16  17
ATOM     17  C   UNL     1      45.773  36.105  -9.418  1.00  0.00    -0.000 C 
BRANCH  17  18
ATOM     18  C   UNL     1      45.877  34.575  -9.453  1.00  0.00    -0.000 C 
BRANCH  18  19
ATOM     19  C   UNL     1      45.980  33.999  -8.036  1.00  0.00    -0.003 C 
ATOM     20  C   UNL     1      44.746  33.173  -7.686  1.00  0.00     0.004 C 
ENDBRANCH  18  19
ENDBRANCH  17  18
ENDBRANCH  16  17
ENDBRANCH  15  16
ENDBRANCH  14  15
ENDBRANCH  13  14
ENDBRANCH  12  13
ENDBRANCH   1  12
TORSDOF 16
ENDMDL
MODEL 9
REMARK VINA RESULT:    -4.129      1.346      2.919
REMARK INTER + INTRA:         -10.488
REMARK INTER:                  -8.041
REMARK INTRA:                  -2.447
REMARK UNBOUND:                -2.498
REMARK SMILES CCCCCCCCCCCCCCCCCC(=O)[O-]
REMARK SMILES IDX 10 1 11 2 12 3 13 4 14 5 15 6 16 7 17 8 18 9 19 10 20 11
REMARK SMILES IDX 9 12 8 13 7 14 6 15 5 16 4 17 3 18 2 19 1 20
REMARK H PARENT
REMARK Flexibility Score: inf
ROOT
ATOM      1  C   UNL     1      46.949  35.394 -14.262  1.00  0.00     0.000 C 
ENDROOT
BRANCH   1   2
ATOM      2  C   UNL     1      46.306  36.754 -14.579  1.00  0.00     0.000 C 
BRANCH   2   3
ATOM      3  C   UNL     1      46.359  37.718 -13.374  1.00  0.00     0.000 C 
BRANCH   3   4
ATOM      4  C   UNL     1      46.053  37.038 -12.029  1.00  0.00     0.000 C 
BRANCH   4   5
ATOM      5  C   UNL     1      47.145  37.279 -10.973  1.00  0.00     0.000 C 
BRANCH   5   6
ATOM      6  C   UNL     1      47.447  36.010 -10.148  1.00  0.00     0.000 C 
BRANCH   6   7
ATOM      7  C   UNL     1      46.346  34.941 -10.239  1.00  0.00     0.006 C 
BRANCH   7   8
ATOM      8  C   UNL     1      45.335  35.024  -9.089  1.00  0.00     0.053 C 
BRANCH   8   9
ATOM      9  C   UNL     1      45.566  33.918  -8.109  1.00  0.00     0.041 C 
ATOM     10  O   UNL     1      46.686  33.345  -8.052  1.00  0.00    -0.550 OA
ATOM     11  O   UNL     1      44.562  33.556  -7.220  1.00  0.00    -0.550 OA
ENDBRANCH   8   9
ENDBRANCH   7   8
ENDBRANCH   6   7
ENDBRANCH   5   6
ENDBRANCH   4   5
ENDBRANCH   3   4
ENDBRANCH   2   3
ENDBRANCH   1   2
BRANCH   1  12
ATOM     12  C   UNL     1      47.639  34.758 -15.482  1.00  0.00     0.000 C 
BRANCH  12  13
ATOM     13  C   UNL     1      47.391  35.520 -16.800  1.00  0.00    -0.000 C 
BRANCH  13  14
ATOM     14  C   UNL     1      48.629  36.311 -17.258  1.00  0.00    -0.000 C 
BRANCH  14  15
ATOM     15  C   UNL     1      49.952  35.671 -16.799  1.00  0.00    -0.000 C 
BRANCH  15  16
ATOM     16  C   UNL     1      50.998  36.663 -16.261  1.00  0.00    -0.000 C 
BRANCH  16  17
ATOM     17  C   UNL     1      50.379  37.986 -15.782  1.00  0.00    -0.000 C 
BRANCH  17  18
ATOM     18  C   UNL     1      49.872  37.865 -14.340  1.00  0.00    -0.000 C 
BRANCH  18  19
ATOM     19  C   UNL     1      50.866  37.086 -13.471  1.00  0.00    -0.003 C 
ATOM     20  C   UNL     1      50.161  35.993 -12.673  1.00  0.00     0.004 C 
ENDBRANCH  18  19
ENDBRANCH  17  18
ENDBRANCH  16  17
ENDBRANCH  15  16
ENDBRANCH  14  15
ENDBRANCH  13  14
ENDBRANCH  12  13
ENDBRANCH   1  12
TORSDOF 16
ENDMDL
