MODEL 1
REMARK VINA RESULT:    -4.741      0.000      0.000
REMARK INTER + INTRA:         -17.180
REMARK INTER:                 -11.946
REMARK INTRA:                  -5.234
REMARK UNBOUND:                -5.234
REMARK SMILES CCCCCCCCCCCCCCCCCCCCCCCCCCCC(=O)[O-]
REMARK SMILES IDX 15 1 16 2 17 3 18 4 19 5 20 6 21 7 22 8 23 9 24 10 25 11
REMARK SMILES IDX 26 12 27 13 28 14 29 15 30 16 14 17 13 18 12 19 11 20 10 21
REMARK SMILES IDX 9 22 8 23 7 24 6 25 5 26 4 27 3 28 2 29 1 30
REMARK H PARENT
REMARK Flexibility Score: inf
ROOT
ATOM      1  C   UNL     1      18.563  -6.351 -21.373  1.00  0.00     0.000 C 
ENDROOT
BRANCH   1   2
ATOM      2  C   UNL     1      18.550  -5.002 -22.122  1.00  0.00     0.000 C 
BRANCH   2   3
ATOM      3  C   UNL     1      17.288  -4.823 -22.980  1.00  0.00     0.000 C 
BRANCH   3   4
ATOM      4  C   UNL     1      16.357  -3.756 -22.382  1.00  0.00     0.000 C 
BRANCH   4   5
ATOM      5  C   UNL     1      14.928  -4.276 -22.153  1.00  0.00     0.000 C 
BRANCH   5   6
ATOM      6  C   UNL     1      14.113  -3.378 -21.206  1.00  0.00     0.000 C 
BRANCH   6   7
ATOM      7  C   UNL     1      13.780  -4.080 -19.879  1.00  0.00     0.000 C 
BRANCH   7   8
ATOM      8  C   UNL     1      13.045  -5.416 -20.083  1.00  0.00     0.000 C 
BRANCH   8   9
ATOM      9  C   UNL     1      11.527  -5.309 -19.848  1.00  0.00     0.000 C 
BRANCH   9  10
ATOM     10  C   UNL     1      10.648  -5.602 -21.077  1.00  0.00     0.000 C 
BRANCH  10  11
ATOM     11  C   UNL     1      11.460  -6.068 -22.297  1.00  0.00     0.000 C 
BRANCH  11  12
ATOM     12  C   UNL     1      11.010  -5.394 -23.606  1.00  0.00     0.006 C 
BRANCH  12  13
ATOM     13  C   UNL     1      12.030  -5.476 -24.753  1.00  0.00     0.053 C 
BRANCH  13  14
ATOM     14  C   UNL     1      11.748  -4.474 -25.828  1.00  0.00     0.041 C 
ATOM     15  O   UNL     1      11.943  -4.769 -27.038  1.00  0.00    -0.550 OA
ATOM     16  O   UNL     1      11.241  -3.224 -25.498  1.00  0.00    -0.550 OA
ENDBRANCH  13  14
ENDBRANCH  12  13
ENDBRANCH  11  12
ENDBRANCH  10  11
ENDBRANCH   9  10
ENDBRANCH   8   9
ENDBRANCH   7   8
ENDBRANCH   6   7
ENDBRANCH   5   6
ENDBRANCH   4   5
ENDBRANCH   3   4
ENDBRANCH   2   3
ENDBRANCH   1   2
BRANCH   1  17
ATOM     17  C   UNL     1      18.122  -6.249 -19.902  1.00  0.00     0.000 C 
BRANCH  17  18
ATOM     18  C   UNL     1      16.627  -6.534 -19.704  1.00  0.00     0.000 C 
BRANCH  18  19
ATOM     19  C   UNL     1      16.247  -6.505 -18.219  1.00  0.00     0.000 C 
BRANCH  19  20
ATOM     20  C   UNL     1      17.430  -6.030 -17.361  1.00  0.00     0.000 C 
BRANCH  20  21
ATOM     21  C   UNL     1      17.022  -4.997 -16.296  1.00  0.00     0.000 C 
BRANCH  21  22
ATOM     22  C   UNL     1      16.070  -3.896 -16.793  1.00  0.00    -0.000 C 
BRANCH  22  23
ATOM     23  C   UNL     1      16.816  -2.677 -17.361  1.00  0.00    -0.000 C 
BRANCH  23  24
ATOM     24  C   UNL     1      17.007  -2.747 -18.886  1.00  0.00    -0.000 C 
BRANCH  24  25
ATOM     25  C   UNL     1      18.433  -2.440 -19.385  1.00  0.00    -0.000 C 
BRANCH  25  26
ATOM     26  C   UNL     1      19.548  -3.113 -18.555  1.00  0.00    -0.000 C 
BRANCH  26  27
ATOM     27  C   UNL     1      20.795  -3.428 -19.403  1.00  0.00    -0.000 C 
BRANCH  27  28
ATOM     28  C   UNL     1      21.461  -4.760 -19.017  1.00  0.00    -0.000 C 
BRANCH  28  29
ATOM     29  C   UNL     1      21.068  -5.299 -17.630  1.00  0.00    -0.003 C 
ATOM     30  C   UNL     1      22.213  -6.024 -16.923  1.00  0.00     0.004 C 
ENDBRANCH  28  29
ENDBRANCH  27  28
ENDBRANCH  26  27
ENDBRANCH  25  26
ENDBRANCH  24  25
ENDBRANCH  23  24
ENDBRANCH  22  23
ENDBRANCH  21  22
ENDBRANCH  20  21
ENDBRANCH  19  20
ENDBRANCH  18  19
ENDBRANCH  17  18
ENDBRANCH   1  17
TORSDOF 26
ENDMDL
MODEL 2
REMARK VINA RESULT:    -4.700      2.846      8.079
REMARK INTER + INTRA:         -17.076
REMARK INTER:                 -11.788
REMARK INTRA:                  -5.288
REMARK UNBOUND:                -5.234
REMARK SMILES CCCCCCCCCCCCCCCCCCCCCCCCCCCC(=O)[O-]
REMARK SMILES IDX 15 1 16 2 17 3 18 4 19 5 20 6 21 7 22 8 23 9 24 10 25 11
REMARK SMILES IDX 26 12 27 13 28 14 29 15 30 16 14 17 13 18 12 19 11 20 10 21
REMARK SMILES IDX 9 22 8 23 7 24 6 25 5 26 4 27 3 28 2 29 1 30
REMARK H PARENT
REMARK Flexibility Score: inf
ROOT
ATOM      1  C   UNL     1      16.355  -2.617 -19.408  1.00  0.00     0.000 C 
ENDROOT
BRANCH   1   2
ATOM      2  C   UNL     1      17.388  -2.321 -18.300  1.00  0.00     0.000 C 
BRANCH   2   3
ATOM      3  C   UNL     1      16.783  -2.440 -16.893  1.00  0.00     0.000 C 
BRANCH   3   4
ATOM      4  C   UNL     1      15.950  -3.724 -16.752  1.00  0.00     0.000 C 
BRANCH   4   5
ATOM      5  C   UNL     1      16.789  -4.929 -16.296  1.00  0.00     0.000 C 
BRANCH   5   6
ATOM      6  C   UNL     1      16.689  -6.123 -17.262  1.00  0.00     0.000 C 
BRANCH   6   7
ATOM      7  C   UNL     1      17.989  -6.343 -18.054  1.00  0.00     0.000 C 
BRANCH   7   8
ATOM      8  C   UNL     1      19.230  -5.814 -17.315  1.00  0.00     0.000 C 
BRANCH   8   9
ATOM      9  C   UNL     1      20.272  -5.190 -18.262  1.00  0.00     0.000 C 
BRANCH   9  10
ATOM     10  C   UNL     1      20.651  -3.730 -17.953  1.00  0.00     0.000 C 
BRANCH  10  11
ATOM     11  C   UNL     1      21.260  -3.001 -19.163  1.00  0.00     0.000 C 
BRANCH  11  12
ATOM     12  C   UNL     1      20.315  -2.971 -20.378  1.00  0.00     0.006 C 
BRANCH  12  13
ATOM     13  C   UNL     1      20.919  -3.533 -21.674  1.00  0.00     0.053 C 
BRANCH  13  14
ATOM     14  C   UNL     1      20.386  -4.894 -21.998  1.00  0.00     0.041 C 
ATOM     15  O   UNL     1      19.274  -5.019 -22.576  1.00  0.00    -0.550 OA
ATOM     16  O   UNL     1      21.132  -6.024 -21.690  1.00  0.00    -0.550 OA
ENDBRANCH  13  14
ENDBRANCH  12  13
ENDBRANCH  11  12
ENDBRANCH  10  11
ENDBRANCH   9  10
ENDBRANCH   8   9
ENDBRANCH   7   8
ENDBRANCH   6   7
ENDBRANCH   5   6
ENDBRANCH   4   5
ENDBRANCH   3   4
ENDBRANCH   2   3
ENDBRANCH   1   2
BRANCH   1  17
ATOM     17  C   UNL     1      16.756  -3.778 -20.336  1.00  0.00     0.000 C 
BRANCH  17  18
ATOM     18  C   UNL     1      15.573  -4.681 -20.712  1.00  0.00     0.000 C 
BRANCH  18  19
ATOM     19  C   UNL     1      14.234  -4.003 -20.401  1.00  0.00     0.000 C 
BRANCH  19  20
ATOM     20  C   UNL     1      13.357  -4.903 -19.518  1.00  0.00     0.000 C 
BRANCH  20  21
ATOM     21  C   UNL     1      11.860  -4.560 -19.612  1.00  0.00     0.000 C 
BRANCH  21  22
ATOM     22  C   UNL     1      10.998  -5.608 -20.335  1.00  0.00    -0.000 C 
BRANCH  22  23
ATOM     23  C   UNL     1      11.753  -6.923 -20.593  1.00  0.00    -0.000 C 
BRANCH  23  24
ATOM     24  C   UNL     1      11.942  -7.223 -22.090  1.00  0.00    -0.000 C 
BRANCH  24  25
ATOM     25  C   UNL     1      13.391  -7.105 -22.606  1.00  0.00    -0.000 C 
BRANCH  25  26
ATOM     26  C   UNL     1      13.564  -6.108 -23.772  1.00  0.00    -0.000 C 
BRANCH  26  27
ATOM     27  C   UNL     1      12.280  -5.303 -24.044  1.00  0.00    -0.000 C 
BRANCH  27  28
ATOM     28  C   UNL     1      12.333  -3.876 -23.470  1.00  0.00    -0.000 C 
BRANCH  28  29
ATOM     29  C   UNL     1      10.977  -3.148 -23.428  1.00  0.00    -0.003 C 
ATOM     30  C   UNL     1       9.785  -4.103 -23.374  1.00  0.00     0.004 C 
ENDBRANCH  28  29
ENDBRANCH  27  28
ENDBRANCH  26  27
ENDBRANCH  25  26
ENDBRANCH  24  25
ENDBRANCH  23  24
ENDBRANCH  22  23
ENDBRANCH  21  22
ENDBRANCH  20  21
ENDBRANCH  19  20
ENDBRANCH  18  19
ENDBRANCH  17  18
ENDBRANCH   1  17
TORSDOF 26
ENDMDL
MODEL 3
REMARK VINA RESULT:    -4.681      1.818      3.175
REMARK INTER + INTRA:         -17.029
REMARK INTER:                 -12.037
REMARK INTRA:                  -4.993
REMARK UNBOUND:                -5.234
REMARK SMILES CCCCCCCCCCCCCCCCCCCCCCCCCCCC(=O)[O-]
REMARK SMILES IDX 15 1 16 2 17 3 18 4 19 5 20 6 21 7 22 8 23 9 24 10 25 11
REMARK SMILES IDX 26 12 27 13 28 14 29 15 30 16 14 17 13 18 12 19 11 20 10 21
REMARK SMILES IDX 9 22 8 23 7 24 6 25 5 26 4 27 3 28 2 29 1 30
REMARK H PARENT
REMARK Flexibility Score: inf
ROOT
ATOM      1  C   UNL     1      19.049  -6.198 -22.494  1.00  0.00     0.000 C 
ENDROOT
BRANCH   1   2
ATOM      2  C   UNL     1      17.756  -5.607 -21.893  1.00  0.00     0.000 C 
BRANCH   2   3
ATOM      3  C   UNL     1      17.068  -4.618 -22.847  1.00  0.00     0.000 C 
BRANCH   3   4
ATOM      4  C   UNL     1      15.991  -3.799 -22.117  1.00  0.00     0.000 C 
BRANCH   4   5
ATOM      5  C   UNL     1      15.476  -4.495 -20.847  1.00  0.00     0.000 C 
BRANCH   5   6
ATOM      6  C   UNL     1      14.589  -3.580 -19.985  1.00  0.00     0.000 C 
BRANCH   6   7
ATOM      7  C   UNL     1      13.496  -4.362 -19.236  1.00  0.00     0.000 C 
BRANCH   7   8
ATOM      8  C   UNL     1      12.211  -4.526 -20.065  1.00  0.00     0.000 C 
BRANCH   8   9
ATOM      9  C   UNL     1      11.936  -5.987 -20.465  1.00  0.00     0.000 C 
BRANCH   9  10
ATOM     10  C   UNL     1      12.442  -6.393 -21.861  1.00  0.00     0.000 C 
BRANCH  10  11
ATOM     11  C   UNL     1      12.319  -5.262 -22.896  1.00  0.00     0.000 C 
BRANCH  11  12
ATOM     12  C   UNL     1      10.923  -5.196 -23.543  1.00  0.00     0.006 C 
BRANCH  12  13
ATOM     13  C   UNL     1      10.048  -4.028 -23.061  1.00  0.00     0.053 C 
BRANCH  13  14
ATOM     14  C   UNL     1       8.694  -4.487 -22.617  1.00  0.00     0.041 C 
ATOM     15  O   UNL     1       7.656  -3.938 -23.075  1.00  0.00    -0.550 OA
ATOM     16  O   UNL     1       8.576  -5.542 -21.722  1.00  0.00    -0.550 OA
ENDBRANCH  13  14
ENDBRANCH  12  13
ENDBRANCH  11  12
ENDBRANCH  10  11
ENDBRANCH   9  10
ENDBRANCH   8   9
ENDBRANCH   7   8
ENDBRANCH   6   7
ENDBRANCH   5   6
ENDBRANCH   4   5
ENDBRANCH   3   4
ENDBRANCH   2   3
ENDBRANCH   1   2
BRANCH   1  17
ATOM     17  C   UNL     1      20.277  -5.281 -22.349  1.00  0.00     0.000 C 
BRANCH  17  18
ATOM     18  C   UNL     1      20.344  -4.580 -20.986  1.00  0.00     0.000 C 
BRANCH  18  19
ATOM     19  C   UNL     1      20.632  -3.083 -21.143  1.00  0.00     0.000 C 
BRANCH  19  20
ATOM     20  C   UNL     1      19.774  -2.256 -20.173  1.00  0.00     0.000 C 
BRANCH  20  21
ATOM     21  C   UNL     1      18.690  -3.091 -19.470  1.00  0.00     0.000 C 
BRANCH  21  22
ATOM     22  C   UNL     1      17.613  -2.272 -18.738  1.00  0.00    -0.000 C 
BRANCH  22  23
ATOM     23  C   UNL     1      17.580  -2.550 -17.226  1.00  0.00    -0.000 C 
BRANCH  23  24
ATOM     24  C   UNL     1      16.388  -3.423 -16.801  1.00  0.00    -0.000 C 
BRANCH  24  25
ATOM     25  C   UNL     1      16.735  -4.885 -16.452  1.00  0.00    -0.000 C 
BRANCH  25  26
ATOM     26  C   UNL     1      16.641  -5.856 -17.649  1.00  0.00    -0.000 C 
BRANCH  26  27
ATOM     27  C   UNL     1      18.023  -6.380 -18.083  1.00  0.00    -0.000 C 
BRANCH  27  28
ATOM     28  C   UNL     1      19.075  -6.297 -16.964  1.00  0.00    -0.000 C 
BRANCH  28  29
ATOM     29  C   UNL     1      20.397  -5.621 -17.372  1.00  0.00    -0.003 C 
ATOM     30  C   UNL     1      21.407  -6.596 -17.976  1.00  0.00     0.004 C 
ENDBRANCH  28  29
ENDBRANCH  27  28
ENDBRANCH  26  27
ENDBRANCH  25  26
ENDBRANCH  24  25
ENDBRANCH  23  24
ENDBRANCH  22  23
ENDBRANCH  21  22
ENDBRANCH  20  21
ENDBRANCH  19  20
ENDBRANCH  18  19
ENDBRANCH  17  18
ENDBRANCH   1  17
TORSDOF 26
ENDMDL
MODEL 4
REMARK VINA RESULT:    -4.663      2.616      8.355
REMARK INTER + INTRA:         -16.983
REMARK INTER:                 -11.767
REMARK INTRA:                  -5.216
REMARK UNBOUND:                -5.234
REMARK SMILES CCCCCCCCCCCCCCCCCCCCCCCCCCCC(=O)[O-]
REMARK SMILES IDX 15 1 16 2 17 3 18 4 19 5 20 6 21 7 22 8 23 9 24 10 25 11
REMARK SMILES IDX 26 12 27 13 28 14 29 15 30 16 14 17 13 18 12 19 11 20 10 21
REMARK SMILES IDX 9 22 8 23 7 24 6 25 5 26 4 27 3 28 2 29 1 30
REMARK H PARENT
REMARK Flexibility Score: inf
ROOT
ATOM      1  C   UNL     1      13.935  -3.764 -20.103  1.00  0.00     0.000 C 
ENDROOT
BRANCH   1   2
ATOM      2  C   UNL     1      15.185  -4.643 -20.317  1.00  0.00     0.000 C 
BRANCH   2   3
ATOM      3  C   UNL     1      15.188  -5.884 -19.411  1.00  0.00     0.000 C 
BRANCH   3   4
ATOM      4  C   UNL     1      16.609  -6.218 -18.929  1.00  0.00     0.000 C 
BRANCH   4   5
ATOM      5  C   UNL     1      16.690  -6.412 -17.407  1.00  0.00     0.000 C 
BRANCH   5   6
ATOM      6  C   UNL     1      17.352  -5.223 -16.689  1.00  0.00     0.000 C 
BRANCH   6   7
ATOM      7  C   UNL     1      16.324  -4.182 -16.215  1.00  0.00     0.000 C 
BRANCH   7   8
ATOM      8  C   UNL     1      16.185  -3.000 -17.190  1.00  0.00     0.000 C 
BRANCH   8   9
ATOM      9  C   UNL     1      17.523  -2.294 -17.473  1.00  0.00     0.000 C 
BRANCH   9  10
ATOM     10  C   UNL     1      18.032  -2.404 -18.922  1.00  0.00     0.000 C 
BRANCH  10  11
ATOM     11  C   UNL     1      19.428  -3.040 -19.021  1.00  0.00     0.000 C 
BRANCH  11  12
ATOM     12  C   UNL     1      19.509  -4.136 -20.099  1.00  0.00     0.006 C 
BRANCH  12  13
ATOM     13  C   UNL     1      18.505  -3.977 -21.251  1.00  0.00     0.053 C 
BRANCH  13  14
ATOM     14  C   UNL     1      18.681  -5.030 -22.300  1.00  0.00     0.041 C 
ATOM     15  O   UNL     1      17.679  -5.624 -22.779  1.00  0.00    -0.550 OA
ATOM     16  O   UNL     1      19.952  -5.335 -22.773  1.00  0.00    -0.550 OA
ENDBRANCH  13  14
ENDBRANCH  12  13
ENDBRANCH  11  12
ENDBRANCH  10  11
ENDBRANCH   9  10
ENDBRANCH   8   9
ENDBRANCH   7   8
ENDBRANCH   6   7
ENDBRANCH   5   6
ENDBRANCH   4   5
ENDBRANCH   3   4
ENDBRANCH   2   3
ENDBRANCH   1   2
BRANCH   1  17
ATOM     17  C   UNL     1      12.772  -4.496 -19.410  1.00  0.00     0.000 C 
BRANCH  17  18
ATOM     18  C   UNL     1      11.674  -4.938 -20.387  1.00  0.00     0.000 C 
BRANCH  18  19
ATOM     19  C   UNL     1      11.603  -6.466 -20.489  1.00  0.00     0.000 C 
BRANCH  19  20
ATOM     20  C   UNL     1      11.785  -6.926 -21.944  1.00  0.00     0.000 C 
BRANCH  20  21
ATOM     21  C   UNL     1      13.209  -6.689 -22.474  1.00  0.00     0.000 C 
BRANCH  21  22
ATOM     22  C   UNL     1      13.283  -6.043 -23.868  1.00  0.00    -0.000 C 
BRANCH  22  23
ATOM     23  C   UNL     1      13.428  -4.513 -23.808  1.00  0.00    -0.000 C 
BRANCH  23  24
ATOM     24  C   UNL     1      12.094  -3.775 -24.005  1.00  0.00    -0.000 C 
BRANCH  24  25
ATOM     25  C   UNL     1      11.113  -4.443 -24.991  1.00  0.00    -0.000 C 
BRANCH  25  26
ATOM     26  C   UNL     1       9.757  -4.831 -24.362  1.00  0.00    -0.000 C 
BRANCH  26  27
ATOM     27  C   UNL     1       9.379  -3.915 -23.183  1.00  0.00    -0.000 C 
BRANCH  27  28
ATOM     28  C   UNL     1       8.191  -4.450 -22.364  1.00  0.00    -0.000 C 
BRANCH  28  29
ATOM     29  C   UNL     1       8.297  -5.935 -21.971  1.00  0.00    -0.003 C 
ATOM     30  C   UNL     1       6.937  -6.591 -21.737  1.00  0.00     0.004 C 
ENDBRANCH  28  29
ENDBRANCH  27  28
ENDBRANCH  26  27
ENDBRANCH  25  26
ENDBRANCH  24  25
ENDBRANCH  23  24
ENDBRANCH  22  23
ENDBRANCH  21  22
ENDBRANCH  20  21
ENDBRANCH  19  20
ENDBRANCH  18  19
ENDBRANCH  17  18
ENDBRANCH   1  17
TORSDOF 26
ENDMDL
MODEL 5
REMARK VINA RESULT:    -4.651      1.730      3.352
REMARK INTER + INTRA:         -16.954
REMARK INTER:                 -12.454
REMARK INTRA:                  -4.500
REMARK UNBOUND:                -5.234
REMARK SMILES CCCCCCCCCCCCCCCCCCCCCCCCCCCC(=O)[O-]
REMARK SMILES IDX 15 1 16 2 17 3 18 4 19 5 20 6 21 7 22 8 23 9 24 10 25 11
REMARK SMILES IDX 26 12 27 13 28 14 29 15 30 16 14 17 13 18 12 19 11 20 10 21
REMARK SMILES IDX 9 22 8 23 7 24 6 25 5 26 4 27 3 28 2 29 1 30
REMARK H PARENT
REMARK Flexibility Score: inf
ROOT
ATOM      1  C   UNL     1      16.047  -3.860 -17.113  1.00  0.00     0.000 C 
ENDROOT
BRANCH   1   2
ATOM      2  C   UNL     1      16.819  -2.594 -17.542  1.00  0.00     0.000 C 
BRANCH   2   3
ATOM      3  C   UNL     1      16.920  -2.462 -19.069  1.00  0.00     0.000 C 
BRANCH   3   4
ATOM      4  C   UNL     1      15.530  -2.504 -19.724  1.00  0.00     0.000 C 
BRANCH   4   5
ATOM      5  C   UNL     1      15.495  -3.380 -20.987  1.00  0.00     0.000 C 
BRANCH   5   6
ATOM      6  C   UNL     1      14.184  -4.173 -21.125  1.00  0.00     0.000 C 
BRANCH   6   7
ATOM      7  C   UNL     1      13.820  -4.927 -19.835  1.00  0.00     0.000 C 
BRANCH   7   8
ATOM      8  C   UNL     1      12.389  -4.626 -19.356  1.00  0.00     0.000 C 
BRANCH   8   9
ATOM      9  C   UNL     1      11.359  -4.634 -20.500  1.00  0.00     0.000 C 
BRANCH   9  10
ATOM     10  C   UNL     1      10.804  -6.021 -20.876  1.00  0.00     0.000 C 
BRANCH  10  11
ATOM     11  C   UNL     1       9.461  -5.946 -21.621  1.00  0.00     0.000 C 
BRANCH  11  12
ATOM     12  C   UNL     1       9.230  -4.584 -22.300  1.00  0.00     0.006 C 
BRANCH  12  13
ATOM     13  C   UNL     1       7.794  -4.349 -22.795  1.00  0.00     0.053 C 
BRANCH  13  14
ATOM     14  C   UNL     1       7.761  -3.841 -24.202  1.00  0.00     0.041 C 
ATOM     15  O   UNL     1       6.666  -3.747 -24.817  1.00  0.00    -0.550 OA
ATOM     16  O   UNL     1       8.936  -3.442 -24.825  1.00  0.00    -0.550 OA
ENDBRANCH  13  14
ENDBRANCH  12  13
ENDBRANCH  11  12
ENDBRANCH  10  11
ENDBRANCH   9  10
ENDBRANCH   8   9
ENDBRANCH   7   8
ENDBRANCH   6   7
ENDBRANCH   5   6
ENDBRANCH   4   5
ENDBRANCH   3   4
ENDBRANCH   2   3
ENDBRANCH   1   2
BRANCH   1  17
ATOM     17  C   UNL     1      16.757  -4.680 -16.021  1.00  0.00     0.000 C 
BRANCH  17  18
ATOM     18  C   UNL     1      17.253  -6.043 -16.522  1.00  0.00     0.000 C 
BRANCH  18  19
ATOM     19  C   UNL     1      16.711  -6.352 -17.922  1.00  0.00     0.000 C 
BRANCH  19  20
ATOM     20  C   UNL     1      17.858  -6.676 -18.893  1.00  0.00     0.000 C 
BRANCH  20  21
ATOM     21  C   UNL     1      17.817  -5.824 -20.173  1.00  0.00     0.000 C 
BRANCH  21  22
ATOM     22  C   UNL     1      19.146  -5.749 -20.945  1.00  0.00    -0.000 C 
BRANCH  22  23
ATOM     23  C   UNL     1      19.253  -4.492 -21.824  1.00  0.00    -0.000 C 
BRANCH  23  24
ATOM     24  C   UNL     1      20.517  -3.664 -21.535  1.00  0.00    -0.000 C 
BRANCH  24  25
ATOM     25  C   UNL     1      20.428  -2.733 -20.308  1.00  0.00    -0.000 C 
BRANCH  25  26
ATOM     26  C   UNL     1      21.184  -3.256 -19.068  1.00  0.00    -0.000 C 
BRANCH  26  27
ATOM     27  C   UNL     1      20.241  -3.919 -18.047  1.00  0.00    -0.000 C 
BRANCH  27  28
ATOM     28  C   UNL     1      20.961  -4.917 -17.125  1.00  0.00    -0.000 C 
BRANCH  28  29
ATOM     29  C   UNL     1      21.822  -5.964 -17.856  1.00  0.00    -0.003 C 
ATOM     30  C   UNL     1      21.217  -7.368 -17.819  1.00  0.00     0.004 C 
ENDBRANCH  28  29
ENDBRANCH  27  28
ENDBRANCH  26  27
ENDBRANCH  25  26
ENDBRANCH  24  25
ENDBRANCH  23  24
ENDBRANCH  22  23
ENDBRANCH  21  22
ENDBRANCH  20  21
ENDBRANCH  19  20
ENDBRANCH  18  19
ENDBRANCH  17  18
ENDBRANCH   1  17
TORSDOF 26
ENDMDL
MODEL 6
REMARK VINA RESULT:    -4.641      1.910      3.170
REMARK INTER + INTRA:         -16.930
REMARK INTER:                 -11.609
REMARK INTRA:                  -5.320
REMARK UNBOUND:                -5.234
REMARK SMILES CCCCCCCCCCCCCCCCCCCCCCCCCCCC(=O)[O-]
REMARK SMILES IDX 15 1 16 2 17 3 18 4 19 5 20 6 21 7 22 8 23 9 24 10 25 11
REMARK SMILES IDX 26 12 27 13 28 14 29 15 30 16 14 17 13 18 12 19 11 20 10 21
REMARK SMILES IDX 9 22 8 23 7 24 6 25 5 26 4 27 3 28 2 29 1 30
REMARK H PARENT
REMARK Flexibility Score: inf
ROOT
ATOM      1  C   UNL     1      15.851  -4.678 -20.681  1.00  0.00     0.000 C 
ENDROOT
BRANCH   1   2
ATOM      2  C   UNL     1      14.594  -3.932 -20.184  1.00  0.00     0.000 C 
BRANCH   2   3
ATOM      3  C   UNL     1      13.678  -4.831 -19.339  1.00  0.00     0.000 C 
BRANCH   3   4
ATOM      4  C   UNL     1      12.197  -4.484 -19.565  1.00  0.00     0.000 C 
BRANCH   4   5
ATOM      5  C   UNL     1      11.457  -5.553 -20.386  1.00  0.00     0.000 C 
BRANCH   5   6
ATOM      6  C   UNL     1      12.344  -6.764 -20.723  1.00  0.00     0.000 C 
BRANCH   6   7
ATOM      7  C   UNL     1      12.418  -7.029 -22.237  1.00  0.00     0.000 C 
BRANCH   7   8
ATOM      8  C   UNL     1      13.403  -6.091 -22.955  1.00  0.00     0.000 C 
BRANCH   8   9
ATOM      9  C   UNL     1      12.722  -5.196 -24.006  1.00  0.00     0.000 C 
BRANCH   9  10
ATOM     10  C   UNL     1      12.426  -3.755 -23.551  1.00  0.00     0.000 C 
BRANCH  10  11
ATOM     11  C   UNL     1      10.928  -3.493 -23.330  1.00  0.00     0.000 C 
BRANCH  11  12
ATOM     12  C   UNL     1      10.030  -4.404 -24.188  1.00  0.00     0.006 C 
BRANCH  12  13
ATOM     13  C   UNL     1       9.158  -5.383 -23.386  1.00  0.00     0.053 C 
BRANCH  13  14
ATOM     14  C   UNL     1       7.903  -4.738 -22.886  1.00  0.00     0.041 C 
ATOM     15  O   UNL     1       7.358  -3.814 -23.546  1.00  0.00    -0.550 OA
ATOM     16  O   UNL     1       7.317  -5.179 -21.707  1.00  0.00    -0.550 OA
ENDBRANCH  13  14
ENDBRANCH  12  13
ENDBRANCH  11  12
ENDBRANCH  10  11
ENDBRANCH   9  10
ENDBRANCH   8   9
ENDBRANCH   7   8
ENDBRANCH   6   7
ENDBRANCH   5   6
ENDBRANCH   4   5
ENDBRANCH   3   4
ENDBRANCH   2   3
ENDBRANCH   1   2
BRANCH   1  17
ATOM     17  C   UNL     1      16.105  -6.015 -19.961  1.00  0.00     0.000 C 
BRANCH  17  18
ATOM     18  C   UNL     1      17.303  -5.961 -19.004  1.00  0.00     0.000 C 
BRANCH  18  19
ATOM     19  C   UNL     1      16.869  -6.209 -17.555  1.00  0.00     0.000 C 
BRANCH  19  20
ATOM     20  C   UNL     1      17.288  -5.039 -16.651  1.00  0.00     0.000 C 
BRANCH  20  21
ATOM     21  C   UNL     1      16.137  -4.058 -16.368  1.00  0.00     0.000 C 
BRANCH  21  22
ATOM     22  C   UNL     1      16.322  -2.653 -16.966  1.00  0.00    -0.000 C 
BRANCH  22  23
ATOM     23  C   UNL     1      17.739  -2.423 -17.519  1.00  0.00    -0.000 C 
BRANCH  23  24
ATOM     24  C   UNL     1      17.766  -2.251 -19.046  1.00  0.00    -0.000 C 
BRANCH  24  25
ATOM     25  C   UNL     1      19.119  -2.564 -19.719  1.00  0.00    -0.000 C 
BRANCH  25  26
ATOM     26  C   UNL     1      20.228  -2.986 -18.732  1.00  0.00    -0.000 C 
BRANCH  26  27
ATOM     27  C   UNL     1      21.305  -3.858 -19.404  1.00  0.00    -0.000 C 
BRANCH  27  28
ATOM     28  C   UNL     1      21.296  -5.313 -18.905  1.00  0.00    -0.000 C 
BRANCH  28  29
ATOM     29  C   UNL     1      20.869  -5.487 -17.436  1.00  0.00    -0.003 C 
ATOM     30  C   UNL     1      20.559  -6.938 -17.070  1.00  0.00     0.004 C 
ENDBRANCH  28  29
ENDBRANCH  27  28
ENDBRANCH  26  27
ENDBRANCH  25  26
ENDBRANCH  24  25
ENDBRANCH  23  24
ENDBRANCH  22  23
ENDBRANCH  21  22
ENDBRANCH  20  21
ENDBRANCH  19  20
ENDBRANCH  18  19
ENDBRANCH  17  18
ENDBRANCH   1  17
TORSDOF 26
ENDMDL
MODEL 7
REMARK VINA RESULT:    -4.597      3.290      9.138
REMARK INTER + INTRA:         -16.817
REMARK INTER:                 -11.879
REMARK INTRA:                  -4.937
REMARK UNBOUND:                -5.234
REMARK SMILES CCCCCCCCCCCCCCCCCCCCCCCCCCCC(=O)[O-]
REMARK SMILES IDX 15 1 16 2 17 3 18 4 19 5 20 6 21 7 22 8 23 9 24 10 25 11
REMARK SMILES IDX 26 12 27 13 28 14 29 15 30 16 14 17 13 18 12 19 11 20 10 21
REMARK SMILES IDX 9 22 8 23 7 24 6 25 5 26 4 27 3 28 2 29 1 30
REMARK H PARENT
REMARK Flexibility Score: inf
ROOT
ATOM      1  C   UNL     1      12.437  -4.469 -19.767  1.00  0.00     0.000 C 
ENDROOT
BRANCH   1   2
ATOM      2  C   UNL     1      13.951  -4.325 -19.505  1.00  0.00     0.000 C 
BRANCH   2   3
ATOM      3  C   UNL     1      14.587  -3.214 -20.354  1.00  0.00     0.000 C 
BRANCH   3   4
ATOM      4  C   UNL     1      15.735  -3.762 -21.218  1.00  0.00     0.000 C 
BRANCH   4   5
ATOM      5  C   UNL     1      16.265  -5.113 -20.712  1.00  0.00     0.000 C 
BRANCH   5   6
ATOM      6  C   UNL     1      17.248  -5.772 -21.695  1.00  0.00     0.000 C 
BRANCH   6   7
ATOM      7  C   UNL     1      18.162  -4.745 -22.383  1.00  0.00     0.000 C 
BRANCH   7   8
ATOM      8  C   UNL     1      19.655  -5.081 -22.227  1.00  0.00     0.000 C 
BRANCH   8   9
ATOM      9  C   UNL     1      20.479  -3.910 -21.662  1.00  0.00     0.000 C 
BRANCH   9  10
ATOM     10  C   UNL     1      19.690  -2.904 -20.803  1.00  0.00     0.000 C 
BRANCH  10  11
ATOM     11  C   UNL     1      20.025  -3.004 -19.306  1.00  0.00     0.000 C 
BRANCH  11  12
ATOM     12  C   UNL     1      18.957  -3.773 -18.506  1.00  0.00     0.006 C 
BRANCH  12  13
ATOM     13  C   UNL     1      17.742  -2.931 -18.085  1.00  0.00     0.053 C 
BRANCH  13  14
ATOM     14  C   UNL     1      16.817  -3.690 -17.186  1.00  0.00     0.041 C 
ATOM     15  O   UNL     1      15.993  -3.076 -16.458  1.00  0.00    -0.550 OA
ATOM     16  O   UNL     1      16.842  -5.079 -17.175  1.00  0.00    -0.550 OA
ENDBRANCH  13  14
ENDBRANCH  12  13
ENDBRANCH  11  12
ENDBRANCH  10  11
ENDBRANCH   9  10
ENDBRANCH   8   9
ENDBRANCH   7   8
ENDBRANCH   6   7
ENDBRANCH   5   6
ENDBRANCH   4   5
ENDBRANCH   3   4
ENDBRANCH   2   3
ENDBRANCH   1   2
BRANCH   1  17
ATOM     17  C   UNL     1      12.019  -5.871 -20.243  1.00  0.00     0.000 C 
BRANCH  17  18
ATOM     18  C   UNL     1      13.155  -6.900 -20.149  1.00  0.00     0.000 C 
BRANCH  18  19
ATOM     19  C   UNL     1      13.480  -7.497 -21.522  1.00  0.00     0.000 C 
BRANCH  19  20
ATOM     20  C   UNL     1      12.782  -6.709 -22.641  1.00  0.00     0.000 C 
BRANCH  20  21
ATOM     21  C   UNL     1      13.762  -5.882 -23.492  1.00  0.00     0.000 C 
BRANCH  21  22
ATOM     22  C   UNL     1      13.208  -4.538 -23.995  1.00  0.00    -0.000 C 
BRANCH  22  23
ATOM     23  C   UNL     1      12.031  -4.706 -24.971  1.00  0.00    -0.000 C 
BRANCH  23  24
ATOM     24  C   UNL     1      10.924  -3.660 -24.762  1.00  0.00    -0.000 C 
BRANCH  24  25
ATOM     25  C   UNL     1      10.592  -3.339 -23.290  1.00  0.00    -0.000 C 
BRANCH  25  26
ATOM     26  C   UNL     1       9.707  -4.399 -22.600  1.00  0.00    -0.000 C 
BRANCH  26  27
ATOM     27  C   UNL     1       8.215  -4.218 -22.933  1.00  0.00    -0.000 C 
BRANCH  27  28
ATOM     28  C   UNL     1       7.680  -5.293 -23.895  1.00  0.00    -0.000 C 
BRANCH  28  29
ATOM     29  C   UNL     1       6.799  -4.755 -25.038  1.00  0.00    -0.003 C 
ATOM     30  C   UNL     1       7.266  -3.398 -25.565  1.00  0.00     0.004 C 
ENDBRANCH  28  29
ENDBRANCH  27  28
ENDBRANCH  26  27
ENDBRANCH  25  26
ENDBRANCH  24  25
ENDBRANCH  23  24
ENDBRANCH  22  23
ENDBRANCH  21  22
ENDBRANCH  20  21
ENDBRANCH  19  20
ENDBRANCH  18  19
ENDBRANCH  17  18
ENDBRANCH   1  17
TORSDOF 26
ENDMDL
MODEL 8
REMARK VINA RESULT:    -4.586      2.155      5.221
REMARK INTER + INTRA:         -16.791
REMARK INTER:                 -11.424
REMARK INTRA:                  -5.367
REMARK UNBOUND:                -5.234
REMARK SMILES CCCCCCCCCCCCCCCCCCCCCCCCCCCC(=O)[O-]
REMARK SMILES IDX 15 1 16 2 17 3 18 4 19 5 20 6 21 7 22 8 23 9 24 10 25 11
REMARK SMILES IDX 26 12 27 13 28 14 29 15 30 16 14 17 13 18 12 19 11 20 10 21
REMARK SMILES IDX 9 22 8 23 7 24 6 25 5 26 4 27 3 28 2 29 1 30
REMARK H PARENT
REMARK Flexibility Score: inf
ROOT
ATOM      1  C   UNL     1      18.489  -2.507 -19.364  1.00  0.00     0.000 C 
ENDROOT
BRANCH   1   2
ATOM      2  C   UNL     1      17.009  -2.609 -18.938  1.00  0.00     0.000 C 
BRANCH   2   3
ATOM      3  C   UNL     1      16.838  -2.580 -17.411  1.00  0.00     0.000 C 
BRANCH   3   4
ATOM      4  C   UNL     1      15.994  -3.770 -16.924  1.00  0.00     0.000 C 
BRANCH   4   5
ATOM      5  C   UNL     1      16.776  -4.710 -15.993  1.00  0.00     0.000 C 
BRANCH   5   6
ATOM      6  C   UNL     1      16.927  -6.128 -16.571  1.00  0.00     0.000 C 
BRANCH   6   7
ATOM      7  C   UNL     1      16.736  -6.160 -18.096  1.00  0.00     0.000 C 
BRANCH   7   8
ATOM      8  C   UNL     1      15.631  -7.137 -18.535  1.00  0.00     0.000 C 
BRANCH   8   9
ATOM      9  C   UNL     1      14.941  -6.714 -19.844  1.00  0.00     0.000 C 
BRANCH   9  10
ATOM     10  C   UNL     1      14.916  -5.199 -20.116  1.00  0.00     0.000 C 
BRANCH  10  11
ATOM     11  C   UNL     1      13.616  -4.527 -19.644  1.00  0.00     0.000 C 
BRANCH  11  12
ATOM     12  C   UNL     1      12.366  -5.378 -19.933  1.00  0.00     0.006 C 
BRANCH  12  13
ATOM     13  C   UNL     1      11.298  -4.678 -20.788  1.00  0.00     0.053 C 
BRANCH  13  14
ATOM     14  C   UNL     1      10.201  -5.613 -21.194  1.00  0.00     0.041 C 
ATOM     15  O   UNL     1      10.212  -6.812 -20.805  1.00  0.00    -0.550 OA
ATOM     16  O   UNL     1       9.149  -5.154 -21.976  1.00  0.00    -0.550 OA
ENDBRANCH  13  14
ENDBRANCH  12  13
ENDBRANCH  11  12
ENDBRANCH  10  11
ENDBRANCH   9  10
ENDBRANCH   8   9
ENDBRANCH   7   8
ENDBRANCH   6   7
ENDBRANCH   5   6
ENDBRANCH   4   5
ENDBRANCH   3   4
ENDBRANCH   2   3
ENDBRANCH   1   2
BRANCH   1  17
ATOM     17  C   UNL     1      19.479  -2.997 -18.293  1.00  0.00     0.000 C 
BRANCH  17  18
ATOM     18  C   UNL     1      20.869  -3.315 -18.861  1.00  0.00     0.000 C 
BRANCH  18  19
ATOM     19  C   UNL     1      21.259  -4.773 -18.592  1.00  0.00     0.000 C 
BRANCH  19  20
ATOM     20  C   UNL     1      20.437  -5.355 -17.432  1.00  0.00     0.000 C 
BRANCH  20  21
ATOM     21  C   UNL     1      20.485  -6.892 -17.376  1.00  0.00     0.000 C 
BRANCH  21  22
ATOM     22  C   UNL     1      21.671  -7.531 -18.118  1.00  0.00    -0.000 C 
BRANCH  22  23
ATOM     23  C   UNL     1      21.264  -8.770 -18.934  1.00  0.00    -0.000 C 
BRANCH  23  24
ATOM     24  C   UNL     1      21.713  -8.695 -20.403  1.00  0.00    -0.000 C 
BRANCH  24  25
ATOM     25  C   UNL     1      20.626  -8.243 -21.400  1.00  0.00    -0.000 C 
BRANCH  25  26
ATOM     26  C   UNL     1      19.184  -8.419 -20.880  1.00  0.00    -0.000 C 
BRANCH  26  27
ATOM     27  C   UNL     1      18.246  -7.302 -21.374  1.00  0.00    -0.000 C 
BRANCH  27  28
ATOM     28  C   UNL     1      18.725  -5.896 -20.976  1.00  0.00    -0.000 C 
BRANCH  28  29
ATOM     29  C   UNL     1      19.025  -4.958 -22.159  1.00  0.00    -0.003 C 
ATOM     30  C   UNL     1      20.505  -4.592 -22.273  1.00  0.00     0.004 C 
ENDBRANCH  28  29
ENDBRANCH  27  28
ENDBRANCH  26  27
ENDBRANCH  25  26
ENDBRANCH  24  25
ENDBRANCH  23  24
ENDBRANCH  22  23
ENDBRANCH  21  22
ENDBRANCH  20  21
ENDBRANCH  19  20
ENDBRANCH  18  19
ENDBRANCH  17  18
ENDBRANCH   1  17
TORSDOF 26
ENDMDL
MODEL 9
REMARK VINA RESULT:    -4.561      1.598      3.026
REMARK INTER + INTRA:         -16.727
REMARK INTER:                 -10.990
REMARK INTRA:                  -5.737
REMARK UNBOUND:                -5.234
REMARK SMILES CCCCCCCCCCCCCCCCCCCCCCCCCCCC(=O)[O-]
REMARK SMILES IDX 15 1 16 2 17 3 18 4 19 5 20 6 21 7 22 8 23 9 24 10 25 11
REMARK SMILES IDX 26 12 27 13 28 14 29 15 30 16 14 17 13 18 12 19 11 20 10 21
REMARK SMILES IDX 9 22 8 23 7 24 6 25 5 26 4 27 3 28 2 29 1 30
REMARK H PARENT
REMARK Flexibility Score: inf
ROOT
ATOM      1  C   UNL     1      14.846  -6.906 -23.059  1.00  0.00     0.000 C 
ENDROOT
BRANCH   1   2
ATOM      2  C   UNL     1      14.607  -5.416 -23.383  1.00  0.00     0.000 C 
BRANCH   2   3
ATOM      3  C   UNL     1      15.897  -4.586 -23.297  1.00  0.00     0.000 C 
BRANCH   3   4
ATOM      4  C   UNL     1      15.914  -3.714 -22.031  1.00  0.00     0.000 C 
BRANCH   4   5
ATOM      5  C   UNL     1      14.526  -3.579 -21.385  1.00  0.00     0.000 C 
BRANCH   5   6
ATOM      6  C   UNL     1      14.566  -3.722 -19.854  1.00  0.00     0.000 C 
BRANCH   6   7
ATOM      7  C   UNL     1      13.288  -4.370 -19.294  1.00  0.00     0.000 C 
BRANCH   7   8
ATOM      8  C   UNL     1      12.269  -4.715 -20.393  1.00  0.00     0.000 C 
BRANCH   8   9
ATOM      9  C   UNL     1      11.318  -5.857 -19.993  1.00  0.00     0.000 C 
BRANCH   9  10
ATOM     10  C   UNL     1      10.247  -6.219 -21.039  1.00  0.00     0.000 C 
BRANCH  10  11
ATOM     11  C   UNL     1      10.836  -6.881 -22.295  1.00  0.00     0.000 C 
BRANCH  11  12
ATOM     12  C   UNL     1      10.278  -6.285 -23.600  1.00  0.00     0.006 C 
BRANCH  12  13
ATOM     13  C   UNL     1      11.214  -5.286 -24.300  1.00  0.00     0.053 C 
BRANCH  13  14
ATOM     14  C   UNL     1      10.956  -3.876 -23.867  1.00  0.00     0.041 C 
ATOM     15  O   UNL     1      11.829  -2.987 -24.048  1.00  0.00    -0.550 OA
ATOM     16  O   UNL     1       9.738  -3.537 -23.292  1.00  0.00    -0.550 OA
ENDBRANCH  13  14
ENDBRANCH  12  13
ENDBRANCH  11  12
ENDBRANCH  10  11
ENDBRANCH   9  10
ENDBRANCH   8   9
ENDBRANCH   7   8
ENDBRANCH   6   7
ENDBRANCH   5   6
ENDBRANCH   4   5
ENDBRANCH   3   4
ENDBRANCH   2   3
ENDBRANCH   1   2
BRANCH   1  17
ATOM     17  C   UNL     1      14.414  -7.310 -21.638  1.00  0.00     0.000 C 
BRANCH  17  18
ATOM     18  C   UNL     1      15.577  -7.307 -20.636  1.00  0.00     0.000 C 
BRANCH  18  19
ATOM     19  C   UNL     1      16.919  -7.540 -21.339  1.00  0.00     0.000 C 
BRANCH  19  20
ATOM     20  C   UNL     1      18.028  -6.696 -20.693  1.00  0.00     0.000 C 
BRANCH  20  21
ATOM     21  C   UNL     1      17.661  -6.200 -19.284  1.00  0.00     0.000 C 
BRANCH  21  22
ATOM     22  C   UNL     1      18.800  -6.273 -18.253  1.00  0.00    -0.000 C 
BRANCH  22  23
ATOM     23  C   UNL     1      18.312  -6.063 -16.810  1.00  0.00    -0.000 C 
BRANCH  23  24
ATOM     24  C   UNL     1      16.828  -5.665 -16.731  1.00  0.00    -0.000 C 
BRANCH  24  25
ATOM     25  C   UNL     1      16.545  -4.317 -16.036  1.00  0.00    -0.000 C 
BRANCH  25  26
ATOM     26  C   UNL     1      16.405  -3.126 -17.008  1.00  0.00    -0.000 C 
BRANCH  26  27
ATOM     27  C   UNL     1      17.772  -2.603 -17.489  1.00  0.00    -0.000 C 
BRANCH  27  28
ATOM     28  C   UNL     1      17.871  -2.505 -19.021  1.00  0.00    -0.000 C 
BRANCH  28  29
ATOM     29  C   UNL     1      19.307  -2.522 -19.576  1.00  0.00    -0.003 C 
ATOM     30  C   UNL     1      19.431  -3.287 -20.893  1.00  0.00     0.004 C 
ENDBRANCH  28  29
ENDBRANCH  27  28
ENDBRANCH  26  27
ENDBRANCH  25  26
ENDBRANCH  24  25
ENDBRANCH  23  24
ENDBRANCH  22  23
ENDBRANCH  21  22
ENDBRANCH  20  21
ENDBRANCH  19  20
ENDBRANCH  18  19
ENDBRANCH  17  18
ENDBRANCH   1  17
TORSDOF 26
ENDMDL
