MODEL 1
REMARK VINA RESULT:    18.954      0.000      0.000
REMARK INTER + INTRA:          36.007
REMARK INTER:                  36.683
REMARK INTRA:                  -0.676
REMARK UNBOUND:                -0.676
REMARK SMILES CCCCCCCCCCCCCCCCCC(=O)[O-]
REMARK SMILES IDX 10 1 11 2 12 3 13 4 14 5 15 6 16 7 17 8 18 9 19 10 20 11
REMARK SMILES IDX 9 12 8 13 7 14 6 15 5 16 4 17 3 18 2 19 1 20
REMARK H PARENT
REMARK Flexibility Score: inf
ROOT
ATOM      1  C   UNL     1      -1.150  19.479   9.289  1.00  0.00     0.000 C 
ENDROOT
BRANCH   1   2
ATOM      2  C   UNL     1      -1.470  18.204  10.089  1.00  0.00     0.000 C 
BRANCH   2   3
ATOM      3  C   UNL     1      -0.682  16.951   9.657  1.00  0.00     0.000 C 
BRANCH   3   4
ATOM      4  C   UNL     1      -1.417  16.022   8.668  1.00  0.00     0.000 C 
BRANCH   4   5
ATOM      5  C   UNL     1      -2.895  16.375   8.419  1.00  0.00     0.000 C 
BRANCH   5   6
ATOM      6  C   UNL     1      -3.496  15.614   7.225  1.00  0.00     0.000 C 
BRANCH   6   7
ATOM      7  C   UNL     1      -5.038  15.619   7.236  1.00  0.00     0.006 C 
BRANCH   7   8
ATOM      8  C   UNL     1      -5.658  14.248   7.554  1.00  0.00     0.053 C 
BRANCH   8   9
ATOM      9  C   UNL     1      -7.118  14.344   7.875  1.00  0.00     0.041 C 
ATOM     10  O   UNL     1      -7.499  14.913   8.933  1.00  0.00    -0.550 OA
ATOM     11  O   UNL     1      -8.059  13.797   7.009  1.00  0.00    -0.550 OA
ENDBRANCH   8   9
ENDBRANCH   7   8
ENDBRANCH   6   7
ENDBRANCH   5   6
ENDBRANCH   4   5
ENDBRANCH   3   4
ENDBRANCH   2   3
ENDBRANCH   1   2
BRANCH   1  12
ATOM     12  C   UNL     1      -2.275  20.524   9.360  1.00  0.00     0.000 C 
BRANCH  12  13
ATOM     13  C   UNL     1      -1.817  21.865   8.773  1.00  0.00    -0.000 C 
BRANCH  13  14
ATOM     14  C   UNL     1      -0.971  22.648   9.789  1.00  0.00    -0.000 C 
BRANCH  14  15
ATOM     15  C   UNL     1      -0.504  24.009   9.248  1.00  0.00    -0.000 C 
BRANCH  15  16
ATOM     16  C   UNL     1      -0.197  25.018  10.366  1.00  0.00    -0.000 C 
BRANCH  16  17
ATOM     17  C   UNL     1      -0.027  26.432   9.797  1.00  0.00    -0.000 C 
BRANCH  17  18
ATOM     18  C   UNL     1      -0.522  27.491  10.793  1.00  0.00    -0.000 C 
BRANCH  18  19
ATOM     19  C   UNL     1      -1.515  26.919  11.817  1.00  0.00    -0.003 C 
ATOM     20  C   UNL     1      -1.617  27.770  13.084  1.00  0.00     0.004 C 
ENDBRANCH  18  19
ENDBRANCH  17  18
ENDBRANCH  16  17
ENDBRANCH  15  16
ENDBRANCH  14  15
ENDBRANCH  13  14
ENDBRANCH  12  13
ENDBRANCH   1  12
TORSDOF 16
ENDMDL
MODEL 2
REMARK VINA RESULT:    19.420      4.546     10.875
REMARK INTER + INTRA:          36.909
REMARK INTER:                  37.494
REMARK INTRA:                  -0.585
REMARK UNBOUND:                -0.676
REMARK SMILES CCCCCCCCCCCCCCCCCC(=O)[O-]
REMARK SMILES IDX 10 1 11 2 12 3 13 4 14 5 15 6 16 7 17 8 18 9 19 10 20 11
REMARK SMILES IDX 9 12 8 13 7 14 6 15 5 16 4 17 3 18 2 19 1 20
REMARK H PARENT
REMARK Flexibility Score: inf
ROOT
ATOM      1  C   UNL     1      -1.197  19.891   9.358  1.00  0.00     0.000 C 
ENDROOT
BRANCH   1   2
ATOM      2  C   UNL     1      -2.046  21.120   8.989  1.00  0.00     0.000 C 
BRANCH   2   3
ATOM      3  C   UNL     1      -1.717  22.400   9.782  1.00  0.00     0.000 C 
BRANCH   3   4
ATOM      4  C   UNL     1      -0.480  23.179   9.286  1.00  0.00     0.000 C 
BRANCH   4   5
ATOM      5  C   UNL     1      -0.058  24.364  10.173  1.00  0.00     0.000 C 
BRANCH   5   6
ATOM      6  C   UNL     1      -0.417  25.727   9.558  1.00  0.00     0.000 C 
BRANCH   6   7
ATOM      7  C   UNL     1       0.138  26.911  10.375  1.00  0.00     0.006 C 
BRANCH   7   8
ATOM      8  C   UNL     1      -0.951  27.862  10.901  1.00  0.00     0.053 C 
BRANCH   8   9
ATOM      9  C   UNL     1      -1.461  27.454  12.249  1.00  0.00     0.041 C 
ATOM     10  O   UNL     1      -1.476  28.281  13.199  1.00  0.00    -0.550 OA
ATOM     11  O   UNL     1      -1.912  26.154  12.459  1.00  0.00    -0.550 OA
ENDBRANCH   8   9
ENDBRANCH   7   8
ENDBRANCH   6   7
ENDBRANCH   5   6
ENDBRANCH   4   5
ENDBRANCH   3   4
ENDBRANCH   2   3
ENDBRANCH   1   2
BRANCH   1  12
ATOM     12  C   UNL     1      -2.050  18.665   9.723  1.00  0.00     0.000 C 
BRANCH  12  13
ATOM     13  C   UNL     1      -1.163  17.475  10.109  1.00  0.00    -0.000 C 
BRANCH  13  14
ATOM     14  C   UNL     1      -1.033  16.486   8.940  1.00  0.00    -0.000 C 
BRANCH  14  15
ATOM     15  C   UNL     1      -2.260  15.570   8.799  1.00  0.00    -0.000 C 
BRANCH  15  16
ATOM     16  C   UNL     1      -2.881  15.624   7.394  1.00  0.00    -0.000 C 
BRANCH  16  17
ATOM     17  C   UNL     1      -4.372  15.976   7.468  1.00  0.00    -0.000 C 
BRANCH  17  18
ATOM     18  C   UNL     1      -5.244  14.757   7.133  1.00  0.00    -0.000 C 
BRANCH  18  19
ATOM     19  C   UNL     1      -6.465  14.634   8.057  1.00  0.00    -0.003 C 
ATOM     20  C   UNL     1      -7.705  14.105   7.334  1.00  0.00     0.004 C 
ENDBRANCH  18  19
ENDBRANCH  17  18
ENDBRANCH  16  17
ENDBRANCH  15  16
ENDBRANCH  14  15
ENDBRANCH  13  14
ENDBRANCH  12  13
ENDBRANCH   1  12
TORSDOF 16
ENDMDL
MODEL 3
REMARK VINA RESULT:    20.209      4.884      9.929
REMARK INTER + INTRA:          38.436
REMARK INTER:                  39.474
REMARK INTRA:                  -1.038
REMARK UNBOUND:                -0.676
REMARK SMILES CCCCCCCCCCCCCCCCCC(=O)[O-]
REMARK SMILES IDX 10 1 11 2 12 3 13 4 14 5 15 6 16 7 17 8 18 9 19 10 20 11
REMARK SMILES IDX 9 12 8 13 7 14 6 15 5 16 4 17 3 18 2 19 1 20
REMARK H PARENT
REMARK Flexibility Score: inf
ROOT
ATOM      1  C   UNL     1      -1.835  18.268   9.852  1.00  0.00     0.000 C 
ENDROOT
BRANCH   1   2
ATOM      2  C   UNL     1      -1.275  19.584   9.284  1.00  0.00     0.000 C 
BRANCH   2   3
ATOM      3  C   UNL     1      -2.162  20.823   9.517  1.00  0.00     0.000 C 
BRANCH   3   4
ATOM      4  C   UNL     1      -1.649  22.129   8.874  1.00  0.00     0.000 C 
BRANCH   4   5
ATOM      5  C   UNL     1      -0.849  23.048   9.815  1.00  0.00     0.000 C 
BRANCH   5   6
ATOM      6  C   UNL     1       0.028  24.059   9.057  1.00  0.00     0.000 C 
BRANCH   6   7
ATOM      7  C   UNL     1      -0.272  25.518   9.457  1.00  0.00     0.006 C 
BRANCH   7   8
ATOM      8  C   UNL     1      -0.400  25.728  10.976  1.00  0.00     0.053 C 
BRANCH   8   9
ATOM      9  C   UNL     1      -0.846  27.115  11.322  1.00  0.00     0.041 C 
ATOM     10  O   UNL     1      -1.508  27.325  12.374  1.00  0.00    -0.550 OA
ATOM     11  O   UNL     1      -0.541  28.178  10.478  1.00  0.00    -0.550 OA
ENDBRANCH   8   9
ENDBRANCH   7   8
ENDBRANCH   6   7
ENDBRANCH   5   6
ENDBRANCH   4   5
ENDBRANCH   3   4
ENDBRANCH   2   3
ENDBRANCH   1   2
BRANCH   1  12
ATOM     12  C   UNL     1      -0.798  17.134   9.858  1.00  0.00     0.000 C 
BRANCH  12  13
ATOM     13  C   UNL     1      -1.372  15.862   9.221  1.00  0.00    -0.000 C 
BRANCH  13  14
ATOM     14  C   UNL     1      -2.121  16.189   7.920  1.00  0.00    -0.000 C 
BRANCH  14  15
ATOM     15  C   UNL     1      -3.247  15.188   7.616  1.00  0.00    -0.000 C 
BRANCH  15  16
ATOM     16  C   UNL     1      -4.453  15.845   6.925  1.00  0.00    -0.000 C 
BRANCH  16  17
ATOM     17  C   UNL     1      -5.536  16.215   7.947  1.00  0.00    -0.000 C 
BRANCH  17  18
ATOM     18  C   UNL     1      -5.967  17.680   7.787  1.00  0.00    -0.000 C 
BRANCH  18  19
ATOM     19  C   UNL     1      -6.534  18.273   9.085  1.00  0.00    -0.003 C 
ATOM     20  C   UNL     1      -5.444  18.646  10.092  1.00  0.00     0.004 C 
ENDBRANCH  18  19
ENDBRANCH  17  18
ENDBRANCH  16  17
ENDBRANCH  15  16
ENDBRANCH  14  15
ENDBRANCH  13  14
ENDBRANCH  12  13
ENDBRANCH   1  12
TORSDOF 16
ENDMDL
MODEL 4
REMARK VINA RESULT:    20.342      3.019      4.268
REMARK INTER + INTRA:          38.693
REMARK INTER:                  40.045
REMARK INTRA:                  -1.352
REMARK UNBOUND:                -0.676
REMARK SMILES CCCCCCCCCCCCCCCCCC(=O)[O-]
REMARK SMILES IDX 10 1 11 2 12 3 13 4 14 5 15 6 16 7 17 8 18 9 19 10 20 11
REMARK SMILES IDX 9 12 8 13 7 14 6 15 5 16 4 17 3 18 2 19 1 20
REMARK H PARENT
REMARK Flexibility Score: inf
ROOT
ATOM      1  C   UNL     1      -3.020  22.175   8.094  1.00  0.00     0.000 C 
ENDROOT
BRANCH   1   2
ATOM      2  C   UNL     1      -4.477  21.684   8.036  1.00  0.00     0.000 C 
BRANCH   2   3
ATOM      3  C   UNL     1      -5.010  21.073   9.348  1.00  0.00     0.000 C 
BRANCH   3   4
ATOM      4  C   UNL     1      -5.488  19.609   9.243  1.00  0.00     0.000 C 
BRANCH   4   5
ATOM      5  C   UNL     1      -5.561  18.851  10.580  1.00  0.00     0.000 C 
BRANCH   5   6
ATOM      6  C   UNL     1      -4.211  18.239  10.993  1.00  0.00     0.000 C 
BRANCH   6   7
ATOM      7  C   UNL     1      -3.290  17.972   9.786  1.00  0.00     0.006 C 
BRANCH   7   8
ATOM      8  C   UNL     1      -1.798  17.890  10.154  1.00  0.00     0.053 C 
BRANCH   8   9
ATOM      9  C   UNL     1      -1.084  16.809   9.401  1.00  0.00     0.041 C 
ATOM     10  O   UNL     1      -1.617  16.286   8.386  1.00  0.00    -0.550 OA
ATOM     11  O   UNL     1       0.166  16.372   9.827  1.00  0.00    -0.550 OA
ENDBRANCH   8   9
ENDBRANCH   7   8
ENDBRANCH   6   7
ENDBRANCH   5   6
ENDBRANCH   4   5
ENDBRANCH   3   4
ENDBRANCH   2   3
ENDBRANCH   1   2
BRANCH   1  12
ATOM     12  C   UNL     1      -2.116  21.260   8.935  1.00  0.00     0.000 C 
BRANCH  12  13
ATOM     13  C   UNL     1      -1.241  22.080   9.892  1.00  0.00    -0.000 C 
BRANCH  13  14
ATOM     14  C   UNL     1      -0.693  23.334   9.194  1.00  0.00    -0.000 C 
BRANCH  14  15
ATOM     15  C   UNL     1      -0.322  24.450  10.186  1.00  0.00    -0.000 C 
BRANCH  15  16
ATOM     16  C   UNL     1      -0.428  25.852   9.566  1.00  0.00    -0.000 C 
BRANCH  16  17
ATOM     17  C   UNL     1       0.351  26.879  10.399  1.00  0.00    -0.000 C 
BRANCH  17  18
ATOM     18  C   UNL     1      -0.550  28.053  10.809  1.00  0.00    -0.000 C 
BRANCH  18  19
ATOM     19  C   UNL     1      -1.778  27.601  11.615  1.00  0.00    -0.003 C 
ATOM     20  C   UNL     1      -1.414  27.080  13.007  1.00  0.00     0.004 C 
ENDBRANCH  18  19
ENDBRANCH  17  18
ENDBRANCH  16  17
ENDBRANCH  15  16
ENDBRANCH  14  15
ENDBRANCH  13  14
ENDBRANCH  12  13
ENDBRANCH   1  12
TORSDOF 16
ENDMDL
MODEL 5
REMARK VINA RESULT:    20.490      1.611      1.786
REMARK INTER + INTRA:          38.981
REMARK INTER:                  39.832
REMARK INTRA:                  -0.851
REMARK UNBOUND:                -0.676
REMARK SMILES CCCCCCCCCCCCCCCCCC(=O)[O-]
REMARK SMILES IDX 10 1 11 2 12 3 13 4 14 5 15 6 16 7 17 8 18 9 19 10 20 11
REMARK SMILES IDX 9 12 8 13 7 14 6 15 5 16 4 17 3 18 2 19 1 20
REMARK H PARENT
REMARK Flexibility Score: inf
ROOT
ATOM      1  C   UNL     1      -1.949  19.884   9.744  1.00  0.00     0.000 C 
ENDROOT
BRANCH   1   2
ATOM      2  C   UNL     1      -1.068  18.728   9.239  1.00  0.00     0.000 C 
BRANCH   2   3
ATOM      3  C   UNL     1      -1.108  17.453  10.105  1.00  0.00     0.000 C 
BRANCH   3   4
ATOM      4  C   UNL     1      -1.467  16.156   9.348  1.00  0.00     0.000 C 
BRANCH   4   5
ATOM      5  C   UNL     1      -2.143  16.367   7.981  1.00  0.00     0.000 C 
BRANCH   5   6
ATOM      6  C   UNL     1      -3.307  15.393   7.735  1.00  0.00     0.000 C 
BRANCH   6   7
ATOM      7  C   UNL     1      -4.465  16.040   6.949  1.00  0.00     0.006 C 
BRANCH   7   8
ATOM      8  C   UNL     1      -5.758  16.194   7.768  1.00  0.00     0.053 C 
BRANCH   8   9
ATOM      9  C   UNL     1      -5.933  17.584   8.299  1.00  0.00     0.041 C 
ATOM     10  O   UNL     1      -5.109  18.055   9.128  1.00  0.00    -0.550 OA
ATOM     11  O   UNL     1      -7.013  18.357   7.886  1.00  0.00    -0.550 OA
ENDBRANCH   8   9
ENDBRANCH   7   8
ENDBRANCH   6   7
ENDBRANCH   5   6
ENDBRANCH   4   5
ENDBRANCH   3   4
ENDBRANCH   2   3
ENDBRANCH   1   2
BRANCH   1  12
ATOM     12  C   UNL     1      -1.779  21.167   8.915  1.00  0.00     0.000 C 
BRANCH  12  13
ATOM     13  C   UNL     1      -1.482  22.369   9.820  1.00  0.00    -0.000 C 
BRANCH  13  14
ATOM     14  C   UNL     1      -0.202  23.090   9.371  1.00  0.00    -0.000 C 
BRANCH  14  15
ATOM     15  C   UNL     1      -0.429  24.585   9.092  1.00  0.00    -0.000 C 
BRANCH  15  16
ATOM     16  C   UNL     1      -0.299  25.450  10.356  1.00  0.00    -0.000 C 
BRANCH  16  17
ATOM     17  C   UNL     1      -0.037  26.917   9.992  1.00  0.00    -0.000 C 
BRANCH  17  18
ATOM     18  C   UNL     1      -0.635  27.861  11.045  1.00  0.00    -0.000 C 
BRANCH  18  19
ATOM     19  C   UNL     1      -1.741  27.193  11.876  1.00  0.00    -0.003 C 
ATOM     20  C   UNL     1      -1.608  27.473  13.375  1.00  0.00     0.004 C 
ENDBRANCH  18  19
ENDBRANCH  17  18
ENDBRANCH  16  17
ENDBRANCH  15  16
ENDBRANCH  14  15
ENDBRANCH  13  14
ENDBRANCH  12  13
ENDBRANCH   1  12
TORSDOF 16
ENDMDL
MODEL 6
REMARK VINA RESULT:    20.539     11.444     12.155
REMARK INTER + INTRA:          39.074
REMARK INTER:                  40.338
REMARK INTRA:                  -1.263
REMARK UNBOUND:                -0.676
REMARK SMILES CCCCCCCCCCCCCCCCCC(=O)[O-]
REMARK SMILES IDX 10 1 11 2 12 3 13 4 14 5 15 6 16 7 17 8 18 9 19 10 20 11
REMARK SMILES IDX 9 12 8 13 7 14 6 15 5 16 4 17 3 18 2 19 1 20
REMARK H PARENT
REMARK Flexibility Score: inf
ROOT
ATOM      1  C   UNL     1      -0.432  14.010  18.772  1.00  0.00     0.000 C 
ENDROOT
BRANCH   1   2
ATOM      2  C   UNL     1      -1.569  12.973  18.782  1.00  0.00     0.000 C 
BRANCH   2   3
ATOM      3  C   UNL     1      -2.976  13.553  19.028  1.00  0.00     0.000 C 
BRANCH   3   4
ATOM      4  C   UNL     1      -3.700  13.012  20.279  1.00  0.00     0.000 C 
BRANCH   4   5
ATOM      5  C   UNL     1      -4.569  14.042  21.024  1.00  0.00     0.000 C 
BRANCH   5   6
ATOM      6  C   UNL     1      -4.110  15.491  20.789  1.00  0.00     0.000 C 
BRANCH   6   7
ATOM      7  C   UNL     1      -5.236  16.515  21.027  1.00  0.00     0.006 C 
BRANCH   7   8
ATOM      8  C   UNL     1      -6.119  16.762  19.791  1.00  0.00     0.053 C 
BRANCH   8   9
ATOM      9  C   UNL     1      -7.503  16.216  19.962  1.00  0.00     0.041 C 
ATOM     10  O   UNL     1      -7.719  14.982  19.824  1.00  0.00    -0.550 OA
ATOM     11  O   UNL     1      -8.558  17.071  20.262  1.00  0.00    -0.550 OA
ENDBRANCH   8   9
ENDBRANCH   7   8
ENDBRANCH   6   7
ENDBRANCH   5   6
ENDBRANCH   4   5
ENDBRANCH   3   4
ENDBRANCH   2   3
ENDBRANCH   1   2
BRANCH   1  12
ATOM     12  C   UNL     1      -0.918  15.429  19.109  1.00  0.00     0.000 C 
BRANCH  12  13
ATOM     13  C   UNL     1      -0.015  16.082  20.163  1.00  0.00    -0.000 C 
BRANCH  13  14
ATOM     14  C   UNL     1      -0.721  17.273  20.827  1.00  0.00    -0.000 C 
BRANCH  14  15
ATOM     15  C   UNL     1      -0.421  18.608  20.124  1.00  0.00    -0.000 C 
BRANCH  15  16
ATOM     16  C   UNL     1      -1.125  19.800  20.791  1.00  0.00    -0.000 C 
BRANCH  16  17
ATOM     17  C   UNL     1      -0.252  20.401  21.901  1.00  0.00    -0.000 C 
BRANCH  17  18
ATOM     18  C   UNL     1      -0.544  21.897  22.082  1.00  0.00    -0.000 C 
BRANCH  18  19
ATOM     19  C   UNL     1      -1.873  22.155  22.810  1.00  0.00    -0.003 C 
ATOM     20  C   UNL     1      -2.195  23.645  22.945  1.00  0.00     0.004 C 
ENDBRANCH  18  19
ENDBRANCH  17  18
ENDBRANCH  16  17
ENDBRANCH  15  16
ENDBRANCH  14  15
ENDBRANCH  13  14
ENDBRANCH  12  13
ENDBRANCH   1  12
TORSDOF 16
ENDMDL
MODEL 7
REMARK VINA RESULT:    20.789     11.333     12.493
REMARK INTER + INTRA:          39.558
REMARK INTER:                  40.931
REMARK INTRA:                  -1.373
REMARK UNBOUND:                -0.676
REMARK SMILES CCCCCCCCCCCCCCCCCC(=O)[O-]
REMARK SMILES IDX 10 1 11 2 12 3 13 4 14 5 15 6 16 7 17 8 18 9 19 10 20 11
REMARK SMILES IDX 9 12 8 13 7 14 6 15 5 16 4 17 3 18 2 19 1 20
REMARK H PARENT
REMARK Flexibility Score: inf
ROOT
ATOM      1  C   UNL     1      -2.531  12.956  18.645  1.00  0.00     0.000 C 
ENDROOT
BRANCH   1   2
ATOM      2  C   UNL     1      -3.225  12.253  19.824  1.00  0.00     0.000 C 
BRANCH   2   3
ATOM      3  C   UNL     1      -4.552  12.895  20.276  1.00  0.00     0.000 C 
BRANCH   3   4
ATOM      4  C   UNL     1      -4.429  13.917  21.426  1.00  0.00     0.000 C 
BRANCH   4   5
ATOM      5  C   UNL     1      -3.636  15.191  21.082  1.00  0.00     0.000 C 
BRANCH   5   6
ATOM      6  C   UNL     1      -4.502  16.461  21.127  1.00  0.00     0.000 C 
BRANCH   6   7
ATOM      7  C   UNL     1      -5.532  16.516  19.981  1.00  0.00     0.006 C 
BRANCH   7   8
ATOM      8  C   UNL     1      -6.844  17.224  20.362  1.00  0.00     0.053 C 
BRANCH   8   9
ATOM      9  C   UNL     1      -8.050  16.392  20.052  1.00  0.00     0.041 C 
ATOM     10  O   UNL     1      -9.205  16.882  20.167  1.00  0.00    -0.550 OA
ATOM     11  O   UNL     1      -7.900  15.070  19.644  1.00  0.00    -0.550 OA
ENDBRANCH   8   9
ENDBRANCH   7   8
ENDBRANCH   6   7
ENDBRANCH   5   6
ENDBRANCH   4   5
ENDBRANCH   3   4
ENDBRANCH   2   3
ENDBRANCH   1   2
BRANCH   1  12
ATOM     12  C   UNL     1      -1.008  12.752  18.643  1.00  0.00     0.000 C 
BRANCH  12  13
ATOM     13  C   UNL     1      -0.279  14.059  18.305  1.00  0.00    -0.000 C 
BRANCH  13  14
ATOM     14  C   UNL     1      -0.943  15.254  19.005  1.00  0.00    -0.000 C 
BRANCH  14  15
ATOM     15  C   UNL     1      -0.086  15.822  20.148  1.00  0.00    -0.000 C 
BRANCH  15  16
ATOM     16  C   UNL     1       0.076  17.349  20.065  1.00  0.00    -0.000 C 
BRANCH  16  17
ATOM     17  C   UNL     1      -0.996  18.060  20.900  1.00  0.00    -0.000 C 
BRANCH  17  18
ATOM     18  C   UNL     1      -1.030  19.563  20.587  1.00  0.00    -0.000 C 
BRANCH  18  19
ATOM     19  C   UNL     1      -0.215  20.393  21.591  1.00  0.00    -0.003 C 
ATOM     20  C   UNL     1      -0.960  21.640  22.073  1.00  0.00     0.004 C 
ENDBRANCH  18  19
ENDBRANCH  17  18
ENDBRANCH  16  17
ENDBRANCH  15  16
ENDBRANCH  14  15
ENDBRANCH  13  14
ENDBRANCH  12  13
ENDBRANCH   1  12
TORSDOF 16
ENDMDL
MODEL 8
REMARK VINA RESULT:    21.229     12.097     14.275
REMARK INTER + INTRA:          40.409
REMARK INTER:                  41.749
REMARK INTRA:                  -1.340
REMARK UNBOUND:                -0.676
REMARK SMILES CCCCCCCCCCCCCCCCCC(=O)[O-]
REMARK SMILES IDX 10 1 11 2 12 3 13 4 14 5 15 6 16 7 17 8 18 9 19 10 20 11
REMARK SMILES IDX 9 12 8 13 7 14 6 15 5 16 4 17 3 18 2 19 1 20
REMARK H PARENT
REMARK Flexibility Score: inf
ROOT
ATOM      1  C   UNL     1      -1.865  12.749  19.572  1.00  0.00     0.000 C 
ENDROOT
BRANCH   1   2
ATOM      2  C   UNL     1      -1.041  13.285  18.388  1.00  0.00     0.000 C 
BRANCH   2   3
ATOM      3  C   UNL     1      -0.713  14.790  18.452  1.00  0.00     0.000 C 
BRANCH   3   4
ATOM      4  C   UNL     1      -0.398  15.334  19.861  1.00  0.00     0.000 C 
BRANCH   4   5
ATOM      5  C   UNL     1       0.072  16.799  19.903  1.00  0.00     0.000 C 
BRANCH   5   6
ATOM      6  C   UNL     1      -0.920  17.723  20.629  1.00  0.00     0.000 C 
BRANCH   6   7
ATOM      7  C   UNL     1      -0.497  19.205  20.575  1.00  0.00     0.006 C 
BRANCH   7   8
ATOM      8  C   UNL     1      -1.533  20.165  21.185  1.00  0.00     0.053 C 
BRANCH   8   9
ATOM      9  C   UNL     1      -0.892  21.304  21.916  1.00  0.00     0.041 C 
ATOM     10  O   UNL     1      -1.602  22.216  22.419  1.00  0.00    -0.550 OA
ATOM     11  O   UNL     1       0.493  21.365  22.035  1.00  0.00    -0.550 OA
ENDBRANCH   8   9
ENDBRANCH   7   8
ENDBRANCH   6   7
ENDBRANCH   5   6
ENDBRANCH   4   5
ENDBRANCH   3   4
ENDBRANCH   2   3
ENDBRANCH   1   2
BRANCH   1  12
ATOM     12  C   UNL     1      -3.261  12.261  19.154  1.00  0.00     0.000 C 
BRANCH  12  13
ATOM     13  C   UNL     1      -4.308  12.613  20.218  1.00  0.00    -0.000 C 
BRANCH  13  14
ATOM     14  C   UNL     1      -3.906  13.883  20.984  1.00  0.00    -0.000 C 
BRANCH  14  15
ATOM     15  C   UNL     1      -4.391  15.170  20.297  1.00  0.00    -0.000 C 
BRANCH  15  16
ATOM     16  C   UNL     1      -4.300  16.401  21.212  1.00  0.00    -0.000 C 
BRANCH  16  17
ATOM     17  C   UNL     1      -5.494  17.338  20.990  1.00  0.00    -0.000 C 
BRANCH  17  18
ATOM     18  C   UNL     1      -6.340  16.879  19.794  1.00  0.00    -0.000 C 
BRANCH  18  19
ATOM     19  C   UNL     1      -7.603  16.117  20.223  1.00  0.00    -0.003 C 
ATOM     20  C   UNL     1      -8.888  16.905  19.963  1.00  0.00     0.004 C 
ENDBRANCH  18  19
ENDBRANCH  17  18
ENDBRANCH  16  17
ENDBRANCH  15  16
ENDBRANCH  14  15
ENDBRANCH  13  14
ENDBRANCH  12  13
ENDBRANCH   1  12
TORSDOF 16
ENDMDL
MODEL 9
REMARK VINA RESULT:    21.274     12.055     14.589
REMARK INTER + INTRA:          40.497
REMARK INTER:                  41.485
REMARK INTRA:                  -0.988
REMARK UNBOUND:                -0.676
REMARK SMILES CCCCCCCCCCCCCCCCCC(=O)[O-]
REMARK SMILES IDX 10 1 11 2 12 3 13 4 14 5 15 6 16 7 17 8 18 9 19 10 20 11
REMARK SMILES IDX 9 12 8 13 7 14 6 15 5 16 4 17 3 18 2 19 1 20
REMARK H PARENT
REMARK Flexibility Score: inf
ROOT
ATOM      1  C   UNL     1      -1.346  13.342  18.268  1.00  0.00     0.000 C 
ENDROOT
BRANCH   1   2
ATOM      2  C   UNL     1      -0.326  14.465  18.524  1.00  0.00     0.000 C 
BRANCH   2   3
ATOM      3  C   UNL     1      -0.503  15.213  19.861  1.00  0.00     0.000 C 
BRANCH   3   4
ATOM      4  C   UNL     1       0.088  16.638  19.899  1.00  0.00     0.000 C 
BRANCH   4   5
ATOM      5  C   UNL     1      -0.700  17.646  20.755  1.00  0.00     0.000 C 
BRANCH   5   6
ATOM      6  C   UNL     1      -0.589  19.088  20.229  1.00  0.00     0.000 C 
BRANCH   6   7
ATOM      7  C   UNL     1      -1.305  20.106  21.139  1.00  0.00     0.006 C 
BRANCH   7   8
ATOM      8  C   UNL     1      -0.350  20.903  22.044  1.00  0.00     0.053 C 
BRANCH   8   9
ATOM      9  C   UNL     1      -0.927  22.222  22.459  1.00  0.00     0.041 C 
ATOM     10  O   UNL     1      -2.149  22.316  22.753  1.00  0.00    -0.550 OA
ATOM     11  O   UNL     1      -0.118  23.352  22.510  1.00  0.00    -0.550 OA
ENDBRANCH   8   9
ENDBRANCH   7   8
ENDBRANCH   6   7
ENDBRANCH   5   6
ENDBRANCH   4   5
ENDBRANCH   3   4
ENDBRANCH   2   3
ENDBRANCH   1   2
BRANCH   1  12
ATOM     12  C   UNL     1      -1.719  12.574  19.546  1.00  0.00     0.000 C 
BRANCH  12  13
ATOM     13  C   UNL     1      -3.083  11.888  19.396  1.00  0.00    -0.000 C 
BRANCH  13  14
ATOM     14  C   UNL     1      -4.200  12.751  20.002  1.00  0.00    -0.000 C 
BRANCH  14  15
ATOM     15  C   UNL     1      -3.672  14.054  20.624  1.00  0.00    -0.000 C 
BRANCH  15  16
ATOM     16  C   UNL     1      -4.795  14.940  21.186  1.00  0.00    -0.000 C 
BRANCH  16  17
ATOM     17  C   UNL     1      -4.609  16.401  20.756  1.00  0.00    -0.000 C 
BRANCH  17  18
ATOM     18  C   UNL     1      -5.962  17.117  20.638  1.00  0.00    -0.000 C 
BRANCH  18  19
ATOM     19  C   UNL     1      -7.062  16.211  20.065  1.00  0.00    -0.003 C 
ATOM     20  C   UNL     1      -8.439  16.876  20.066  1.00  0.00     0.004 C 
ENDBRANCH  18  19
ENDBRANCH  17  18
ENDBRANCH  16  17
ENDBRANCH  15  16
ENDBRANCH  14  15
ENDBRANCH  13  14
ENDBRANCH  12  13
ENDBRANCH   1  12
TORSDOF 16
ENDMDL
