MODEL 1
REMARK VINA RESULT:    -4.339      0.000      0.000
REMARK INTER + INTRA:         -10.231
REMARK INTER:                  -8.398
REMARK INTRA:                  -1.833
REMARK UNBOUND:                -1.833
REMARK SMILES CCCCCCCCCCCCCCCCCC(=O)[O-]
REMARK SMILES IDX 10 1 11 2 12 3 13 4 14 5 15 6 16 7 17 8 18 9 19 10 20 11
REMARK SMILES IDX 9 12 8 13 7 14 6 15 5 16 4 17 3 18 2 19 1 20
REMARK H PARENT
REMARK Flexibility Score: inf
ROOT
ATOM      1  C   UNL     1       8.990   5.078  -0.417  1.00  0.00     0.000 C 
ENDROOT
BRANCH   1   2
ATOM      2  C   UNL     1       9.251   6.046   0.751  1.00  0.00     0.000 C 
BRANCH   2   3
ATOM      3  C   UNL     1       9.756   7.425   0.274  1.00  0.00     0.000 C 
BRANCH   3   4
ATOM      4  C   UNL     1       8.907   8.606   0.780  1.00  0.00     0.000 C 
BRANCH   4   5
ATOM      5  C   UNL     1       8.297   9.493  -0.322  1.00  0.00     0.000 C 
BRANCH   5   6
ATOM      6  C   UNL     1       7.887   8.746  -1.605  1.00  0.00     0.000 C 
BRANCH   6   7
ATOM      7  C   UNL     1       6.387   8.860  -1.912  1.00  0.00     0.006 C 
BRANCH   7   8
ATOM      8  C   UNL     1       5.843  10.228  -1.488  1.00  0.00     0.053 C 
BRANCH   8   9
ATOM      9  C   UNL     1       4.372  10.309  -1.745  1.00  0.00     0.041 C 
ATOM     10  O   UNL     1       3.552  10.047  -0.827  1.00  0.00    -0.550 OA
ATOM     11  O   UNL     1       3.904  10.627  -3.014  1.00  0.00    -0.550 OA
ENDBRANCH   8   9
ENDBRANCH   7   8
ENDBRANCH   6   7
ENDBRANCH   5   6
ENDBRANCH   4   5
ENDBRANCH   3   4
ENDBRANCH   2   3
ENDBRANCH   1   2
BRANCH   1  12
ATOM     12  C   UNL     1       7.523   5.087  -0.875  1.00  0.00     0.000 C 
BRANCH  12  13
ATOM     13  C   UNL     1       7.386   5.165  -2.406  1.00  0.00    -0.000 C 
BRANCH  13  14
ATOM     14  C   UNL     1       8.717   5.482  -3.111  1.00  0.00    -0.000 C 
BRANCH  14  15
ATOM     15  C   UNL     1       8.587   6.274  -4.425  1.00  0.00    -0.000 C 
BRANCH  15  16
ATOM     16  C   UNL     1       7.739   5.548  -5.481  1.00  0.00    -0.000 C 
BRANCH  16  17
ATOM     17  C   UNL     1       8.632   4.803  -6.484  1.00  0.00    -0.000 C 
BRANCH  17  18
ATOM     18  C   UNL     1       8.368   5.213  -7.944  1.00  0.00    -0.000 C 
BRANCH  18  19
ATOM     19  C   UNL     1       7.207   6.206  -8.136  1.00  0.00    -0.003 C 
ATOM     20  C   UNL     1       7.541   7.332  -9.112  1.00  0.00     0.004 C 
ENDBRANCH  18  19
ENDBRANCH  17  18
ENDBRANCH  16  17
ENDBRANCH  15  16
ENDBRANCH  14  15
ENDBRANCH  13  14
ENDBRANCH  12  13
ENDBRANCH   1  12
TORSDOF 16
ENDMDL
MODEL 2
REMARK VINA RESULT:    -4.254      3.128      6.900
REMARK INTER + INTRA:         -10.066
REMARK INTER:                  -7.734
REMARK INTRA:                  -2.333
REMARK UNBOUND:                -1.833
REMARK SMILES CCCCCCCCCCCCCCCCCC(=O)[O-]
REMARK SMILES IDX 10 1 11 2 12 3 13 4 14 5 15 6 16 7 17 8 18 9 19 10 20 11
REMARK SMILES IDX 9 12 8 13 7 14 6 15 5 16 4 17 3 18 2 19 1 20
REMARK H PARENT
REMARK Flexibility Score: inf
ROOT
ATOM      1  C   UNL     1       6.625   6.126  -2.937  1.00  0.00     0.000 C 
ENDROOT
BRANCH   1   2
ATOM      2  C   UNL     1       7.080   7.191  -1.922  1.00  0.00     0.000 C 
BRANCH   2   3
ATOM      3  C   UNL     1       7.962   8.282  -2.567  1.00  0.00     0.000 C 
BRANCH   3   4
ATOM      4  C   UNL     1       9.387   7.809  -2.906  1.00  0.00     0.000 C 
BRANCH   4   5
ATOM      5  C   UNL     1       9.622   7.448  -4.385  1.00  0.00     0.000 C 
BRANCH   5   6
ATOM      6  C   UNL     1      10.156   6.023  -4.630  1.00  0.00     0.000 C 
BRANCH   6   7
ATOM      7  C   UNL     1       9.382   5.273  -5.723  1.00  0.00     0.006 C 
BRANCH   7   8
ATOM      8  C   UNL     1       8.164   6.080  -6.183  1.00  0.00     0.053 C 
BRANCH   8   9
ATOM      9  C   UNL     1       7.642   5.546  -7.480  1.00  0.00     0.041 C 
ATOM     10  O   UNL     1       7.919   4.372  -7.840  1.00  0.00    -0.550 OA
ATOM     11  O   UNL     1       6.890   6.362  -8.315  1.00  0.00    -0.550 OA
ENDBRANCH   8   9
ENDBRANCH   7   8
ENDBRANCH   6   7
ENDBRANCH   5   6
ENDBRANCH   4   5
ENDBRANCH   3   4
ENDBRANCH   2   3
ENDBRANCH   1   2
BRANCH   1  12
ATOM     12  C   UNL     1       7.261   4.751  -2.675  1.00  0.00     0.000 C 
BRANCH  12  13
ATOM     13  C   UNL     1       7.764   4.602  -1.228  1.00  0.00    -0.000 C 
BRANCH  13  14
ATOM     14  C   UNL     1       9.280   4.343  -1.145  1.00  0.00    -0.000 C 
BRANCH  14  15
ATOM     15  C   UNL     1      10.041   5.238  -0.151  1.00  0.00    -0.000 C 
BRANCH  15  16
ATOM     16  C   UNL     1       9.110   6.032   0.777  1.00  0.00    -0.000 C 
BRANCH  16  17
ATOM     17  C   UNL     1       9.481   5.807   2.250  1.00  0.00    -0.000 C 
BRANCH  17  18
ATOM     18  C   UNL     1       9.469   7.105   3.078  1.00  0.00    -0.000 C 
BRANCH  18  19
ATOM     19  C   UNL     1       9.145   8.378   2.276  1.00  0.00    -0.003 C 
ATOM     20  C   UNL     1       9.019   9.621   3.156  1.00  0.00     0.004 C 
ENDBRANCH  18  19
ENDBRANCH  17  18
ENDBRANCH  16  17
ENDBRANCH  15  16
ENDBRANCH  14  15
ENDBRANCH  13  14
ENDBRANCH  12  13
ENDBRANCH   1  12
TORSDOF 16
ENDMDL
MODEL 3
REMARK VINA RESULT:    -4.192     14.264     16.266
REMARK INTER + INTRA:          -9.945
REMARK INTER:                  -7.350
REMARK INTRA:                  -2.596
REMARK UNBOUND:                -1.833
REMARK SMILES CCCCCCCCCCCCCCCCCC(=O)[O-]
REMARK SMILES IDX 10 1 11 2 12 3 13 4 14 5 15 6 16 7 17 8 18 9 19 10 20 11
REMARK SMILES IDX 9 12 8 13 7 14 6 15 5 16 4 17 3 18 2 19 1 20
REMARK H PARENT
REMARK Flexibility Score: inf
ROOT
ATOM      1  C   UNL     1      -0.197  -5.602  -6.351  1.00  0.00     0.000 C 
ENDROOT
BRANCH   1   2
ATOM      2  C   UNL     1       0.189  -7.037  -6.750  1.00  0.00     0.000 C 
BRANCH   2   3
ATOM      3  C   UNL     1      -0.626  -7.554  -7.955  1.00  0.00     0.000 C 
BRANCH   3   4
ATOM      4  C   UNL     1      -1.501  -6.476  -8.621  1.00  0.00     0.000 C 
BRANCH   4   5
ATOM      5  C   UNL     1      -3.012  -6.777  -8.635  1.00  0.00     0.000 C 
BRANCH   5   6
ATOM      6  C   UNL     1      -3.921  -5.537  -8.731  1.00  0.00     0.000 C 
BRANCH   6   7
ATOM      7  C   UNL     1      -3.822  -4.625  -7.501  1.00  0.00     0.006 C 
BRANCH   7   8
ATOM      8  C   UNL     1      -5.022  -3.676  -7.423  1.00  0.00     0.053 C 
BRANCH   8   9
ATOM      9  C   UNL     1      -5.918  -4.057  -6.286  1.00  0.00     0.041 C 
ATOM     10  O   UNL     1      -6.449  -3.167  -5.572  1.00  0.00    -0.550 OA
ATOM     11  O   UNL     1      -6.128  -5.396  -5.985  1.00  0.00    -0.550 OA
ENDBRANCH   8   9
ENDBRANCH   7   8
ENDBRANCH   6   7
ENDBRANCH   5   6
ENDBRANCH   4   5
ENDBRANCH   3   4
ENDBRANCH   2   3
ENDBRANCH   1   2
BRANCH   1  12
ATOM     12  C   UNL     1       0.987  -4.625  -6.440  1.00  0.00     0.000 C 
BRANCH  12  13
ATOM     13  C   UNL     1       2.130  -5.166  -7.316  1.00  0.00    -0.000 C 
BRANCH  13  14
ATOM     14  C   UNL     1       2.036  -4.699  -8.780  1.00  0.00    -0.000 C 
BRANCH  14  15
ATOM     15  C   UNL     1       1.220  -3.413  -9.004  1.00  0.00    -0.000 C 
BRANCH  15  16
ATOM     16  C   UNL     1       0.072  -3.599 -10.007  1.00  0.00    -0.000 C 
BRANCH  16  17
ATOM     17  C   UNL     1      -1.200  -2.887  -9.524  1.00  0.00    -0.000 C 
BRANCH  17  18
ATOM     18  C   UNL     1      -1.017  -2.184  -8.166  1.00  0.00    -0.000 C 
BRANCH  18  19
ATOM     19  C   UNL     1      -1.250  -0.663  -8.190  1.00  0.00    -0.003 C 
ATOM     20  C   UNL     1      -1.767  -0.159  -9.536  1.00  0.00     0.004 C 
ENDBRANCH  18  19
ENDBRANCH  17  18
ENDBRANCH  16  17
ENDBRANCH  15  16
ENDBRANCH  14  15
ENDBRANCH  13  14
ENDBRANCH  12  13
ENDBRANCH   1  12
TORSDOF 16
ENDMDL
MODEL 4
REMARK VINA RESULT:    -4.182      0.948      1.617
REMARK INTER + INTRA:          -9.926
REMARK INTER:                  -8.381
REMARK INTRA:                  -1.545
REMARK UNBOUND:                -1.833
REMARK SMILES CCCCCCCCCCCCCCCCCC(=O)[O-]
REMARK SMILES IDX 10 1 11 2 12 3 13 4 14 5 15 6 16 7 17 8 18 9 19 10 20 11
REMARK SMILES IDX 9 12 8 13 7 14 6 15 5 16 4 17 3 18 2 19 1 20
REMARK H PARENT
REMARK Flexibility Score: inf
ROOT
ATOM      1  C   UNL     1       9.335   5.313   0.404  1.00  0.00     0.000 C 
ENDROOT
BRANCH   1   2
ATOM      2  C   UNL     1       9.961   6.716   0.321  1.00  0.00     0.000 C 
BRANCH   2   3
ATOM      3  C   UNL     1       9.278   7.724   1.271  1.00  0.00     0.000 C 
BRANCH   3   4
ATOM      4  C   UNL     1       8.883   9.049   0.591  1.00  0.00     0.000 C 
BRANCH   4   5
ATOM      5  C   UNL     1       8.075   8.899  -0.711  1.00  0.00     0.000 C 
BRANCH   5   6
ATOM      6  C   UNL     1       7.156  10.090  -1.047  1.00  0.00     0.000 C 
BRANCH   6   7
ATOM      7  C   UNL     1       6.185   9.792  -2.198  1.00  0.00     0.006 C 
BRANCH   7   8
ATOM      8  C   UNL     1       5.258  10.983  -2.456  1.00  0.00     0.053 C 
BRANCH   8   9
ATOM      9  C   UNL     1       3.866  10.670  -2.005  1.00  0.00     0.041 C 
ATOM     10  O   UNL     1       2.878  11.048  -2.688  1.00  0.00    -0.550 OA
ATOM     11  O   UNL     1       3.657  10.002  -0.805  1.00  0.00    -0.550 OA
ENDBRANCH   8   9
ENDBRANCH   7   8
ENDBRANCH   6   7
ENDBRANCH   5   6
ENDBRANCH   4   5
ENDBRANCH   3   4
ENDBRANCH   2   3
ENDBRANCH   1   2
BRANCH   1  12
ATOM     12  C   UNL     1       9.104   4.686  -0.980  1.00  0.00     0.000 C 
BRANCH  12  13
ATOM     13  C   UNL     1       7.638   4.791  -1.436  1.00  0.00    -0.000 C 
BRANCH  13  14
ATOM     14  C   UNL     1       7.457   5.699  -2.666  1.00  0.00    -0.000 C 
BRANCH  14  15
ATOM     15  C   UNL     1       8.755   6.302  -3.230  1.00  0.00    -0.000 C 
BRANCH  15  16
ATOM     16  C   UNL     1       8.661   6.637  -4.726  1.00  0.00    -0.000 C 
BRANCH  16  17
ATOM     17  C   UNL     1       7.832   5.581  -5.474  1.00  0.00    -0.000 C 
BRANCH  17  18
ATOM     18  C   UNL     1       7.486   5.999  -6.914  1.00  0.00    -0.000 C 
BRANCH  18  19
ATOM     19  C   UNL     1       8.334   5.320  -8.005  1.00  0.00    -0.003 C 
ATOM     20  C   UNL     1       9.023   4.046  -7.519  1.00  0.00     0.004 C 
ENDBRANCH  18  19
ENDBRANCH  17  18
ENDBRANCH  16  17
ENDBRANCH  15  16
ENDBRANCH  14  15
ENDBRANCH  13  14
ENDBRANCH  12  13
ENDBRANCH   1  12
TORSDOF 16
ENDMDL
MODEL 5
REMARK VINA RESULT:    -4.128      2.907      6.927
REMARK INTER + INTRA:          -9.821
REMARK INTER:                  -7.770
REMARK INTRA:                  -2.051
REMARK UNBOUND:                -1.833
REMARK SMILES CCCCCCCCCCCCCCCCCC(=O)[O-]
REMARK SMILES IDX 10 1 11 2 12 3 13 4 14 5 15 6 16 7 17 8 18 9 19 10 20 11
REMARK SMILES IDX 9 12 8 13 7 14 6 15 5 16 4 17 3 18 2 19 1 20
REMARK H PARENT
REMARK Flexibility Score: inf
ROOT
ATOM      1  C   UNL     1       7.454   6.202  -1.369  1.00  0.00     0.000 C 
ENDROOT
BRANCH   1   2
ATOM      2  C   UNL     1       7.775   4.757  -1.793  1.00  0.00     0.000 C 
BRANCH   2   3
ATOM      3  C   UNL     1       9.190   4.316  -1.358  1.00  0.00     0.000 C 
BRANCH   3   4
ATOM      4  C   UNL     1      10.313   5.232  -1.878  1.00  0.00     0.000 C 
BRANCH   4   5
ATOM      5  C   UNL     1      10.681   5.039  -3.362  1.00  0.00     0.000 C 
BRANCH   5   6
ATOM      6  C   UNL     1       9.984   6.008  -4.336  1.00  0.00     0.000 C 
BRANCH   6   7
ATOM      7  C   UNL     1       9.504   5.323  -5.622  1.00  0.00     0.006 C 
BRANCH   7   8
ATOM      8  C   UNL     1       8.026   5.628  -5.887  1.00  0.00     0.053 C 
BRANCH   8   9
ATOM      9  C   UNL     1       7.685   5.360  -7.319  1.00  0.00     0.041 C 
ATOM     10  O   UNL     1       8.063   4.295  -7.872  1.00  0.00    -0.550 OA
ATOM     11  O   UNL     1       6.990   6.309  -8.057  1.00  0.00    -0.550 OA
ENDBRANCH   8   9
ENDBRANCH   7   8
ENDBRANCH   6   7
ENDBRANCH   5   6
ENDBRANCH   4   5
ENDBRANCH   3   4
ENDBRANCH   2   3
ENDBRANCH   1   2
BRANCH   1  12
ATOM     12  C   UNL     1       6.952   7.062  -2.539  1.00  0.00     0.000 C 
BRANCH  12  13
ATOM     13  C   UNL     1       7.390   8.533  -2.418  1.00  0.00    -0.000 C 
BRANCH  13  14
ATOM     14  C   UNL     1       6.272   9.450  -1.890  1.00  0.00    -0.000 C 
BRANCH  14  15
ATOM     15  C   UNL     1       6.677  10.366  -0.722  1.00  0.00    -0.000 C 
BRANCH  15  16
ATOM     16  C   UNL     1       8.199  10.458  -0.532  1.00  0.00    -0.000 C 
BRANCH  16  17
ATOM     17  C   UNL     1       8.618   9.874   0.826  1.00  0.00    -0.000 C 
BRANCH  17  18
ATOM     18  C   UNL     1       9.366   8.535   0.698  1.00  0.00    -0.000 C 
BRANCH  18  19
ATOM     19  C   UNL     1       9.205   7.588   1.902  1.00  0.00    -0.003 C 
ATOM     20  C   UNL     1       9.175   8.324   3.240  1.00  0.00     0.004 C 
ENDBRANCH  18  19
ENDBRANCH  17  18
ENDBRANCH  16  17
ENDBRANCH  15  16
ENDBRANCH  14  15
ENDBRANCH  13  14
ENDBRANCH  12  13
ENDBRANCH   1  12
TORSDOF 16
ENDMDL
MODEL 6
REMARK VINA RESULT:    -4.114      3.482      6.687
REMARK INTER + INTRA:          -9.795
REMARK INTER:                  -8.189
REMARK INTRA:                  -1.607
REMARK UNBOUND:                -1.833
REMARK SMILES CCCCCCCCCCCCCCCCCC(=O)[O-]
REMARK SMILES IDX 10 1 11 2 12 3 13 4 14 5 15 6 16 7 17 8 18 9 19 10 20 11
REMARK SMILES IDX 9 12 8 13 7 14 6 15 5 16 4 17 3 18 2 19 1 20
REMARK H PARENT
REMARK Flexibility Score: inf
ROOT
ATOM      1  C   UNL     1       8.793   5.152  -0.046  1.00  0.00     0.000 C 
ENDROOT
BRANCH   1   2
ATOM      2  C   UNL     1       7.815   4.441  -0.997  1.00  0.00     0.000 C 
BRANCH   2   3
ATOM      3  C   UNL     1       6.997   5.434  -1.852  1.00  0.00     0.000 C 
BRANCH   3   4
ATOM      4  C   UNL     1       7.041   5.135  -3.363  1.00  0.00     0.000 C 
BRANCH   4   5
ATOM      5  C   UNL     1       7.884   6.117  -4.199  1.00  0.00     0.000 C 
BRANCH   5   6
ATOM      6  C   UNL     1       8.435   5.541  -5.518  1.00  0.00     0.000 C 
BRANCH   6   7
ATOM      7  C   UNL     1       7.862   6.235  -6.761  1.00  0.00     0.006 C 
BRANCH   7   8
ATOM      8  C   UNL     1       7.574   5.221  -7.872  1.00  0.00     0.053 C 
BRANCH   8   9
ATOM      9  C   UNL     1       8.831   4.519  -8.278  1.00  0.00     0.041 C 
ATOM     10  O   UNL     1       8.876   3.261  -8.297  1.00  0.00    -0.550 OA
ATOM     11  O   UNL     1       9.968   5.253  -8.590  1.00  0.00    -0.550 OA
ENDBRANCH   8   9
ENDBRANCH   7   8
ENDBRANCH   6   7
ENDBRANCH   5   6
ENDBRANCH   4   5
ENDBRANCH   3   4
ENDBRANCH   2   3
ENDBRANCH   1   2
BRANCH   1  12
ATOM     12  C   UNL     1       9.446   6.388  -0.685  1.00  0.00     0.000 C 
BRANCH  12  13
ATOM     13  C   UNL     1       9.136   7.682   0.087  1.00  0.00    -0.000 C 
BRANCH  13  14
ATOM     14  C   UNL     1       9.341   8.950  -0.761  1.00  0.00    -0.000 C 
BRANCH  14  15
ATOM     15  C   UNL     1       8.525   9.003  -2.065  1.00  0.00    -0.000 C 
BRANCH  15  16
ATOM     16  C   UNL     1       7.014   9.140  -1.822  1.00  0.00    -0.000 C 
BRANCH  16  17
ATOM     17  C   UNL     1       6.706  10.380  -0.969  1.00  0.00    -0.000 C 
BRANCH  17  18
ATOM     18  C   UNL     1       5.206  10.723  -0.926  1.00  0.00    -0.000 C 
BRANCH  18  19
ATOM     19  C   UNL     1       4.330   9.908  -1.896  1.00  0.00    -0.003 C 
ATOM     20  C   UNL     1       3.579  10.781  -2.899  1.00  0.00     0.004 C 
ENDBRANCH  18  19
ENDBRANCH  17  18
ENDBRANCH  16  17
ENDBRANCH  15  16
ENDBRANCH  14  15
ENDBRANCH  13  14
ENDBRANCH  12  13
ENDBRANCH   1  12
TORSDOF 16
ENDMDL
MODEL 7
REMARK VINA RESULT:    -4.092      5.564     10.252
REMARK INTER + INTRA:          -9.753
REMARK INTER:                  -8.693
REMARK INTRA:                  -1.060
REMARK UNBOUND:                -1.833
REMARK SMILES CCCCCCCCCCCCCCCCCC(=O)[O-]
REMARK SMILES IDX 10 1 11 2 12 3 13 4 14 5 15 6 16 7 17 8 18 9 19 10 20 11
REMARK SMILES IDX 9 12 8 13 7 14 6 15 5 16 4 17 3 18 2 19 1 20
REMARK H PARENT
REMARK Flexibility Score: inf
ROOT
ATOM      1  C   UNL     1       9.246   8.616   4.649  1.00  0.00     0.000 C 
ENDROOT
BRANCH   1   2
ATOM      2  C   UNL     1       9.561   8.486   3.148  1.00  0.00     0.000 C 
BRANCH   2   3
ATOM      3  C   UNL     1       9.313   7.058   2.614  1.00  0.00     0.000 C 
BRANCH   3   4
ATOM      4  C   UNL     1       9.296   6.965   1.077  1.00  0.00     0.000 C 
BRANCH   4   5
ATOM      5  C   UNL     1       9.307   5.533   0.509  1.00  0.00     0.000 C 
BRANCH   5   6
ATOM      6  C   UNL     1       8.016   5.113  -0.221  1.00  0.00     0.000 C 
BRANCH   6   7
ATOM      7  C   UNL     1       8.285   4.304  -1.497  1.00  0.00     0.006 C 
BRANCH   7   8
ATOM      8  C   UNL     1       8.520   5.231  -2.694  1.00  0.00     0.053 C 
BRANCH   8   9
ATOM      9  C   UNL     1       7.304   5.281  -3.564  1.00  0.00     0.041 C 
ATOM     10  O   UNL     1       6.237   4.724  -3.195  1.00  0.00    -0.550 OA
ATOM     11  O   UNL     1       7.362   5.902  -4.805  1.00  0.00    -0.550 OA
ENDBRANCH   8   9
ENDBRANCH   7   8
ENDBRANCH   6   7
ENDBRANCH   5   6
ENDBRANCH   4   5
ENDBRANCH   3   4
ENDBRANCH   2   3
ENDBRANCH   1   2
BRANCH   1  12
ATOM     12  C   UNL     1       8.519   9.927   4.988  1.00  0.00     0.000 C 
BRANCH  12  13
ATOM     13  C   UNL     1       7.945   9.928   6.416  1.00  0.00    -0.000 C 
BRANCH  13  14
ATOM     14  C   UNL     1       6.549  10.573   6.501  1.00  0.00    -0.000 C 
BRANCH  14  15
ATOM     15  C   UNL     1       5.769  10.273   7.793  1.00  0.00    -0.000 C 
BRANCH  15  16
ATOM     16  C   UNL     1       6.623   9.568   8.859  1.00  0.00    -0.000 C 
BRANCH  16  17
ATOM     17  C   UNL     1       5.935   8.285   9.351  1.00  0.00    -0.000 C 
BRANCH  17  18
ATOM     18  C   UNL     1       6.855   7.052   9.297  1.00  0.00    -0.000 C 
BRANCH  18  19
ATOM     19  C   UNL     1       8.334   7.362   9.002  1.00  0.00    -0.003 C 
ATOM     20  C   UNL     1       8.879   6.587   7.804  1.00  0.00     0.004 C 
ENDBRANCH  18  19
ENDBRANCH  17  18
ENDBRANCH  16  17
ENDBRANCH  15  16
ENDBRANCH  14  15
ENDBRANCH  13  14
ENDBRANCH  12  13
ENDBRANCH   1  12
TORSDOF 16
ENDMDL
MODEL 8
REMARK VINA RESULT:    -4.011      2.655      6.215
REMARK INTER + INTRA:          -9.596
REMARK INTER:                  -7.114
REMARK INTRA:                  -2.482
REMARK UNBOUND:                -1.833
REMARK SMILES CCCCCCCCCCCCCCCCCC(=O)[O-]
REMARK SMILES IDX 10 1 11 2 12 3 13 4 14 5 15 6 16 7 17 8 18 9 19 10 20 11
REMARK SMILES IDX 9 12 8 13 7 14 6 15 5 16 4 17 3 18 2 19 1 20
REMARK H PARENT
REMARK Flexibility Score: inf
ROOT
ATOM      1  C   UNL     1       7.928   4.730  -0.745  1.00  0.00     0.000 C 
ENDROOT
BRANCH   1   2
ATOM      2  C   UNL     1       7.290   5.177  -2.072  1.00  0.00     0.000 C 
BRANCH   2   3
ATOM      3  C   UNL     1       7.216   6.714  -2.204  1.00  0.00     0.000 C 
BRANCH   3   4
ATOM      4  C   UNL     1       7.855   7.258  -3.495  1.00  0.00     0.000 C 
BRANCH   4   5
ATOM      5  C   UNL     1       9.375   7.497  -3.421  1.00  0.00     0.000 C 
BRANCH   5   6
ATOM      6  C   UNL     1      10.203   6.753  -4.487  1.00  0.00     0.000 C 
BRANCH   6   7
ATOM      7  C   UNL     1       9.526   5.468  -4.982  1.00  0.00     0.006 C 
BRANCH   7   8
ATOM      8  C   UNL     1       9.588   5.369  -6.509  1.00  0.00     0.053 C 
BRANCH   8   9
ATOM      9  C   UNL     1       8.211   5.414  -7.093  1.00  0.00     0.041 C 
ATOM     10  O   UNL     1       7.762   4.429  -7.736  1.00  0.00    -0.550 OA
ATOM     11  O   UNL     1       7.440   6.562  -6.968  1.00  0.00    -0.550 OA
ENDBRANCH   8   9
ENDBRANCH   7   8
ENDBRANCH   6   7
ENDBRANCH   5   6
ENDBRANCH   4   5
ENDBRANCH   3   4
ENDBRANCH   2   3
ENDBRANCH   1   2
BRANCH   1  12
ATOM     12  C   UNL     1       9.439   5.008  -0.694  1.00  0.00     0.000 C 
BRANCH  12  13
ATOM     13  C   UNL     1       9.919   5.386   0.719  1.00  0.00    -0.000 C 
BRANCH  13  14
ATOM     14  C   UNL     1       9.347   6.730   1.206  1.00  0.00    -0.000 C 
BRANCH  14  15
ATOM     15  C   UNL     1       9.652   7.936   0.300  1.00  0.00    -0.000 C 
BRANCH  15  16
ATOM     16  C   UNL     1       8.740   9.140   0.578  1.00  0.00    -0.000 C 
BRANCH  16  17
ATOM     17  C   UNL     1       8.378   9.867  -0.727  1.00  0.00    -0.000 C 
BRANCH  17  18
ATOM     18  C   UNL     1       7.017  10.583  -0.658  1.00  0.00    -0.000 C 
BRANCH  18  19
ATOM     19  C   UNL     1       6.114  10.373  -1.887  1.00  0.00    -0.003 C 
ATOM     20  C   UNL     1       4.727   9.845  -1.526  1.00  0.00     0.004 C 
ENDBRANCH  18  19
ENDBRANCH  17  18
ENDBRANCH  16  17
ENDBRANCH  15  16
ENDBRANCH  14  15
ENDBRANCH  13  14
ENDBRANCH  12  13
ENDBRANCH   1  12
TORSDOF 16
ENDMDL
