MODEL 1
REMARK VINA RESULT:     0.883      0.000      0.000
REMARK INTER + INTRA:           1.681
REMARK INTER:                   0.961
REMARK INTRA:                   0.721
REMARK UNBOUND:                 0.721
REMARK SMILES C[C@@H]1[C@H](C)CC[C@]2(C(=O)[O-])CC[C@]3(C)C(=CC[C@@H]4[C@@]5(C)CC[C@@H](O)C(C)(C)[C@H]5CC[C@@]43C)[C@@H]12
REMARK SMILES IDX 7 1 6 2 11 3 33 4 5 5 12 6 15 7 2 8 3 9 13 10 16 11 1 12
REMARK SMILES IDX 4 13 14 14 31 15 17 16 18 17 30 18 32 19 19 20 29 21 28 22
REMARK SMILES IDX 21 23 20 24 25 25 22 26 23 27 26 28 27 29 8 30 9 31 10 32
REMARK SMILES IDX 24 33
REMARK H PARENT 24 34
REMARK Flexibility Score: inf
ROOT
ATOM      1  C   UNL     1     -37.207   3.741  19.752  1.00  0.00     0.017 C 
ATOM      2  C   UNL     1     -37.761   2.388  19.225  1.00  0.00     0.014 C 
ATOM      3  C   UNL     1     -38.187   4.309  20.832  1.00  0.00     0.014 C 
ATOM      4  C   UNL     1     -37.131   4.708  18.510  1.00  0.00     0.030 C 
ATOM      5  C   UNL     1     -36.845   1.783  18.144  1.00  0.00     0.004 C 
ATOM      6  C   UNL     1     -38.011   5.831  21.137  1.00  0.00     0.013 C 
ATOM      7  C   UNL     1     -36.912   6.152  18.985  1.00  0.00    -0.063 C 
ATOM      8  C   UNL     1     -36.202   4.158  17.382  1.00  0.00    -0.003 C 
ATOM      9  C   UNL     1     -36.644   2.722  16.934  1.00  0.00    -0.011 C 
ATOM     10  C   UNL     1     -38.012   6.759  19.865  1.00  0.00    -0.006 C 
ATOM     11  C   UNL     1     -35.658   6.618  19.104  1.00  0.00    -0.027 C 
ATOM     12  C   UNL     1     -36.136   5.115  16.171  1.00  0.00     0.008 C 
ATOM     13  C   UNL     1     -37.885   2.695  16.014  1.00  0.00     0.008 C 
ATOM     14  C   UNL     1     -39.416   6.583  19.180  1.00  0.00     0.017 C 
ATOM     15  C   UNL     1     -37.749   8.366  20.129  1.00  0.00    -0.020 C 
ATOM     16  C   UNL     1     -35.284   7.591  20.177  1.00  0.00     0.032 C 
ATOM     17  C   UNL     1     -36.210   8.816  20.154  1.00  0.00     0.006 C 
ATOM     18  C   UNL     1     -38.464   8.822  21.433  1.00  0.00     0.008 C 
ATOM     19  C   UNL     1     -38.388   9.184  18.954  1.00  0.00     0.012 C 
ATOM     20  C   UNL     1     -35.795   9.997  21.186  1.00  0.00    -0.025 C 
ATOM     21  C   UNL     1     -37.565   8.776  22.667  1.00  0.00     0.005 C 
ATOM     22  C   UNL     1     -36.397   9.802  22.644  1.00  0.00     0.003 C 
ATOM     23  C   UNL     1     -36.165  11.414  20.588  1.00  0.00     0.010 C 
ATOM     24  C   UNL     1     -34.231  10.005  21.300  1.00  0.00     0.012 C 
ATOM     25  C   UNL     1     -36.684  11.150  23.440  1.00  0.00    -0.006 C 
ATOM     26  C   UNL     1     -37.424  12.125  21.122  1.00  0.00     0.033 C 
ATOM     27  C   UNL     1     -37.657  12.085  22.655  1.00  0.00     0.120 C 
ATOM     28  C   UNL     1     -35.360  11.926  23.714  1.00  0.00     0.014 C 
ATOM     29  C   UNL     1     -37.251  10.863  24.867  1.00  0.00     0.014 C 
ENDROOT
BRANCH   1  30
ATOM     30  C   UNL     1     -35.867   3.473  20.450  1.00  0.00     0.048 C 
ATOM     31  O   UNL     1     -35.145   2.506  20.073  1.00  0.00    -0.550 OA
ATOM     32  O   UNL     1     -35.449   4.206  21.552  1.00  0.00    -0.550 OA
ENDBRANCH   1  30
BRANCH  27  33
ATOM     33  O   UNL     1     -38.997  11.734  22.907  1.00  0.00    -0.393 OA
ATOM     34  H   UNL     1     -39.017  11.263  23.783  1.00  0.00     0.210 HD
ENDBRANCH  27  33
TORSDOF 2
ENDMDL
