MODEL 1
REMARK VINA RESULT:    -8.456      0.000      0.000
REMARK INTER + INTRA:          -9.755
REMARK INTER:                  -9.939
REMARK INTRA:                   0.184
REMARK UNBOUND:                 0.184
REMARK SMILES O=c1c(O)c(-c2ccc(O)cc2)oc2cc(O)cc(O)c12
REMARK SMILES IDX 5 1 3 2 2 3 1 4 21 5 19 6 18 7 16 8 15 9 14 10 13 11 6 12
REMARK SMILES IDX 7 13 8 14 9 15 12 16 11 17 10 18 4 20 20 22 17 24
REMARK H PARENT 10 19 4 21 20 23 17 25
REMARK Flexibility Score: inf
ROOT
ATOM      1  C   UNL     1     139.969 -18.703  80.620  1.00  0.00     0.180 A 
ATOM      2  C   UNL     1     139.640 -17.340  80.527  1.00  0.00     0.208 A 
ATOM      3  C   UNL     1     139.531 -16.751  79.258  1.00  0.00     0.238 A 
ATOM      4  O   UNL     1     139.290 -15.518  79.182  1.00  0.00    -0.285 OA
ATOM      5  C   UNL     1     139.736 -17.535  78.097  1.00  0.00     0.111 A 
ATOM      6  C   UNL     1     139.611 -17.052  76.759  1.00  0.00     0.134 A 
ATOM      7  C   UNL     1     139.965 -17.882  75.690  1.00  0.00     0.093 A 
ATOM      8  C   UNL     1     140.375 -19.197  75.903  1.00  0.00     0.123 A 
ATOM      9  C   UNL     1     140.443 -19.699  77.204  1.00  0.00     0.094 A 
ATOM     10  C   UNL     1     140.132 -18.884  78.294  1.00  0.00     0.146 A 
ATOM     11  O   UNL     1     140.220 -19.396  79.515  1.00  0.00    -0.452 OA
ENDROOT
BRANCH   1  12
ATOM     12  C   UNL     1     140.078 -19.402  81.922  1.00  0.00     0.021 A 
ATOM     13  C   UNL     1     139.530 -20.687  82.065  1.00  0.00     0.016 A 
ATOM     14  C   UNL     1     139.601 -21.355  83.291  1.00  0.00     0.047 A 
ATOM     15  C   UNL     1     140.207 -20.743  84.392  1.00  0.00     0.115 A 
ATOM     16  C   UNL     1     140.669 -18.782  83.039  1.00  0.00     0.016 A 
ATOM     17  C   UNL     1     140.739 -19.452  84.264  1.00  0.00     0.047 A 
BRANCH  15  18
ATOM     18  O   UNL     1     140.273 -21.421  85.607  1.00  0.00    -0.508 OA
ATOM     19  H   UNL     1     141.149 -21.783  85.964  1.00  0.00     0.293 HD
ENDBRANCH  15  18
ENDBRANCH   1  12
BRANCH   2  20
ATOM     20  O   UNL     1     139.464 -16.579  81.686  1.00  0.00    -0.502 OA
ATOM     21  H   UNL     1     139.533 -16.978  82.614  1.00  0.00     0.293 HD
ENDBRANCH   2  20
BRANCH   6  22
ATOM     22  O   UNL     1     139.124 -15.783  76.430  1.00  0.00    -0.507 OA
ATOM     23  H   UNL     1     139.607 -15.114  75.849  1.00  0.00     0.293 HD
ENDBRANCH   6  22
BRANCH   8  24
ATOM     24  O   UNL     1     140.703 -20.001  74.813  1.00  0.00    -0.508 OA
ATOM     25  H   UNL     1     141.204 -19.630  74.013  1.00  0.00     0.293 HD
ENDBRANCH   8  24
TORSDOF 5
ENDMDL
MODEL 2
REMARK VINA RESULT:    -8.245      2.205      6.845
REMARK INTER + INTRA:          -9.507
REMARK INTER:                  -9.322
REMARK INTRA:                  -0.185
REMARK UNBOUND:                 0.184
REMARK SMILES O=c1c(O)c(-c2ccc(O)cc2)oc2cc(O)cc(O)c12
REMARK SMILES IDX 5 1 3 2 2 3 1 4 21 5 19 6 18 7 16 8 15 9 14 10 13 11 6 12
REMARK SMILES IDX 7 13 8 14 9 15 12 16 11 17 10 18 4 20 20 22 17 24
REMARK H PARENT 10 19 4 21 20 23 17 25
REMARK Flexibility Score: inf
ROOT
ATOM      1  C   UNL     1     139.905 -17.792  80.279  1.00  0.00     0.180 A 
ATOM      2  C   UNL     1     139.403 -18.972  79.702  1.00  0.00     0.208 A 
ATOM      3  C   UNL     1     139.274 -20.118  80.502  1.00  0.00     0.238 A 
ATOM      4  O   UNL     1     138.876 -21.186  79.967  1.00  0.00    -0.285 OA
ATOM      5  C   UNL     1     139.631 -20.067  81.871  1.00  0.00     0.111 A 
ATOM      6  C   UNL     1     139.502 -21.157  82.784  1.00  0.00     0.134 A 
ATOM      7  C   UNL     1     140.007 -21.032  84.084  1.00  0.00     0.093 A 
ATOM      8  C   UNL     1     140.576 -19.838  84.525  1.00  0.00     0.123 A 
ATOM      9  C   UNL     1     140.653 -18.746  83.658  1.00  0.00     0.094 A 
ATOM     10  C   UNL     1     140.191 -18.852  82.344  1.00  0.00     0.146 A 
ATOM     11  O   UNL     1     140.292 -17.793  81.550  1.00  0.00    -0.452 OA
ENDROOT
BRANCH   1  12
ATOM     12  C   UNL     1     140.047 -16.536  79.507  1.00  0.00     0.021 A 
ATOM     13  C   UNL     1     138.896 -15.846  79.091  1.00  0.00     0.016 A 
ATOM     14  C   UNL     1     139.008 -14.670  78.342  1.00  0.00     0.047 A 
ATOM     15  C   UNL     1     140.267 -14.178  77.988  1.00  0.00     0.115 A 
ATOM     16  C   UNL     1     141.312 -16.046  79.130  1.00  0.00     0.016 A 
ATOM     17  C   UNL     1     141.420 -14.871  78.382  1.00  0.00     0.047 A 
BRANCH  15  18
ATOM     18  O   UNL     1     140.363 -13.005  77.244  1.00  0.00    -0.508 OA
ATOM     19  H   UNL     1     139.666 -12.760  76.549  1.00  0.00     0.293 HD
ENDBRANCH  15  18
ENDBRANCH   1  12
BRANCH   2  20
ATOM     20  O   UNL     1     139.079 -19.008  78.343  1.00  0.00    -0.502 OA
ATOM     21  H   UNL     1     139.258 -19.817  77.763  1.00  0.00     0.293 HD
ENDBRANCH   2  20
BRANCH   6  22
ATOM     22  O   UNL     1     138.867 -22.363  82.475  1.00  0.00    -0.507 OA
ATOM     23  H   UNL     1     138.456 -22.988  83.153  1.00  0.00     0.293 HD
ENDBRANCH   6  22
BRANCH   8  24
ATOM     24  O   UNL     1     141.054 -19.745  85.830  1.00  0.00    -0.508 OA
ATOM     25  H   UNL     1     141.861 -20.275  86.138  1.00  0.00     0.293 HD
ENDBRANCH   8  24
TORSDOF 5
ENDMDL
MODEL 3
REMARK VINA RESULT:    -7.895      3.166      5.777
REMARK INTER + INTRA:          -9.096
REMARK INTER:                  -8.810
REMARK INTRA:                  -0.286
REMARK UNBOUND:                 0.184
REMARK SMILES O=c1c(O)c(-c2ccc(O)cc2)oc2cc(O)cc(O)c12
REMARK SMILES IDX 5 1 3 2 2 3 1 4 21 5 19 6 18 7 16 8 15 9 14 10 13 11 6 12
REMARK SMILES IDX 7 13 8 14 9 15 12 16 11 17 10 18 4 20 20 22 17 24
REMARK H PARENT 10 19 4 21 20 23 17 25
REMARK Flexibility Score: inf
ROOT
ATOM      1  C   UNL     1     139.875 -17.428  77.834  1.00  0.00     0.180 A 
ATOM      2  C   UNL     1     139.007 -17.343  76.731  1.00  0.00     0.208 A 
ATOM      3  C   UNL     1     138.032 -18.337  76.554  1.00  0.00     0.238 A 
ATOM      4  O   UNL     1     137.294 -18.285  75.536  1.00  0.00    -0.285 OA
ATOM      5  C   UNL     1     137.925 -19.393  77.490  1.00  0.00     0.111 A 
ATOM      6  C   UNL     1     136.947 -20.432  77.432  1.00  0.00     0.134 A 
ATOM      7  C   UNL     1     137.016 -21.497  78.337  1.00  0.00     0.093 A 
ATOM      8  C   UNL     1     137.985 -21.530  79.339  1.00  0.00     0.123 A 
ATOM      9  C   UNL     1     138.910 -20.489  79.442  1.00  0.00     0.094 A 
ATOM     10  C   UNL     1     138.888 -19.431  78.531  1.00  0.00     0.146 A 
ATOM     11  O   UNL     1     139.792 -18.467  78.658  1.00  0.00    -0.452 OA
ENDROOT
BRANCH   1  12
ATOM     12  C   UNL     1     140.912 -16.406  78.102  1.00  0.00     0.021 A 
ATOM     13  C   UNL     1     140.571 -15.244  78.814  1.00  0.00     0.016 A 
ATOM     14  C   UNL     1     141.529 -14.256  79.058  1.00  0.00     0.047 A 
ATOM     15  C   UNL     1     142.835 -14.409  78.583  1.00  0.00     0.115 A 
ATOM     16  C   UNL     1     142.223 -16.545  77.609  1.00  0.00     0.016 A 
ATOM     17  C   UNL     1     143.180 -15.555  77.855  1.00  0.00     0.047 A 
BRANCH  15  18
ATOM     18  O   UNL     1     143.780 -13.417  78.836  1.00  0.00    -0.508 OA
ATOM     19  H   UNL     1     144.679 -13.636  79.250  1.00  0.00     0.293 HD
ENDBRANCH  15  18
ENDBRANCH   1  12
BRANCH   2  20
ATOM     20  O   UNL     1     139.146 -16.304  75.806  1.00  0.00    -0.502 OA
ATOM     21  H   UNL     1     139.452 -15.376  76.073  1.00  0.00     0.293 HD
ENDBRANCH   2  20
BRANCH   6  22
ATOM     22  O   UNL     1     135.880 -20.450  76.528  1.00  0.00    -0.507 OA
ATOM     23  H   UNL     1     135.078 -21.060  76.596  1.00  0.00     0.293 HD
ENDBRANCH   6  22
BRANCH   8  24
ATOM     24  O   UNL     1     138.014 -22.598  80.233  1.00  0.00    -0.508 OA
ATOM     25  H   UNL     1     138.016 -23.559  79.911  1.00  0.00     0.293 HD
ENDBRANCH   8  24
TORSDOF 5
ENDMDL
MODEL 4
REMARK VINA RESULT:    -7.873      3.166      5.466
REMARK INTER + INTRA:          -9.070
REMARK INTER:                  -8.832
REMARK INTRA:                  -0.238
REMARK UNBOUND:                 0.184
REMARK SMILES O=c1c(O)c(-c2ccc(O)cc2)oc2cc(O)cc(O)c12
REMARK SMILES IDX 5 1 3 2 2 3 1 4 21 5 19 6 18 7 16 8 15 9 14 10 13 11 6 12
REMARK SMILES IDX 7 13 8 14 9 15 12 16 11 17 10 18 4 20 20 22 17 24
REMARK H PARENT 10 19 4 21 20 23 17 25
REMARK Flexibility Score: inf
ROOT
ATOM      1  C   UNL     1     138.491 -19.748  77.675  1.00  0.00     0.180 A 
ATOM      2  C   UNL     1     139.010 -19.217  76.482  1.00  0.00     0.208 A 
ATOM      3  C   UNL     1     139.738 -18.017  76.531  1.00  0.00     0.238 A 
ATOM      4  O   UNL     1     140.154 -17.518  75.453  1.00  0.00    -0.285 OA
ATOM      5  C   UNL     1     139.952 -17.373  77.774  1.00  0.00     0.111 A 
ATOM      6  C   UNL     1     140.710 -16.175  77.947  1.00  0.00     0.134 A 
ATOM      7  C   UNL     1     140.746 -15.557  79.202  1.00  0.00     0.093 A 
ATOM      8  C   UNL     1     140.109 -16.124  80.304  1.00  0.00     0.123 A 
ATOM      9  C   UNL     1     139.415 -17.327  80.159  1.00  0.00     0.094 A 
ATOM     10  C   UNL     1     139.330 -17.950  78.912  1.00  0.00     0.146 A 
ATOM     11  O   UNL     1     138.652 -19.087  78.816  1.00  0.00    -0.452 OA
ENDROOT
BRANCH   1  12
ATOM     12  C   UNL     1     137.734 -21.021  77.707  1.00  0.00     0.021 A 
ATOM     13  C   UNL     1     136.389 -21.037  77.301  1.00  0.00     0.016 A 
ATOM     14  C   UNL     1     135.651 -22.223  77.345  1.00  0.00     0.047 A 
ATOM     15  C   UNL     1     136.240 -23.403  77.808  1.00  0.00     0.115 A 
ATOM     16  C   UNL     1     138.316 -22.207  78.192  1.00  0.00     0.016 A 
ATOM     17  C   UNL     1     137.575 -23.392  78.235  1.00  0.00     0.047 A 
BRANCH  15  18
ATOM     18  O   UNL     1     135.492 -24.577  77.845  1.00  0.00    -0.508 OA
ATOM     19  H   UNL     1     135.373 -25.155  77.021  1.00  0.00     0.293 HD
ENDBRANCH  15  18
ENDBRANCH   1  12
BRANCH   2  20
ATOM     20  O   UNL     1     138.768 -19.856  75.263  1.00  0.00    -0.502 OA
ATOM     21  H   UNL     1     139.160 -20.762  75.037  1.00  0.00     0.293 HD
ENDBRANCH   2  20
BRANCH   6  22
ATOM     22  O   UNL     1     141.459 -15.573  76.932  1.00  0.00    -0.507 OA
ATOM     23  H   UNL     1     142.215 -16.020  76.433  1.00  0.00     0.293 HD
ENDBRANCH   6  22
BRANCH   8  24
ATOM     24  O   UNL     1     140.180 -15.489  81.542  1.00  0.00    -0.508 OA
ATOM     25  H   UNL     1     139.353 -15.118  81.995  1.00  0.00     0.293 HD
ENDBRANCH   8  24
TORSDOF 5
ENDMDL
MODEL 5
REMARK VINA RESULT:    -7.865      1.703      7.176
REMARK INTER + INTRA:          -9.060
REMARK INTER:                  -8.782
REMARK INTRA:                  -0.278
REMARK UNBOUND:                 0.184
REMARK SMILES O=c1c(O)c(-c2ccc(O)cc2)oc2cc(O)cc(O)c12
REMARK SMILES IDX 5 1 3 2 2 3 1 4 21 5 19 6 18 7 16 8 15 9 14 10 13 11 6 12
REMARK SMILES IDX 7 13 8 14 9 15 12 16 11 17 10 18 4 20 20 22 17 24
REMARK H PARENT 10 19 4 21 20 23 17 25
REMARK Flexibility Score: inf
ROOT
ATOM      1  C   UNL     1     139.640 -19.537  80.576  1.00  0.00     0.180 A 
ATOM      2  C   UNL     1     138.927 -20.742  80.693  1.00  0.00     0.208 A 
ATOM      3  C   UNL     1     138.883 -21.388  81.939  1.00  0.00     0.238 A 
ATOM      4  O   UNL     1     138.289 -22.494  82.025  1.00  0.00    -0.285 OA
ATOM      5  C   UNL     1     139.538 -20.813  83.054  1.00  0.00     0.111 A 
ATOM      6  C   UNL     1     139.524 -21.359  84.373  1.00  0.00     0.134 A 
ATOM      7  C   UNL     1     140.314 -20.776  85.371  1.00  0.00     0.093 A 
ATOM      8  C   UNL     1     141.065 -19.629  85.117  1.00  0.00     0.123 A 
ATOM      9  C   UNL     1     141.038 -19.051  83.846  1.00  0.00     0.094 A 
ATOM     10  C   UNL     1     140.288 -19.631  82.821  1.00  0.00     0.146 A 
ATOM     11  O   UNL     1     140.298 -19.056  81.624  1.00  0.00    -0.452 OA
ENDROOT
BRANCH   1  12
ATOM     12  C   UNL     1     139.712 -18.784  79.302  1.00  0.00     0.021 A 
ATOM     13  C   UNL     1     138.781 -17.762  79.049  1.00  0.00     0.016 A 
ATOM     14  C   UNL     1     138.818 -17.055  77.844  1.00  0.00     0.047 A 
ATOM     15  C   UNL     1     139.772 -17.367  76.871  1.00  0.00     0.115 A 
ATOM     16  C   UNL     1     140.658 -19.108  78.311  1.00  0.00     0.016 A 
ATOM     17  C   UNL     1     140.691 -18.399  77.107  1.00  0.00     0.047 A 
BRANCH  15  18
ATOM     18  O   UNL     1     139.797 -16.653  75.676  1.00  0.00    -0.508 OA
ATOM     19  H   UNL     1     139.419 -15.714  75.613  1.00  0.00     0.293 HD
ENDBRANCH  15  18
ENDBRANCH   1  12
BRANCH   2  20
ATOM     20  O   UNL     1     138.307 -21.304  79.574  1.00  0.00    -0.502 OA
ATOM     21  H   UNL     1     138.233 -22.305  79.439  1.00  0.00     0.293 HD
ENDBRANCH   2  20
BRANCH   6  22
ATOM     22  O   UNL     1     138.738 -22.450  84.758  1.00  0.00    -0.507 OA
ATOM     23  H   UNL     1     137.733 -22.430  84.849  1.00  0.00     0.293 HD
ENDBRANCH   6  22
BRANCH   8  24
ATOM     24  O   UNL     1     141.826 -19.065  86.138  1.00  0.00    -0.508 OA
ATOM     25  H   UNL     1     141.614 -19.238  87.114  1.00  0.00     0.293 HD
ENDBRANCH   8  24
TORSDOF 5
ENDMDL
MODEL 6
REMARK VINA RESULT:    -7.808      1.585      2.867
REMARK INTER + INTRA:          -8.994
REMARK INTER:                  -9.173
REMARK INTRA:                   0.180
REMARK UNBOUND:                 0.184
REMARK SMILES O=c1c(O)c(-c2ccc(O)cc2)oc2cc(O)cc(O)c12
REMARK SMILES IDX 5 1 3 2 2 3 1 4 21 5 19 6 18 7 16 8 15 9 14 10 13 11 6 12
REMARK SMILES IDX 7 13 8 14 9 15 12 16 11 17 10 18 4 20 20 22 17 24
REMARK H PARENT 10 19 4 21 20 23 17 25
REMARK Flexibility Score: inf
ROOT
ATOM      1  C   UNL     1     139.857 -19.596  80.214  1.00  0.00     0.180 A 
ATOM      2  C   UNL     1     139.046 -20.468  79.468  1.00  0.00     0.208 A 
ATOM      3  C   UNL     1     138.972 -20.306  78.076  1.00  0.00     0.238 A 
ATOM      4  O   UNL     1     138.202 -21.054  77.420  1.00  0.00    -0.285 OA
ATOM      5  C   UNL     1     139.723 -19.285  77.445  1.00  0.00     0.111 A 
ATOM      6  C   UNL     1     139.757 -19.056  76.036  1.00  0.00     0.134 A 
ATOM      7  C   UNL     1     140.431 -17.937  75.534  1.00  0.00     0.093 A 
ATOM      8  C   UNL     1     141.129 -17.076  76.380  1.00  0.00     0.123 A 
ATOM      9  C   UNL     1     141.153 -17.325  77.754  1.00  0.00     0.094 A 
ATOM     10  C   UNL     1     140.459 -18.413  78.288  1.00  0.00     0.146 A 
ATOM     11  O   UNL     1     140.499 -18.607  79.601  1.00  0.00    -0.452 OA
ENDROOT
BRANCH   1  12
ATOM     12  C   UNL     1     140.006 -19.719  81.683  1.00  0.00     0.021 A 
ATOM     13  C   UNL     1     140.160 -18.560  82.462  1.00  0.00     0.016 A 
ATOM     14  C   UNL     1     140.324 -18.655  83.847  1.00  0.00     0.047 A 
ATOM     15  C   UNL     1     140.351 -19.907  84.469  1.00  0.00     0.115 A 
ATOM     16  C   UNL     1     140.054 -20.977  82.311  1.00  0.00     0.016 A 
ATOM     17  C   UNL     1     140.218 -21.069  83.697  1.00  0.00     0.047 A 
BRANCH  15  18
ATOM     18  O   UNL     1     140.514 -19.986  85.850  1.00  0.00    -0.508 OA
ATOM     19  H   UNL     1     140.656 -20.875  86.316  1.00  0.00     0.293 HD
ENDBRANCH  15  18
ENDBRANCH   1  12
BRANCH   2  20
ATOM     20  O   UNL     1     138.294 -21.454  80.114  1.00  0.00    -0.502 OA
ATOM     21  H   UNL     1     137.591 -21.234  80.808  1.00  0.00     0.293 HD
ENDBRANCH   2  20
BRANCH   6  22
ATOM     22  O   UNL     1     139.170 -19.906  75.093  1.00  0.00    -0.507 OA
ATOM     23  H   UNL     1     139.626 -20.704  74.675  1.00  0.00     0.293 HD
ENDBRANCH   6  22
BRANCH   8  24
ATOM     24  O   UNL     1     141.803 -15.982  75.844  1.00  0.00    -0.508 OA
ATOM     25  H   UNL     1     142.150 -15.988  74.892  1.00  0.00     0.293 HD
ENDBRANCH   8  24
TORSDOF 5
ENDMDL
MODEL 7
REMARK VINA RESULT:    -7.790      1.479      3.084
REMARK INTER + INTRA:          -8.972
REMARK INTER:                  -9.447
REMARK INTRA:                   0.475
REMARK UNBOUND:                 0.184
REMARK SMILES O=c1c(O)c(-c2ccc(O)cc2)oc2cc(O)cc(O)c12
REMARK SMILES IDX 5 1 3 2 2 3 1 4 21 5 19 6 18 7 16 8 15 9 14 10 13 11 6 12
REMARK SMILES IDX 7 13 8 14 9 15 12 16 11 17 10 18 4 20 20 22 17 24
REMARK H PARENT 10 19 4 21 20 23 17 25
REMARK Flexibility Score: inf
ROOT
ATOM      1  C   UNL     1     139.965 -18.970  80.991  1.00  0.00     0.180 A 
ATOM      2  C   UNL     1     139.470 -19.674  79.880  1.00  0.00     0.208 A 
ATOM      3  C   UNL     1     139.451 -19.041  78.627  1.00  0.00     0.238 A 
ATOM      4  O   UNL     1     138.957 -19.657  77.647  1.00  0.00    -0.285 OA
ATOM      5  C   UNL     1     139.943 -17.720  78.497  1.00  0.00     0.111 A 
ATOM      6  C   UNL     1     140.011 -16.997  77.267  1.00  0.00     0.134 A 
ATOM      7  C   UNL     1     140.394 -15.651  77.278  1.00  0.00     0.093 A 
ATOM      8  C   UNL     1     140.775 -15.019  78.461  1.00  0.00     0.123 A 
ATOM      9  C   UNL     1     140.770 -15.734  79.660  1.00  0.00     0.094 A 
ATOM     10  C   UNL     1     140.358 -17.068  79.687  1.00  0.00     0.146 A 
ATOM     11  O   UNL     1     140.359 -17.709  80.850  1.00  0.00    -0.452 OA
ENDROOT
BRANCH   1  12
ATOM     12  C   UNL     1     140.040 -19.577  82.340  1.00  0.00     0.021 A 
ATOM     13  C   UNL     1     140.444 -18.790  83.432  1.00  0.00     0.016 A 
ATOM     14  C   UNL     1     140.543 -19.349  84.709  1.00  0.00     0.047 A 
ATOM     15  C   UNL     1     140.254 -20.702  84.910  1.00  0.00     0.115 A 
ATOM     16  C   UNL     1     139.769 -20.943  82.545  1.00  0.00     0.016 A 
ATOM     17  C   UNL     1     139.869 -21.499  83.824  1.00  0.00     0.047 A 
BRANCH  15  18
ATOM     18  O   UNL     1     140.356 -21.245  86.189  1.00  0.00    -0.508 OA
ATOM     19  H   UNL     1     139.633 -21.099  86.885  1.00  0.00     0.293 HD
ENDBRANCH  15  18
ENDBRANCH   1  12
BRANCH   2  20
ATOM     20  O   UNL     1     138.968 -20.969  80.035  1.00  0.00    -0.502 OA
ATOM     21  H   UNL     1     138.240 -21.193  80.702  1.00  0.00     0.293 HD
ENDBRANCH   2  20
BRANCH   6  22
ATOM     22  O   UNL     1     139.739 -17.559  76.016  1.00  0.00    -0.507 OA
ATOM     23  H   UNL     1     140.347 -18.202  75.530  1.00  0.00     0.293 HD
ENDBRANCH   6  22
BRANCH   8  24
ATOM     24  O   UNL     1     141.167 -13.683  78.432  1.00  0.00    -0.508 OA
ATOM     25  H   UNL     1     140.612 -12.959  78.874  1.00  0.00     0.293 HD
ENDBRANCH   8  24
TORSDOF 5
ENDMDL
MODEL 8
REMARK VINA RESULT:    -7.749      2.445      6.519
REMARK INTER + INTRA:          -8.924
REMARK INTER:                  -8.763
REMARK INTRA:                  -0.161
REMARK UNBOUND:                 0.184
REMARK SMILES O=c1c(O)c(-c2ccc(O)cc2)oc2cc(O)cc(O)c12
REMARK SMILES IDX 5 1 3 2 2 3 1 4 21 5 19 6 18 7 16 8 15 9 14 10 13 11 6 12
REMARK SMILES IDX 7 13 8 14 9 15 12 16 11 17 10 18 4 20 20 22 17 24
REMARK H PARENT 10 19 4 21 20 23 17 25
REMARK Flexibility Score: inf
ROOT
ATOM      1  C   UNL     1     139.590 -19.684  80.061  1.00  0.00     0.180 A 
ATOM      2  C   UNL     1     140.006 -19.505  81.392  1.00  0.00     0.208 A 
ATOM      3  C   UNL     1     139.573 -20.416  82.368  1.00  0.00     0.238 A 
ATOM      4  O   UNL     1     139.903 -20.220  83.567  1.00  0.00    -0.285 OA
ATOM      5  C   UNL     1     138.745 -21.503  82.000  1.00  0.00     0.111 A 
ATOM      6  C   UNL     1     138.281 -22.511  82.899  1.00  0.00     0.134 A 
ATOM      7  C   UNL     1     137.361 -23.466  82.451  1.00  0.00     0.093 A 
ATOM      8  C   UNL     1     136.939 -23.492  81.123  1.00  0.00     0.123 A 
ATOM      9  C   UNL     1     137.433 -22.548  80.220  1.00  0.00     0.094 A 
ATOM     10  C   UNL     1     138.323 -21.561  80.646  1.00  0.00     0.146 A 
ATOM     11  O   UNL     1     138.761 -20.676  79.758  1.00  0.00    -0.452 OA
ENDROOT
BRANCH   1  12
ATOM     12  C   UNL     1     140.025 -18.780  78.971  1.00  0.00     0.021 A 
ATOM     13  C   UNL     1     140.924 -19.250  77.999  1.00  0.00     0.016 A 
ATOM     14  C   UNL     1     141.364 -18.407  76.975  1.00  0.00     0.047 A 
ATOM     15  C   UNL     1     140.924 -17.081  76.916  1.00  0.00     0.115 A 
ATOM     16  C   UNL     1     139.601 -17.439  78.918  1.00  0.00     0.016 A 
ATOM     17  C   UNL     1     140.043 -16.598  77.893  1.00  0.00     0.047 A 
BRANCH  15  18
ATOM     18  O   UNL     1     141.370 -16.253  75.889  1.00  0.00    -0.508 OA
ATOM     19  H   UNL     1     141.672 -15.302  76.069  1.00  0.00     0.293 HD
ENDBRANCH  15  18
ENDBRANCH   1  12
BRANCH   2  20
ATOM     20  O   UNL     1     140.805 -18.411  81.738  1.00  0.00    -0.502 OA
ATOM     21  H   UNL     1     140.680 -17.899  82.602  1.00  0.00     0.293 HD
ENDBRANCH   2  20
BRANCH   6  22
ATOM     22  O   UNL     1     138.710 -22.631  84.225  1.00  0.00    -0.507 OA
ATOM     23  H   UNL     1     138.602 -23.459  84.791  1.00  0.00     0.293 HD
ENDBRANCH   6  22
BRANCH   8  24
ATOM     24  O   UNL     1     136.035 -24.468  80.708  1.00  0.00    -0.508 OA
ATOM     25  H   UNL     1     135.618 -25.117  81.365  1.00  0.00     0.293 HD
ENDBRANCH   8  24
TORSDOF 5
ENDMDL
MODEL 9
REMARK VINA RESULT:    -7.610      3.698      5.023
REMARK INTER + INTRA:          -8.761
REMARK INTER:                  -8.583
REMARK INTRA:                  -0.177
REMARK UNBOUND:                 0.184
REMARK SMILES O=c1c(O)c(-c2ccc(O)cc2)oc2cc(O)cc(O)c12
REMARK SMILES IDX 5 1 3 2 2 3 1 4 21 5 19 6 18 7 16 8 15 9 14 10 13 11 6 12
REMARK SMILES IDX 7 13 8 14 9 15 12 16 11 17 10 18 4 20 20 22 17 24
REMARK H PARENT 10 19 4 21 20 23 17 25
REMARK Flexibility Score: inf
ROOT
ATOM      1  C   UNL     1     138.484 -20.865  78.216  1.00  0.00     0.180 A 
ATOM      2  C   UNL     1     138.951 -20.414  79.463  1.00  0.00     0.208 A 
ATOM      3  C   UNL     1     139.783 -19.284  79.509  1.00  0.00     0.238 A 
ATOM      4  O   UNL     1     140.242 -18.918  80.622  1.00  0.00    -0.285 OA
ATOM      5  C   UNL     1     140.124 -18.611  78.312  1.00  0.00     0.111 A 
ATOM      6  C   UNL     1     140.927 -17.431  78.245  1.00  0.00     0.134 A 
ATOM      7  C   UNL     1     141.307 -16.925  76.997  1.00  0.00     0.093 A 
ATOM      8  C   UNL     1     140.862 -17.513  75.814  1.00  0.00     0.123 A 
ATOM      9  C   UNL     1     140.027 -18.631  75.868  1.00  0.00     0.094 A 
ATOM     10  C   UNL     1     139.660 -19.181  77.098  1.00  0.00     0.146 A 
ATOM     11  O   UNL     1     138.874 -20.250  77.105  1.00  0.00    -0.452 OA
ENDROOT
BRANCH   1  12
ATOM     12  C   UNL     1     137.583 -22.034  78.088  1.00  0.00     0.021 A 
ATOM     13  C   UNL     1     136.233 -21.833  77.753  1.00  0.00     0.016 A 
ATOM     14  C   UNL     1     135.360 -22.920  77.649  1.00  0.00     0.047 A 
ATOM     15  C   UNL     1     135.820 -24.218  77.891  1.00  0.00     0.115 A 
ATOM     16  C   UNL     1     138.035 -23.340  78.350  1.00  0.00     0.016 A 
ATOM     17  C   UNL     1     137.160 -24.426  78.245  1.00  0.00     0.047 A 
BRANCH  15  18
ATOM     18  O   UNL     1     134.939 -25.291  77.782  1.00  0.00    -0.508 OA
ATOM     19  H   UNL     1     135.274 -26.245  77.708  1.00  0.00     0.293 HD
ENDBRANCH  15  18
ENDBRANCH   1  12
BRANCH   2  20
ATOM     20  O   UNL     1     138.621 -21.108  80.630  1.00  0.00    -0.502 OA
ATOM     21  H   UNL     1     139.197 -21.853  81.001  1.00  0.00     0.293 HD
ENDBRANCH   2  20
BRANCH   6  22
ATOM     22  O   UNL     1     141.350 -16.711  79.367  1.00  0.00    -0.507 OA
ATOM     23  H   UNL     1     142.264 -16.790  79.789  1.00  0.00     0.293 HD
ENDBRANCH   6  22
BRANCH   8  24
ATOM     24  O   UNL     1     141.247 -16.973  74.590  1.00  0.00    -0.508 OA
ATOM     25  H   UNL     1     140.631 -16.992  73.785  1.00  0.00     0.293 HD
ENDBRANCH   8  24
TORSDOF 5
ENDMDL
