MODEL 1
REMARK VINA RESULT:    -2.978      0.000      0.000
REMARK INTER + INTRA:          -6.087
REMARK INTER:                  -4.718
REMARK INTRA:                  -1.369
REMARK UNBOUND:                -1.369
REMARK SMILES CCCCCCCCCCCC(=O)[O-]
REMARK SMILES IDX 7 1 8 2 9 3 10 4 11 5 12 6 13 7 14 8 6 9 5 10 4 11 3 12 2 13
REMARK SMILES IDX 1 14
REMARK H PARENT
REMARK Flexibility Score: inf
ROOT
ATOM      1  C   UNL     1     168.239 170.684 152.563  1.00  0.00     0.000 C 
ENDROOT
BRANCH   1   2
ATOM      2  C   UNL     1     168.255 169.310 151.883  1.00  0.00     0.000 C 
BRANCH   2   3
ATOM      3  C   UNL     1     169.293 169.265 150.756  1.00  0.00     0.000 C 
BRANCH   3   4
ATOM      4  C   UNL     1     169.575 170.673 150.211  1.00  0.00     0.006 C 
BRANCH   4   5
ATOM      5  C   UNL     1     168.700 171.011 148.997  1.00  0.00     0.053 C 
BRANCH   5   6
ATOM      6  C   UNL     1     169.172 170.313 147.760  1.00  0.00     0.041 C 
ATOM      7  O   UNL     1     168.344 169.765 146.985  1.00  0.00    -0.550 OA
ATOM      8  O   UNL     1     170.531 170.237 147.479  1.00  0.00    -0.550 OA
ENDBRANCH   5   6
ENDBRANCH   4   5
ENDBRANCH   3   4
ENDBRANCH   2   3
ENDBRANCH   1   2
BRANCH   1   9
ATOM      9  C   UNL     1     166.805 171.124 152.881  1.00  0.00     0.000 C 
BRANCH   9  10
ATOM     10  C   UNL     1     165.876 169.909 153.025  1.00  0.00    -0.000 C 
BRANCH  10  11
ATOM     11  C   UNL     1     164.748 169.890 151.977  1.00  0.00    -0.000 C 
BRANCH  11  12
ATOM     12  C   UNL     1     164.714 171.108 151.031  1.00  0.00    -0.000 C 
BRANCH  12  13
ATOM     13  C   UNL     1     164.950 170.784 149.546  1.00  0.00    -0.003 C 
ATOM     14  C   UNL     1     165.377 169.336 149.313  1.00  0.00     0.004 C 
ENDBRANCH  12  13
ENDBRANCH  11  12
ENDBRANCH  10  11
ENDBRANCH   9  10
ENDBRANCH   1   9
TORSDOF 10
ENDMDL
MODEL 2
REMARK VINA RESULT:    -2.875      2.111      4.269
REMARK INTER + INTRA:          -5.925
REMARK INTER:                  -4.647
REMARK INTRA:                  -1.278
REMARK UNBOUND:                -1.369
REMARK SMILES CCCCCCCCCCCC(=O)[O-]
REMARK SMILES IDX 7 1 8 2 9 3 10 4 11 5 12 6 13 7 14 8 6 9 5 10 4 11 3 12 2 13
REMARK SMILES IDX 1 14
REMARK H PARENT
REMARK Flexibility Score: inf
ROOT
ATOM      1  C   UNL     1     164.952 169.932 154.646  1.00  0.00     0.000 C 
ENDROOT
BRANCH   1   2
ATOM      2  C   UNL     1     164.482 169.598 153.225  1.00  0.00     0.000 C 
BRANCH   2   3
ATOM      3  C   UNL     1     164.601 170.818 152.304  1.00  0.00     0.000 C 
BRANCH   3   4
ATOM      4  C   UNL     1     164.733 170.389 150.836  1.00  0.00     0.006 C 
BRANCH   4   5
ATOM      5  C   UNL     1     164.843 168.867 150.684  1.00  0.00     0.053 C 
BRANCH   5   6
ATOM      6  C   UNL     1     164.953 168.459 149.247  1.00  0.00     0.041 C 
ATOM      7  O   UNL     1     164.240 167.524 148.796  1.00  0.00    -0.550 OA
ATOM      8  O   UNL     1     165.868 169.090 148.413  1.00  0.00    -0.550 OA
ENDBRANCH   5   6
ENDBRANCH   4   5
ENDBRANCH   3   4
ENDBRANCH   2   3
ENDBRANCH   1   2
BRANCH   1   9
ATOM      9  C   UNL     1     166.020 171.032 154.629  1.00  0.00     0.000 C 
BRANCH   9  10
ATOM     10  C   UNL     1     167.432 170.428 154.661  1.00  0.00    -0.000 C 
BRANCH  10  11
ATOM     11  C   UNL     1     168.167 170.554 153.314  1.00  0.00    -0.000 C 
BRANCH  11  12
ATOM     12  C   UNL     1     168.108 169.300 152.417  1.00  0.00    -0.000 C 
BRANCH  12  13
ATOM     13  C   UNL     1     168.519 169.530 150.952  1.00  0.00    -0.003 C 
ATOM     14  C   UNL     1     169.834 168.841 150.588  1.00  0.00     0.004 C 
ENDBRANCH  12  13
ENDBRANCH  11  12
ENDBRANCH  10  11
ENDBRANCH   9  10
ENDBRANCH   1   9
TORSDOF 10
ENDMDL
MODEL 3
REMARK VINA RESULT:    -2.824      1.387      2.653
REMARK INTER + INTRA:          -5.844
REMARK INTER:                  -4.495
REMARK INTRA:                  -1.349
REMARK UNBOUND:                -1.369
REMARK SMILES CCCCCCCCCCCC(=O)[O-]
REMARK SMILES IDX 7 1 8 2 9 3 10 4 11 5 12 6 13 7 14 8 6 9 5 10 4 11 3 12 2 13
REMARK SMILES IDX 1 14
REMARK H PARENT
REMARK Flexibility Score: inf
ROOT
ATOM      1  C   UNL     1     167.346 171.125 150.046  1.00  0.00     0.000 C 
ENDROOT
BRANCH   1   2
ATOM      2  C   UNL     1     168.417 170.680 151.048  1.00  0.00     0.000 C 
BRANCH   2   3
ATOM      3  C   UNL     1     168.722 169.185 150.902  1.00  0.00     0.000 C 
BRANCH   3   4
ATOM      4  C   UNL     1     170.190 168.958 150.512  1.00  0.00     0.006 C 
BRANCH   4   5
ATOM      5  C   UNL     1     170.365 168.756 149.002  1.00  0.00     0.053 C 
BRANCH   5   6
ATOM      6  C   UNL     1     170.960 169.964 148.346  1.00  0.00     0.041 C 
ATOM      7  O   UNL     1     170.218 170.904 147.954  1.00  0.00    -0.550 OA
ATOM      8  O   UNL     1     172.332 170.037 148.136  1.00  0.00    -0.550 OA
ENDBRANCH   5   6
ENDBRANCH   4   5
ENDBRANCH   3   4
ENDBRANCH   2   3
ENDBRANCH   1   2
BRANCH   1   9
ATOM      9  C   UNL     1     166.872 169.947 149.187  1.00  0.00     0.000 C 
BRANCH   9  10
ATOM     10  C   UNL     1     165.338 169.908 149.105  1.00  0.00    -0.000 C 
BRANCH  10  11
ATOM     11  C   UNL     1     164.741 168.614 149.686  1.00  0.00    -0.000 C 
BRANCH  11  12
ATOM     12  C   UNL     1     164.415 168.662 151.193  1.00  0.00    -0.000 C 
BRANCH  12  13
ATOM     13  C   UNL     1     164.182 170.072 151.763  1.00  0.00    -0.003 C 
ATOM     14  C   UNL     1     165.132 170.416 152.909  1.00  0.00     0.004 C 
ENDBRANCH  12  13
ENDBRANCH  11  12
ENDBRANCH  10  11
ENDBRANCH   9  10
ENDBRANCH   1   9
TORSDOF 10
ENDMDL
MODEL 4
REMARK VINA RESULT:    -2.807      3.659      4.910
REMARK INTER + INTRA:          -5.816
REMARK INTER:                  -4.458
REMARK INTRA:                  -1.359
REMARK UNBOUND:                -1.369
REMARK SMILES CCCCCCCCCCCC(=O)[O-]
REMARK SMILES IDX 7 1 8 2 9 3 10 4 11 5 12 6 13 7 14 8 6 9 5 10 4 11 3 12 2 13
REMARK SMILES IDX 1 14
REMARK H PARENT
REMARK Flexibility Score: inf
ROOT
ATOM      1  C   UNL     1     168.404 169.823 152.255  1.00  0.00     0.000 C 
ENDROOT
BRANCH   1   2
ATOM      2  C   UNL     1     168.016 171.125 152.965  1.00  0.00     0.000 C 
BRANCH   2   3
ATOM      3  C   UNL     1     168.270 171.027 154.474  1.00  0.00     0.000 C 
BRANCH   3   4
ATOM      4  C   UNL     1     167.170 170.209 155.166  1.00  0.00     0.006 C 
BRANCH   4   5
ATOM      5  C   UNL     1     165.764 170.680 154.775  1.00  0.00     0.053 C 
BRANCH   5   6
ATOM      6  C   UNL     1     164.896 169.539 154.345  1.00  0.00     0.041 C 
ATOM      7  O   UNL     1     163.665 169.719 154.142  1.00  0.00    -0.550 OA
ATOM      8  O   UNL     1     165.438 168.268 154.199  1.00  0.00    -0.550 OA
ENDBRANCH   5   6
ENDBRANCH   4   5
ENDBRANCH   3   4
ENDBRANCH   2   3
ENDBRANCH   1   2
BRANCH   1   9
ATOM      9  C   UNL     1     167.271 169.332 151.345  1.00  0.00     0.000 C 
BRANCH   9  10
ATOM     10  C   UNL     1     166.313 170.480 150.994  1.00  0.00    -0.000 C 
BRANCH  10  11
ATOM     11  C   UNL     1     164.888 169.992 150.675  1.00  0.00    -0.000 C 
BRANCH  11  12
ATOM     12  C   UNL     1     164.687 168.465 150.750  1.00  0.00    -0.000 C 
BRANCH  12  13
ATOM     13  C   UNL     1     164.323 167.791 149.416  1.00  0.00    -0.003 C 
ATOM     14  C   UNL     1     165.299 168.132 148.291  1.00  0.00     0.004 C 
ENDBRANCH  12  13
ENDBRANCH  11  12
ENDBRANCH  10  11
ENDBRANCH   9  10
ENDBRANCH   1   9
TORSDOF 10
ENDMDL
MODEL 5
REMARK VINA RESULT:    -2.777      1.498      2.141
REMARK INTER + INTRA:          -5.769
REMARK INTER:                  -4.412
REMARK INTRA:                  -1.356
REMARK UNBOUND:                -1.369
REMARK SMILES CCCCCCCCCCCC(=O)[O-]
REMARK SMILES IDX 7 1 8 2 9 3 10 4 11 5 12 6 13 7 14 8 6 9 5 10 4 11 3 12 2 13
REMARK SMILES IDX 1 14
REMARK H PARENT
REMARK Flexibility Score: inf
ROOT
ATOM      1  C   UNL     1     168.603 169.234 151.819  1.00  0.00     0.000 C 
ENDROOT
BRANCH   1   2
ATOM      2  C   UNL     1     169.703 168.881 150.811  1.00  0.00     0.000 C 
BRANCH   2   3
ATOM      3  C   UNL     1     169.916 170.020 149.807  1.00  0.00     0.000 C 
BRANCH   3   4
ATOM      4  C   UNL     1     169.347 169.653 148.428  1.00  0.00     0.006 C 
BRANCH   4   5
ATOM      5  C   UNL     1     170.035 168.422 147.826  1.00  0.00     0.053 C 
BRANCH   5   6
ATOM      6  C   UNL     1     171.478 168.685 147.524  1.00  0.00     0.041 C 
ATOM      7  O   UNL     1     171.801 169.567 146.685  1.00  0.00    -0.550 OA
ATOM      8  O   UNL     1     172.467 167.931 148.145  1.00  0.00    -0.550 OA
ENDBRANCH   5   6
ENDBRANCH   4   5
ENDBRANCH   3   4
ENDBRANCH   2   3
ENDBRANCH   1   2
BRANCH   1   9
ATOM      9  C   UNL     1     168.310 170.739 151.811  1.00  0.00     0.000 C 
BRANCH   9  10
ATOM     10  C   UNL     1     166.944 171.036 152.448  1.00  0.00    -0.000 C 
BRANCH  10  11
ATOM     11  C   UNL     1     165.764 170.545 151.589  1.00  0.00    -0.000 C 
BRANCH  11  12
ATOM     12  C   UNL     1     165.776 171.028 150.124  1.00  0.00    -0.000 C 
BRANCH  12  13
ATOM     13  C   UNL     1     165.793 169.906 149.071  1.00  0.00    -0.003 C 
ATOM     14  C   UNL     1     165.442 168.538 149.652  1.00  0.00     0.004 C 
ENDBRANCH  12  13
ENDBRANCH  11  12
ENDBRANCH  10  11
ENDBRANCH   9  10
ENDBRANCH   1   9
TORSDOF 10
ENDMDL
MODEL 6
REMARK VINA RESULT:    -2.773      1.714      2.677
REMARK INTER + INTRA:          -5.763
REMARK INTER:                  -4.559
REMARK INTRA:                  -1.204
REMARK UNBOUND:                -1.369
REMARK SMILES CCCCCCCCCCCC(=O)[O-]
REMARK SMILES IDX 7 1 8 2 9 3 10 4 11 5 12 6 13 7 14 8 6 9 5 10 4 11 3 12 2 13
REMARK SMILES IDX 1 14
REMARK H PARENT
REMARK Flexibility Score: inf
ROOT
ATOM      1  C   UNL     1     165.647 170.965 153.076  1.00  0.00     0.000 C 
ENDROOT
BRANCH   1   2
ATOM      2  C   UNL     1     167.132 170.975 152.695  1.00  0.00     0.000 C 
BRANCH   2   3
ATOM      3  C   UNL     1     167.816 169.666 153.106  1.00  0.00     0.000 C 
BRANCH   3   4
ATOM      4  C   UNL     1     168.416 168.951 151.887  1.00  0.00     0.006 C 
BRANCH   4   5
ATOM      5  C   UNL     1     168.855 169.935 150.795  1.00  0.00     0.053 C 
BRANCH   5   6
ATOM      6  C   UNL     1     170.233 169.631 150.295  1.00  0.00     0.041 C 
ATOM      7  O   UNL     1     170.771 168.521 150.553  1.00  0.00    -0.550 OA
ATOM      8  O   UNL     1     170.937 170.586 149.572  1.00  0.00    -0.550 OA
ENDBRANCH   5   6
ENDBRANCH   4   5
ENDBRANCH   3   4
ENDBRANCH   2   3
ENDBRANCH   1   2
BRANCH   1   9
ATOM      9  C   UNL     1     164.760 170.828 151.833  1.00  0.00     0.000 C 
BRANCH   9  10
ATOM     10  C   UNL     1     164.071 169.456 151.798  1.00  0.00    -0.000 C 
BRANCH  10  11
ATOM     11  C   UNL     1     164.824 168.431 150.929  1.00  0.00    -0.000 C 
BRANCH  11  12
ATOM     12  C   UNL     1     165.439 168.998 149.633  1.00  0.00    -0.000 C 
BRANCH  12  13
ATOM     13  C   UNL     1     165.231 168.129 148.380  1.00  0.00    -0.003 C 
ATOM     14  C   UNL     1     164.238 166.990 148.605  1.00  0.00     0.004 C 
ENDBRANCH  12  13
ENDBRANCH  11  12
ENDBRANCH  10  11
ENDBRANCH   9  10
ENDBRANCH   1   9
TORSDOF 10
ENDMDL
MODEL 7
REMARK VINA RESULT:    -2.753     16.551     17.941
REMARK INTER + INTRA:          -5.732
REMARK INTER:                  -4.234
REMARK INTRA:                  -1.498
REMARK UNBOUND:                -1.369
REMARK SMILES CCCCCCCCCCCC(=O)[O-]
REMARK SMILES IDX 7 1 8 2 9 3 10 4 11 5 12 6 13 7 14 8 6 9 5 10 4 11 3 12 2 13
REMARK SMILES IDX 1 14
REMARK H PARENT
REMARK Flexibility Score: inf
ROOT
ATOM      1  C   UNL     1     171.619 152.339 150.592  1.00  0.00     0.000 C 
ENDROOT
BRANCH   1   2
ATOM      2  C   UNL     1     171.916 151.982 152.053  1.00  0.00     0.000 C 
BRANCH   2   3
ATOM      3  C   UNL     1     173.124 152.766 152.577  1.00  0.00     0.000 C 
BRANCH   3   4
ATOM      4  C   UNL     1     172.849 153.329 153.979  1.00  0.00     0.006 C 
BRANCH   4   5
ATOM      5  C   UNL     1     171.562 152.761 154.590  1.00  0.00     0.053 C 
BRANCH   5   6
ATOM      6  C   UNL     1     171.852 151.750 155.656  1.00  0.00     0.041 C 
ATOM      7  O   UNL     1     170.995 150.875 155.951  1.00  0.00    -0.550 OA
ATOM      8  O   UNL     1     173.056 151.795 156.348  1.00  0.00    -0.550 OA
ENDBRANCH   5   6
ENDBRANCH   4   5
ENDBRANCH   3   4
ENDBRANCH   2   3
ENDBRANCH   1   2
BRANCH   1   9
ATOM      9  C   UNL     1     171.542 153.859 150.401  1.00  0.00     0.000 C 
BRANCH   9  10
ATOM     10  C   UNL     1     170.163 154.395 150.815  1.00  0.00    -0.000 C 
BRANCH  10  11
ATOM     11  C   UNL     1     170.247 155.491 151.894  1.00  0.00    -0.000 C 
BRANCH  11  12
ATOM     12  C   UNL     1     171.530 156.346 151.860  1.00  0.00    -0.000 C 
BRANCH  12  13
ATOM     13  C   UNL     1     171.999 156.869 153.228  1.00  0.00    -0.003 C 
ATOM     14  C   UNL     1     170.990 156.604 154.345  1.00  0.00     0.004 C 
ENDBRANCH  12  13
ENDBRANCH  11  12
ENDBRANCH  10  11
ENDBRANCH   9  10
ENDBRANCH   1   9
TORSDOF 10
ENDMDL
MODEL 8
REMARK VINA RESULT:    -2.727      3.741      5.305
REMARK INTER + INTRA:          -5.689
REMARK INTER:                  -4.239
REMARK INTRA:                  -1.450
REMARK UNBOUND:                -1.369
REMARK SMILES CCCCCCCCCCCC(=O)[O-]
REMARK SMILES IDX 7 1 8 2 9 3 10 4 11 5 12 6 13 7 14 8 6 9 5 10 4 11 3 12 2 13
REMARK SMILES IDX 1 14
REMARK H PARENT
REMARK Flexibility Score: inf
ROOT
ATOM      1  C   UNL     1     167.924 169.075 152.109  1.00  0.00     0.000 C 
ENDROOT
BRANCH   1   2
ATOM      2  C   UNL     1     167.892 170.202 153.147  1.00  0.00     0.000 C 
BRANCH   2   3
ATOM      3  C   UNL     1     166.452 170.630 153.452  1.00  0.00     0.000 C 
BRANCH   3   4
ATOM      4  C   UNL     1     165.459 169.513 153.099  1.00  0.00     0.006 C 
BRANCH   4   5
ATOM      5  C   UNL     1     164.098 170.064 152.658  1.00  0.00     0.053 C 
BRANCH   5   6
ATOM      6  C   UNL     1     162.969 169.404 153.388  1.00  0.00     0.041 C 
ATOM      7  O   UNL     1     162.019 168.881 152.747  1.00  0.00    -0.550 OA
ATOM      8  O   UNL     1     162.949 169.395 154.777  1.00  0.00    -0.550 OA
ENDBRANCH   5   6
ENDBRANCH   4   5
ENDBRANCH   3   4
ENDBRANCH   2   3
ENDBRANCH   1   2
BRANCH   1   9
ATOM      9  C   UNL     1     168.842 169.434 150.933  1.00  0.00     0.000 C 
BRANCH   9  10
ATOM     10  C   UNL     1     168.051 169.489 149.617  1.00  0.00    -0.000 C 
BRANCH  10  11
ATOM     11  C   UNL     1     166.894 170.503 149.656  1.00  0.00    -0.000 C 
BRANCH  11  12
ATOM     12  C   UNL     1     165.515 169.938 149.255  1.00  0.00    -0.000 C 
BRANCH  12  13
ATOM     13  C   UNL     1     165.492 168.428 148.966  1.00  0.00    -0.003 C 
ATOM     14  C   UNL     1     164.476 167.673 149.823  1.00  0.00     0.004 C 
ENDBRANCH  12  13
ENDBRANCH  11  12
ENDBRANCH  10  11
ENDBRANCH   9  10
ENDBRANCH   1   9
TORSDOF 10
ENDMDL
MODEL 9
REMARK VINA RESULT:    -2.726      4.249      5.891
REMARK INTER + INTRA:          -5.689
REMARK INTER:                  -4.175
REMARK INTRA:                  -1.514
REMARK UNBOUND:                -1.369
REMARK SMILES CCCCCCCCCCCC(=O)[O-]
REMARK SMILES IDX 7 1 8 2 9 3 10 4 11 5 12 6 13 7 14 8 6 9 5 10 4 11 3 12 2 13
REMARK SMILES IDX 1 14
REMARK H PARENT
REMARK Flexibility Score: inf
ROOT
ATOM      1  C   UNL     1     168.242 170.268 152.626  1.00  0.00     0.000 C 
ENDROOT
BRANCH   1   2
ATOM      2  C   UNL     1     167.495 169.715 153.845  1.00  0.00     0.000 C 
BRANCH   2   3
ATOM      3  C   UNL     1     166.657 168.488 153.468  1.00  0.00     0.000 C 
BRANCH   3   4
ATOM      4  C   UNL     1     165.206 168.644 153.948  1.00  0.00     0.006 C 
BRANCH   4   5
ATOM      5  C   UNL     1     164.960 170.000 154.620  1.00  0.00     0.053 C 
BRANCH   5   6
ATOM      6  C   UNL     1     164.489 169.842 156.033  1.00  0.00     0.041 C 
ATOM      7  O   UNL     1     165.252 169.347 156.905  1.00  0.00    -0.550 OA
ATOM      8  O   UNL     1     163.195 170.211 156.380  1.00  0.00    -0.550 OA
ENDBRANCH   5   6
ENDBRANCH   4   5
ENDBRANCH   3   4
ENDBRANCH   2   3
ENDBRANCH   1   2
BRANCH   1   9
ATOM      9  C   UNL     1     168.621 169.143 151.655  1.00  0.00     0.000 C 
BRANCH   9  10
ATOM     10  C   UNL     1     168.595 169.640 150.202  1.00  0.00    -0.000 C 
BRANCH  10  11
ATOM     11  C   UNL     1     167.372 170.524 149.894  1.00  0.00    -0.000 C 
BRANCH  11  12
ATOM     12  C   UNL     1     166.124 169.764 149.399  1.00  0.00    -0.000 C 
BRANCH  12  13
ATOM     13  C   UNL     1     164.928 169.779 150.366  1.00  0.00    -0.003 C 
ATOM     14  C   UNL     1     164.747 171.125 151.067  1.00  0.00     0.004 C 
ENDBRANCH  12  13
ENDBRANCH  11  12
ENDBRANCH  10  11
ENDBRANCH   9  10
ENDBRANCH   1   9
TORSDOF 10
ENDMDL
