MODEL 1
REMARK VINA RESULT:     7.361      0.000      0.000
REMARK INTER + INTRA:          15.118
REMARK INTER:                  15.967
REMARK INTRA:                  -0.849
REMARK UNBOUND:                -0.849
REMARK SMILES CCCCCCCCCCCCCCCCCCCCCC(=O)[O-]
REMARK SMILES IDX 12 1 11 2 10 3 9 4 8 5 7 6 6 7 5 8 4 9 3 10 2 11 1 12 13 13
REMARK SMILES IDX 14 14 15 15 16 16 17 17 18 18 19 19 20 20 21 21 22 22 23 23
REMARK SMILES IDX 24 24
REMARK H PARENT
REMARK Flexibility Score: inf
ROOT
ATOM      1  C   UNL     1      11.859  16.512  -6.099  1.00  0.00     0.000 C 
ENDROOT
BRANCH   1   2
ATOM      2  C   UNL     1      12.851  17.683  -6.085  1.00  0.00     0.000 C 
BRANCH   2   3
ATOM      3  C   UNL     1      14.253  17.288  -6.577  1.00  0.00     0.000 C 
BRANCH   3   4
ATOM      4  C   UNL     1      14.244  16.479  -7.893  1.00  0.00    -0.000 C 
BRANCH   4   5
ATOM      5  C   UNL     1      15.641  15.949  -8.262  1.00  0.00    -0.000 C 
BRANCH   5   6
ATOM      6  C   UNL     1      16.066  16.373  -9.685  1.00  0.00    -0.000 C 
BRANCH   6   7
ATOM      7  C   UNL     1      17.172  17.442  -9.706  1.00  0.00    -0.000 C 
BRANCH   7   8
ATOM      8  C   UNL     1      17.461  17.971 -11.120  1.00  0.00    -0.000 C 
BRANCH   8   9
ATOM      9  C   UNL     1      17.633  19.499 -11.160  1.00  0.00    -0.000 C 
BRANCH   9  10
ATOM     10  C   UNL     1      18.074  20.010 -12.544  1.00  0.00    -0.000 C 
BRANCH  10  11
ATOM     11  C   UNL     1      19.025  21.213 -12.449  1.00  0.00    -0.003 C 
ATOM     12  C   UNL     1      20.497  20.809 -12.488  1.00  0.00     0.004 C 
ENDBRANCH  10  11
ENDBRANCH   9  10
ENDBRANCH   8   9
ENDBRANCH   7   8
ENDBRANCH   6   7
ENDBRANCH   5   6
ENDBRANCH   4   5
ENDBRANCH   3   4
ENDBRANCH   2   3
ENDBRANCH   1   2
BRANCH   1  13
ATOM     13  C   UNL     1      11.638  15.961  -4.683  1.00  0.00     0.000 C 
BRANCH  13  14
ATOM     14  C   UNL     1      10.718  14.731  -4.663  1.00  0.00     0.000 C 
BRANCH  14  15
ATOM     15  C   UNL     1      10.977  13.816  -3.452  1.00  0.00     0.000 C 
BRANCH  15  16
ATOM     16  C   UNL     1      10.600  14.498  -2.119  1.00  0.00     0.000 C 
BRANCH  16  17
ATOM     17  C   UNL     1      10.732  13.576  -0.894  1.00  0.00     0.000 C 
BRANCH  17  18
ATOM     18  C   UNL     1      12.139  13.598  -0.278  1.00  0.00     0.000 C 
BRANCH  18  19
ATOM     19  C   UNL     1      12.158  13.078   1.168  1.00  0.00     0.000 C 
BRANCH  19  20
ATOM     20  C   UNL     1      11.148  13.806   2.074  1.00  0.00     0.006 C 
BRANCH  20  21
ATOM     21  C   UNL     1      11.318  15.330   2.024  1.00  0.00     0.053 C 
BRANCH  21  22
ATOM     22  C   UNL     1      10.006  16.029   1.846  1.00  0.00     0.041 C 
ATOM     23  O   UNL     1       9.972  17.270   1.635  1.00  0.00    -0.550 OA
ATOM     24  O   UNL     1       8.818  15.316   1.951  1.00  0.00    -0.550 OA
ENDBRANCH  21  22
ENDBRANCH  20  21
ENDBRANCH  19  20
ENDBRANCH  18  19
ENDBRANCH  17  18
ENDBRANCH  16  17
ENDBRANCH  15  16
ENDBRANCH  14  15
ENDBRANCH  13  14
ENDBRANCH   1  13
TORSDOF 20
ENDMDL
MODEL 2
REMARK VINA RESULT:     7.608      1.534      2.406
REMARK INTER + INTRA:          15.654
REMARK INTER:                  16.582
REMARK INTRA:                  -0.927
REMARK UNBOUND:                -0.849
REMARK SMILES CCCCCCCCCCCCCCCCCCCCCC(=O)[O-]
REMARK SMILES IDX 12 1 11 2 10 3 9 4 8 5 7 6 6 7 5 8 4 9 3 10 2 11 1 12 13 13
REMARK SMILES IDX 14 14 15 15 16 16 17 17 18 18 19 19 20 20 21 21 22 22 23 23
REMARK SMILES IDX 24 24
REMARK H PARENT
REMARK Flexibility Score: inf
ROOT
ATOM      1  C   UNL     1      13.791  17.360  -6.778  1.00  0.00     0.000 C 
ENDROOT
BRANCH   1   2
ATOM      2  C   UNL     1      14.163  16.003  -7.392  1.00  0.00     0.000 C 
BRANCH   2   3
ATOM      3  C   UNL     1      15.053  16.134  -8.639  1.00  0.00     0.000 C 
BRANCH   3   4
ATOM      4  C   UNL     1      14.571  15.287  -9.837  1.00  0.00    -0.000 C 
BRANCH   4   5
ATOM      5  C   UNL     1      15.056  15.851 -11.185  1.00  0.00    -0.000 C 
BRANCH   5   6
ATOM      6  C   UNL     1      15.509  14.735 -12.152  1.00  0.00    -0.000 C 
BRANCH   6   7
ATOM      7  C   UNL     1      16.292  15.256 -13.370  1.00  0.00    -0.000 C 
BRANCH   7   8
ATOM      8  C   UNL     1      17.657  15.852 -12.987  1.00  0.00    -0.000 C 
BRANCH   8   9
ATOM      9  C   UNL     1      17.666  17.389 -13.030  1.00  0.00    -0.000 C 
BRANCH   9  10
ATOM     10  C   UNL     1      18.545  18.008 -11.927  1.00  0.00    -0.000 C 
BRANCH  10  11
ATOM     11  C   UNL     1      18.238  19.496 -11.699  1.00  0.00    -0.003 C 
ATOM     12  C   UNL     1      18.139  20.287 -13.002  1.00  0.00     0.004 C 
ENDBRANCH  10  11
ENDBRANCH   9  10
ENDBRANCH   8   9
ENDBRANCH   7   8
ENDBRANCH   6   7
ENDBRANCH   5   6
ENDBRANCH   4   5
ENDBRANCH   3   4
ENDBRANCH   2   3
ENDBRANCH   1   2
BRANCH   1  13
ATOM     13  C   UNL     1      12.379  17.324  -6.177  1.00  0.00     0.000 C 
BRANCH  13  14
ATOM     14  C   UNL     1      12.250  16.312  -5.028  1.00  0.00     0.000 C 
BRANCH  14  15
ATOM     15  C   UNL     1      10.938  15.509  -5.089  1.00  0.00     0.000 C 
BRANCH  15  16
ATOM     16  C   UNL     1      10.958  14.294  -4.136  1.00  0.00     0.000 C 
BRANCH  16  17
ATOM     17  C   UNL     1      11.359  14.646  -2.693  1.00  0.00     0.000 C 
BRANCH  17  18
ATOM     18  C   UNL     1      10.242  14.367  -1.675  1.00  0.00     0.000 C 
BRANCH  18  19
ATOM     19  C   UNL     1      10.720  13.506  -0.496  1.00  0.00     0.000 C 
BRANCH  19  20
ATOM     20  C   UNL     1      11.074  14.343   0.746  1.00  0.00     0.006 C 
BRANCH  20  21
ATOM     21  C   UNL     1       9.876  15.151   1.260  1.00  0.00     0.053 C 
BRANCH  21  22
ATOM     22  C   UNL     1      10.176  16.617   1.311  1.00  0.00     0.041 C 
ATOM     23  O   UNL     1      11.348  17.017   1.540  1.00  0.00    -0.550 OA
ATOM     24  O   UNL     1       9.154  17.543   1.142  1.00  0.00    -0.550 OA
ENDBRANCH  21  22
ENDBRANCH  20  21
ENDBRANCH  19  20
ENDBRANCH  18  19
ENDBRANCH  17  18
ENDBRANCH  16  17
ENDBRANCH  15  16
ENDBRANCH  14  15
ENDBRANCH  13  14
ENDBRANCH   1  13
TORSDOF 20
ENDMDL
MODEL 3
REMARK VINA RESULT:     8.136      2.426      3.165
REMARK INTER + INTRA:          16.800
REMARK INTER:                  17.909
REMARK INTRA:                  -1.109
REMARK UNBOUND:                -0.849
REMARK SMILES CCCCCCCCCCCCCCCCCCCCCC(=O)[O-]
REMARK SMILES IDX 12 1 11 2 10 3 9 4 8 5 7 6 6 7 5 8 4 9 3 10 2 11 1 12 13 13
REMARK SMILES IDX 14 14 15 15 16 16 17 17 18 18 19 19 20 20 21 21 22 22 23 23
REMARK SMILES IDX 24 24
REMARK H PARENT
REMARK Flexibility Score: inf
ROOT
ATOM      1  C   UNL     1      13.009  17.942  -6.129  1.00  0.00     0.000 C 
ENDROOT
BRANCH   1   2
ATOM      2  C   UNL     1      14.209  17.441  -6.945  1.00  0.00     0.000 C 
BRANCH   2   3
ATOM      3  C   UNL     1      13.983  16.045  -7.548  1.00  0.00     0.000 C 
BRANCH   3   4
ATOM      4  C   UNL     1      15.186  15.515  -8.357  1.00  0.00    -0.000 C 
BRANCH   4   5
ATOM      5  C   UNL     1      15.210  16.062  -9.796  1.00  0.00    -0.000 C 
BRANCH   5   6
ATOM      6  C   UNL     1      14.481  15.125 -10.785  1.00  0.00    -0.000 C 
BRANCH   6   7
ATOM      7  C   UNL     1      15.399  14.550 -11.878  1.00  0.00    -0.000 C 
BRANCH   7   8
ATOM      8  C   UNL     1      15.947  15.633 -12.823  1.00  0.00    -0.000 C 
BRANCH   8   9
ATOM      9  C   UNL     1      17.144  15.144 -13.656  1.00  0.00    -0.000 C 
BRANCH   9  10
ATOM     10  C   UNL     1      18.497  15.551 -13.046  1.00  0.00    -0.000 C 
BRANCH  10  11
ATOM     11  C   UNL     1      19.426  14.348 -12.825  1.00  0.00    -0.003 C 
ATOM     12  C   UNL     1      18.805  13.028 -13.278  1.00  0.00     0.004 C 
ENDBRANCH  10  11
ENDBRANCH   9  10
ENDBRANCH   8   9
ENDBRANCH   7   8
ENDBRANCH   6   7
ENDBRANCH   5   6
ENDBRANCH   4   5
ENDBRANCH   3   4
ENDBRANCH   2   3
ENDBRANCH   1   2
BRANCH   1  13
ATOM     13  C   UNL     1      11.890  16.891  -6.095  1.00  0.00     0.000 C 
BRANCH  13  14
ATOM     14  C   UNL     1      11.846  16.115  -4.770  1.00  0.00     0.000 C 
BRANCH  14  15
ATOM     15  C   UNL     1      10.725  15.061  -4.736  1.00  0.00     0.000 C 
BRANCH  15  16
ATOM     16  C   UNL     1      10.963  13.996  -3.643  1.00  0.00     0.000 C 
BRANCH  16  17
ATOM     17  C   UNL     1      10.590  14.469  -2.227  1.00  0.00     0.000 C 
BRANCH  17  18
ATOM     18  C   UNL     1      11.589  14.002  -1.157  1.00  0.00     0.000 C 
BRANCH  18  19
ATOM     19  C   UNL     1      10.905  13.634   0.168  1.00  0.00     0.000 C 
BRANCH  19  20
ATOM     20  C   UNL     1       9.622  14.446   0.420  1.00  0.00     0.006 C 
BRANCH  20  21
ATOM     21  C   UNL     1       9.670  15.208   1.750  1.00  0.00     0.053 C 
BRANCH  21  22
ATOM     22  C   UNL     1      10.138  16.618   1.565  1.00  0.00     0.041 C 
ATOM     23  O   UNL     1       9.307  17.539   1.350  1.00  0.00    -0.550 OA
ATOM     24  O   UNL     1      11.496  16.910   1.594  1.00  0.00    -0.550 OA
ENDBRANCH  21  22
ENDBRANCH  20  21
ENDBRANCH  19  20
ENDBRANCH  18  19
ENDBRANCH  17  18
ENDBRANCH  16  17
ENDBRANCH  15  16
ENDBRANCH  14  15
ENDBRANCH  13  14
ENDBRANCH   1  13
TORSDOF 20
ENDMDL
MODEL 4
REMARK VINA RESULT:     8.198      5.316     12.756
REMARK INTER + INTRA:          16.934
REMARK INTER:                  18.022
REMARK INTRA:                  -1.088
REMARK UNBOUND:                -0.849
REMARK SMILES CCCCCCCCCCCCCCCCCCCCCC(=O)[O-]
REMARK SMILES IDX 12 1 11 2 10 3 9 4 8 5 7 6 6 7 5 8 4 9 3 10 2 11 1 12 13 13
REMARK SMILES IDX 14 14 15 15 16 16 17 17 18 18 19 19 20 20 21 21 22 22 23 23
REMARK SMILES IDX 24 24
REMARK H PARENT
REMARK Flexibility Score: inf
ROOT
ATOM      1  C   UNL     1      12.657  17.573  -6.005  1.00  0.00     0.000 C 
ENDROOT
BRANCH   1   2
ATOM      2  C   UNL     1      11.929  16.222  -6.030  1.00  0.00     0.000 C 
BRANCH   2   3
ATOM      3  C   UNL     1      11.023  16.006  -4.806  1.00  0.00     0.000 C 
BRANCH   3   4
ATOM      4  C   UNL     1      11.265  14.663  -4.084  1.00  0.00    -0.000 C 
BRANCH   4   5
ATOM      5  C   UNL     1      10.556  14.597  -2.719  1.00  0.00    -0.000 C 
BRANCH   5   6
ATOM      6  C   UNL     1      11.473  14.025  -1.616  1.00  0.00    -0.000 C 
BRANCH   6   7
ATOM      7  C   UNL     1      10.705  13.469  -0.403  1.00  0.00    -0.000 C 
BRANCH   7   8
ATOM      8  C   UNL     1      11.565  13.418   0.871  1.00  0.00    -0.000 C 
BRANCH   8   9
ATOM      9  C   UNL     1      11.097  14.416   1.943  1.00  0.00    -0.000 C 
BRANCH   9  10
ATOM     10  C   UNL     1       9.838  15.194   1.520  1.00  0.00    -0.000 C 
BRANCH  10  11
ATOM     11  C   UNL     1       9.936  16.693   1.846  1.00  0.00    -0.003 C 
ATOM     12  C   UNL     1      11.257  17.312   1.391  1.00  0.00     0.004 C 
ENDBRANCH  10  11
ENDBRANCH   9  10
ENDBRANCH   8   9
ENDBRANCH   7   8
ENDBRANCH   6   7
ENDBRANCH   5   6
ENDBRANCH   4   5
ENDBRANCH   3   4
ENDBRANCH   2   3
ENDBRANCH   1   2
BRANCH   1  13
ATOM     13  C   UNL     1      14.035  17.467  -6.674  1.00  0.00     0.000 C 
BRANCH  13  14
ATOM     14  C   UNL     1      14.361  16.038  -7.134  1.00  0.00     0.000 C 
BRANCH  14  15
ATOM     15  C   UNL     1      14.704  15.961  -8.633  1.00  0.00     0.000 C 
BRANCH  15  16
ATOM     16  C   UNL     1      16.058  16.629  -8.953  1.00  0.00     0.000 C 
BRANCH  16  17
ATOM     17  C   UNL     1      16.296  16.855 -10.457  1.00  0.00     0.000 C 
BRANCH  17  18
ATOM     18  C   UNL     1      17.598  17.618 -10.749  1.00  0.00     0.000 C 
BRANCH  18  19
ATOM     19  C   UNL     1      18.082  17.426 -12.194  1.00  0.00     0.000 C 
BRANCH  19  20
ATOM     20  C   UNL     1      18.433  18.756 -12.885  1.00  0.00     0.006 C 
BRANCH  20  21
ATOM     21  C   UNL     1      18.308  19.953 -11.934  1.00  0.00     0.053 C 
BRANCH  21  22
ATOM     22  C   UNL     1      19.233  21.066 -12.318  1.00  0.00     0.041 C 
ATOM     23  O   UNL     1      18.772  22.198 -12.622  1.00  0.00    -0.550 OA
ATOM     24  O   UNL     1      20.603  20.843 -12.378  1.00  0.00    -0.550 OA
ENDBRANCH  21  22
ENDBRANCH  20  21
ENDBRANCH  19  20
ENDBRANCH  18  19
ENDBRANCH  17  18
ENDBRANCH  16  17
ENDBRANCH  15  16
ENDBRANCH  14  15
ENDBRANCH  13  14
ENDBRANCH   1  13
TORSDOF 20
ENDMDL
MODEL 5
REMARK VINA RESULT:     8.200      5.276     12.538
REMARK INTER + INTRA:          16.938
REMARK INTER:                  17.952
REMARK INTRA:                  -1.014
REMARK UNBOUND:                -0.849
REMARK SMILES CCCCCCCCCCCCCCCCCCCCCC(=O)[O-]
REMARK SMILES IDX 12 1 11 2 10 3 9 4 8 5 7 6 6 7 5 8 4 9 3 10 2 11 1 12 13 13
REMARK SMILES IDX 14 14 15 15 16 16 17 17 18 18 19 19 20 20 21 21 22 22 23 23
REMARK SMILES IDX 24 24
REMARK H PARENT
REMARK Flexibility Score: inf
ROOT
ATOM      1  C   UNL     1      13.637  16.537  -7.767  1.00  0.00     0.000 C 
ENDROOT
BRANCH   1   2
ATOM      2  C   UNL     1      13.834  17.323  -6.463  1.00  0.00     0.000 C 
BRANCH   2   3
ATOM      3  C   UNL     1      12.509  17.647  -5.752  1.00  0.00     0.000 C 
BRANCH   3   4
ATOM      4  C   UNL     1      11.467  16.510  -5.832  1.00  0.00    -0.000 C 
BRANCH   4   5
ATOM      5  C   UNL     1      11.822  15.327  -4.913  1.00  0.00    -0.000 C 
BRANCH   5   6
ATOM      6  C   UNL     1      10.679  14.995  -3.927  1.00  0.00    -0.000 C 
BRANCH   6   7
ATOM      7  C   UNL     1      11.089  14.008  -2.819  1.00  0.00    -0.000 C 
BRANCH   7   8
ATOM      8  C   UNL     1      10.226  14.146  -1.554  1.00  0.00    -0.000 C 
BRANCH   8   9
ATOM      9  C   UNL     1      11.066  14.278  -0.273  1.00  0.00    -0.000 C 
BRANCH   9  10
ATOM     10  C   UNL     1      10.205  14.520   0.979  1.00  0.00    -0.000 C 
BRANCH  10  11
ATOM     11  C   UNL     1       9.911  16.011   1.210  1.00  0.00    -0.003 C 
ATOM     12  C   UNL     1      11.178  16.838   1.423  1.00  0.00     0.004 C 
ENDBRANCH  10  11
ENDBRANCH   9  10
ENDBRANCH   8   9
ENDBRANCH   7   8
ENDBRANCH   6   7
ENDBRANCH   5   6
ENDBRANCH   4   5
ENDBRANCH   3   4
ENDBRANCH   2   3
ENDBRANCH   1   2
BRANCH   1  13
ATOM     13  C   UNL     1      14.868  15.674  -8.080  1.00  0.00     0.000 C 
BRANCH  13  14
ATOM     14  C   UNL     1      15.443  15.950  -9.478  1.00  0.00     0.000 C 
BRANCH  14  15
ATOM     15  C   UNL     1      14.525  15.450 -10.607  1.00  0.00     0.000 C 
BRANCH  15  16
ATOM     16  C   UNL     1      15.313  14.716 -11.713  1.00  0.00     0.000 C 
BRANCH  16  17
ATOM     17  C   UNL     1      15.787  15.637 -12.851  1.00  0.00     0.000 C 
BRANCH  17  18
ATOM     18  C   UNL     1      17.239  15.367 -13.276  1.00  0.00     0.000 C 
BRANCH  18  19
ATOM     19  C   UNL     1      18.223  16.397 -12.699  1.00  0.00     0.000 C 
BRANCH  19  20
ATOM     20  C   UNL     1      17.827  17.847 -13.030  1.00  0.00     0.006 C 
BRANCH  20  21
ATOM     21  C   UNL     1      18.560  18.863 -12.146  1.00  0.00     0.053 C 
BRANCH  21  22
ATOM     22  C   UNL     1      18.401  20.261 -12.658  1.00  0.00     0.041 C 
ATOM     23  O   UNL     1      19.183  21.170 -12.275  1.00  0.00    -0.550 OA
ATOM     24  O   UNL     1      17.364  20.568 -13.531  1.00  0.00    -0.550 OA
ENDBRANCH  21  22
ENDBRANCH  20  21
ENDBRANCH  19  20
ENDBRANCH  18  19
ENDBRANCH  17  18
ENDBRANCH  16  17
ENDBRANCH  15  16
ENDBRANCH  14  15
ENDBRANCH  13  14
ENDBRANCH   1  13
TORSDOF 20
ENDMDL
MODEL 6
REMARK VINA RESULT:     8.809      5.621     12.391
REMARK INTER + INTRA:          18.260
REMARK INTER:                  19.020
REMARK INTRA:                  -0.760
REMARK UNBOUND:                -0.849
REMARK SMILES CCCCCCCCCCCCCCCCCCCCCC(=O)[O-]
REMARK SMILES IDX 12 1 11 2 10 3 9 4 8 5 7 6 6 7 5 8 4 9 3 10 2 11 1 12 13 13
REMARK SMILES IDX 14 14 15 15 16 16 17 17 18 18 19 19 20 20 21 21 22 22 23 23
REMARK SMILES IDX 24 24
REMARK H PARENT
REMARK Flexibility Score: inf
ROOT
ATOM      1  C   UNL     1      11.480  16.644  -5.819  1.00  0.00     0.000 C 
ENDROOT
BRANCH   1   2
ATOM      2  C   UNL     1      11.649  15.315  -5.069  1.00  0.00     0.000 C 
BRANCH   2   3
ATOM      3  C   UNL     1      10.765  15.218  -3.815  1.00  0.00     0.000 C 
BRANCH   3   4
ATOM      4  C   UNL     1      10.989  13.929  -2.995  1.00  0.00    -0.000 C 
BRANCH   4   5
ATOM      5  C   UNL     1      10.145  13.900  -1.708  1.00  0.00    -0.000 C 
BRANCH   5   6
ATOM      6  C   UNL     1      11.017  14.026  -0.439  1.00  0.00    -0.000 C 
BRANCH   6   7
ATOM      7  C   UNL     1      10.214  13.941   0.871  1.00  0.00    -0.000 C 
BRANCH   7   8
ATOM      8  C   UNL     1       8.963  14.835   0.860  1.00  0.00    -0.000 C 
BRANCH   8   9
ATOM      9  C   UNL     1       8.854  15.721   2.112  1.00  0.00    -0.000 C 
BRANCH   9  10
ATOM     10  C   UNL     1       9.281  17.176   1.849  1.00  0.00    -0.000 C 
BRANCH  10  11
ATOM     11  C   UNL     1      10.649  17.270   1.156  1.00  0.00    -0.003 C 
ATOM     12  C   UNL     1      11.778  17.627   2.121  1.00  0.00     0.004 C 
ENDBRANCH  10  11
ENDBRANCH   9  10
ENDBRANCH   8   9
ENDBRANCH   7   8
ENDBRANCH   6   7
ENDBRANCH   5   6
ENDBRANCH   4   5
ENDBRANCH   3   4
ENDBRANCH   2   3
ENDBRANCH   1   2
BRANCH   1  13
ATOM     13  C   UNL     1      12.658  17.588  -5.536  1.00  0.00     0.000 C 
BRANCH  13  14
ATOM     14  C   UNL     1      13.745  17.519  -6.620  1.00  0.00     0.000 C 
BRANCH  14  15
ATOM     15  C   UNL     1      13.713  16.197  -7.408  1.00  0.00     0.000 C 
BRANCH  15  16
ATOM     16  C   UNL     1      15.129  15.728  -7.809  1.00  0.00     0.000 C 
BRANCH  16  17
ATOM     17  C   UNL     1      15.440  15.911  -9.305  1.00  0.00     0.000 C 
BRANCH  17  18
ATOM     18  C   UNL     1      14.285  15.465 -10.216  1.00  0.00     0.000 C 
BRANCH  18  19
ATOM     19  C   UNL     1      14.647  15.540 -11.707  1.00  0.00     0.000 C 
BRANCH  19  20
ATOM     20  C   UNL     1      15.577  14.398 -12.151  1.00  0.00     0.006 C 
BRANCH  20  21
ATOM     21  C   UNL     1      16.235  14.681 -13.508  1.00  0.00     0.053 C 
BRANCH  21  22
ATOM     22  C   UNL     1      17.654  15.133 -13.353  1.00  0.00     0.041 C 
ATOM     23  O   UNL     1      17.915  16.349 -13.155  1.00  0.00    -0.550 OA
ATOM     24  O   UNL     1      18.692  14.216 -13.464  1.00  0.00    -0.550 OA
ENDBRANCH  21  22
ENDBRANCH  20  21
ENDBRANCH  19  20
ENDBRANCH  18  19
ENDBRANCH  17  18
ENDBRANCH  16  17
ENDBRANCH  15  16
ENDBRANCH  14  15
ENDBRANCH  13  14
ENDBRANCH   1  13
TORSDOF 20
ENDMDL
