MODEL 1
REMARK VINA RESULT:    -3.959      0.000      0.000
REMARK INTER + INTRA:          -8.224
REMARK INTER:                  -7.198
REMARK INTRA:                  -1.025
REMARK UNBOUND:                -1.025
REMARK SMILES CCCCCCCCCCCCCCCC(=O)[O-]
REMARK SMILES IDX 9 1 10 2 11 3 12 4 13 5 14 6 15 7 16 8 17 9 18 10 8 11 7 12
REMARK SMILES IDX 6 13 5 14 4 15 3 16 2 17 1 18
REMARK H PARENT
REMARK Flexibility Score: inf
ROOT
ATOM      1  C   UNL     1      -4.460  -2.275  33.551  1.00  0.00     0.000 C 
ENDROOT
BRANCH   1   2
ATOM      2  C   UNL     1      -4.160  -3.684  33.017  1.00  0.00     0.000 C 
BRANCH   2   3
ATOM      3  C   UNL     1      -2.664  -3.903  32.729  1.00  0.00     0.000 C 
BRANCH   3   4
ATOM      4  C   UNL     1      -2.253  -5.382  32.835  1.00  0.00     0.000 C 
BRANCH   4   5
ATOM      5  C   UNL     1      -1.513  -5.880  31.581  1.00  0.00     0.000 C 
BRANCH   5   6
ATOM      6  C   UNL     1      -1.946  -7.296  31.166  1.00  0.00     0.006 C 
BRANCH   6   7
ATOM      7  C   UNL     1      -3.352  -7.330  30.553  1.00  0.00     0.053 C 
BRANCH   7   8
ATOM      8  C   UNL     1      -3.779  -8.743  30.306  1.00  0.00     0.041 C 
ATOM      9  O   UNL     1      -4.365  -9.050  29.235  1.00  0.00    -0.550 OA
ATOM     10  O   UNL     1      -3.483  -9.731  31.237  1.00  0.00    -0.550 OA
ENDBRANCH   7   8
ENDBRANCH   6   7
ENDBRANCH   5   6
ENDBRANCH   4   5
ENDBRANCH   3   4
ENDBRANCH   2   3
ENDBRANCH   1   2
BRANCH   1  11
ATOM     11  C   UNL     1      -3.267  -1.314  33.398  1.00  0.00     0.000 C 
BRANCH  11  12
ATOM     12  C   UNL     1      -3.501   0.030  34.122  1.00  0.00    -0.000 C 
BRANCH  12  13
ATOM     13  C   UNL     1      -2.533   0.278  35.295  1.00  0.00    -0.000 C 
BRANCH  13  14
ATOM     14  C   UNL     1      -2.800   1.565  36.097  1.00  0.00    -0.000 C 
BRANCH  14  15
ATOM     15  C   UNL     1      -3.884   1.439  37.185  1.00  0.00    -0.000 C 
BRANCH  15  16
ATOM     16  C   UNL     1      -3.776   0.133  37.987  1.00  0.00    -0.000 C 
BRANCH  16  17
ATOM     17  C   UNL     1      -5.162  -0.471  38.239  1.00  0.00    -0.003 C 
ATOM     18  C   UNL     1      -5.824  -0.898  36.933  1.00  0.00     0.004 C 
ENDBRANCH  16  17
ENDBRANCH  15  16
ENDBRANCH  14  15
ENDBRANCH  13  14
ENDBRANCH  12  13
ENDBRANCH  11  12
ENDBRANCH   1  11
TORSDOF 14
ENDMDL
MODEL 2
REMARK VINA RESULT:    -3.858      3.820      5.993
REMARK INTER + INTRA:          -8.040
REMARK INTER:                  -5.654
REMARK INTRA:                  -2.387
REMARK UNBOUND:                -1.025
REMARK SMILES CCCCCCCCCCCCCCCC(=O)[O-]
REMARK SMILES IDX 9 1 10 2 11 3 12 4 13 5 14 6 15 7 16 8 17 9 18 10 8 11 7 12
REMARK SMILES IDX 6 13 5 14 4 15 3 16 2 17 1 18
REMARK H PARENT
REMARK Flexibility Score: inf
ROOT
ATOM      1  C   UNL     1      -5.520  -5.426  29.629  1.00  0.00     0.000 C 
ENDROOT
BRANCH   1   2
ATOM      2  C   UNL     1      -5.499  -6.236  30.935  1.00  0.00     0.000 C 
BRANCH   2   3
ATOM      3  C   UNL     1      -5.519  -7.755  30.690  1.00  0.00     0.000 C 
BRANCH   3   4
ATOM      4  C   UNL     1      -4.107  -8.366  30.654  1.00  0.00     0.000 C 
BRANCH   4   5
ATOM      5  C   UNL     1      -3.968  -9.469  29.590  1.00  0.00     0.000 C 
BRANCH   5   6
ATOM      6  C   UNL     1      -4.298  -8.967  28.175  1.00  0.00     0.006 C 
BRANCH   6   7
ATOM      7  C   UNL     1      -4.961 -10.044  27.305  1.00  0.00     0.053 C 
BRANCH   7   8
ATOM      8  C   UNL     1      -4.029 -10.484  26.221  1.00  0.00     0.041 C 
ATOM      9  O   UNL     1      -4.283 -10.214  25.018  1.00  0.00    -0.550 OA
ATOM     10  O   UNL     1      -2.852 -11.149  26.544  1.00  0.00    -0.550 OA
ENDBRANCH   7   8
ENDBRANCH   6   7
ENDBRANCH   5   6
ENDBRANCH   4   5
ENDBRANCH   3   4
ENDBRANCH   2   3
ENDBRANCH   1   2
BRANCH   1  11
ATOM     11  C   UNL     1      -4.233  -4.609  29.415  1.00  0.00     0.000 C 
BRANCH  11  12
ATOM     12  C   UNL     1      -3.186  -5.375  28.576  1.00  0.00    -0.000 C 
BRANCH  12  13
ATOM     13  C   UNL     1      -1.897  -5.709  29.349  1.00  0.00    -0.000 C 
BRANCH  13  14
ATOM     14  C   UNL     1      -1.714  -4.941  30.671  1.00  0.00    -0.000 C 
BRANCH  14  15
ATOM     15  C   UNL     1      -1.741  -5.816  31.938  1.00  0.00    -0.000 C 
BRANCH  15  16
ATOM     16  C   UNL     1      -2.285  -5.073  33.167  1.00  0.00    -0.000 C 
BRANCH  16  17
ATOM     17  C   UNL     1      -2.755  -3.663  32.792  1.00  0.00    -0.003 C 
ATOM     18  C   UNL     1      -4.242  -3.482  33.083  1.00  0.00     0.004 C 
ENDBRANCH  16  17
ENDBRANCH  15  16
ENDBRANCH  14  15
ENDBRANCH  13  14
ENDBRANCH  12  13
ENDBRANCH  11  12
ENDBRANCH   1  11
TORSDOF 14
ENDMDL
MODEL 3
REMARK VINA RESULT:    -3.817      4.011      6.678
REMARK INTER + INTRA:          -7.967
REMARK INTER:                  -6.820
REMARK INTRA:                  -1.147
REMARK UNBOUND:                -1.025
REMARK SMILES CCCCCCCCCCCCCCCC(=O)[O-]
REMARK SMILES IDX 9 1 10 2 11 3 12 4 13 5 14 6 15 7 16 8 17 9 18 10 8 11 7 12
REMARK SMILES IDX 6 13 5 14 4 15 3 16 2 17 1 18
REMARK H PARENT
REMARK Flexibility Score: inf
ROOT
ATOM      1  C   UNL     1      -3.776  -7.507  30.546  1.00  0.00     0.000 C 
ENDROOT
BRANCH   1   2
ATOM      2  C   UNL     1      -3.992  -8.927  29.999  1.00  0.00     0.000 C 
BRANCH   2   3
ATOM      3  C   UNL     1      -4.172  -8.951  28.471  1.00  0.00     0.000 C 
BRANCH   3   4
ATOM      4  C   UNL     1      -5.336  -9.856  28.028  1.00  0.00     0.000 C 
BRANCH   4   5
ATOM      5  C   UNL     1      -4.960 -10.764  26.844  1.00  0.00     0.000 C 
BRANCH   5   6
ATOM      6  C   UNL     1      -3.462 -10.700  26.503  1.00  0.00     0.006 C 
BRANCH   6   7
ATOM      7  C   UNL     1      -3.176 -11.020  25.030  1.00  0.00     0.053 C 
BRANCH   7   8
ATOM      8  C   UNL     1      -2.741  -9.786  24.304  1.00  0.00     0.041 C 
ATOM      9  O   UNL     1      -1.749  -9.823  23.530  1.00  0.00    -0.550 OA
ATOM     10  O   UNL     1      -3.463  -8.608  24.443  1.00  0.00    -0.550 OA
ENDBRANCH   7   8
ENDBRANCH   6   7
ENDBRANCH   5   6
ENDBRANCH   4   5
ENDBRANCH   3   4
ENDBRANCH   2   3
ENDBRANCH   1   2
BRANCH   1  11
ATOM     11  C   UNL     1      -2.401  -7.328  31.213  1.00  0.00     0.000 C 
BRANCH  11  12
ATOM     12  C   UNL     1      -1.553  -6.238  30.522  1.00  0.00    -0.000 C 
BRANCH  12  13
ATOM     13  C   UNL     1      -1.789  -4.822  31.081  1.00  0.00    -0.000 C 
BRANCH  13  14
ATOM     14  C   UNL     1      -2.330  -4.773  32.522  1.00  0.00    -0.000 C 
BRANCH  14  15
ATOM     15  C   UNL     1      -2.901  -3.410  32.955  1.00  0.00    -0.000 C 
BRANCH  15  16
ATOM     16  C   UNL     1      -4.436  -3.365  32.911  1.00  0.00    -0.000 C 
BRANCH  16  17
ATOM     17  C   UNL     1      -5.023  -4.774  32.776  1.00  0.00    -0.003 C 
ATOM     18  C   UNL     1      -6.104  -4.821  31.700  1.00  0.00     0.004 C 
ENDBRANCH  16  17
ENDBRANCH  15  16
ENDBRANCH  14  15
ENDBRANCH  13  14
ENDBRANCH  12  13
ENDBRANCH  11  12
ENDBRANCH   1  11
TORSDOF 14
ENDMDL
MODEL 4
REMARK VINA RESULT:    -3.802      8.091     10.461
REMARK INTER + INTRA:          -7.939
REMARK INTER:                  -5.590
REMARK INTRA:                  -2.350
REMARK UNBOUND:                -1.025
REMARK SMILES CCCCCCCCCCCCCCCC(=O)[O-]
REMARK SMILES IDX 9 1 10 2 11 3 12 4 13 5 14 6 15 7 16 8 17 9 18 10 8 11 7 12
REMARK SMILES IDX 6 13 5 14 4 15 3 16 2 17 1 18
REMARK H PARENT
REMARK Flexibility Score: inf
ROOT
ATOM      1  C   UNL     1      -7.194   1.345  39.468  1.00  0.00     0.000 C 
ENDROOT
BRANCH   1   2
ATOM      2  C   UNL     1      -7.387   2.773  40.006  1.00  0.00     0.000 C 
BRANCH   2   3
ATOM      3  C   UNL     1      -6.823   3.844  39.055  1.00  0.00     0.000 C 
BRANCH   3   4
ATOM      4  C   UNL     1      -7.812   4.998  38.815  1.00  0.00     0.000 C 
BRANCH   4   5
ATOM      5  C   UNL     1      -8.382   5.000  37.386  1.00  0.00     0.000 C 
BRANCH   5   6
ATOM      6  C   UNL     1      -9.593   4.065  37.233  1.00  0.00     0.006 C 
BRANCH   6   7
ATOM      7  C   UNL     1      -9.735   3.507  35.810  1.00  0.00     0.053 C 
BRANCH   7   8
ATOM      8  C   UNL     1     -10.753   4.290  35.043  1.00  0.00     0.041 C 
ATOM      9  O   UNL     1     -10.411   5.319  34.404  1.00  0.00    -0.550 OA
ATOM     10  O   UNL     1     -12.071   3.853  34.992  1.00  0.00    -0.550 OA
ENDBRANCH   7   8
ENDBRANCH   6   7
ENDBRANCH   5   6
ENDBRANCH   4   5
ENDBRANCH   3   4
ENDBRANCH   2   3
ENDBRANCH   1   2
BRANCH   1  11
ATOM     11  C   UNL     1      -7.311   1.265  37.936  1.00  0.00     0.000 C 
BRANCH  11  12
ATOM     12  C   UNL     1      -6.507   0.085  37.348  1.00  0.00    -0.000 C 
BRANCH  12  13
ATOM     13  C   UNL     1      -5.349  -0.385  38.248  1.00  0.00    -0.000 C 
BRANCH  13  14
ATOM     14  C   UNL     1      -3.966   0.181  37.878  1.00  0.00    -0.000 C 
BRANCH  14  15
ATOM     15  C   UNL     1      -3.513   1.389  38.721  1.00  0.00    -0.000 C 
BRANCH  15  16
ATOM     16  C   UNL     1      -3.593   2.717  37.954  1.00  0.00    -0.000 C 
BRANCH  16  17
ATOM     17  C   UNL     1      -3.764   2.472  36.450  1.00  0.00    -0.003 C 
ATOM     18  C   UNL     1      -4.937   3.272  35.891  1.00  0.00     0.004 C 
ENDBRANCH  16  17
ENDBRANCH  15  16
ENDBRANCH  14  15
ENDBRANCH  13  14
ENDBRANCH  12  13
ENDBRANCH  11  12
ENDBRANCH   1  11
TORSDOF 14
ENDMDL
MODEL 5
REMARK VINA RESULT:    -3.788      3.093      6.021
REMARK INTER + INTRA:          -7.914
REMARK INTER:                  -6.584
REMARK INTRA:                  -1.330
REMARK UNBOUND:                -1.025
REMARK SMILES CCCCCCCCCCCCCCCC(=O)[O-]
REMARK SMILES IDX 9 1 10 2 11 3 12 4 13 5 14 6 15 7 16 8 17 9 18 10 8 11 7 12
REMARK SMILES IDX 6 13 5 14 4 15 3 16 2 17 1 18
REMARK H PARENT
REMARK Flexibility Score: inf
ROOT
ATOM      1  C   UNL     1      -3.067  -7.371  30.190  1.00  0.00     0.000 C 
ENDROOT
BRANCH   1   2
ATOM      2  C   UNL     1      -4.538  -7.419  30.633  1.00  0.00     0.000 C 
BRANCH   2   3
ATOM      3  C   UNL     1      -5.210  -8.765  30.310  1.00  0.00     0.000 C 
BRANCH   3   4
ATOM      4  C   UNL     1      -4.645  -9.415  29.035  1.00  0.00     0.000 C 
BRANCH   4   5
ATOM      5  C   UNL     1      -5.326  -8.896  27.756  1.00  0.00     0.000 C 
BRANCH   5   6
ATOM      6  C   UNL     1      -4.333  -8.697  26.599  1.00  0.00     0.006 C 
BRANCH   6   7
ATOM      7  C   UNL     1      -4.431  -9.800  25.537  1.00  0.00     0.053 C 
BRANCH   7   8
ATOM      8  C   UNL     1      -3.104 -10.463  25.350  1.00  0.00     0.041 C 
ATOM      9  O   UNL     1      -2.422 -10.236  24.317  1.00  0.00    -0.550 OA
ATOM     10  O   UNL     1      -2.595 -11.293  26.342  1.00  0.00    -0.550 OA
ENDBRANCH   7   8
ENDBRANCH   6   7
ENDBRANCH   5   6
ENDBRANCH   4   5
ENDBRANCH   3   4
ENDBRANCH   2   3
ENDBRANCH   1   2
BRANCH   1  11
ATOM     11  C   UNL     1      -2.677  -6.019  29.567  1.00  0.00     0.000 C 
BRANCH  11  12
ATOM     12  C   UNL     1      -1.586  -5.291  30.383  1.00  0.00    -0.000 C 
BRANCH  12  13
ATOM     13  C   UNL     1      -1.226  -5.997  31.704  1.00  0.00    -0.000 C 
BRANCH  13  14
ATOM     14  C   UNL     1      -1.760  -5.310  32.974  1.00  0.00    -0.000 C 
BRANCH  14  15
ATOM     15  C   UNL     1      -2.474  -3.967  32.734  1.00  0.00    -0.000 C 
BRANCH  15  16
ATOM     16  C   UNL     1      -3.999  -4.062  32.895  1.00  0.00    -0.000 C 
BRANCH  16  17
ATOM     17  C   UNL     1      -4.587  -2.722  33.349  1.00  0.00    -0.003 C 
ATOM     18  C   UNL     1      -3.517  -1.636  33.396  1.00  0.00     0.004 C 
ENDBRANCH  16  17
ENDBRANCH  15  16
ENDBRANCH  14  15
ENDBRANCH  13  14
ENDBRANCH  12  13
ENDBRANCH  11  12
ENDBRANCH   1  11
TORSDOF 14
ENDMDL
MODEL 6
REMARK VINA RESULT:    -3.780      7.560     10.541
REMARK INTER + INTRA:          -7.898
REMARK INTER:                  -5.947
REMARK INTRA:                  -1.952
REMARK UNBOUND:                -1.025
REMARK SMILES CCCCCCCCCCCCCCCC(=O)[O-]
REMARK SMILES IDX 9 1 10 2 11 3 12 4 13 5 14 6 15 7 16 8 17 9 18 10 8 11 7 12
REMARK SMILES IDX 6 13 5 14 4 15 3 16 2 17 1 18
REMARK H PARENT
REMARK Flexibility Score: inf
ROOT
ATOM      1  C   UNL     1      -3.896   1.729  38.657  1.00  0.00     0.000 C 
ENDROOT
BRANCH   1   2
ATOM      2  C   UNL     1      -5.424   1.886  38.610  1.00  0.00     0.000 C 
BRANCH   2   3
ATOM      3  C   UNL     1      -5.924   3.073  39.452  1.00  0.00     0.000 C 
BRANCH   3   4
ATOM      4  C   UNL     1      -7.380   3.453  39.131  1.00  0.00     0.000 C 
BRANCH   4   5
ATOM      5  C   UNL     1      -7.619   4.972  39.186  1.00  0.00     0.000 C 
BRANCH   5   6
ATOM      6  C   UNL     1      -8.111   5.540  37.844  1.00  0.00     0.006 C 
BRANCH   6   7
ATOM      7  C   UNL     1      -8.730   4.467  36.938  1.00  0.00     0.053 C 
BRANCH   7   8
ATOM      8  C   UNL     1     -10.036   4.942  36.386  1.00  0.00     0.041 C 
ATOM      9  O   UNL     1     -10.093   6.010  35.722  1.00  0.00    -0.550 OA
ATOM     10  O   UNL     1     -11.184   4.178  36.561  1.00  0.00    -0.550 OA
ENDBRANCH   7   8
ENDBRANCH   6   7
ENDBRANCH   5   6
ENDBRANCH   4   5
ENDBRANCH   3   4
ENDBRANCH   2   3
ENDBRANCH   1   2
BRANCH   1  11
ATOM     11  C   UNL     1      -3.419   0.377  38.097  1.00  0.00     0.000 C 
BRANCH  11  12
ATOM     12  C   UNL     1      -3.819   0.182  36.618  1.00  0.00    -0.000 C 
BRANCH  12  13
ATOM     13  C   UNL     1      -2.708   0.557  35.620  1.00  0.00    -0.000 C 
BRANCH  13  14
ATOM     14  C   UNL     1      -3.203   1.141  34.284  1.00  0.00    -0.000 C 
BRANCH  14  15
ATOM     15  C   UNL     1      -4.382   2.125  34.404  1.00  0.00    -0.000 C 
BRANCH  15  16
ATOM     16  C   UNL     1      -3.971   3.482  34.994  1.00  0.00    -0.000 C 
BRANCH  16  17
ATOM     17  C   UNL     1      -5.123   4.107  35.789  1.00  0.00    -0.003 C 
ATOM     18  C   UNL     1      -4.624   5.229  36.694  1.00  0.00     0.004 C 
ENDBRANCH  16  17
ENDBRANCH  15  16
ENDBRANCH  14  15
ENDBRANCH  13  14
ENDBRANCH  12  13
ENDBRANCH  11  12
ENDBRANCH   1  11
TORSDOF 14
ENDMDL
MODEL 7
REMARK VINA RESULT:    -3.779      3.897      8.274
REMARK INTER + INTRA:          -7.898
REMARK INTER:                  -6.514
REMARK INTRA:                  -1.383
REMARK UNBOUND:                -1.025
REMARK SMILES CCCCCCCCCCCCCCCC(=O)[O-]
REMARK SMILES IDX 9 1 10 2 11 3 12 4 13 5 14 6 15 7 16 8 17 9 18 10 8 11 7 12
REMARK SMILES IDX 6 13 5 14 4 15 3 16 2 17 1 18
REMARK H PARENT
REMARK Flexibility Score: inf
ROOT
ATOM      1  C   UNL     1      -4.305  -2.747  31.921  1.00  0.00     0.000 C 
ENDROOT
BRANCH   1   2
ATOM      2  C   UNL     1      -4.139  -1.272  32.321  1.00  0.00     0.000 C 
BRANCH   2   3
ATOM      3  C   UNL     1      -3.949  -1.089  33.837  1.00  0.00     0.000 C 
BRANCH   3   4
ATOM      4  C   UNL     1      -2.595  -0.446  34.188  1.00  0.00     0.000 C 
BRANCH   4   5
ATOM      5  C   UNL     1      -2.626   0.300  35.534  1.00  0.00     0.000 C 
BRANCH   5   6
ATOM      6  C   UNL     1      -4.050   0.443  36.095  1.00  0.00     0.006 C 
BRANCH   6   7
ATOM      7  C   UNL     1      -4.141   0.072  37.582  1.00  0.00     0.053 C 
BRANCH   7   8
ATOM      8  C   UNL     1      -5.386  -0.712  37.848  1.00  0.00     0.041 C 
ATOM      9  O   UNL     1      -5.719  -0.993  39.029  1.00  0.00    -0.550 OA
ATOM     10  O   UNL     1      -6.207  -1.091  36.793  1.00  0.00    -0.550 OA
ENDBRANCH   7   8
ENDBRANCH   6   7
ENDBRANCH   5   6
ENDBRANCH   4   5
ENDBRANCH   3   4
ENDBRANCH   2   3
ENDBRANCH   1   2
BRANCH   1  11
ATOM     11  C   UNL     1      -2.970  -3.512  31.899  1.00  0.00     0.000 C 
BRANCH  11  12
ATOM     12  C   UNL     1      -2.813  -4.451  33.114  1.00  0.00    -0.000 C 
BRANCH  12  13
ATOM     13  C   UNL     1      -1.601  -5.397  33.014  1.00  0.00    -0.000 C 
BRANCH  13  14
ATOM     14  C   UNL     1      -1.302  -5.922  31.597  1.00  0.00    -0.000 C 
BRANCH  14  15
ATOM     15  C   UNL     1      -2.101  -7.173  31.187  1.00  0.00    -0.000 C 
BRANCH  15  16
ATOM     16  C   UNL     1      -3.202  -6.869  30.160  1.00  0.00    -0.000 C 
BRANCH  16  17
ATOM     17  C   UNL     1      -4.561  -7.389  30.643  1.00  0.00    -0.003 C 
ATOM     18  C   UNL     1      -5.454  -6.245  31.115  1.00  0.00     0.004 C 
ENDBRANCH  16  17
ENDBRANCH  15  16
ENDBRANCH  14  15
ENDBRANCH  13  14
ENDBRANCH  12  13
ENDBRANCH  11  12
ENDBRANCH   1  11
TORSDOF 14
ENDMDL
MODEL 8
REMARK VINA RESULT:    -3.728     11.865     14.084
REMARK INTER + INTRA:          -7.804
REMARK INTER:                  -5.647
REMARK INTRA:                  -2.157
REMARK UNBOUND:                -1.025
REMARK SMILES CCCCCCCCCCCCCCCC(=O)[O-]
REMARK SMILES IDX 9 1 10 2 11 3 12 4 13 5 14 6 15 7 16 8 17 9 18 10 8 11 7 12
REMARK SMILES IDX 6 13 5 14 4 15 3 16 2 17 1 18
REMARK H PARENT
REMARK Flexibility Score: inf
ROOT
ATOM      1  C   UNL     1     -11.856   4.390  27.263  1.00  0.00     0.000 C 
ENDROOT
BRANCH   1   2
ATOM      2  C   UNL     1     -11.913   3.704  28.637  1.00  0.00     0.000 C 
BRANCH   2   3
ATOM      3  C   UNL     1     -10.603   3.857  29.430  1.00  0.00     0.000 C 
BRANCH   3   4
ATOM      4  C   UNL     1     -10.681   4.972  30.488  1.00  0.00     0.000 C 
BRANCH   4   5
ATOM      5  C   UNL     1     -12.127   5.409  30.780  1.00  0.00     0.000 C 
BRANCH   5   6
ATOM      6  C   UNL     1     -12.438   5.449  32.286  1.00  0.00     0.006 C 
BRANCH   6   7
ATOM      7  C   UNL     1     -12.029   4.159  33.009  1.00  0.00     0.053 C 
BRANCH   7   8
ATOM      8  C   UNL     1     -11.199   4.477  34.213  1.00  0.00     0.041 C 
ATOM      9  O   UNL     1     -11.421   3.896  35.307  1.00  0.00    -0.550 OA
ATOM     10  O   UNL     1     -10.148   5.380  34.113  1.00  0.00    -0.550 OA
ENDBRANCH   7   8
ENDBRANCH   6   7
ENDBRANCH   5   6
ENDBRANCH   4   5
ENDBRANCH   3   4
ENDBRANCH   2   3
ENDBRANCH   1   2
BRANCH   1  11
ATOM     11  C   UNL     1     -12.850   5.558  27.138  1.00  0.00     0.000 C 
BRANCH  11  12
ATOM     12  C   UNL     1     -12.441   6.561  26.037  1.00  0.00    -0.000 C 
BRANCH  12  13
ATOM     13  C   UNL     1     -12.051   7.950  26.579  1.00  0.00    -0.000 C 
BRANCH  13  14
ATOM     14  C   UNL     1     -11.956   8.046  28.112  1.00  0.00    -0.000 C 
BRANCH  14  15
ATOM     15  C   UNL     1     -10.522   8.116  28.670  1.00  0.00    -0.000 C 
BRANCH  15  16
ATOM     16  C   UNL     1      -9.449   7.947  27.584  1.00  0.00    -0.000 C 
BRANCH  16  17
ATOM     17  C   UNL     1      -8.820   6.551  27.647  1.00  0.00    -0.003 C 
ATOM     18  C   UNL     1      -7.366   6.579  27.189  1.00  0.00     0.004 C 
ENDBRANCH  16  17
ENDBRANCH  15  16
ENDBRANCH  14  15
ENDBRANCH  13  14
ENDBRANCH  12  13
ENDBRANCH  11  12
ENDBRANCH   1  11
TORSDOF 14
ENDMDL
MODEL 9
REMARK VINA RESULT:    -3.702      6.718     10.159
REMARK INTER + INTRA:          -7.757
REMARK INTER:                  -5.751
REMARK INTRA:                  -2.006
REMARK UNBOUND:                -1.025
REMARK SMILES CCCCCCCCCCCCCCCC(=O)[O-]
REMARK SMILES IDX 9 1 10 2 11 3 12 4 13 5 14 6 15 7 16 8 17 9 18 10 8 11 7 12
REMARK SMILES IDX 6 13 5 14 4 15 3 16 2 17 1 18
REMARK H PARENT
REMARK Flexibility Score: inf
ROOT
ATOM      1  C   UNL     1      -7.466   0.626  37.890  1.00  0.00     0.000 C 
ENDROOT
BRANCH   1   2
ATOM      2  C   UNL     1      -7.295   0.774  39.411  1.00  0.00     0.000 C 
BRANCH   2   3
ATOM      3  C   UNL     1      -7.486   2.224  39.889  1.00  0.00     0.000 C 
BRANCH   3   4
ATOM      4  C   UNL     1      -6.233   3.089  39.663  1.00  0.00     0.000 C 
BRANCH   4   5
ATOM      5  C   UNL     1      -6.452   4.180  38.601  1.00  0.00     0.000 C 
BRANCH   5   6
ATOM      6  C   UNL     1      -7.674   5.062  38.905  1.00  0.00     0.006 C 
BRANCH   6   7
ATOM      7  C   UNL     1      -8.437   5.474  37.638  1.00  0.00     0.053 C 
BRANCH   7   8
ATOM      8  C   UNL     1      -9.074   4.279  37.002  1.00  0.00     0.041 C 
ATOM      9  O   UNL     1      -8.774   3.954  35.823  1.00  0.00    -0.550 OA
ATOM     10  O   UNL     1      -9.961   3.495  37.728  1.00  0.00    -0.550 OA
ENDBRANCH   7   8
ENDBRANCH   6   7
ENDBRANCH   5   6
ENDBRANCH   4   5
ENDBRANCH   3   4
ENDBRANCH   2   3
ENDBRANCH   1   2
BRANCH   1  11
ATOM     11  C   UNL     1      -6.157   0.242  37.178  1.00  0.00     0.000 C 
BRANCH  11  12
ATOM     12  C   UNL     1      -5.065  -0.218  38.169  1.00  0.00    -0.000 C 
BRANCH  12  13
ATOM     13  C   UNL     1      -3.781   0.630  38.113  1.00  0.00    -0.000 C 
BRANCH  13  14
ATOM     14  C   UNL     1      -3.812   1.791  37.102  1.00  0.00    -0.000 C 
BRANCH  14  15
ATOM     15  C   UNL     1      -2.771   1.694  35.971  1.00  0.00    -0.000 C 
BRANCH  15  16
ATOM     16  C   UNL     1      -2.561   0.255  35.474  1.00  0.00    -0.000 C 
BRANCH  16  17
ATOM     17  C   UNL     1      -3.324   0.009  34.168  1.00  0.00    -0.003 C 
ATOM     18  C   UNL     1      -3.271   1.232  33.258  1.00  0.00     0.004 C 
ENDBRANCH  16  17
ENDBRANCH  15  16
ENDBRANCH  14  15
ENDBRANCH  13  14
ENDBRANCH  12  13
ENDBRANCH  11  12
ENDBRANCH   1  11
TORSDOF 14
ENDMDL
