MODEL 1
REMARK VINA RESULT:    -1.077      0.000      0.000
REMARK INTER + INTRA:          -7.823
REMARK INTER:                  -2.463
REMARK INTRA:                  -5.360
REMARK UNBOUND:                -5.360
REMARK SMILES CCCCCCCCCCCCCCCCCCCCCCCC(=O)[O-]
REMARK SMILES IDX 13 1 14 2 15 3 16 4 17 5 18 6 19 7 20 8 21 9 22 10 23 11
REMARK SMILES IDX 24 12 25 13 26 14 12 15 11 16 10 17 9 18 8 19 7 20 6 21 5 22
REMARK SMILES IDX 4 23 3 24 2 25 1 26
REMARK H PARENT
REMARK Flexibility Score: inf
ROOT
ATOM      1  C   UNL     1      24.722  28.526  15.262  1.00  0.00     0.000 C 
ENDROOT
BRANCH   1   2
ATOM      2  C   UNL     1      24.281  29.464  16.399  1.00  0.00     0.000 C 
BRANCH   2   3
ATOM      3  C   UNL     1      24.539  28.870  17.796  1.00  0.00     0.000 C 
BRANCH   3   4
ATOM      4  C   UNL     1      23.315  28.194  18.445  1.00  0.00     0.000 C 
BRANCH   4   5
ATOM      5  C   UNL     1      23.525  26.690  18.694  1.00  0.00     0.000 C 
BRANCH   5   6
ATOM      6  C   UNL     1      22.315  25.844  18.269  1.00  0.00     0.000 C 
BRANCH   6   7
ATOM      7  C   UNL     1      22.629  24.339  18.227  1.00  0.00     0.000 C 
BRANCH   7   8
ATOM      8  C   UNL     1      21.900  23.616  17.071  1.00  0.00     0.000 C 
BRANCH   8   9
ATOM      9  C   UNL     1      20.752  24.436  16.454  1.00  0.00     0.000 C 
BRANCH   9  10
ATOM     10  C   UNL     1      20.391  24.057  15.003  1.00  0.00     0.006 C 
BRANCH  10  11
ATOM     11  C   UNL     1      19.344  24.987  14.357  1.00  0.00     0.053 C 
BRANCH  11  12
ATOM     12  C   UNL     1      19.256  24.821  12.871  1.00  0.00     0.041 C 
ATOM     13  O   UNL     1      18.653  25.676  12.171  1.00  0.00    -0.550 OA
ATOM     14  O   UNL     1      19.865  23.734  12.253  1.00  0.00    -0.550 OA
ENDBRANCH  11  12
ENDBRANCH  10  11
ENDBRANCH   9  10
ENDBRANCH   8   9
ENDBRANCH   7   8
ENDBRANCH   6   7
ENDBRANCH   5   6
ENDBRANCH   4   5
ENDBRANCH   3   4
ENDBRANCH   2   3
ENDBRANCH   1   2
BRANCH   1  15
ATOM     15  C   UNL     1      25.758  27.490  15.728  1.00  0.00     0.000 C 
BRANCH  15  16
ATOM     16  C   UNL     1      25.300  26.046  15.464  1.00  0.00     0.000 C 
BRANCH  16  17
ATOM     17  C   UNL     1      23.855  25.965  14.936  1.00  0.00     0.000 C 
BRANCH  17  18
ATOM     18  C   UNL     1      23.667  25.069  13.694  1.00  0.00    -0.000 C 
BRANCH  18  19
ATOM     19  C   UNL     1      22.896  25.719  12.529  1.00  0.00    -0.000 C 
BRANCH  19  20
ATOM     20  C   UNL     1      23.455  27.078  12.060  1.00  0.00    -0.000 C 
BRANCH  20  21
ATOM     21  C   UNL     1      22.492  28.271  12.224  1.00  0.00    -0.000 C 
BRANCH  21  22
ATOM     22  C   UNL     1      21.262  27.999  13.110  1.00  0.00    -0.000 C 
BRANCH  22  23
ATOM     23  C   UNL     1      21.199  28.912  14.343  1.00  0.00    -0.000 C 
BRANCH  23  24
ATOM     24  C   UNL     1      20.915  28.100  15.616  1.00  0.00    -0.000 C 
BRANCH  24  25
ATOM     25  C   UNL     1      19.467  28.250  16.103  1.00  0.00    -0.003 C 
ATOM     26  C   UNL     1      19.255  27.699  17.513  1.00  0.00     0.004 C 
ENDBRANCH  24  25
ENDBRANCH  23  24
ENDBRANCH  22  23
ENDBRANCH  21  22
ENDBRANCH  20  21
ENDBRANCH  19  20
ENDBRANCH  18  19
ENDBRANCH  17  18
ENDBRANCH  16  17
ENDBRANCH  15  16
ENDBRANCH   1  15
TORSDOF 22
ENDMDL
MODEL 2
REMARK VINA RESULT:    -1.052      1.826      4.351
REMARK INTER + INTRA:          -7.765
REMARK INTER:                  -2.655
REMARK INTRA:                  -5.110
REMARK UNBOUND:                -5.360
REMARK SMILES CCCCCCCCCCCCCCCCCCCCCCCC(=O)[O-]
REMARK SMILES IDX 13 1 14 2 15 3 16 4 17 5 18 6 19 7 20 8 21 9 22 10 23 11
REMARK SMILES IDX 24 12 25 13 26 14 12 15 11 16 10 17 9 18 8 19 7 20 6 21 5 22
REMARK SMILES IDX 4 23 3 24 2 25 1 26
REMARK H PARENT
REMARK Flexibility Score: inf
ROOT
ATOM      1  C   UNL     1      23.495  26.866  16.114  1.00  0.00     0.000 C 
ENDROOT
BRANCH   1   2
ATOM      2  C   UNL     1      23.488  28.403  16.151  1.00  0.00     0.000 C 
BRANCH   2   3
ATOM      3  C   UNL     1      24.482  29.028  15.155  1.00  0.00     0.000 C 
BRANCH   3   4
ATOM      4  C   UNL     1      23.830  29.738  13.952  1.00  0.00     0.000 C 
BRANCH   4   5
ATOM      5  C   UNL     1      24.529  29.419  12.619  1.00  0.00     0.000 C 
BRANCH   5   6
ATOM      6  C   UNL     1      24.081  28.077  12.020  1.00  0.00     0.000 C 
BRANCH   6   7
ATOM      7  C   UNL     1      22.550  27.928  11.978  1.00  0.00     0.000 C 
BRANCH   7   8
ATOM      8  C   UNL     1      22.072  26.585  12.575  1.00  0.00     0.000 C 
BRANCH   8   9
ATOM      9  C   UNL     1      20.724  26.680  13.314  1.00  0.00     0.000 C 
BRANCH   9  10
ATOM     10  C   UNL     1      20.517  27.976  14.123  1.00  0.00     0.006 C 
BRANCH  10  11
ATOM     11  C   UNL     1      19.776  27.766  15.460  1.00  0.00     0.053 C 
BRANCH  11  12
ATOM     12  C   UNL     1      18.401  27.197  15.278  1.00  0.00     0.041 C 
ATOM     13  O   UNL     1      18.094  26.099  15.811  1.00  0.00    -0.550 OA
ATOM     14  O   UNL     1      17.449  27.893  14.542  1.00  0.00    -0.550 OA
ENDBRANCH  11  12
ENDBRANCH  10  11
ENDBRANCH   9  10
ENDBRANCH   8   9
ENDBRANCH   7   8
ENDBRANCH   6   7
ENDBRANCH   5   6
ENDBRANCH   4   5
ENDBRANCH   3   4
ENDBRANCH   2   3
ENDBRANCH   1   2
BRANCH   1  15
ATOM     15  C   UNL     1      24.655  26.306  15.274  1.00  0.00     0.000 C 
BRANCH  15  16
ATOM     16  C   UNL     1      25.270  25.041  15.896  1.00  0.00     0.000 C 
BRANCH  16  17
ATOM     17  C   UNL     1      25.231  23.830  14.946  1.00  0.00     0.000 C 
BRANCH  17  18
ATOM     18  C   UNL     1      24.179  23.920  13.821  1.00  0.00    -0.000 C 
BRANCH  18  19
ATOM     19  C   UNL     1      23.381  22.626  13.567  1.00  0.00    -0.000 C 
BRANCH  19  20
ATOM     20  C   UNL     1      22.320  22.298  14.638  1.00  0.00    -0.000 C 
BRANCH  20  21
ATOM     21  C   UNL     1      21.123  23.269  14.691  1.00  0.00    -0.000 C 
BRANCH  21  22
ATOM     22  C   UNL     1      21.042  24.134  15.963  1.00  0.00    -0.000 C 
BRANCH  22  23
ATOM     23  C   UNL     1      22.019  23.681  17.058  1.00  0.00    -0.000 C 
BRANCH  23  24
ATOM     24  C   UNL     1      21.683  24.341  18.403  1.00  0.00    -0.000 C 
BRANCH  24  25
ATOM     25  C   UNL     1      20.579  25.401  18.283  1.00  0.00    -0.003 C 
ATOM     26  C   UNL     1      20.989  26.755  18.864  1.00  0.00     0.004 C 
ENDBRANCH  24  25
ENDBRANCH  23  24
ENDBRANCH  22  23
ENDBRANCH  21  22
ENDBRANCH  20  21
ENDBRANCH  19  20
ENDBRANCH  18  19
ENDBRANCH  17  18
ENDBRANCH  16  17
ENDBRANCH  15  16
ENDBRANCH   1  15
TORSDOF 22
ENDMDL
MODEL 3
REMARK VINA RESULT:    -1.039      3.306      6.718
REMARK INTER + INTRA:          -7.736
REMARK INTER:                  -3.316
REMARK INTRA:                  -4.420
REMARK UNBOUND:                -5.360
REMARK SMILES CCCCCCCCCCCCCCCCCCCCCCCC(=O)[O-]
REMARK SMILES IDX 13 1 14 2 15 3 16 4 17 5 18 6 19 7 20 8 21 9 22 10 23 11
REMARK SMILES IDX 24 12 25 13 26 14 12 15 11 16 10 17 9 18 8 19 7 20 6 21 5 22
REMARK SMILES IDX 4 23 3 24 2 25 1 26
REMARK H PARENT
REMARK Flexibility Score: inf
ROOT
ATOM      1  C   UNL     1      22.335  25.424  14.688  1.00  0.00     0.000 C 
ENDROOT
BRANCH   1   2
ATOM      2  C   UNL     1      21.742  26.714  14.098  1.00  0.00     0.000 C 
BRANCH   2   3
ATOM      3  C   UNL     1      22.013  26.859  12.589  1.00  0.00     0.000 C 
BRANCH   3   4
ATOM      4  C   UNL     1      23.502  26.981  12.210  1.00  0.00     0.000 C 
BRANCH   4   5
ATOM      5  C   UNL     1      23.972  28.442  12.097  1.00  0.00     0.000 C 
BRANCH   5   6
ATOM      6  C   UNL     1      24.771  28.905  13.325  1.00  0.00     0.000 C 
BRANCH   6   7
ATOM      7  C   UNL     1      23.891  29.596  14.379  1.00  0.00     0.000 C 
BRANCH   7   8
ATOM      8  C   UNL     1      24.119  29.032  15.800  1.00  0.00     0.000 C 
BRANCH   8   9
ATOM      9  C   UNL     1      24.961  27.742  15.827  1.00  0.00     0.000 C 
BRANCH   9  10
ATOM     10  C   UNL     1      26.125  27.748  16.838  1.00  0.00     0.006 C 
BRANCH  10  11
ATOM     11  C   UNL     1      25.834  28.557  18.120  1.00  0.00     0.053 C 
BRANCH  11  12
ATOM     12  C   UNL     1      25.195  27.732  19.195  1.00  0.00     0.041 C 
ATOM     13  O   UNL     1      25.868  26.870  19.818  1.00  0.00    -0.550 OA
ATOM     14  O   UNL     1      23.860  27.933  19.530  1.00  0.00    -0.550 OA
ENDBRANCH  11  12
ENDBRANCH  10  11
ENDBRANCH   9  10
ENDBRANCH   8   9
ENDBRANCH   7   8
ENDBRANCH   6   7
ENDBRANCH   5   6
ENDBRANCH   4   5
ENDBRANCH   3   4
ENDBRANCH   2   3
ENDBRANCH   1   2
BRANCH   1  15
ATOM     15  C   UNL     1      21.736  24.159  14.050  1.00  0.00     0.000 C 
BRANCH  15  16
ATOM     16  C   UNL     1      22.819  23.205  13.516  1.00  0.00     0.000 C 
BRANCH  16  17
ATOM     17  C   UNL     1      24.247  23.735  13.746  1.00  0.00     0.000 C 
BRANCH  17  18
ATOM     18  C   UNL     1      25.281  22.662  14.144  1.00  0.00    -0.000 C 
BRANCH  18  19
ATOM     19  C   UNL     1      25.772  22.737  15.604  1.00  0.00    -0.000 C 
BRANCH  19  20
ATOM     20  C   UNL     1      25.780  24.153  16.213  1.00  0.00    -0.000 C 
BRANCH  20  21
ATOM     21  C   UNL     1      24.910  24.327  17.474  1.00  0.00    -0.000 C 
BRANCH  21  22
ATOM     22  C   UNL     1      25.151  23.283  18.581  1.00  0.00    -0.000 C 
BRANCH  22  23
ATOM     23  C   UNL     1      23.984  22.297  18.736  1.00  0.00    -0.000 C 
BRANCH  23  24
ATOM     24  C   UNL     1      22.753  22.771  17.949  1.00  0.00    -0.000 C 
BRANCH  24  25
ATOM     25  C   UNL     1      22.327  21.774  16.860  1.00  0.00    -0.003 C 
ATOM     26  C   UNL     1      23.124  20.471  16.904  1.00  0.00     0.004 C 
ENDBRANCH  24  25
ENDBRANCH  23  24
ENDBRANCH  22  23
ENDBRANCH  21  22
ENDBRANCH  20  21
ENDBRANCH  19  20
ENDBRANCH  18  19
ENDBRANCH  17  18
ENDBRANCH  16  17
ENDBRANCH  15  16
ENDBRANCH   1  15
TORSDOF 22
ENDMDL
MODEL 4
REMARK VINA RESULT:    -0.955      2.206      3.113
REMARK INTER + INTRA:          -7.544
REMARK INTER:                  -3.128
REMARK INTRA:                  -4.416
REMARK UNBOUND:                -5.360
REMARK SMILES CCCCCCCCCCCCCCCCCCCCCCCC(=O)[O-]
REMARK SMILES IDX 13 1 14 2 15 3 16 4 17 5 18 6 19 7 20 8 21 9 22 10 23 11
REMARK SMILES IDX 24 12 25 13 26 14 12 15 11 16 10 17 9 18 8 19 7 20 6 21 5 22
REMARK SMILES IDX 4 23 3 24 2 25 1 26
REMARK H PARENT
REMARK Flexibility Score: inf
ROOT
ATOM      1  C   UNL     1      24.637  28.453  15.419  1.00  0.00     0.000 C 
ENDROOT
BRANCH   1   2
ATOM      2  C   UNL     1      24.241  29.378  16.581  1.00  0.00     0.000 C 
BRANCH   2   3
ATOM      3  C   UNL     1      25.158  29.221  17.808  1.00  0.00     0.000 C 
BRANCH   3   4
ATOM      4  C   UNL     1      24.464  28.659  19.064  1.00  0.00     0.000 C 
BRANCH   4   5
ATOM      5  C   UNL     1      24.708  27.152  19.258  1.00  0.00     0.000 C 
BRANCH   5   6
ATOM      6  C   UNL     1      23.465  26.305  18.949  1.00  0.00     0.000 C 
BRANCH   6   7
ATOM      7  C   UNL     1      23.654  24.821  19.307  1.00  0.00     0.000 C 
BRANCH   7   8
ATOM      8  C   UNL     1      23.351  23.883  18.116  1.00  0.00     0.000 C 
BRANCH   8   9
ATOM      9  C   UNL     1      24.587  23.128  17.592  1.00  0.00     0.000 C 
BRANCH   9  10
ATOM     10  C   UNL     1      24.340  22.278  16.329  1.00  0.00     0.006 C 
BRANCH  10  11
ATOM     11  C   UNL     1      25.548  22.221  15.371  1.00  0.00     0.053 C 
BRANCH  11  12
ATOM     12  C   UNL     1      25.204  21.627  14.038  1.00  0.00     0.041 C 
ATOM     13  O   UNL     1      24.073  21.110  13.847  1.00  0.00    -0.550 OA
ATOM     14  O   UNL     1      26.125  21.668  12.997  1.00  0.00    -0.550 OA
ENDBRANCH  11  12
ENDBRANCH  10  11
ENDBRANCH   9  10
ENDBRANCH   8   9
ENDBRANCH   7   8
ENDBRANCH   6   7
ENDBRANCH   5   6
ENDBRANCH   4   5
ENDBRANCH   3   4
ENDBRANCH   2   3
ENDBRANCH   1   2
BRANCH   1  15
ATOM     15  C   UNL     1      25.772  27.488  15.800  1.00  0.00     0.000 C 
BRANCH  15  16
ATOM     16  C   UNL     1      25.421  26.022  15.490  1.00  0.00     0.000 C 
BRANCH  16  17
ATOM     17  C   UNL     1      23.954  25.837  15.060  1.00  0.00     0.000 C 
BRANCH  17  18
ATOM     18  C   UNL     1      23.754  25.009  13.774  1.00  0.00    -0.000 C 
BRANCH  18  19
ATOM     19  C   UNL     1      22.921  25.699  12.675  1.00  0.00    -0.000 C 
BRANCH  19  20
ATOM     20  C   UNL     1      23.407  27.109  12.284  1.00  0.00    -0.000 C 
BRANCH  20  21
ATOM     21  C   UNL     1      22.365  28.232  12.463  1.00  0.00    -0.000 C 
BRANCH  21  22
ATOM     22  C   UNL     1      21.262  27.937  13.497  1.00  0.00    -0.000 C 
BRANCH  22  23
ATOM     23  C   UNL     1      21.024  29.104  14.467  1.00  0.00    -0.000 C 
BRANCH  23  24
ATOM     24  C   UNL     1      20.468  28.602  15.807  1.00  0.00    -0.000 C 
BRANCH  24  25
ATOM     25  C   UNL     1      21.164  27.323  16.295  1.00  0.00    -0.003 C 
ATOM     26  C   UNL     1      20.307  26.071  16.104  1.00  0.00     0.004 C 
ENDBRANCH  24  25
ENDBRANCH  23  24
ENDBRANCH  22  23
ENDBRANCH  21  22
ENDBRANCH  20  21
ENDBRANCH  19  20
ENDBRANCH  18  19
ENDBRANCH  17  18
ENDBRANCH  16  17
ENDBRANCH  15  16
ENDBRANCH   1  15
TORSDOF 22
ENDMDL
MODEL 5
REMARK VINA RESULT:    -0.929      3.869      6.482
REMARK INTER + INTRA:          -7.485
REMARK INTER:                  -3.388
REMARK INTRA:                  -4.097
REMARK UNBOUND:                -5.360
REMARK SMILES CCCCCCCCCCCCCCCCCCCCCCCC(=O)[O-]
REMARK SMILES IDX 13 1 14 2 15 3 16 4 17 5 18 6 19 7 20 8 21 9 22 10 23 11
REMARK SMILES IDX 24 12 25 13 26 14 12 15 11 16 10 17 9 18 8 19 7 20 6 21 5 22
REMARK SMILES IDX 4 23 3 24 2 25 1 26
REMARK H PARENT
REMARK Flexibility Score: inf
ROOT
ATOM      1  C   UNL     1      21.892  22.760  16.257  1.00  0.00     0.000 C 
ENDROOT
BRANCH   1   2
ATOM      2  C   UNL     1      22.238  21.274  16.069  1.00  0.00     0.000 C 
BRANCH   2   3
ATOM      3  C   UNL     1      22.371  20.875  14.587  1.00  0.00     0.000 C 
BRANCH   3   4
ATOM      4  C   UNL     1      23.734  20.269  14.202  1.00  0.00     0.000 C 
BRANCH   4   5
ATOM      5  C   UNL     1      24.402  20.999  13.023  1.00  0.00     0.000 C 
BRANCH   5   6
ATOM      6  C   UNL     1      25.282  22.174  13.475  1.00  0.00     0.000 C 
BRANCH   6   7
ATOM      7  C   UNL     1      26.101  21.852  14.736  1.00  0.00     0.000 C 
BRANCH   7   8
ATOM      8  C   UNL     1      26.096  23.014  15.756  1.00  0.00     0.000 C 
BRANCH   8   9
ATOM      9  C   UNL     1      26.103  22.550  17.225  1.00  0.00     0.000 C 
BRANCH   9  10
ATOM     10  C   UNL     1      25.547  21.131  17.460  1.00  0.00     0.006 C 
BRANCH  10  11
ATOM     11  C   UNL     1      25.714  20.628  18.909  1.00  0.00     0.053 C 
BRANCH  11  12
ATOM     12  C   UNL     1      25.295  21.643  19.928  1.00  0.00     0.041 C 
ATOM     13  O   UNL     1      26.125  22.076  20.770  1.00  0.00    -0.550 OA
ATOM     14  O   UNL     1      23.994  22.134  19.932  1.00  0.00    -0.550 OA
ENDBRANCH  11  12
ENDBRANCH  10  11
ENDBRANCH   9  10
ENDBRANCH   8   9
ENDBRANCH   7   8
ENDBRANCH   6   7
ENDBRANCH   5   6
ENDBRANCH   4   5
ENDBRANCH   3   4
ENDBRANCH   2   3
ENDBRANCH   1   2
BRANCH   1  15
ATOM     15  C   UNL     1      21.909  23.537  14.931  1.00  0.00     0.000 C 
BRANCH  15  16
ATOM     16  C   UNL     1      22.926  24.691  14.942  1.00  0.00     0.000 C 
BRANCH  16  17
ATOM     17  C   UNL     1      23.292  25.179  13.528  1.00  0.00     0.000 C 
BRANCH  17  18
ATOM     18  C   UNL     1      22.202  26.017  12.829  1.00  0.00    -0.000 C 
BRANCH  18  19
ATOM     19  C   UNL     1      22.517  27.521  12.697  1.00  0.00    -0.000 C 
BRANCH  19  20
ATOM     20  C   UNL     1      23.933  27.843  12.177  1.00  0.00    -0.000 C 
BRANCH  20  21
ATOM     21  C   UNL     1      24.807  28.676  13.136  1.00  0.00    -0.000 C 
BRANCH  21  22
ATOM     22  C   UNL     1      24.097  29.154  14.416  1.00  0.00    -0.000 C 
BRANCH  22  23
ATOM     23  C   UNL     1      24.608  28.451  15.682  1.00  0.00    -0.000 C 
BRANCH  23  24
ATOM     24  C   UNL     1      25.779  27.511  15.355  1.00  0.00    -0.000 C 
BRANCH  24  25
ATOM     25  C   UNL     1      26.121  26.566  16.516  1.00  0.00    -0.003 C 
ATOM     26  C   UNL     1      24.911  26.236  17.390  1.00  0.00     0.004 C 
ENDBRANCH  24  25
ENDBRANCH  23  24
ENDBRANCH  22  23
ENDBRANCH  21  22
ENDBRANCH  20  21
ENDBRANCH  19  20
ENDBRANCH  18  19
ENDBRANCH  17  18
ENDBRANCH  16  17
ENDBRANCH  15  16
ENDBRANCH   1  15
TORSDOF 22
ENDMDL
MODEL 6
REMARK VINA RESULT:    -0.922      1.894      4.458
REMARK INTER + INTRA:          -7.469
REMARK INTER:                  -2.532
REMARK INTRA:                  -4.938
REMARK UNBOUND:                -5.360
REMARK SMILES CCCCCCCCCCCCCCCCCCCCCCCC(=O)[O-]
REMARK SMILES IDX 13 1 14 2 15 3 16 4 17 5 18 6 19 7 20 8 21 9 22 10 23 11
REMARK SMILES IDX 24 12 25 13 26 14 12 15 11 16 10 17 9 18 8 19 7 20 6 21 5 22
REMARK SMILES IDX 4 23 3 24 2 25 1 26
REMARK H PARENT
REMARK Flexibility Score: inf
ROOT
ATOM      1  C   UNL     1      21.413  26.398  13.937  1.00  0.00     0.000 C 
ENDROOT
BRANCH   1   2
ATOM      2  C   UNL     1      21.647  26.677  15.431  1.00  0.00     0.000 C 
BRANCH   2   3
ATOM      3  C   UNL     1      21.018  25.607  16.344  1.00  0.00     0.000 C 
BRANCH   3   4
ATOM      4  C   UNL     1      22.016  24.587  16.924  1.00  0.00     0.000 C 
BRANCH   4   5
ATOM      5  C   UNL     1      21.633  23.130  16.608  1.00  0.00     0.000 C 
BRANCH   5   6
ATOM      6  C   UNL     1      22.409  22.558  15.412  1.00  0.00     0.000 C 
BRANCH   6   7
ATOM      7  C   UNL     1      21.485  22.089  14.275  1.00  0.00     0.000 C 
BRANCH   7   8
ATOM      8  C   UNL     1      20.016  22.519  14.494  1.00  0.00     0.000 C 
BRANCH   8   9
ATOM      9  C   UNL     1      19.452  23.397  13.360  1.00  0.00     0.000 C 
BRANCH   9  10
ATOM     10  C   UNL     1      18.012  23.900  13.585  1.00  0.00     0.006 C 
BRANCH  10  11
ATOM     11  C   UNL     1      17.823  24.685  14.899  1.00  0.00     0.053 C 
BRANCH  11  12
ATOM     12  C   UNL     1      17.712  26.164  14.682  1.00  0.00     0.041 C 
ATOM     13  O   UNL     1      17.918  26.654  13.541  1.00  0.00    -0.550 OA
ATOM     14  O   UNL     1      17.351  27.000  15.733  1.00  0.00    -0.550 OA
ENDBRANCH  11  12
ENDBRANCH  10  11
ENDBRANCH   9  10
ENDBRANCH   8   9
ENDBRANCH   7   8
ENDBRANCH   6   7
ENDBRANCH   5   6
ENDBRANCH   4   5
ENDBRANCH   3   4
ENDBRANCH   2   3
ENDBRANCH   1   2
BRANCH   1  15
ATOM     15  C   UNL     1      22.546  25.566  13.313  1.00  0.00     0.000 C 
BRANCH  15  16
ATOM     16  C   UNL     1      23.500  26.423  12.464  1.00  0.00     0.000 C 
BRANCH  16  17
ATOM     17  C   UNL     1      22.820  27.677  11.883  1.00  0.00     0.000 C 
BRANCH  17  18
ATOM     18  C   UNL     1      23.622  28.984  12.044  1.00  0.00    -0.000 C 
BRANCH  18  19
ATOM     19  C   UNL     1      24.644  28.987  13.199  1.00  0.00    -0.000 C 
BRANCH  19  20
ATOM     20  C   UNL     1      24.073  29.410  14.568  1.00  0.00    -0.000 C 
BRANCH  20  21
ATOM     21  C   UNL     1      24.620  28.622  15.776  1.00  0.00    -0.000 C 
BRANCH  21  22
ATOM     22  C   UNL     1      25.544  27.443  15.420  1.00  0.00    -0.000 C 
BRANCH  22  23
ATOM     23  C   UNL     1      25.210  26.164  16.201  1.00  0.00    -0.000 C 
BRANCH  23  24
ATOM     24  C   UNL     1      25.542  24.912  15.375  1.00  0.00    -0.000 C 
BRANCH  24  25
ATOM     25  C   UNL     1      25.751  23.666  16.248  1.00  0.00    -0.003 C 
ATOM     26  C   UNL     1      25.707  23.975  17.745  1.00  0.00     0.004 C 
ENDBRANCH  24  25
ENDBRANCH  23  24
ENDBRANCH  22  23
ENDBRANCH  21  22
ENDBRANCH  20  21
ENDBRANCH  19  20
ENDBRANCH  18  19
ENDBRANCH  17  18
ENDBRANCH  16  17
ENDBRANCH  15  16
ENDBRANCH   1  15
TORSDOF 22
ENDMDL
MODEL 7
REMARK VINA RESULT:    -0.920      3.300      6.251
REMARK INTER + INTRA:          -7.463
REMARK INTER:                  -3.172
REMARK INTRA:                  -4.291
REMARK UNBOUND:                -5.360
REMARK SMILES CCCCCCCCCCCCCCCCCCCCCCCC(=O)[O-]
REMARK SMILES IDX 13 1 14 2 15 3 16 4 17 5 18 6 19 7 20 8 21 9 22 10 23 11
REMARK SMILES IDX 24 12 25 13 26 14 12 15 11 16 10 17 9 18 8 19 7 20 6 21 5 22
REMARK SMILES IDX 4 23 3 24 2 25 1 26
REMARK H PARENT
REMARK Flexibility Score: inf
ROOT
ATOM      1  C   UNL     1      20.667  26.652  14.251  1.00  0.00     0.000 C 
ENDROOT
BRANCH   1   2
ATOM      2  C   UNL     1      21.833  26.701  13.249  1.00  0.00     0.000 C 
BRANCH   2   3
ATOM      3  C   UNL     1      22.401  28.121  13.064  1.00  0.00     0.000 C 
BRANCH   3   4
ATOM      4  C   UNL     1      22.476  28.959  14.355  1.00  0.00     0.000 C 
BRANCH   4   5
ATOM      5  C   UNL     1      23.908  29.411  14.692  1.00  0.00     0.000 C 
BRANCH   5   6
ATOM      6  C   UNL     1      24.979  28.563  13.989  1.00  0.00     0.000 C 
BRANCH   6   7
ATOM      7  C   UNL     1      25.708  27.611  14.953  1.00  0.00     0.000 C 
BRANCH   7   8
ATOM      8  C   UNL     1      24.890  26.333  15.249  1.00  0.00     0.000 C 
BRANCH   8   9
ATOM      9  C   UNL     1      24.565  26.138  16.743  1.00  0.00     0.000 C 
BRANCH   9  10
ATOM     10  C   UNL     1      23.165  26.620  17.170  1.00  0.00     0.006 C 
BRANCH  10  11
ATOM     11  C   UNL     1      23.181  27.907  18.021  1.00  0.00     0.053 C 
BRANCH  11  12
ATOM     12  C   UNL     1      24.538  28.219  18.576  1.00  0.00     0.041 C 
ATOM     13  O   UNL     1      24.987  27.569  19.555  1.00  0.00    -0.550 OA
ATOM     14  O   UNL     1      25.319  29.211  17.994  1.00  0.00    -0.550 OA
ENDBRANCH  11  12
ENDBRANCH  10  11
ENDBRANCH   9  10
ENDBRANCH   8   9
ENDBRANCH   7   8
ENDBRANCH   6   7
ENDBRANCH   5   6
ENDBRANCH   4   5
ENDBRANCH   3   4
ENDBRANCH   2   3
ENDBRANCH   1   2
BRANCH   1  15
ATOM     15  C   UNL     1      19.612  25.601  13.869  1.00  0.00     0.000 C 
BRANCH  15  16
ATOM     16  C   UNL     1      19.670  24.358  14.774  1.00  0.00     0.000 C 
BRANCH  16  17
ATOM     17  C   UNL     1      20.736  24.475  15.879  1.00  0.00     0.000 C 
BRANCH  17  18
ATOM     18  C   UNL     1      21.784  23.342  15.892  1.00  0.00    -0.000 C 
BRANCH  18  19
ATOM     19  C   UNL     1      22.187  22.808  14.503  1.00  0.00    -0.000 C 
BRANCH  19  20
ATOM     20  C   UNL     1      23.475  23.425  13.920  1.00  0.00    -0.000 C 
BRANCH  20  21
ATOM     21  C   UNL     1      24.428  22.422  13.239  1.00  0.00    -0.000 C 
BRANCH  21  22
ATOM     22  C   UNL     1      25.855  22.384  13.818  1.00  0.00    -0.000 C 
BRANCH  22  23
ATOM     23  C   UNL     1      25.953  23.027  15.210  1.00  0.00    -0.000 C 
BRANCH  23  24
ATOM     24  C   UNL     1      26.122  21.957  16.299  1.00  0.00    -0.000 C 
BRANCH  24  25
ATOM     25  C   UNL     1      24.780  21.466  16.860  1.00  0.00    -0.003 C 
ATOM     26  C   UNL     1      24.444  22.080  18.219  1.00  0.00     0.004 C 
ENDBRANCH  24  25
ENDBRANCH  23  24
ENDBRANCH  22  23
ENDBRANCH  21  22
ENDBRANCH  20  21
ENDBRANCH  19  20
ENDBRANCH  18  19
ENDBRANCH  17  18
ENDBRANCH  16  17
ENDBRANCH  15  16
ENDBRANCH   1  15
TORSDOF 22
ENDMDL
MODEL 8
REMARK VINA RESULT:    -0.910      2.374      5.095
REMARK INTER + INTRA:          -7.441
REMARK INTER:                  -2.333
REMARK INTRA:                  -5.109
REMARK UNBOUND:                -5.360
REMARK SMILES CCCCCCCCCCCCCCCCCCCCCCCC(=O)[O-]
REMARK SMILES IDX 13 1 14 2 15 3 16 4 17 5 18 6 19 7 20 8 21 9 22 10 23 11
REMARK SMILES IDX 24 12 25 13 26 14 12 15 11 16 10 17 9 18 8 19 7 20 6 21 5 22
REMARK SMILES IDX 4 23 3 24 2 25 1 26
REMARK H PARENT
REMARK Flexibility Score: inf
ROOT
ATOM      1  C   UNL     1      22.079  28.518  16.702  1.00  0.00     0.000 C 
ENDROOT
BRANCH   1   2
ATOM      2  C   UNL     1      23.518  28.896  16.315  1.00  0.00     0.000 C 
BRANCH   2   3
ATOM      3  C   UNL     1      23.600  29.626  14.962  1.00  0.00     0.000 C 
BRANCH   3   4
ATOM      4  C   UNL     1      24.663  29.071  13.993  1.00  0.00     0.000 C 
BRANCH   4   5
ATOM      5  C   UNL     1      24.100  28.778  12.592  1.00  0.00     0.000 C 
BRANCH   5   6
ATOM      6  C   UNL     1      22.887  27.836  12.625  1.00  0.00     0.000 C 
BRANCH   6   7
ATOM      7  C   UNL     1      23.155  26.498  11.915  1.00  0.00     0.000 C 
BRANCH   7   8
ATOM      8  C   UNL     1      23.118  25.297  12.886  1.00  0.00     0.000 C 
BRANCH   8   9
ATOM      9  C   UNL     1      23.149  25.700  14.373  1.00  0.00     0.000 C 
BRANCH   9  10
ATOM     10  C   UNL     1      24.526  25.564  15.053  1.00  0.00     0.006 C 
BRANCH  10  11
ATOM     11  C   UNL     1      24.448  25.242  16.560  1.00  0.00     0.053 C 
BRANCH  11  12
ATOM     12  C   UNL     1      24.739  23.803  16.863  1.00  0.00     0.041 C 
ATOM     13  O   UNL     1      25.922  23.424  17.061  1.00  0.00    -0.550 OA
ATOM     14  O   UNL     1      23.699  22.884  16.954  1.00  0.00    -0.550 OA
ENDBRANCH  11  12
ENDBRANCH  10  11
ENDBRANCH   9  10
ENDBRANCH   8   9
ENDBRANCH   7   8
ENDBRANCH   6   7
ENDBRANCH   5   6
ENDBRANCH   4   5
ENDBRANCH   3   4
ENDBRANCH   2   3
ENDBRANCH   1   2
BRANCH   1  15
ATOM     15  C   UNL     1      21.059  28.920  15.624  1.00  0.00     0.000 C 
BRANCH  15  16
ATOM     16  C   UNL     1      20.256  27.716  15.102  1.00  0.00     0.000 C 
BRANCH  16  17
ATOM     17  C   UNL     1      19.349  28.075  13.910  1.00  0.00     0.000 C 
BRANCH  17  18
ATOM     18  C   UNL     1      18.588  26.884  13.291  1.00  0.00    -0.000 C 
BRANCH  18  19
ATOM     19  C   UNL     1      19.427  25.983  12.364  1.00  0.00    -0.000 C 
BRANCH  19  20
ATOM     20  C   UNL     1      19.604  24.532  12.857  1.00  0.00    -0.000 C 
BRANCH  20  21
ATOM     21  C   UNL     1      19.241  24.296  14.337  1.00  0.00    -0.000 C 
BRANCH  21  22
ATOM     22  C   UNL     1      20.274  23.483  15.139  1.00  0.00    -0.000 C 
BRANCH  22  23
ATOM     23  C   UNL     1      20.103  23.633  16.659  1.00  0.00    -0.000 C 
BRANCH  23  24
ATOM     24  C   UNL     1      20.802  24.902  17.169  1.00  0.00    -0.000 C 
BRANCH  24  25
ATOM     25  C   UNL     1      19.937  25.697  18.158  1.00  0.00    -0.003 C 
ATOM     26  C   UNL     1      18.490  25.851  17.690  1.00  0.00     0.004 C 
ENDBRANCH  24  25
ENDBRANCH  23  24
ENDBRANCH  22  23
ENDBRANCH  21  22
ENDBRANCH  20  21
ENDBRANCH  19  20
ENDBRANCH  18  19
ENDBRANCH  17  18
ENDBRANCH  16  17
ENDBRANCH  15  16
ENDBRANCH   1  15
TORSDOF 22
ENDMDL
MODEL 9
REMARK VINA RESULT:    -0.903      2.856      5.397
REMARK INTER + INTRA:          -7.425
REMARK INTER:                  -3.001
REMARK INTRA:                  -4.424
REMARK UNBOUND:                -5.360
REMARK SMILES CCCCCCCCCCCCCCCCCCCCCCCC(=O)[O-]
REMARK SMILES IDX 13 1 14 2 15 3 16 4 17 5 18 6 19 7 20 8 21 9 22 10 23 11
REMARK SMILES IDX 24 12 25 13 26 14 12 15 11 16 10 17 9 18 8 19 7 20 6 21 5 22
REMARK SMILES IDX 4 23 3 24 2 25 1 26
REMARK H PARENT
REMARK Flexibility Score: inf
ROOT
ATOM      1  C   UNL     1      22.217  26.728  13.222  1.00  0.00     0.000 C 
ENDROOT
BRANCH   1   2
ATOM      2  C   UNL     1      21.094  27.738  12.934  1.00  0.00     0.000 C 
BRANCH   2   3
ATOM      3  C   UNL     1      20.582  28.439  14.206  1.00  0.00     0.000 C 
BRANCH   3   4
ATOM      4  C   UNL     1      20.860  27.679  15.518  1.00  0.00     0.000 C 
BRANCH   4   5
ATOM      5  C   UNL     1      19.726  26.712  15.901  1.00  0.00     0.000 C 
BRANCH   5   6
ATOM      6  C   UNL     1      20.228  25.486  16.678  1.00  0.00     0.000 C 
BRANCH   6   7
ATOM      7  C   UNL     1      20.782  24.386  15.757  1.00  0.00     0.000 C 
BRANCH   7   8
ATOM      8  C   UNL     1      21.144  23.096  16.529  1.00  0.00     0.000 C 
BRANCH   8   9
ATOM      9  C   UNL     1      21.463  21.897  15.617  1.00  0.00     0.000 C 
BRANCH   9  10
ATOM     10  C   UNL     1      22.388  20.834  16.243  1.00  0.00     0.006 C 
BRANCH  10  11
ATOM     11  C   UNL     1      23.024  19.877  15.214  1.00  0.00     0.053 C 
BRANCH  11  12
ATOM     12  C   UNL     1      24.518  19.818  15.321  1.00  0.00     0.041 C 
ATOM     13  O   UNL     1      25.202  19.331  14.383  1.00  0.00    -0.550 OA
ATOM     14  O   UNL     1      25.158  20.326  16.445  1.00  0.00    -0.550 OA
ENDBRANCH  11  12
ENDBRANCH  10  11
ENDBRANCH   9  10
ENDBRANCH   8   9
ENDBRANCH   7   8
ENDBRANCH   6   7
ENDBRANCH   5   6
ENDBRANCH   4   5
ENDBRANCH   3   4
ENDBRANCH   2   3
ENDBRANCH   1   2
BRANCH   1  15
ATOM     15  C   UNL     1      23.503  27.044  12.439  1.00  0.00     0.000 C 
BRANCH  15  16
ATOM     16  C   UNL     1      23.812  28.551  12.408  1.00  0.00     0.000 C 
BRANCH  16  17
ATOM     17  C   UNL     1      24.839  28.971  13.476  1.00  0.00     0.000 C 
BRANCH  17  18
ATOM     18  C   UNL     1      24.236  29.344  14.846  1.00  0.00    -0.000 C 
BRANCH  18  19
ATOM     19  C   UNL     1      24.366  28.260  15.935  1.00  0.00    -0.000 C 
BRANCH  19  20
ATOM     20  C   UNL     1      25.755  27.598  16.028  1.00  0.00    -0.000 C 
BRANCH  20  21
ATOM     21  C   UNL     1      25.797  26.109  15.630  1.00  0.00    -0.000 C 
BRANCH  21  22
ATOM     22  C   UNL     1      24.482  25.338  15.853  1.00  0.00    -0.000 C 
BRANCH  22  23
ATOM     23  C   UNL     1      24.671  23.814  15.827  1.00  0.00    -0.000 C 
BRANCH  23  24
ATOM     24  C   UNL     1      25.088  23.335  14.429  1.00  0.00    -0.000 C 
BRANCH  24  25
ATOM     25  C   UNL     1      23.966  23.486  13.391  1.00  0.00    -0.003 C 
ATOM     26  C   UNL     1      23.789  22.241  12.523  1.00  0.00     0.004 C 
ENDBRANCH  24  25
ENDBRANCH  23  24
ENDBRANCH  22  23
ENDBRANCH  21  22
ENDBRANCH  20  21
ENDBRANCH  19  20
ENDBRANCH  18  19
ENDBRANCH  17  18
ENDBRANCH  16  17
ENDBRANCH  15  16
ENDBRANCH   1  15
TORSDOF 22
ENDMDL
