MODEL 1
REMARK VINA RESULT:    -5.144      0.000      0.000
REMARK INTER + INTRA:          -5.660
REMARK INTER:                  -5.595
REMARK INTRA:                  -0.065
REMARK UNBOUND:                -0.065
REMARK SMILES COc1cc2ccc(=O)oc2cc1O
REMARK SMILES IDX 3 1 13 2 12 3 11 4 5 5 4 6 6 7 7 8 8 9 9 10 10 11 2 12 1 13
REMARK SMILES IDX 14 14
REMARK H PARENT 14 15
REMARK Flexibility Score: inf
ROOT
ATOM      1  C   UNL     1      31.809   8.136  32.919  1.00  0.00     0.161 A 
ATOM      2  C   UNL     1      31.051   7.783  31.785  1.00  0.00     0.161 A 
ATOM      3  C   UNL     1      30.978   8.647  30.688  1.00  0.00     0.098 A 
ATOM      4  C   UNL     1      31.654   9.869  30.703  1.00  0.00     0.142 A 
ATOM      5  C   UNL     1      32.416  10.232  31.833  1.00  0.00     0.022 A 
ATOM      6  C   UNL     1      32.492   9.369  32.935  1.00  0.00     0.062 A 
ATOM      7  C   UNL     1      33.083  11.462  31.819  1.00  0.00     0.019 A 
ATOM      8  C   UNL     1      32.976  12.287  30.699  1.00  0.00     0.094 A 
ATOM      9  C   UNL     1      32.202  11.859  29.615  1.00  0.00     0.336 A 
ATOM     10  O   UNL     1      32.093  12.589  28.595  1.00  0.00    -0.246 OA
ATOM     11  O   UNL     1      31.578  10.685  29.655  1.00  0.00    -0.423 OA
ENDROOT
BRANCH   1  12
ATOM     12  O   UNL     1      31.861   7.245  34.002  1.00  0.00    -0.493 OA
ATOM     13  C   UNL     1      31.096   7.378  35.195  1.00  0.00     0.278 C 
ENDBRANCH   1  12
BRANCH   2  14
ATOM     14  O   UNL     1      30.360   6.571  31.731  1.00  0.00    -0.504 OA
ATOM     15  H   UNL     1      29.532   6.396  32.287  1.00  0.00     0.293 HD
ENDBRANCH   2  14
TORSDOF 2
ENDMDL
MODEL 2
REMARK VINA RESULT:    -5.022      1.968      5.357
REMARK INTER + INTRA:          -5.527
REMARK INTER:                  -5.480
REMARK INTRA:                  -0.047
REMARK UNBOUND:                -0.065
REMARK SMILES COc1cc2ccc(=O)oc2cc1O
REMARK SMILES IDX 3 1 13 2 12 3 11 4 5 5 4 6 6 7 7 8 8 9 9 10 10 11 2 12 1 13
REMARK SMILES IDX 14 14
REMARK H PARENT 14 15
REMARK Flexibility Score: inf
ROOT
ATOM      1  C   UNL     1      32.329  10.920  30.748  1.00  0.00     0.161 A 
ATOM      2  C   UNL     1      32.436  12.026  31.614  1.00  0.00     0.161 A 
ATOM      3  C   UNL     1      32.214  11.872  32.986  1.00  0.00     0.098 A 
ATOM      4  C   UNL     1      31.883  10.622  33.514  1.00  0.00     0.142 A 
ATOM      5  C   UNL     1      31.773   9.508  32.656  1.00  0.00     0.022 A 
ATOM      6  C   UNL     1      31.995   9.657  31.280  1.00  0.00     0.062 A 
ATOM      7  C   UNL     1      31.441   8.268  33.213  1.00  0.00     0.019 A 
ATOM      8  C   UNL     1      31.230   8.170  34.589  1.00  0.00     0.094 A 
ATOM      9  C   UNL     1      31.356   9.320  35.377  1.00  0.00     0.336 A 
ATOM     10  O   UNL     1      31.170   9.252  36.619  1.00  0.00    -0.246 OA
ATOM     11  O   UNL     1      31.674  10.486  34.821  1.00  0.00    -0.423 OA
ENDROOT
BRANCH   1  12
ATOM     12  O   UNL     1      32.558  11.110  29.376  1.00  0.00    -0.493 OA
ATOM     13  C   UNL     1      31.827  10.467  28.338  1.00  0.00     0.278 C 
ENDBRANCH   1  12
BRANCH   2  14
ATOM     14  O   UNL     1      32.764  13.292  31.125  1.00  0.00    -0.504 OA
ATOM     15  H   UNL     1      32.174  14.101  31.280  1.00  0.00     0.293 HD
ENDBRANCH   2  14
TORSDOF 2
ENDMDL
MODEL 3
REMARK VINA RESULT:    -4.943      2.026      5.909
REMARK INTER + INTRA:          -5.441
REMARK INTER:                  -5.393
REMARK INTRA:                  -0.048
REMARK UNBOUND:                -0.065
REMARK SMILES COc1cc2ccc(=O)oc2cc1O
REMARK SMILES IDX 3 1 13 2 12 3 11 4 5 5 4 6 6 7 7 8 8 9 9 10 10 11 2 12 1 13
REMARK SMILES IDX 14 14
REMARK H PARENT 14 15
REMARK Flexibility Score: inf
ROOT
ATOM      1  C   UNL     1      31.207  11.653  27.539  1.00  0.00     0.161 A 
ATOM      2  C   UNL     1      31.988  12.502  28.348  1.00  0.00     0.161 A 
ATOM      3  C   UNL     1      32.357  12.105  29.637  1.00  0.00     0.098 A 
ATOM      4  C   UNL     1      31.957  10.864  30.137  1.00  0.00     0.142 A 
ATOM      5  C   UNL     1      31.175  10.006  29.335  1.00  0.00     0.022 A 
ATOM      6  C   UNL     1      30.802  10.400  28.043  1.00  0.00     0.062 A 
ATOM      7  C   UNL     1      30.789   8.769  29.863  1.00  0.00     0.019 A 
ATOM      8  C   UNL     1      31.184   8.422  31.155  1.00  0.00     0.094 A 
ATOM      9  C   UNL     1      31.960   9.325  31.892  1.00  0.00     0.336 A 
ATOM     10  O   UNL     1      32.327   9.031  33.059  1.00  0.00    -0.246 OA
ATOM     11  O   UNL     1      32.313  10.494  31.365  1.00  0.00    -0.423 OA
ENDROOT
BRANCH   1  12
ATOM     12  O   UNL     1      30.854  12.083  26.250  1.00  0.00    -0.493 OA
ATOM     13  C   UNL     1      31.637  11.862  25.082  1.00  0.00     0.278 C 
ENDBRANCH   1  12
BRANCH   2  14
ATOM     14  O   UNL     1      32.408  13.750  27.885  1.00  0.00    -0.504 OA
ATOM     15  H   UNL     1      32.604  13.925  26.906  1.00  0.00     0.293 HD
ENDBRANCH   2  14
TORSDOF 2
ENDMDL
MODEL 4
REMARK VINA RESULT:    -4.888      1.872      3.221
REMARK INTER + INTRA:          -5.382
REMARK INTER:                  -5.338
REMARK INTRA:                  -0.044
REMARK UNBOUND:                -0.065
REMARK SMILES COc1cc2ccc(=O)oc2cc1O
REMARK SMILES IDX 3 1 13 2 12 3 11 4 5 5 4 6 6 7 7 8 8 9 9 10 10 11 2 12 1 13
REMARK SMILES IDX 14 14
REMARK H PARENT 14 15
REMARK Flexibility Score: inf
ROOT
ATOM      1  C   UNL     1      31.881  10.215  32.206  1.00  0.00     0.161 A 
ATOM      2  C   UNL     1      32.339  11.547  32.196  1.00  0.00     0.161 A 
ATOM      3  C   UNL     1      32.550  12.211  30.982  1.00  0.00     0.098 A 
ATOM      4  C   UNL     1      32.310  11.561  29.770  1.00  0.00     0.142 A 
ATOM      5  C   UNL     1      31.852  10.227  29.769  1.00  0.00     0.022 A 
ATOM      6  C   UNL     1      31.638   9.558  30.982  1.00  0.00     0.062 A 
ATOM      7  C   UNL     1      31.620   9.603  28.539  1.00  0.00     0.019 A 
ATOM      8  C   UNL     1      31.847  10.310  27.358  1.00  0.00     0.094 A 
ATOM      9  C   UNL     1      32.302  11.631  27.437  1.00  0.00     0.336 A 
ATOM     10  O   UNL     1      32.512  12.286  26.383  1.00  0.00    -0.246 OA
ATOM     11  O   UNL     1      32.514  12.201  28.620  1.00  0.00    -0.423 OA
ENDROOT
BRANCH   1  12
ATOM     12  O   UNL     1      31.680   9.579  33.442  1.00  0.00    -0.493 OA
ATOM     13  C   UNL     1      31.569   8.171  33.617  1.00  0.00     0.278 C 
ENDBRANCH   1  12
BRANCH   2  14
ATOM     14  O   UNL     1      32.590  12.231  33.386  1.00  0.00    -0.504 OA
ATOM     15  H   UNL     1      32.737  11.749  34.265  1.00  0.00     0.293 HD
ENDBRANCH   2  14
TORSDOF 2
ENDMDL
MODEL 5
REMARK VINA RESULT:    -4.821      2.590      4.136
REMARK INTER + INTRA:          -5.309
REMARK INTER:                  -5.265
REMARK INTRA:                  -0.045
REMARK UNBOUND:                -0.065
REMARK SMILES COc1cc2ccc(=O)oc2cc1O
REMARK SMILES IDX 3 1 13 2 12 3 11 4 5 5 4 6 6 7 7 8 8 9 9 10 10 11 2 12 1 13
REMARK SMILES IDX 14 14
REMARK H PARENT 14 15
REMARK Flexibility Score: inf
ROOT
ATOM      1  C   UNL     1      32.360  11.206  31.617  1.00  0.00     0.161 A 
ATOM      2  C   UNL     1      32.564  12.116  30.561  1.00  0.00     0.161 A 
ATOM      3  C   UNL     1      32.206  11.771  29.254  1.00  0.00     0.098 A 
ATOM      4  C   UNL     1      31.642  10.523  28.980  1.00  0.00     0.142 A 
ATOM      5  C   UNL     1      31.433   9.604  30.031  1.00  0.00     0.022 A 
ATOM      6  C   UNL     1      31.791   9.946  31.342  1.00  0.00     0.062 A 
ATOM      7  C   UNL     1      30.867   8.362  29.727  1.00  0.00     0.019 A 
ATOM      8  C   UNL     1      30.528   8.068  28.405  1.00  0.00     0.094 A 
ATOM      9  C   UNL     1      30.765   9.029  27.416  1.00  0.00     0.336 A 
ATOM     10  O   UNL     1      30.466   8.784  26.219  1.00  0.00    -0.246 OA
ATOM     11  O   UNL     1      31.305  10.203  27.733  1.00  0.00    -0.423 OA
ENDROOT
BRANCH   1  12
ATOM     12  O   UNL     1      32.731  11.585  32.917  1.00  0.00    -0.493 OA
ATOM     13  C   UNL     1      32.191  11.022  34.108  1.00  0.00     0.278 C 
ENDBRANCH   1  12
BRANCH   2  14
ATOM     14  O   UNL     1      33.124  13.373  30.793  1.00  0.00    -0.504 OA
ATOM     15  H   UNL     1      32.898  13.923  31.613  1.00  0.00     0.293 HD
ENDBRANCH   2  14
TORSDOF 2
ENDMDL
MODEL 6
REMARK VINA RESULT:    -4.813      1.789      5.078
REMARK INTER + INTRA:          -5.300
REMARK INTER:                  -5.248
REMARK INTRA:                  -0.051
REMARK UNBOUND:                -0.065
REMARK SMILES COc1cc2ccc(=O)oc2cc1O
REMARK SMILES IDX 3 1 13 2 12 3 11 4 5 5 4 6 6 7 7 8 8 9 9 10 10 11 2 12 1 13
REMARK SMILES IDX 14 14
REMARK H PARENT 14 15
REMARK Flexibility Score: inf
ROOT
ATOM      1  C   UNL     1      31.460  11.373  28.342  1.00  0.00     0.161 A 
ATOM      2  C   UNL     1      30.750  10.160  28.248  1.00  0.00     0.161 A 
ATOM      3  C   UNL     1      30.754   9.256  29.315  1.00  0.00     0.098 A 
ATOM      4  C   UNL     1      31.461   9.544  30.485  1.00  0.00     0.142 A 
ATOM      5  C   UNL     1      32.175  10.757  30.589  1.00  0.00     0.022 A 
ATOM      6  C   UNL     1      32.174  11.665  29.522  1.00  0.00     0.062 A 
ATOM      7  C   UNL     1      32.873  11.019  31.773  1.00  0.00     0.019 A 
ATOM      8  C   UNL     1      32.844  10.082  32.807  1.00  0.00     0.094 A 
ATOM      9  C   UNL     1      32.114   8.902  32.631  1.00  0.00     0.336 A 
ATOM     10  O   UNL     1      32.075   8.045  33.552  1.00  0.00    -0.246 OA
ATOM     11  O   UNL     1      31.458   8.678  31.495  1.00  0.00    -0.423 OA
ENDROOT
BRANCH   1  12
ATOM     12  O   UNL     1      31.435  12.258  27.252  1.00  0.00    -0.493 OA
ATOM     13  C   UNL     1      32.367  12.243  26.177  1.00  0.00     0.278 C 
ENDBRANCH   1  12
BRANCH   2  14
ATOM     14  O   UNL     1      30.032   9.834  27.096  1.00  0.00    -0.504 OA
ATOM     15  H   UNL     1      29.451  10.509  26.613  1.00  0.00     0.293 HD
ENDBRANCH   2  14
TORSDOF 2
ENDMDL
MODEL 7
REMARK VINA RESULT:    -4.735      2.245      3.781
REMARK INTER + INTRA:          -5.215
REMARK INTER:                  -5.151
REMARK INTRA:                  -0.064
REMARK UNBOUND:                -0.065
REMARK SMILES COc1cc2ccc(=O)oc2cc1O
REMARK SMILES IDX 3 1 13 2 12 3 11 4 5 5 4 6 6 7 7 8 8 9 9 10 10 11 2 12 1 13
REMARK SMILES IDX 14 14
REMARK H PARENT 14 15
REMARK Flexibility Score: inf
ROOT
ATOM      1  C   UNL     1      30.422   7.896  29.478  1.00  0.00     0.161 A 
ATOM      2  C   UNL     1      30.358   7.197  30.699  1.00  0.00     0.161 A 
ATOM      3  C   UNL     1      30.909   7.752  31.859  1.00  0.00     0.098 A 
ATOM      4  C   UNL     1      31.528   9.003  31.820  1.00  0.00     0.142 A 
ATOM      5  C   UNL     1      31.597   9.711  30.602  1.00  0.00     0.022 A 
ATOM      6  C   UNL     1      31.047   9.160  29.437  1.00  0.00     0.062 A 
ATOM      7  C   UNL     1      32.223  10.963  30.594  1.00  0.00     0.019 A 
ATOM      8  C   UNL     1      32.757  11.469  31.779  1.00  0.00     0.094 A 
ATOM      9  C   UNL     1      32.650  10.709  32.949  1.00  0.00     0.336 A 
ATOM     10  O   UNL     1      33.125  11.149  34.029  1.00  0.00    -0.246 OA
ATOM     11  O   UNL     1      32.049   9.522  32.929  1.00  0.00    -0.423 OA
ENDROOT
BRANCH   1  12
ATOM     12  O   UNL     1      29.859   7.310  28.333  1.00  0.00    -0.493 OA
ATOM     13  C   UNL     1      30.607   6.732  27.269  1.00  0.00     0.278 C 
ENDBRANCH   1  12
BRANCH   2  14
ATOM     14  O   UNL     1      29.748   5.944  30.779  1.00  0.00    -0.504 OA
ATOM     15  H   UNL     1      30.276   5.081  30.723  1.00  0.00     0.293 HD
ENDBRANCH   2  14
TORSDOF 2
ENDMDL
MODEL 8
REMARK VINA RESULT:    -4.701      3.669      5.581
REMARK INTER + INTRA:          -5.179
REMARK INTER:                  -5.126
REMARK INTRA:                  -0.052
REMARK UNBOUND:                -0.065
REMARK SMILES COc1cc2ccc(=O)oc2cc1O
REMARK SMILES IDX 3 1 13 2 12 3 11 4 5 5 4 6 6 7 7 8 8 9 9 10 10 11 2 12 1 13
REMARK SMILES IDX 14 14
REMARK H PARENT 14 15
REMARK Flexibility Score: inf
ROOT
ATOM      1  C   UNL     1      32.177  11.738  29.224  1.00  0.00     0.161 A 
ATOM      2  C   UNL     1      32.061  12.423  27.999  1.00  0.00     0.161 A 
ATOM      3  C   UNL     1      31.573  11.763  26.866  1.00  0.00     0.098 A 
ATOM      4  C   UNL     1      31.197  10.420  26.936  1.00  0.00     0.142 A 
ATOM      5  C   UNL     1      31.310   9.725  28.158  1.00  0.00     0.022 A 
ATOM      6  C   UNL     1      31.797  10.382  29.296  1.00  0.00     0.062 A 
ATOM      7  C   UNL     1      30.924   8.381  28.198  1.00  0.00     0.019 A 
ATOM      8  C   UNL     1      30.445   7.771  27.038  1.00  0.00     0.094 A 
ATOM      9  C   UNL     1      30.362   8.524  25.862  1.00  0.00     0.336 A 
ATOM     10  O   UNL     1      29.932   7.993  24.805  1.00  0.00    -0.246 OA
ATOM     11  O   UNL     1      30.734   9.801  25.852  1.00  0.00    -0.423 OA
ENDROOT
BRANCH   1  12
ATOM     12  O   UNL     1      32.670  12.430  30.342  1.00  0.00    -0.493 OA
ATOM     13  C   UNL     1      32.045  12.450  31.621  1.00  0.00     0.278 C 
ENDBRANCH   1  12
BRANCH   2  14
ATOM     14  O   UNL     1      32.427  13.765  27.888  1.00  0.00    -0.504 OA
ATOM     15  H   UNL     1      32.122  14.346  27.116  1.00  0.00     0.293 HD
ENDBRANCH   2  14
TORSDOF 2
ENDMDL
