MODEL 1
REMARK VINA RESULT:     1.401      0.000      0.000
REMARK INTER + INTRA:           1.345
REMARK INTER:                   1.647
REMARK INTRA:                  -0.301
REMARK UNBOUND:                -0.301
REMARK SMILES O=c1cc(-c2ccc(O)c(O)c2)oc2cc(O)cc(O)c12
REMARK SMILES IDX 4 1 3 2 2 3 1 4 21 5 19 6 18 7 16 8 15 9 14 10 13 11 5 12
REMARK SMILES IDX 6 13 7 14 8 15 12 16 10 17 9 18 11 20 20 22 17 24
REMARK H PARENT 9 19 11 21 20 23 17 25
REMARK Flexibility Score: inf
ROOT
ATOM      1  C   UNL     1      -3.841  20.414  17.497  1.00  0.00     0.138 A 
ATOM      2  C   UNL     1      -4.257  20.259  18.825  1.00  0.00     0.100 A 
ATOM      3  C   UNL     1      -5.616  20.119  19.111  1.00  0.00     0.197 A 
ATOM      4  O   UNL     1      -5.953  19.919  20.307  1.00  0.00    -0.289 OA
ATOM      5  C   UNL     1      -6.563  20.167  18.062  1.00  0.00     0.107 A 
ATOM      6  C   UNL     1      -7.977  20.076  18.238  1.00  0.00     0.134 A 
ATOM      7  C   UNL     1      -8.811  20.018  17.115  1.00  0.00     0.093 A 
ATOM      8  C   UNL     1      -8.286  20.108  15.823  1.00  0.00     0.123 A 
ATOM      9  C   UNL     1      -6.913  20.252  15.642  1.00  0.00     0.094 A 
ATOM     10  C   UNL     1      -6.051  20.278  16.742  1.00  0.00     0.146 A 
ATOM     11  O   UNL     1      -4.747  20.400  16.525  1.00  0.00    -0.456 OA
ENDROOT
BRANCH   1  12
ATOM     12  C   UNL     1      -2.408  20.569  17.136  1.00  0.00     0.021 A 
ATOM     13  C   UNL     1      -1.431  19.876  17.872  1.00  0.00     0.016 A 
ATOM     14  C   UNL     1      -0.077  19.999  17.549  1.00  0.00     0.051 A 
ATOM     15  C   UNL     1       0.321  20.809  16.478  1.00  0.00     0.157 A 
ATOM     16  C   UNL     1      -2.000  21.372  16.052  1.00  0.00     0.062 A 
ATOM     17  C   UNL     1      -0.641  21.493  15.727  1.00  0.00     0.158 A 
BRANCH  15  18
ATOM     18  O   UNL     1       1.671  20.935  16.153  1.00  0.00    -0.504 OA
ATOM     19  H   UNL     1       2.353  20.243  16.441  1.00  0.00     0.293 HD
ENDBRANCH  15  18
BRANCH  17  20
ATOM     20  O   UNL     1      -0.241  22.289  14.655  1.00  0.00    -0.504 OA
ATOM     21  H   UNL     1       0.603  22.089  14.131  1.00  0.00     0.293 HD
ENDBRANCH  17  20
ENDBRANCH   1  12
BRANCH   6  22
ATOM     22  O   UNL     1      -8.609  20.065  19.486  1.00  0.00    -0.507 OA
ATOM     23  H   UNL     1      -8.689  19.258  20.085  1.00  0.00     0.293 HD
ENDBRANCH   6  22
BRANCH   8  24
ATOM     24  O   UNL     1      -9.125  20.065  14.712  1.00  0.00    -0.508 OA
ATOM     25  H   UNL     1      -9.087  19.300  14.048  1.00  0.00     0.293 HD
ENDBRANCH   8  24
TORSDOF 5
ENDMDL
