MODEL 1
REMARK VINA RESULT:     4.644      0.000      0.000
REMARK INTER + INTRA:           6.397
REMARK INTER:                   7.630
REMARK INTRA:                  -1.233
REMARK UNBOUND:                -1.233
REMARK SMILES C[C@@H]1O[C@@H](OC[C@@H]2O[C@H](Oc3c(-c4ccc(O)c(O)c4)oc4cc(O)cc(O)c4c3=O)[C@@H](O)[C@@H](O)[C@H]2O)[C@@H](O)[C@H](O)[C@H]1O
REMARK SMILES IDX 7 1 36 2 34 3 32 4 9 5 8 6 6 7 5 8 4 9 1 10 2 11 42 12 3 13
REMARK SMILES IDX 40 14 38 15 43 16 41 18 39 20 37 22 35 24 10 26 11 27 12 28
REMARK SMILES IDX 30 29 21 30 29 31 31 32 22 33 27 34 23 35 26 36 24 37 13 38
REMARK SMILES IDX 20 39 14 40 18 41 15 42 16 43 19 44 17 46 28 48 25 50 33 52
REMARK H PARENT 43 17 41 19 39 21 37 23 35 25 19 45 17 47 28 49 25 51 33 53
REMARK Flexibility Score: inf
ROOT
ATOM      1  C   UNL     1      70.847  39.300  21.711  1.00  0.00     0.180 C 
ATOM      2  C   UNL     1      71.154  38.796  20.260  1.00  0.00     0.177 C 
ATOM      3  C   UNL     1      72.656  38.811  19.963  1.00  0.00     0.180 C 
ATOM      4  C   UNL     1      73.474  38.276  21.184  1.00  0.00     0.214 C 
ATOM      5  C   UNL     1      73.155  39.059  22.395  1.00  0.00     0.339 C 
ATOM      6  O   UNL     1      71.781  38.944  22.750  1.00  0.00    -0.332 OA
ENDROOT
BRANCH   1   7
ATOM      7  C   UNL     1      70.353  40.778  21.815  1.00  0.00     0.198 C 
BRANCH   7   8
ATOM      8  O   UNL     1      69.448  40.961  20.717  1.00  0.00    -0.347 OA
BRANCH   8   9
ATOM      9  C   UNL     1      68.078  40.782  20.894  1.00  0.00     0.281 C 
ATOM     10  C   UNL     1      67.334  37.353  22.067  1.00  0.00     0.041 C 
ATOM     11  C   UNL     1      67.805  38.417  21.047  1.00  0.00     0.150 C 
ATOM     12  C   UNL     1      67.034  38.279  19.670  1.00  0.00     0.174 C 
ATOM     13  O   UNL     1      67.828  39.668  21.713  1.00  0.00    -0.344 OA
ATOM     14  C   UNL     1      66.719  39.634  18.904  1.00  0.00     0.179 C 
ATOM     15  C   UNL     1      67.093  40.879  19.683  1.00  0.00     0.202 C 
BRANCH  12  16
ATOM     16  O   UNL     1      67.733  37.390  18.820  1.00  0.00    -0.388 OA
ATOM     17  H   UNL     1      67.062  36.973  18.206  1.00  0.00     0.211 HD
ENDBRANCH  12  16
BRANCH  14  18
ATOM     18  O   UNL     1      65.356  39.661  18.501  1.00  0.00    -0.387 OA
ATOM     19  H   UNL     1      64.940  40.578  18.578  1.00  0.00     0.211 HD
ENDBRANCH  14  18
BRANCH  15  20
ATOM     20  O   UNL     1      67.407  42.009  18.904  1.00  0.00    -0.385 OA
ATOM     21  H   UNL     1      66.600  42.157  18.306  1.00  0.00     0.211 HD
ENDBRANCH  15  20
ENDBRANCH   8   9
ENDBRANCH   7   8
ENDBRANCH   1   7
BRANCH   2  22
ATOM     22  O   UNL     1      70.609  37.475  20.048  1.00  0.00    -0.387 OA
ATOM     23  H   UNL     1      70.550  37.341  19.077  1.00  0.00     0.211 HD
ENDBRANCH   2  22
BRANCH   3  24
ATOM     24  O   UNL     1      72.971  38.064  18.843  1.00  0.00    -0.387 OA
ATOM     25  H   UNL     1      73.955  37.895  18.893  1.00  0.00     0.211 HD
ENDBRANCH   3  24
BRANCH   5  26
ATOM     26  O   UNL     1      73.577  40.434  22.327  1.00  0.00    -0.454 OA
BRANCH  26  27
ATOM     27  C   UNL     1      74.959  40.843  22.186  1.00  0.00     0.214 A 
ATOM     28  C   UNL     1      75.989  40.745  23.200  1.00  0.00     0.180 A 
ATOM     29  C   UNL     1      75.349  41.336  20.920  1.00  0.00     0.239 A 
ATOM     30  O   UNL     1      77.246  41.074  22.894  1.00  0.00    -0.452 OA
ATOM     31  C   UNL     1      76.731  41.551  20.638  1.00  0.00     0.111 A 
ATOM     32  O   UNL     1      74.484  41.534  20.028  1.00  0.00    -0.285 OA
ATOM     33  C   UNL     1      77.638  41.371  21.694  1.00  0.00     0.146 A 
ATOM     34  C   UNL     1      77.237  41.904  19.373  1.00  0.00     0.134 A 
ATOM     35  C   UNL     1      79.015  41.581  21.499  1.00  0.00     0.094 A 
ATOM     36  C   UNL     1      78.632  42.086  19.193  1.00  0.00     0.093 A 
ATOM     37  C   UNL     1      79.506  41.906  20.268  1.00  0.00     0.123 A 
BRANCH  28  38
ATOM     38  C   UNL     1      75.829  40.156  24.577  1.00  0.00     0.025 A 
ATOM     39  C   UNL     1      75.689  41.022  25.706  1.00  0.00     0.062 A 
ATOM     40  C   UNL     1      75.889  38.778  24.806  1.00  0.00     0.016 A 
ATOM     41  C   UNL     1      75.657  40.493  27.001  1.00  0.00     0.158 A 
ATOM     42  C   UNL     1      75.964  38.283  26.101  1.00  0.00     0.051 A 
ATOM     43  C   UNL     1      75.857  39.124  27.204  1.00  0.00     0.157 A 
BRANCH  41  44
ATOM     44  O   UNL     1      75.396  41.317  28.091  1.00  0.00    -0.504 OA
ATOM     45  H   UNL     1      74.431  41.642  28.230  1.00  0.00     0.293 HD
ENDBRANCH  41  44
BRANCH  43  46
ATOM     46  O   UNL     1      75.903  38.563  28.472  1.00  0.00    -0.504 OA
ATOM     47  H   UNL     1      76.788  38.298  28.860  1.00  0.00     0.293 HD
ENDBRANCH  43  46
ENDBRANCH  28  38
BRANCH  34  48
ATOM     48  O   UNL     1      76.392  42.117  18.286  1.00  0.00    -0.507 OA
ATOM     49  H   UNL     1      76.037  43.036  18.024  1.00  0.00     0.293 HD
ENDBRANCH  34  48
BRANCH  37  50
ATOM     50  O   UNL     1      80.882  42.123  20.137  1.00  0.00    -0.508 OA
ATOM     51  H   UNL     1      81.509  42.197  20.920  1.00  0.00     0.293 HD
ENDBRANCH  37  50
ENDBRANCH  26  27
ENDBRANCH   5  26
BRANCH   4  52
ATOM     52  O   UNL     1      73.262  36.932  21.547  1.00  0.00    -0.384 OA
ATOM     53  H   UNL     1      73.607  36.345  20.810  1.00  0.00     0.211 HD
ENDBRANCH   4  52
TORSDOF 16
ENDMDL
MODEL 2
REMARK VINA RESULT:     4.774      1.710      3.255
REMARK INTER + INTRA:           6.611
REMARK INTER:                   5.217
REMARK INTRA:                   1.394
REMARK UNBOUND:                -1.233
REMARK SMILES C[C@@H]1O[C@@H](OC[C@@H]2O[C@H](Oc3c(-c4ccc(O)c(O)c4)oc4cc(O)cc(O)c4c3=O)[C@@H](O)[C@@H](O)[C@H]2O)[C@@H](O)[C@H](O)[C@H]1O
REMARK SMILES IDX 7 1 36 2 34 3 32 4 9 5 8 6 6 7 5 8 4 9 1 10 2 11 42 12 3 13
REMARK SMILES IDX 40 14 38 15 43 16 41 18 39 20 37 22 35 24 10 26 11 27 12 28
REMARK SMILES IDX 30 29 21 30 29 31 31 32 22 33 27 34 23 35 26 36 24 37 13 38
REMARK SMILES IDX 20 39 14 40 18 41 15 42 16 43 19 44 17 46 28 48 25 50 33 52
REMARK H PARENT 43 17 41 19 39 21 37 23 35 25 19 45 17 47 28 49 25 51 33 53
REMARK Flexibility Score: inf
ROOT
ATOM      1  C   UNL     1      70.479  41.237  20.579  1.00  0.00     0.180 C 
ATOM      2  C   UNL     1      69.388  40.251  21.114  1.00  0.00     0.177 C 
ATOM      3  C   UNL     1      69.843  39.547  22.396  1.00  0.00     0.180 C 
ATOM      4  C   UNL     1      70.556  40.549  23.362  1.00  0.00     0.214 C 
ATOM      5  C   UNL     1      71.688  41.204  22.674  1.00  0.00     0.339 C 
ATOM      6  O   UNL     1      71.254  41.966  21.552  1.00  0.00    -0.332 OA
ENDROOT
BRANCH   1   7
ATOM      7  C   UNL     1      71.342  40.701  19.392  1.00  0.00     0.198 C 
BRANCH   7   8
ATOM      8  O   UNL     1      71.368  39.275  19.548  1.00  0.00    -0.347 OA
BRANCH   8   9
ATOM      9  C   UNL     1      71.125  38.441  18.458  1.00  0.00     0.281 C 
ATOM     10  C   UNL     1      67.498  37.841  18.039  1.00  0.00     0.041 C 
ATOM     11  C   UNL     1      68.867  37.729  18.752  1.00  0.00     0.150 C 
ATOM     12  C   UNL     1      69.238  36.218  19.055  1.00  0.00     0.174 C 
ATOM     13  O   UNL     1      69.785  38.546  18.046  1.00  0.00    -0.344 OA
ATOM     14  C   UNL     1      70.777  35.841  18.951  1.00  0.00     0.179 C 
ATOM     15  C   UNL     1      71.651  36.969  18.441  1.00  0.00     0.202 C 
BRANCH  12  16
ATOM     16  O   UNL     1      68.731  35.849  20.323  1.00  0.00    -0.388 OA
ATOM     17  H   UNL     1      69.512  35.609  20.899  1.00  0.00     0.211 HD
ENDBRANCH  12  16
BRANCH  14  18
ATOM     18  O   UNL     1      70.939  34.663  18.172  1.00  0.00    -0.387 OA
ATOM     19  H   UNL     1      70.478  34.716  17.275  1.00  0.00     0.211 HD
ENDBRANCH  14  18
BRANCH  15  20
ATOM     20  O   UNL     1      72.991  36.939  18.872  1.00  0.00    -0.385 OA
ATOM     21  H   UNL     1      73.359  37.865  18.677  1.00  0.00     0.211 HD
ENDBRANCH  15  20
ENDBRANCH   8   9
ENDBRANCH   7   8
ENDBRANCH   1   7
BRANCH   2  22
ATOM     22  O   UNL     1      68.135  40.937  21.331  1.00  0.00    -0.387 OA
ATOM     23  H   UNL     1      67.614  40.391  21.958  1.00  0.00     0.211 HD
ENDBRANCH   2  22
BRANCH   3  24
ATOM     24  O   UNL     1      68.789  38.948  23.061  1.00  0.00    -0.387 OA
ATOM     25  H   UNL     1      67.965  39.206  22.559  1.00  0.00     0.211 HD
ENDBRANCH   3  24
BRANCH   5  26
ATOM     26  O   UNL     1      72.757  40.303  22.326  1.00  0.00    -0.454 OA
BRANCH  26  27
ATOM     27  C   UNL     1      74.091  40.740  21.972  1.00  0.00     0.214 A 
ATOM     28  C   UNL     1      75.267  40.676  22.816  1.00  0.00     0.180 A 
ATOM     29  C   UNL     1      74.270  41.226  20.656  1.00  0.00     0.239 A 
ATOM     30  O   UNL     1      76.454  41.029  22.318  1.00  0.00    -0.452 OA
ATOM     31  C   UNL     1      75.587  41.468  20.164  1.00  0.00     0.111 A 
ATOM     32  O   UNL     1      73.275  41.395  19.907  1.00  0.00    -0.285 OA
ATOM     33  C   UNL     1      76.650  41.320  21.070  1.00  0.00     0.146 A 
ATOM     34  C   UNL     1      75.885  41.817  18.833  1.00  0.00     0.134 A 
ATOM     35  C   UNL     1      77.976  41.558  20.663  1.00  0.00     0.094 A 
ATOM     36  C   UNL     1      77.231  42.027  18.439  1.00  0.00     0.093 A 
ATOM     37  C   UNL     1      78.264  41.879  19.369  1.00  0.00     0.123 A 
BRANCH  28  38
ATOM     38  C   UNL     1      75.333  40.100  24.206  1.00  0.00     0.025 A 
ATOM     39  C   UNL     1      75.188  40.962  25.338  1.00  0.00     0.062 A 
ATOM     40  C   UNL     1      75.613  38.750  24.437  1.00  0.00     0.016 A 
ATOM     41  C   UNL     1      75.364  40.461  26.633  1.00  0.00     0.158 A 
ATOM     42  C   UNL     1      75.889  38.299  25.720  1.00  0.00     0.051 A 
ATOM     43  C   UNL     1      75.777  39.139  26.823  1.00  0.00     0.157 A 
BRANCH  41  44
ATOM     44  O   UNL     1      75.101  41.264  27.738  1.00  0.00    -0.504 OA
ATOM     45  H   UNL     1      74.217  41.787  27.755  1.00  0.00     0.293 HD
ENDBRANCH  41  44
BRANCH  43  46
ATOM     46  O   UNL     1      76.032  38.617  28.083  1.00  0.00    -0.504 OA
ATOM     47  H   UNL     1      75.322  38.670  28.788  1.00  0.00     0.293 HD
ENDBRANCH  43  46
ENDBRANCH  28  38
BRANCH  34  48
ATOM     48  O   UNL     1      74.879  41.999  17.887  1.00  0.00    -0.507 OA
ATOM     49  H   UNL     1      74.647  41.308  17.174  1.00  0.00     0.293 HD
ENDBRANCH  34  48
BRANCH  37  50
ATOM     50  O   UNL     1      79.598  42.124  19.026  1.00  0.00    -0.508 OA
ATOM     51  H   UNL     1      80.279  42.487  19.671  1.00  0.00     0.293 HD
ENDBRANCH  37  50
ENDBRANCH  26  27
ENDBRANCH   5  26
BRANCH   4  52
ATOM     52  O   UNL     1      69.774  41.604  23.870  1.00  0.00    -0.384 OA
ATOM     53  H   UNL     1      70.357  42.184  24.444  1.00  0.00     0.211 HD
ENDBRANCH   4  52
TORSDOF 16
ENDMDL
MODEL 3
REMARK VINA RESULT:     5.389      1.333      2.214
REMARK INTER + INTRA:           7.621
REMARK INTER:                   7.308
REMARK INTRA:                   0.312
REMARK UNBOUND:                -1.233
REMARK SMILES C[C@@H]1O[C@@H](OC[C@@H]2O[C@H](Oc3c(-c4ccc(O)c(O)c4)oc4cc(O)cc(O)c4c3=O)[C@@H](O)[C@@H](O)[C@H]2O)[C@@H](O)[C@H](O)[C@H]1O
REMARK SMILES IDX 7 1 36 2 34 3 32 4 9 5 8 6 6 7 5 8 4 9 1 10 2 11 42 12 3 13
REMARK SMILES IDX 40 14 38 15 43 16 41 18 39 20 37 22 35 24 10 26 11 27 12 28
REMARK SMILES IDX 30 29 21 30 29 31 31 32 22 33 27 34 23 35 26 36 24 37 13 38
REMARK SMILES IDX 20 39 14 40 18 41 15 42 16 43 19 44 17 46 28 48 25 50 33 52
REMARK H PARENT 43 17 41 19 39 21 37 23 35 25 19 45 17 47 28 49 25 51 33 53
REMARK Flexibility Score: inf
ROOT
ATOM      1  C   UNL     1      71.218  38.353  20.915  1.00  0.00     0.180 C 
ATOM      2  C   UNL     1      72.029  37.858  19.670  1.00  0.00     0.177 C 
ATOM      3  C   UNL     1      73.537  38.030  19.874  1.00  0.00     0.180 C 
ATOM      4  C   UNL     1      73.958  37.609  21.320  1.00  0.00     0.214 C 
ATOM      5  C   UNL     1      73.187  38.376  22.321  1.00  0.00     0.339 C 
ATOM      6  O   UNL     1      71.789  38.120  22.218  1.00  0.00    -0.332 OA
ENDROOT
BRANCH   1   7
ATOM      7  C   UNL     1      70.577  39.771  20.776  1.00  0.00     0.198 C 
BRANCH   7   8
ATOM      8  O   UNL     1      69.187  39.541  20.504  1.00  0.00    -0.347 OA
BRANCH   8   9
ATOM      9  C   UNL     1      68.799  38.830  19.370  1.00  0.00     0.281 C 
ATOM     10  C   UNL     1      65.746  40.292  17.875  1.00  0.00     0.041 C 
ATOM     11  C   UNL     1      66.560  39.547  18.960  1.00  0.00     0.150 C 
ATOM     12  C   UNL     1      65.901  38.152  19.322  1.00  0.00     0.174 C 
ATOM     13  O   UNL     1      67.925  39.598  18.581  1.00  0.00    -0.344 OA
ATOM     14  C   UNL     1      66.905  36.973  19.671  1.00  0.00     0.179 C 
ATOM     15  C   UNL     1      68.364  37.331  19.473  1.00  0.00     0.202 C 
BRANCH  12  16
ATOM     16  O   UNL     1      64.968  38.324  20.371  1.00  0.00    -0.388 OA
ATOM     17  H   UNL     1      64.731  39.295  20.405  1.00  0.00     0.211 HD
ENDBRANCH  12  16
BRANCH  14  18
ATOM     18  O   UNL     1      66.553  35.801  18.946  1.00  0.00    -0.387 OA
ATOM     19  H   UNL     1      67.247  35.070  19.016  1.00  0.00     0.211 HD
ENDBRANCH  14  18
BRANCH  15  20
ATOM     20  O   UNL     1      69.276  36.627  20.282  1.00  0.00    -0.385 OA
ATOM     21  H   UNL     1      69.875  37.336  20.695  1.00  0.00     0.211 HD
ENDBRANCH  15  20
ENDBRANCH   8   9
ENDBRANCH   7   8
ENDBRANCH   1   7
BRANCH   2  22
ATOM     22  O   UNL     1      71.713  36.482  19.364  1.00  0.00    -0.387 OA
ATOM     23  H   UNL     1      70.925  36.243  19.898  1.00  0.00     0.211 HD
ENDBRANCH   2  22
BRANCH   3  24
ATOM     24  O   UNL     1      74.270  37.301  18.957  1.00  0.00    -0.387 OA
ATOM     25  H   UNL     1      73.608  36.745  18.454  1.00  0.00     0.211 HD
ENDBRANCH   3  24
BRANCH   5  26
ATOM     26  O   UNL     1      73.474  39.787  22.319  1.00  0.00    -0.454 OA
BRANCH  26  27
ATOM     27  C   UNL     1      74.772  40.341  21.997  1.00  0.00     0.214 A 
ATOM     28  C   UNL     1      75.904  40.450  22.894  1.00  0.00     0.180 A 
ATOM     29  C   UNL     1      74.967  40.768  20.663  1.00  0.00     0.239 A 
ATOM     30  O   UNL     1      77.073  40.897  22.429  1.00  0.00    -0.452 OA
ATOM     31  C   UNL     1      76.276  41.117  20.215  1.00  0.00     0.111 A 
ATOM     32  O   UNL     1      73.998  40.787  19.861  1.00  0.00    -0.285 OA
ATOM     33  C   UNL     1      77.301  41.135  21.175  1.00  0.00     0.146 A 
ATOM     34  C   UNL     1      76.603  41.419  18.880  1.00  0.00     0.134 A 
ATOM     35  C   UNL     1      78.614  41.487  20.813  1.00  0.00     0.094 A 
ATOM     36  C   UNL     1      77.939  41.746  18.534  1.00  0.00     0.093 A 
ATOM     37  C   UNL     1      78.933  41.761  19.515  1.00  0.00     0.123 A 
BRANCH  28  38
ATOM     38  C   UNL     1      75.959  39.965  24.320  1.00  0.00     0.025 A 
ATOM     39  C   UNL     1      76.776  38.840  24.655  1.00  0.00     0.062 A 
ATOM     40  C   UNL     1      75.172  40.532  25.327  1.00  0.00     0.016 A 
ATOM     41  C   UNL     1      76.746  38.308  25.949  1.00  0.00     0.158 A 
ATOM     42  C   UNL     1      75.076  39.923  26.570  1.00  0.00     0.051 A 
ATOM     43  C   UNL     1      75.846  38.811  26.894  1.00  0.00     0.157 A 
BRANCH  41  44
ATOM     44  O   UNL     1      77.628  37.296  26.313  1.00  0.00    -0.504 OA
ATOM     45  H   UNL     1      77.565  36.399  25.817  1.00  0.00     0.293 HD
ENDBRANCH  41  44
BRANCH  43  46
ATOM     46  O   UNL     1      75.731  38.271  28.167  1.00  0.00    -0.504 OA
ATOM     47  H   UNL     1      75.052  38.648  28.799  1.00  0.00     0.293 HD
ENDBRANCH  43  46
ENDBRANCH  28  38
BRANCH  34  48
ATOM     48  O   UNL     1      75.632  41.440  17.881  1.00  0.00    -0.507 OA
ATOM     49  H   UNL     1      75.545  40.716  17.169  1.00  0.00     0.293 HD
ENDBRANCH  34  48
BRANCH  37  50
ATOM     50  O   UNL     1      80.250  42.125  19.218  1.00  0.00    -0.508 OA
ATOM     51  H   UNL     1      80.637  42.102  18.289  1.00  0.00     0.293 HD
ENDBRANCH  37  50
ENDBRANCH  26  27
ENDBRANCH   5  26
BRANCH   4  52
ATOM     52  O   UNL     1      73.769  36.258  21.666  1.00  0.00    -0.384 OA
ATOM     53  H   UNL     1      74.631  35.901  22.036  1.00  0.00     0.211 HD
ENDBRANCH   4  52
TORSDOF 16
ENDMDL
MODEL 4
REMARK VINA RESULT:     5.627      0.811      1.235
REMARK INTER + INTRA:           8.012
REMARK INTER:                   7.429
REMARK INTRA:                   0.582
REMARK UNBOUND:                -1.233
REMARK SMILES C[C@@H]1O[C@@H](OC[C@@H]2O[C@H](Oc3c(-c4ccc(O)c(O)c4)oc4cc(O)cc(O)c4c3=O)[C@@H](O)[C@@H](O)[C@H]2O)[C@@H](O)[C@H](O)[C@H]1O
REMARK SMILES IDX 7 1 36 2 34 3 32 4 9 5 8 6 6 7 5 8 4 9 1 10 2 11 42 12 3 13
REMARK SMILES IDX 40 14 38 15 43 16 41 18 39 20 37 22 35 24 10 26 11 27 12 28
REMARK SMILES IDX 30 29 21 30 29 31 31 32 22 33 27 34 23 35 26 36 24 37 13 38
REMARK SMILES IDX 20 39 14 40 18 41 15 42 16 43 19 44 17 46 28 48 25 50 33 52
REMARK H PARENT 43 17 41 19 39 21 37 23 35 25 19 45 17 47 28 49 25 51 33 53
REMARK Flexibility Score: inf
ROOT
ATOM      1  C   UNL     1      70.673  39.593  21.209  1.00  0.00     0.180 C 
ATOM      2  C   UNL     1      71.284  39.197  19.822  1.00  0.00     0.177 C 
ATOM      3  C   UNL     1      72.811  39.113  19.880  1.00  0.00     0.180 C 
ATOM      4  C   UNL     1      73.283  38.405  21.192  1.00  0.00     0.214 C 
ATOM      5  C   UNL     1      72.735  39.100  22.375  1.00  0.00     0.339 C 
ATOM      6  O   UNL     1      71.311  39.069  22.391  1.00  0.00    -0.332 OA
ENDROOT
BRANCH   1   7
ATOM      7  C   UNL     1      70.258  41.092  21.354  1.00  0.00     0.198 C 
BRANCH   7   8
ATOM      8  O   UNL     1      69.367  41.353  20.260  1.00  0.00    -0.347 OA
BRANCH   8   9
ATOM      9  C   UNL     1      67.999  41.122  20.393  1.00  0.00     0.281 C 
ATOM     10  C   UNL     1      67.364  37.995  22.266  1.00  0.00     0.041 C 
ATOM     11  C   UNL     1      67.848  38.837  21.061  1.00  0.00     0.150 C 
ATOM     12  C   UNL     1      67.186  38.343  19.708  1.00  0.00     0.174 C 
ATOM     13  O   UNL     1      67.753  40.202  21.427  1.00  0.00    -0.344 OA
ATOM     14  C   UNL     1      66.853  39.469  18.639  1.00  0.00     0.179 C 
ATOM     15  C   UNL     1      67.100  40.878  19.137  1.00  0.00     0.202 C 
BRANCH  12  16
ATOM     16  O   UNL     1      67.993  37.339  19.122  1.00  0.00    -0.388 OA
ATOM     17  H   UNL     1      67.519  37.013  18.304  1.00  0.00     0.211 HD
ENDBRANCH  12  16
BRANCH  14  18
ATOM     18  O   UNL     1      65.523  39.310  18.161  1.00  0.00    -0.387 OA
ATOM     19  H   UNL     1      64.825  39.558  18.848  1.00  0.00     0.211 HD
ENDBRANCH  14  18
BRANCH  15  20
ATOM     20  O   UNL     1      67.407  41.827  18.142  1.00  0.00    -0.385 OA
ATOM     21  H   UNL     1      67.297  41.337  17.259  1.00  0.00     0.211 HD
ENDBRANCH  15  20
ENDBRANCH   8   9
ENDBRANCH   7   8
ENDBRANCH   1   7
BRANCH   2  22
ATOM     22  O   UNL     1      70.726  37.950  19.351  1.00  0.00    -0.387 OA
ATOM     23  H   UNL     1      70.227  38.151  18.530  1.00  0.00     0.211 HD
ENDBRANCH   2  22
BRANCH   3  24
ATOM     24  O   UNL     1      73.337  38.447  18.790  1.00  0.00    -0.387 OA
ATOM     25  H   UNL     1      72.588  38.360  18.133  1.00  0.00     0.211 HD
ENDBRANCH   3  24
BRANCH   5  26
ATOM     26  O   UNL     1      73.242  40.436  22.551  1.00  0.00    -0.454 OA
BRANCH  26  27
ATOM     27  C   UNL     1      74.564  40.853  22.133  1.00  0.00     0.214 A 
ATOM     28  C   UNL     1      75.774  40.796  22.928  1.00  0.00     0.180 A 
ATOM     29  C   UNL     1      74.692  41.312  20.801  1.00  0.00     0.239 A 
ATOM     30  O   UNL     1      76.942  41.127  22.374  1.00  0.00    -0.452 OA
ATOM     31  C   UNL     1      75.990  41.530  20.249  1.00  0.00     0.111 A 
ATOM     32  O   UNL     1      73.668  41.474  20.090  1.00  0.00    -0.285 OA
ATOM     33  C   UNL     1      77.088  41.391  21.113  1.00  0.00     0.146 A 
ATOM     34  C   UNL     1      76.234  41.849  18.900  1.00  0.00     0.134 A 
ATOM     35  C   UNL     1      78.397  41.608  20.647  1.00  0.00     0.094 A 
ATOM     36  C   UNL     1      77.565  42.038  18.446  1.00  0.00     0.093 A 
ATOM     37  C   UNL     1      78.635  41.900  19.335  1.00  0.00     0.123 A 
BRANCH  28  38
ATOM     38  C   UNL     1      75.893  40.248  24.326  1.00  0.00     0.025 A 
ATOM     39  C   UNL     1      76.611  39.032  24.552  1.00  0.00     0.062 A 
ATOM     40  C   UNL     1      75.256  40.850  25.416  1.00  0.00     0.016 A 
ATOM     41  C   UNL     1      76.631  38.451  25.825  1.00  0.00     0.158 A 
ATOM     42  C   UNL     1      75.198  40.202  26.641  1.00  0.00     0.051 A 
ATOM     43  C   UNL     1      75.871  39.004  26.860  1.00  0.00     0.157 A 
BRANCH  41  44
ATOM     44  O   UNL     1      77.428  37.339  26.077  1.00  0.00    -0.504 OA
ATOM     45  H   UNL     1      77.076  36.633  26.734  1.00  0.00     0.293 HD
ENDBRANCH  41  44
BRANCH  43  46
ATOM     46  O   UNL     1      75.803  38.425  28.119  1.00  0.00    -0.504 OA
ATOM     47  H   UNL     1      75.540  38.989  28.904  1.00  0.00     0.293 HD
ENDBRANCH  43  46
ENDBRANCH  28  38
BRANCH  34  48
ATOM     48  O   UNL     1      75.191  42.022  17.994  1.00  0.00    -0.507 OA
ATOM     49  H   UNL     1      74.983  41.361  17.246  1.00  0.00     0.293 HD
ENDBRANCH  34  48
BRANCH  37  50
ATOM     50  O   UNL     1      79.954  42.125  18.932  1.00  0.00    -0.508 OA
ATOM     51  H   UNL     1      80.649  42.555  19.519  1.00  0.00     0.293 HD
ENDBRANCH  37  50
ENDBRANCH  26  27
ENDBRANCH   5  26
BRANCH   4  52
ATOM     52  O   UNL     1      72.912  37.056  21.352  1.00  0.00    -0.384 OA
ATOM     53  H   UNL     1      72.185  36.847  20.693  1.00  0.00     0.211 HD
ENDBRANCH   4  52
TORSDOF 16
ENDMDL
MODEL 5
REMARK VINA RESULT:     6.825      2.301      9.364
REMARK INTER + INTRA:           9.982
REMARK INTER:                  10.053
REMARK INTRA:                  -0.072
REMARK UNBOUND:                -1.233
REMARK SMILES C[C@@H]1O[C@@H](OC[C@@H]2O[C@H](Oc3c(-c4ccc(O)c(O)c4)oc4cc(O)cc(O)c4c3=O)[C@@H](O)[C@@H](O)[C@H]2O)[C@@H](O)[C@H](O)[C@H]1O
REMARK SMILES IDX 7 1 36 2 34 3 32 4 9 5 8 6 6 7 5 8 4 9 1 10 2 11 42 12 3 13
REMARK SMILES IDX 40 14 38 15 43 16 41 18 39 20 37 22 35 24 10 26 11 27 12 28
REMARK SMILES IDX 30 29 21 30 29 31 31 32 22 33 27 34 23 35 26 36 24 37 13 38
REMARK SMILES IDX 20 39 14 40 18 41 15 42 16 43 19 44 17 46 28 48 25 50 33 52
REMARK H PARENT 43 17 41 19 39 21 37 23 35 25 19 45 17 47 28 49 25 51 33 53
REMARK Flexibility Score: inf
ROOT
ATOM      1  C   UNL     1      74.473  40.863  22.081  1.00  0.00     0.180 C 
ATOM      2  C   UNL     1      75.443  40.151  21.079  1.00  0.00     0.177 C 
ATOM      3  C   UNL     1      74.725  39.750  19.787  1.00  0.00     0.180 C 
ATOM      4  C   UNL     1      73.769  40.888  19.301  1.00  0.00     0.214 C 
ATOM      5  C   UNL     1      72.807  41.237  20.367  1.00  0.00     0.339 C 
ATOM      6  O   UNL     1      73.465  41.733  21.529  1.00  0.00    -0.332 OA
ENDROOT
BRANCH   1   7
ATOM      7  C   UNL     1      73.933  39.965  23.241  1.00  0.00     0.198 C 
BRANCH   7   8
ATOM      8  O   UNL     1      75.083  39.294  23.776  1.00  0.00    -0.347 OA
BRANCH   8   9
ATOM      9  C   UNL     1      75.694  39.759  24.939  1.00  0.00     0.281 C 
ATOM     10  C   UNL     1      79.374  39.456  24.710  1.00  0.00     0.041 C 
ATOM     11  C   UNL     1      77.924  38.923  24.810  1.00  0.00     0.150 C 
ATOM     12  C   UNL     1      77.762  37.913  26.020  1.00  0.00     0.174 C 
ATOM     13  O   UNL     1      77.052  40.035  24.706  1.00  0.00    -0.344 OA
ATOM     14  C   UNL     1      76.369  37.950  26.782  1.00  0.00     0.179 C 
ATOM     15  C   UNL     1      75.444  39.055  26.313  1.00  0.00     0.202 C 
BRANCH  12  16
ATOM     16  O   UNL     1      78.042  36.597  25.582  1.00  0.00    -0.388 OA
ATOM     17  H   UNL     1      78.633  36.172  26.268  1.00  0.00     0.211 HD
ENDBRANCH  12  16
BRANCH  14  18
ATOM     18  O   UNL     1      76.583  38.011  28.187  1.00  0.00    -0.387 OA
ATOM     19  H   UNL     1      75.723  38.068  28.714  1.00  0.00     0.211 HD
ENDBRANCH  14  18
BRANCH  15  20
ATOM     20  O   UNL     1      74.068  38.801  26.474  1.00  0.00    -0.385 OA
ATOM     21  H   UNL     1      73.780  38.325  25.624  1.00  0.00     0.211 HD
ENDBRANCH  15  20
ENDBRANCH   8   9
ENDBRANCH   7   8
ENDBRANCH   1   7
BRANCH   2  22
ATOM     22  O   UNL     1      76.584  40.988  20.786  1.00  0.00    -0.387 OA
ATOM     23  H   UNL     1      76.582  41.716  21.443  1.00  0.00     0.211 HD
ENDBRANCH   2  22
BRANCH   3  24
ATOM     24  O   UNL     1      75.614  39.441  18.775  1.00  0.00    -0.387 OA
ATOM     25  H   UNL     1      75.142  38.787  18.184  1.00  0.00     0.211 HD
ENDBRANCH   3  24
BRANCH   5  26
ATOM     26  O   UNL     1      71.883  40.179  20.687  1.00  0.00    -0.454 OA
BRANCH  26  27
ATOM     27  C   UNL     1      70.667  39.925  19.944  1.00  0.00     0.214 A 
ATOM     28  C   UNL     1      70.469  38.891  18.949  1.00  0.00     0.180 A 
ATOM     29  C   UNL     1      69.550  40.733  20.260  1.00  0.00     0.239 A 
ATOM     30  O   UNL     1      69.259  38.715  18.414  1.00  0.00    -0.452 OA
ATOM     31  C   UNL     1      68.266  40.403  19.735  1.00  0.00     0.111 A 
ATOM     32  O   UNL     1      69.681  41.708  21.044  1.00  0.00    -0.285 OA
ATOM     33  C   UNL     1      68.199  39.343  18.817  1.00  0.00     0.146 A 
ATOM     34  C   UNL     1      67.070  41.053  20.096  1.00  0.00     0.134 A 
ATOM     35  C   UNL     1      66.970  38.970  18.242  1.00  0.00     0.094 A 
ATOM     36  C   UNL     1      65.839  40.643  19.523  1.00  0.00     0.093 A 
ATOM     37  C   UNL     1      65.810  39.589  18.606  1.00  0.00     0.123 A 
BRANCH  28  38
ATOM     38  C   UNL     1      71.479  37.853  18.532  1.00  0.00     0.025 A 
ATOM     39  C   UNL     1      71.148  36.465  18.623  1.00  0.00     0.062 A 
ATOM     40  C   UNL     1      72.772  38.198  18.127  1.00  0.00     0.016 A 
ATOM     41  C   UNL     1      72.115  35.491  18.351  1.00  0.00     0.158 A 
ATOM     42  C   UNL     1      73.743  37.219  17.967  1.00  0.00     0.051 A 
ATOM     43  C   UNL     1      73.435  35.868  18.083  1.00  0.00     0.157 A 
BRANCH  41  44
ATOM     44  O   UNL     1      71.766  34.145  18.317  1.00  0.00    -0.504 OA
ATOM     45  H   UNL     1      71.928  33.627  17.445  1.00  0.00     0.293 HD
ENDBRANCH  41  44
BRANCH  43  46
ATOM     46  O   UNL     1      74.443  34.937  17.875  1.00  0.00    -0.504 OA
ATOM     47  H   UNL     1      75.399  35.234  17.911  1.00  0.00     0.293 HD
ENDBRANCH  43  46
ENDBRANCH  28  38
BRANCH  34  48
ATOM     48  O   UNL     1      67.066  42.125  20.985  1.00  0.00    -0.507 OA
ATOM     49  H   UNL     1      66.881  42.026  21.983  1.00  0.00     0.293 HD
ENDBRANCH  34  48
BRANCH  37  50
ATOM     50  O   UNL     1      64.622  39.190  17.987  1.00  0.00    -0.508 OA
ATOM     51  H   UNL     1      64.399  38.232  17.776  1.00  0.00     0.293 HD
ENDBRANCH  37  50
ENDBRANCH  26  27
ENDBRANCH   5  26
BRANCH   4  52
ATOM     52  O   UNL     1      74.370  42.107  18.934  1.00  0.00    -0.384 OA
ATOM     53  H   UNL     1      74.417  42.149  17.933  1.00  0.00     0.211 HD
ENDBRANCH   4  52
TORSDOF 16
ENDMDL
