MODEL 1
REMARK VINA RESULT:    15.087      0.000      0.000
REMARK INTER + INTRA:          21.240
REMARK INTER:                  19.938
REMARK INTRA:                   1.302
REMARK UNBOUND:                 1.302
REMARK SMILES CC[C@@H](C=C[C@@H](C)[C@@H]1CC[C@H]2[C@H]3CC=C4C[C@@H](O)CC[C@@]4(C)[C@H]3CC[C@]21C)C(C)C
REMARK SMILES IDX 6 1 7 2 5 3 4 4 3 5 2 6 1 7 28 8 29 9 30 10 8 11 9 12 26 13
REMARK SMILES IDX 10 14 11 15 25 16 27 17 12 18 24 19 23 20 13 21 21 22 14 23
REMARK SMILES IDX 15 24 20 25 22 26 16 27 19 28 17 29 18 30
REMARK H PARENT 18 31
REMARK Flexibility Score: inf
ROOT
ATOM      1  C   UNL     1       6.970 -33.021  16.919  1.00  0.00     0.012 C 
ATOM      2  C   UNL     1       7.404 -33.306  18.371  1.00  0.00     0.012 C 
ENDROOT
BRANCH   1   3
ATOM      3  C   UNL     1       7.006 -34.329  16.152  1.00  0.00    -0.028 C 
ATOM      4  C   UNL     1       5.916 -34.847  15.551  1.00  0.00    -0.027 C 
BRANCH   4   5
ATOM      5  C   UNL     1       5.969 -36.167  14.807  1.00  0.00     0.014 C 
BRANCH   5   6
ATOM      6  C   UNL     1       6.984 -37.125  15.481  1.00  0.00     0.004 C 
ATOM      7  C   UNL     1       6.905 -37.079  17.009  1.00  0.00     0.004 C 
ENDBRANCH   5   6
BRANCH   5   8
ATOM      8  C   UNL     1       6.266 -35.914  13.295  1.00  0.00    -0.011 C 
ATOM      9  C   UNL     1       7.630 -36.492  12.875  1.00  0.00     0.008 C 
ATOM     10  C   UNL     1       6.180 -34.428  12.889  1.00  0.00     0.008 C 
ENDBRANCH   5   8
ENDBRANCH   4   5
ENDBRANCH   1   3
BRANCH   1  11
ATOM     11  C   UNL     1       7.827 -31.906  16.204  1.00  0.00     0.002 C 
ATOM     12  C   UNL     1       7.595 -31.876  14.684  1.00  0.00     0.005 C 
ATOM     13  C   UNL     1       9.400 -32.033  16.328  1.00  0.00    -0.026 C 
ATOM     14  C   UNL     1       8.616 -32.825  14.099  1.00  0.00     0.005 C 
ATOM     15  C   UNL     1       9.865 -32.689  14.982  1.00  0.00    -0.001 C 
ATOM     16  C   UNL     1      10.002 -30.610  16.493  1.00  0.00     0.007 C 
ATOM     17  C   UNL     1       9.881 -32.887  17.534  1.00  0.00     0.012 C 
ATOM     18  C   UNL     1      11.091 -32.011  14.276  1.00  0.00     0.000 C 
ATOM     19  C   UNL     1      11.533 -30.545  16.325  1.00  0.00     0.005 C 
ATOM     20  C   UNL     1      12.144 -31.576  15.321  1.00  0.00     0.003 C 
ATOM     21  C   UNL     1      10.766 -30.849  13.295  1.00  0.00     0.031 C 
ATOM     22  C   UNL     1      13.463 -31.063  14.625  1.00  0.00    -0.008 C 
ATOM     23  C   UNL     1      11.928 -29.931  12.987  1.00  0.00    -0.027 C 
ATOM     24  C   UNL     1      13.121 -29.959  13.623  1.00  0.00    -0.065 C 
ATOM     25  C   UNL     1      14.482 -30.552  15.702  1.00  0.00     0.014 C 
ATOM     26  C   UNL     1      14.139 -32.226  13.845  1.00  0.00     0.016 C 
ATOM     27  C   UNL     1      14.221 -29.028  13.145  1.00  0.00     0.063 C 
ATOM     28  C   UNL     1      15.622 -29.698  15.125  1.00  0.00     0.033 C 
ATOM     29  C   UNL     1      15.072 -28.520  14.310  1.00  0.00     0.118 C 
BRANCH  29  30
ATOM     30  O   UNL     1      14.297 -27.682  15.125  1.00  0.00    -0.393 OA
ATOM     31  H   UNL     1      14.825 -27.511  15.948  1.00  0.00     0.210 HD
ENDBRANCH  29  30
ENDBRANCH   1  11
TORSDOF 6
ENDMDL
