MODEL 1
REMARK VINA RESULT:    -6.414      0.000      0.000
REMARK INTER + INTRA:          -8.138
REMARK INTER:                  -7.726
REMARK INTRA:                  -0.413
REMARK UNBOUND:                -0.413
REMARK SMILES O=c1c(O)c(-c2ccc(O)cc2O)oc2cc(O)cc(O)c12
REMARK SMILES IDX 5 1 3 2 2 3 1 4 22 5 20 6 19 7 17 8 16 9 15 10 14 11 6 12
REMARK SMILES IDX 8 13 7 14 9 15 11 16 12 17 10 18 13 20 4 22 21 24 18 26
REMARK H PARENT 10 19 13 21 4 23 21 25 18 27
REMARK Flexibility Score: inf
ROOT
ATOM      1  C   UNL     1     123.228 124.201 143.415  1.00  0.00     0.184 A 
ATOM      2  C   UNL     1     123.757 124.727 144.607  1.00  0.00     0.208 A 
ATOM      3  C   UNL     1     124.771 124.016 145.268  1.00  0.00     0.238 A 
ATOM      4  O   UNL     1     125.245 124.471 146.345  1.00  0.00    -0.285 OA
ATOM      5  C   UNL     1     125.249 122.809 144.717  1.00  0.00     0.111 A 
ATOM      6  C   UNL     1     126.271 122.035 145.318  1.00  0.00     0.134 A 
ATOM      7  C   UNL     1     126.699 120.849 144.702  1.00  0.00     0.093 A 
ATOM      8  C   UNL     1     126.125 120.425 143.498  1.00  0.00     0.123 A 
ATOM      9  C   UNL     1     125.117 121.185 142.902  1.00  0.00     0.094 A 
ATOM     10  C   UNL     1     124.675 122.369 143.501  1.00  0.00     0.146 A 
ATOM     11  O   UNL     1     123.712 123.069 142.914  1.00  0.00    -0.451 OA
ENDROOT
BRANCH   1  12
ATOM     12  C   UNL     1     122.152 124.892 142.674  1.00  0.00     0.063 A 
ATOM     13  C   UNL     1     121.500 126.384 140.869  1.00  0.00     0.047 A 
ATOM     14  C   UNL     1     122.493 125.722 141.594  1.00  0.00     0.020 A 
ATOM     15  C   UNL     1     120.154 126.217 141.204  1.00  0.00     0.119 A 
ATOM     16  C   UNL     1     119.801 125.373 142.264  1.00  0.00     0.093 A 
ATOM     17  C   UNL     1     120.792 124.699 142.995  1.00  0.00     0.130 A 
BRANCH  15  18
ATOM     18  O   UNL     1     119.176 126.888 140.473  1.00  0.00    -0.508 OA
ATOM     19  H   UNL     1     119.410 127.437 139.654  1.00  0.00     0.293 HD
ENDBRANCH  15  18
BRANCH  17  20
ATOM     20  O   UNL     1     120.425 123.824 144.017  1.00  0.00    -0.507 OA
ATOM     21  H   UNL     1     119.498 123.417 144.061  1.00  0.00     0.293 HD
ENDBRANCH  17  20
ENDBRANCH   1  12
BRANCH   2  22
ATOM     22  O   UNL     1     123.293 125.947 145.103  1.00  0.00    -0.502 OA
ATOM     23  H   UNL     1     123.481 126.253 146.051  1.00  0.00     0.293 HD
ENDBRANCH   2  22
BRANCH   6  24
ATOM     24  O   UNL     1     126.861 122.433 146.518  1.00  0.00    -0.507 OA
ATOM     25  H   UNL     1     126.306 122.648 147.339  1.00  0.00     0.293 HD
ENDBRANCH   6  24
BRANCH   8  26
ATOM     26  O   UNL     1     126.550 119.248 142.885  1.00  0.00    -0.508 OA
ATOM     27  H   UNL     1     126.216 118.978 141.967  1.00  0.00     0.293 HD
ENDBRANCH   8  26
TORSDOF 6
ENDMDL
MODEL 2
REMARK VINA RESULT:    -6.380      1.708      6.720
REMARK INTER + INTRA:          -8.098
REMARK INTER:                  -7.686
REMARK INTRA:                  -0.411
REMARK UNBOUND:                -0.413
REMARK SMILES O=c1c(O)c(-c2ccc(O)cc2O)oc2cc(O)cc(O)c12
REMARK SMILES IDX 5 1 3 2 2 3 1 4 22 5 20 6 19 7 17 8 16 9 15 10 14 11 6 12
REMARK SMILES IDX 8 13 7 14 9 15 11 16 12 17 10 18 13 20 4 22 21 24 18 26
REMARK H PARENT 10 19 13 21 4 23 21 25 18 27
REMARK Flexibility Score: inf
ROOT
ATOM      1  C   UNL     1     123.320 122.960 142.640  1.00  0.00     0.184 A 
ATOM      2  C   UNL     1     122.223 123.322 143.441  1.00  0.00     0.208 A 
ATOM      3  C   UNL     1     121.233 124.155 142.896  1.00  0.00     0.238 A 
ATOM      4  O   UNL     1     120.249 124.497 143.608  1.00  0.00    -0.285 OA
ATOM      5  C   UNL     1     121.347 124.591 141.560  1.00  0.00     0.111 A 
ATOM      6  C   UNL     1     120.392 125.427 140.933  1.00  0.00     0.134 A 
ATOM      7  C   UNL     1     120.572 125.810 139.596  1.00  0.00     0.093 A 
ATOM      8  C   UNL     1     121.689 125.373 138.874  1.00  0.00     0.123 A 
ATOM      9  C   UNL     1     122.634 124.548 139.487  1.00  0.00     0.094 A 
ATOM     10  C   UNL     1     122.473 124.156 140.820  1.00  0.00     0.146 A 
ATOM     11  O   UNL     1     123.390 123.375 141.379  1.00  0.00    -0.451 OA
ENDROOT
BRANCH   1  12
ATOM     12  C   UNL     1     124.403 122.096 143.155  1.00  0.00     0.063 A 
ATOM     13  C   UNL     1     125.377 119.877 143.343  1.00  0.00     0.047 A 
ATOM     14  C   UNL     1     124.366 120.720 142.878  1.00  0.00     0.020 A 
ATOM     15  C   UNL     1     126.444 120.397 144.080  1.00  0.00     0.119 A 
ATOM     16  C   UNL     1     126.503 121.772 144.342  1.00  0.00     0.093 A 
ATOM     17  C   UNL     1     125.495 122.627 143.873  1.00  0.00     0.130 A 
BRANCH  15  18
ATOM     18  O   UNL     1     127.443 119.542 144.541  1.00  0.00    -0.508 OA
ATOM     19  H   UNL     1     127.524 119.305 145.523  1.00  0.00     0.293 HD
ENDBRANCH  15  18
BRANCH  17  20
ATOM     20  O   UNL     1     125.590 124.001 144.098  1.00  0.00    -0.507 OA
ATOM     21  H   UNL     1     126.438 124.516 143.891  1.00  0.00     0.293 HD
ENDBRANCH  17  20
ENDBRANCH   1  12
BRANCH   2  22
ATOM     22  O   UNL     1     122.116 122.838 144.746  1.00  0.00    -0.502 OA
ATOM     23  H   UNL     1     121.614 121.986 144.969  1.00  0.00     0.293 HD
ENDBRANCH   2  22
BRANCH   6  24
ATOM     24  O   UNL     1     119.268 125.878 141.628  1.00  0.00    -0.507 OA
ATOM     25  H   UNL     1     118.335 125.797 141.241  1.00  0.00     0.293 HD
ENDBRANCH   6  24
BRANCH   8  26
ATOM     26  O   UNL     1     121.868 125.751 137.546  1.00  0.00    -0.508 OA
ATOM     27  H   UNL     1     121.102 126.116 136.991  1.00  0.00     0.293 HD
ENDBRANCH   8  26
TORSDOF 6
ENDMDL
MODEL 3
REMARK VINA RESULT:    -6.334      3.167      5.177
REMARK INTER + INTRA:          -8.043
REMARK INTER:                  -7.771
REMARK INTRA:                  -0.272
REMARK UNBOUND:                -0.413
REMARK SMILES O=c1c(O)c(-c2ccc(O)cc2O)oc2cc(O)cc(O)c12
REMARK SMILES IDX 5 1 3 2 2 3 1 4 22 5 20 6 19 7 17 8 16 9 15 10 14 11 6 12
REMARK SMILES IDX 8 13 7 14 9 15 11 16 12 17 10 18 13 20 4 22 21 24 18 26
REMARK H PARENT 10 19 13 21 4 23 21 25 18 27
REMARK Flexibility Score: inf
ROOT
ATOM      1  C   UNL     1     121.466 124.736 139.846  1.00  0.00     0.184 A 
ATOM      2  C   UNL     1     120.450 125.237 140.679  1.00  0.00     0.208 A 
ATOM      3  C   UNL     1     120.217 124.613 141.914  1.00  0.00     0.238 A 
ATOM      4  O   UNL     1     119.301 125.045 142.665  1.00  0.00    -0.285 OA
ATOM      5  C   UNL     1     121.015 123.516 142.301  1.00  0.00     0.111 A 
ATOM      6  C   UNL     1     120.849 122.834 143.531  1.00  0.00     0.134 A 
ATOM      7  C   UNL     1     121.690 121.756 143.848  1.00  0.00     0.093 A 
ATOM      8  C   UNL     1     122.693 121.350 142.960  1.00  0.00     0.123 A 
ATOM      9  C   UNL     1     122.860 122.020 141.747  1.00  0.00     0.094 A 
ATOM     10  C   UNL     1     122.031 123.095 141.411  1.00  0.00     0.146 A 
ATOM     11  O   UNL     1     122.211 123.711 140.249  1.00  0.00    -0.451 OA
ENDROOT
BRANCH   1  12
ATOM     12  C   UNL     1     121.756 125.339 138.529  1.00  0.00     0.063 A 
ATOM     13  C   UNL     1     121.741 125.142 136.106  1.00  0.00     0.047 A 
ATOM     14  C   UNL     1     121.485 124.599 137.367  1.00  0.00     0.020 A 
ATOM     15  C   UNL     1     122.259 126.434 135.988  1.00  0.00     0.119 A 
ATOM     16  C   UNL     1     122.511 127.190 137.140  1.00  0.00     0.093 A 
ATOM     17  C   UNL     1     122.251 126.654 138.411  1.00  0.00     0.130 A 
BRANCH  15  18
ATOM     18  O   UNL     1     122.514 126.960 134.723  1.00  0.00    -0.508 OA
ATOM     19  H   UNL     1     123.243 127.647 134.573  1.00  0.00     0.293 HD
ENDBRANCH  15  18
BRANCH  17  20
ATOM     20  O   UNL     1     122.460 127.434 139.548  1.00  0.00    -0.507 OA
ATOM     21  H   UNL     1     122.590 128.437 139.488  1.00  0.00     0.293 HD
ENDBRANCH  17  20
ENDBRANCH   1  12
BRANCH   2  22
ATOM     22  O   UNL     1     119.707 126.353 140.286  1.00  0.00    -0.502 OA
ATOM     23  H   UNL     1     119.120 126.350 139.460  1.00  0.00     0.293 HD
ENDBRANCH   2  22
BRANCH   6  24
ATOM     24  O   UNL     1     119.858 123.217 144.436  1.00  0.00    -0.507 OA
ATOM     25  H   UNL     1     118.888 123.304 144.157  1.00  0.00     0.293 HD
ENDBRANCH   6  24
BRANCH   8  26
ATOM     26  O   UNL     1     123.529 120.281 143.275  1.00  0.00    -0.508 OA
ATOM     27  H   UNL     1     123.155 119.376 143.536  1.00  0.00     0.293 HD
ENDBRANCH   8  26
TORSDOF 6
ENDMDL
MODEL 4
REMARK VINA RESULT:    -6.318     16.221     17.871
REMARK INTER + INTRA:          -8.023
REMARK INTER:                  -7.608
REMARK INTRA:                  -0.415
REMARK UNBOUND:                -0.413
REMARK SMILES O=c1c(O)c(-c2ccc(O)cc2O)oc2cc(O)cc(O)c12
REMARK SMILES IDX 5 1 3 2 2 3 1 4 22 5 20 6 19 7 17 8 16 9 15 10 14 11 6 12
REMARK SMILES IDX 8 13 7 14 9 15 11 16 12 17 10 18 13 20 4 22 21 24 18 26
REMARK H PARENT 10 19 13 21 4 23 21 25 18 27
REMARK Flexibility Score: inf
ROOT
ATOM      1  C   UNL     1     132.656 133.081 132.811  1.00  0.00     0.184 A 
ATOM      2  C   UNL     1     133.981 133.185 132.353  1.00  0.00     0.208 A 
ATOM      3  C   UNL     1     134.695 134.366 132.608  1.00  0.00     0.238 A 
ATOM      4  O   UNL     1     135.881 134.476 132.192  1.00  0.00    -0.285 OA
ATOM      5  C   UNL     1     134.081 135.409 133.332  1.00  0.00     0.111 A 
ATOM      6  C   UNL     1     134.732 136.629 133.637  1.00  0.00     0.134 A 
ATOM      7  C   UNL     1     134.055 137.614 134.370  1.00  0.00     0.093 A 
ATOM      8  C   UNL     1     132.742 137.403 134.806  1.00  0.00     0.123 A 
ATOM      9  C   UNL     1     132.096 136.201 134.508  1.00  0.00     0.094 A 
ATOM     10  C   UNL     1     132.752 135.207 133.777  1.00  0.00     0.146 A 
ATOM     11  O   UNL     1     132.112 134.076 133.505  1.00  0.00    -0.451 OA
ENDROOT
BRANCH   1  12
ATOM     12  C   UNL     1     131.844 131.871 132.566  1.00  0.00     0.063 A 
ATOM     13  C   UNL     1     130.529 130.529 131.024  1.00  0.00     0.047 A 
ATOM     14  C   UNL     1     131.295 131.665 131.290  1.00  0.00     0.020 A 
ATOM     15  C   UNL     1     130.311 129.577 132.023  1.00  0.00     0.119 A 
ATOM     16  C   UNL     1     130.873 129.760 133.292  1.00  0.00     0.093 A 
ATOM     17  C   UNL     1     131.649 130.897 133.567  1.00  0.00     0.130 A 
BRANCH  15  18
ATOM     18  O   UNL     1     129.540 128.451 131.743  1.00  0.00    -0.508 OA
ATOM     19  H   UNL     1     129.154 128.290 130.819  1.00  0.00     0.293 HD
ENDBRANCH  15  18
BRANCH  17  20
ATOM     20  O   UNL     1     132.244 131.044 134.820  1.00  0.00    -0.507 OA
ATOM     21  H   UNL     1     133.197 131.374 134.920  1.00  0.00     0.293 HD
ENDBRANCH  17  20
ENDBRANCH   1  12
BRANCH   2  22
ATOM     22  O   UNL     1     134.576 132.117 131.677  1.00  0.00    -0.502 OA
ATOM     23  H   UNL     1     135.502 131.777 131.909  1.00  0.00     0.293 HD
ENDBRANCH   2  22
BRANCH   6  24
ATOM     24  O   UNL     1     136.041 136.867 133.216  1.00  0.00    -0.507 OA
ATOM     25  H   UNL     1     136.651 137.508 133.711  1.00  0.00     0.293 HD
ENDBRANCH   6  24
BRANCH   8  26
ATOM     26  O   UNL     1     132.070 138.381 135.536  1.00  0.00    -0.508 OA
ATOM     27  H   UNL     1     132.248 139.368 135.387  1.00  0.00     0.293 HD
ENDBRANCH   8  26
TORSDOF 6
ENDMDL
MODEL 5
REMARK VINA RESULT:    -6.218      1.820      6.996
REMARK INTER + INTRA:          -7.903
REMARK INTER:                  -7.496
REMARK INTRA:                  -0.407
REMARK UNBOUND:                -0.413
REMARK SMILES O=c1c(O)c(-c2ccc(O)cc2O)oc2cc(O)cc(O)c12
REMARK SMILES IDX 5 1 3 2 2 3 1 4 22 5 20 6 19 7 17 8 16 9 15 10 14 11 6 12
REMARK SMILES IDX 8 13 7 14 9 15 11 16 12 17 10 18 13 20 4 22 21 24 18 26
REMARK H PARENT 10 19 13 21 4 23 21 25 18 27
REMARK Flexibility Score: inf
ROOT
ATOM      1  C   UNL     1     123.383 123.241 142.977  1.00  0.00     0.184 A 
ATOM      2  C   UNL     1     122.182 122.818 142.381  1.00  0.00     0.208 A 
ATOM      3  C   UNL     1     121.254 123.786 141.967  1.00  0.00     0.238 A 
ATOM      4  O   UNL     1     120.167 123.419 141.442  1.00  0.00    -0.285 OA
ATOM      5  C   UNL     1     121.552 125.154 142.136  1.00  0.00     0.111 A 
ATOM      6  C   UNL     1     120.675 126.193 141.742  1.00  0.00     0.134 A 
ATOM      7  C   UNL     1     121.048 127.531 141.936  1.00  0.00     0.093 A 
ATOM      8  C   UNL     1     122.282 127.849 142.515  1.00  0.00     0.123 A 
ATOM      9  C   UNL     1     123.151 126.828 142.905  1.00  0.00     0.094 A 
ATOM     10  C   UNL     1     122.797 125.488 142.722  1.00  0.00     0.146 A 
ATOM     11  O   UNL     1     123.641 124.538 143.107  1.00  0.00    -0.451 OA
ENDROOT
BRANCH   1  12
ATOM     12  C   UNL     1     124.398 122.274 143.446  1.00  0.00     0.063 A 
ATOM     13  C   UNL     1     125.152 120.720 145.156  1.00  0.00     0.047 A 
ATOM     14  C   UNL     1     124.215 121.643 144.687  1.00  0.00     0.020 A 
ATOM     15  C   UNL     1     126.275 120.404 144.388  1.00  0.00     0.119 A 
ATOM     16  C   UNL     1     126.455 121.010 143.138  1.00  0.00     0.093 A 
ATOM     17  C   UNL     1     125.516 121.935 142.656  1.00  0.00     0.130 A 
BRANCH  15  18
ATOM     18  O   UNL     1     127.203 119.484 144.872  1.00  0.00    -0.508 OA
ATOM     19  H   UNL     1     127.803 118.959 144.247  1.00  0.00     0.293 HD
ENDBRANCH  15  18
BRANCH  17  20
ATOM     20  O   UNL     1     125.681 122.494 141.388  1.00  0.00    -0.507 OA
ATOM     21  H   UNL     1     125.580 123.490 141.230  1.00  0.00     0.293 HD
ENDBRANCH  17  20
ENDBRANCH   1  12
BRANCH   2  22
ATOM     22  O   UNL     1     121.935 121.457 142.187  1.00  0.00    -0.502 OA
ATOM     23  H   UNL     1     121.624 120.850 142.937  1.00  0.00     0.293 HD
ENDBRANCH   2  22
BRANCH   6  24
ATOM     24  O   UNL     1     119.438 125.905 141.162  1.00  0.00    -0.507 OA
ATOM     25  H   UNL     1     119.157 124.955 140.950  1.00  0.00     0.293 HD
ENDBRANCH   6  24
BRANCH   8  26
ATOM     26  O   UNL     1     122.655 129.178 142.706  1.00  0.00    -0.508 OA
ATOM     27  H   UNL     1     122.654 129.843 141.941  1.00  0.00     0.293 HD
ENDBRANCH   8  26
TORSDOF 6
ENDMDL
MODEL 6
REMARK VINA RESULT:    -6.171      1.844      1.971
REMARK INTER + INTRA:          -7.846
REMARK INTER:                  -7.431
REMARK INTRA:                  -0.415
REMARK UNBOUND:                -0.413
REMARK SMILES O=c1c(O)c(-c2ccc(O)cc2O)oc2cc(O)cc(O)c12
REMARK SMILES IDX 5 1 3 2 2 3 1 4 22 5 20 6 19 7 17 8 16 9 15 10 14 11 6 12
REMARK SMILES IDX 8 13 7 14 9 15 11 16 12 17 10 18 13 20 4 22 21 24 18 26
REMARK H PARENT 10 19 13 21 4 23 21 25 18 27
REMARK Flexibility Score: inf
ROOT
ATOM      1  C   UNL     1     123.586 123.703 142.312  1.00  0.00     0.184 A 
ATOM      2  C   UNL     1     123.494 124.530 143.446  1.00  0.00     0.208 A 
ATOM      3  C   UNL     1     124.190 124.164 144.609  1.00  0.00     0.238 A 
ATOM      4  O   UNL     1     124.106 124.891 145.636  1.00  0.00    -0.285 OA
ATOM      5  C   UNL     1     124.978 122.995 144.610  1.00  0.00     0.111 A 
ATOM      6  C   UNL     1     125.713 122.558 145.738  1.00  0.00     0.134 A 
ATOM      7  C   UNL     1     126.482 121.387 145.658  1.00  0.00     0.093 A 
ATOM      8  C   UNL     1     126.528 120.646 144.471  1.00  0.00     0.123 A 
ATOM      9  C   UNL     1     125.805 121.073 143.356  1.00  0.00     0.094 A 
ATOM     10  C   UNL     1     125.032 122.236 143.417  1.00  0.00     0.146 A 
ATOM     11  O   UNL     1     124.350 122.615 142.342  1.00  0.00    -0.451 OA
ENDROOT
BRANCH   1  12
ATOM     12  C   UNL     1     122.870 124.023 141.060  1.00  0.00     0.063 A 
ATOM     13  C   UNL     1     122.902 125.039 138.851  1.00  0.00     0.047 A 
ATOM     14  C   UNL     1     123.547 124.726 140.050  1.00  0.00     0.020 A 
ATOM     15  C   UNL     1     121.579 124.643 138.640  1.00  0.00     0.119 A 
ATOM     16  C   UNL     1     120.902 123.920 139.630  1.00  0.00     0.093 A 
ATOM     17  C   UNL     1     121.545 123.597 140.836  1.00  0.00     0.130 A 
BRANCH  15  18
ATOM     18  O   UNL     1     120.948 124.966 137.440  1.00  0.00    -0.508 OA
ATOM     19  H   UNL     1     121.320 124.664 136.548  1.00  0.00     0.293 HD
ENDBRANCH  15  18
BRANCH  17  20
ATOM     20  O   UNL     1     120.877 122.834 141.795  1.00  0.00    -0.507 OA
ATOM     21  H   UNL     1     120.597 121.878 141.612  1.00  0.00     0.293 HD
ENDBRANCH  17  20
ENDBRANCH   1  12
BRANCH   2  22
ATOM     22  O   UNL     1     122.742 125.706 143.398  1.00  0.00    -0.502 OA
ATOM     23  H   UNL     1     122.927 126.441 142.727  1.00  0.00     0.293 HD
ENDBRANCH   2  22
BRANCH   6  24
ATOM     24  O   UNL     1     125.686 123.276 146.935  1.00  0.00    -0.507 OA
ATOM     25  H   UNL     1     125.791 122.819 147.833  1.00  0.00     0.293 HD
ENDBRANCH   6  24
BRANCH   8  26
ATOM     26  O   UNL     1     127.292 119.484 144.390  1.00  0.00    -0.508 OA
ATOM     27  H   UNL     1     126.897 118.612 144.057  1.00  0.00     0.293 HD
ENDBRANCH   8  26
TORSDOF 6
ENDMDL
MODEL 7
REMARK VINA RESULT:    -6.154      1.533      2.891
REMARK INTER + INTRA:          -7.826
REMARK INTER:                  -7.416
REMARK INTRA:                  -0.409
REMARK UNBOUND:                -0.413
REMARK SMILES O=c1c(O)c(-c2ccc(O)cc2O)oc2cc(O)cc(O)c12
REMARK SMILES IDX 5 1 3 2 2 3 1 4 22 5 20 6 19 7 17 8 16 9 15 10 14 11 6 12
REMARK SMILES IDX 8 13 7 14 9 15 11 16 12 17 10 18 13 20 4 22 21 24 18 26
REMARK H PARENT 10 19 13 21 4 23 21 25 18 27
REMARK Flexibility Score: inf
ROOT
ATOM      1  C   UNL     1     123.583 123.172 142.734  1.00  0.00     0.184 A 
ATOM      2  C   UNL     1     123.576 121.776 142.564  1.00  0.00     0.208 A 
ATOM      3  C   UNL     1     124.636 121.024 143.094  1.00  0.00     0.238 A 
ATOM      4  O   UNL     1     124.648 119.773 142.938  1.00  0.00    -0.285 OA
ATOM      5  C   UNL     1     125.668 121.677 143.799  1.00  0.00     0.111 A 
ATOM      6  C   UNL     1     126.770 120.993 144.368  1.00  0.00     0.134 A 
ATOM      7  C   UNL     1     127.752 121.713 145.064  1.00  0.00     0.093 A 
ATOM      8  C   UNL     1     127.653 123.103 145.201  1.00  0.00     0.123 A 
ATOM      9  C   UNL     1     126.569 123.782 144.642  1.00  0.00     0.094 A 
ATOM     10  C   UNL     1     125.580 123.082 143.943  1.00  0.00     0.146 A 
ATOM     11  O   UNL     1     124.563 123.754 143.418  1.00  0.00    -0.451 OA
ENDROOT
BRANCH   1  12
ATOM     12  C   UNL     1     122.504 124.024 142.192  1.00  0.00     0.063 A 
ATOM     13  C   UNL     1     121.625 125.339 140.346  1.00  0.00     0.047 A 
ATOM     14  C   UNL     1     122.629 124.536 140.890  1.00  0.00     0.020 A 
ATOM     15  C   UNL     1     120.477 125.630 141.087  1.00  0.00     0.119 A 
ATOM     16  C   UNL     1     120.331 125.105 142.377  1.00  0.00     0.093 A 
ATOM     17  C   UNL     1     121.332 124.293 142.930  1.00  0.00     0.130 A 
BRANCH  15  18
ATOM     18  O   UNL     1     119.486 126.436 140.531  1.00  0.00    -0.508 OA
ATOM     19  H   UNL     1     118.570 126.068 140.303  1.00  0.00     0.293 HD
ENDBRANCH  15  18
BRANCH  17  20
ATOM     20  O   UNL     1     121.153 123.735 144.196  1.00  0.00    -0.507 OA
ATOM     21  H   UNL     1     120.291 123.269 144.454  1.00  0.00     0.293 HD
ENDBRANCH  17  20
ENDBRANCH   1  12
BRANCH   2  22
ATOM     22  O   UNL     1     122.516 121.155 141.899  1.00  0.00    -0.502 OA
ATOM     23  H   UNL     1     121.548 121.382 142.091  1.00  0.00     0.293 HD
ENDBRANCH   2  22
BRANCH   6  24
ATOM     24  O   UNL     1     126.894 119.608 144.247  1.00  0.00    -0.507 OA
ATOM     25  H   UNL     1     127.459 119.186 143.519  1.00  0.00     0.293 HD
ENDBRANCH   6  24
BRANCH   8  26
ATOM     26  O   UNL     1     128.628 123.819 145.893  1.00  0.00    -0.508 OA
ATOM     27  H   UNL     1     128.838 124.784 145.665  1.00  0.00     0.293 HD
ENDBRANCH   8  26
TORSDOF 6
ENDMDL
MODEL 8
REMARK VINA RESULT:    -6.131      4.168      7.996
REMARK INTER + INTRA:          -7.798
REMARK INTER:                  -7.394
REMARK INTRA:                  -0.404
REMARK UNBOUND:                -0.413
REMARK SMILES O=c1c(O)c(-c2ccc(O)cc2O)oc2cc(O)cc(O)c12
REMARK SMILES IDX 5 1 3 2 2 3 1 4 22 5 20 6 19 7 17 8 16 9 15 10 14 11 6 12
REMARK SMILES IDX 8 13 7 14 9 15 11 16 12 17 10 18 13 20 4 22 21 24 18 26
REMARK H PARENT 10 19 13 21 4 23 21 25 18 27
REMARK Flexibility Score: inf
ROOT
ATOM      1  C   UNL     1     121.649 125.830 139.060  1.00  0.00     0.184 A 
ATOM      2  C   UNL     1     122.464 126.974 139.014  1.00  0.00     0.208 A 
ATOM      3  C   UNL     1     122.793 127.523 137.765  1.00  0.00     0.238 A 
ATOM      4  O   UNL     1     123.534 128.542 137.710  1.00  0.00    -0.285 OA
ATOM      5  C   UNL     1     122.284 126.932 136.590  1.00  0.00     0.111 A 
ATOM      6  C   UNL     1     122.562 127.424 135.292  1.00  0.00     0.134 A 
ATOM      7  C   UNL     1     122.011 126.786 134.171  1.00  0.00     0.093 A 
ATOM      8  C   UNL     1     121.185 125.665 134.324  1.00  0.00     0.123 A 
ATOM      9  C   UNL     1     120.908 125.176 135.602  1.00  0.00     0.094 A 
ATOM     10  C   UNL     1     121.450 125.797 136.731  1.00  0.00     0.146 A 
ATOM     11  O   UNL     1     121.172 125.307 137.934  1.00  0.00    -0.451 OA
ENDROOT
BRANCH   1  12
ATOM     12  C   UNL     1     121.274 125.195 140.341  1.00  0.00     0.063 A 
ATOM     13  C   UNL     1     121.758 123.549 142.063  1.00  0.00     0.047 A 
ATOM     14  C   UNL     1     122.080 124.165 140.851  1.00  0.00     0.020 A 
ATOM     15  C   UNL     1     120.636 123.961 142.786  1.00  0.00     0.119 A 
ATOM     16  C   UNL     1     119.839 125.004 142.297  1.00  0.00     0.093 A 
ATOM     17  C   UNL     1     120.158 125.633 141.084  1.00  0.00     0.130 A 
BRANCH  15  18
ATOM     18  O   UNL     1     120.326 123.334 143.990  1.00  0.00    -0.508 OA
ATOM     19  H   UNL     1     121.043 123.110 144.671  1.00  0.00     0.293 HD
ENDBRANCH  15  18
BRANCH  17  20
ATOM     20  O   UNL     1     119.385 126.702 140.632  1.00  0.00    -0.507 OA
ATOM     21  H   UNL     1     118.410 126.584 140.380  1.00  0.00     0.293 HD
ENDBRANCH  17  20
ENDBRANCH   1  12
BRANCH   2  22
ATOM     22  O   UNL     1     122.916 127.562 140.198  1.00  0.00    -0.502 OA
ATOM     23  H   UNL     1     123.000 128.566 140.307  1.00  0.00     0.293 HD
ENDBRANCH   2  22
BRANCH   6  24
ATOM     24  O   UNL     1     123.381 128.540 135.108  1.00  0.00    -0.507 OA
ATOM     25  H   UNL     1     123.849 128.990 135.886  1.00  0.00     0.293 HD
ENDBRANCH   6  24
BRANCH   8  26
ATOM     26  O   UNL     1     120.636 125.032 133.212  1.00  0.00    -0.508 OA
ATOM     27  H   UNL     1     121.089 125.064 132.306  1.00  0.00     0.293 HD
ENDBRANCH   8  26
TORSDOF 6
ENDMDL
MODEL 9
REMARK VINA RESULT:    -6.084     16.382     17.732
REMARK INTER + INTRA:          -7.741
REMARK INTER:                  -7.396
REMARK INTRA:                  -0.346
REMARK UNBOUND:                -0.413
REMARK SMILES O=c1c(O)c(-c2ccc(O)cc2O)oc2cc(O)cc(O)c12
REMARK SMILES IDX 5 1 3 2 2 3 1 4 22 5 20 6 19 7 17 8 16 9 15 10 14 11 6 12
REMARK SMILES IDX 8 13 7 14 9 15 11 16 12 17 10 18 13 20 4 22 21 24 18 26
REMARK H PARENT 10 19 13 21 4 23 21 25 18 27
REMARK Flexibility Score: inf
ROOT
ATOM      1  C   UNL     1     133.781 134.974 135.748  1.00  0.00     0.184 A 
ATOM      2  C   UNL     1     135.080 134.813 135.235  1.00  0.00     0.208 A 
ATOM      3  C   UNL     1     135.259 134.048 134.072  1.00  0.00     0.238 A 
ATOM      4  O   UNL     1     136.421 133.886 133.609  1.00  0.00    -0.285 OA
ATOM      5  C   UNL     1     134.138 133.477 133.435  1.00  0.00     0.111 A 
ATOM      6  C   UNL     1     134.231 132.696 132.258  1.00  0.00     0.134 A 
ATOM      7  C   UNL     1     133.067 132.170 131.678  1.00  0.00     0.093 A 
ATOM      8  C   UNL     1     131.813 132.410 132.252  1.00  0.00     0.123 A 
ATOM      9  C   UNL     1     131.717 133.180 133.413  1.00  0.00     0.094 A 
ATOM     10  C   UNL     1     132.865 133.711 134.008  1.00  0.00     0.146 A 
ATOM     11  O   UNL     1     132.744 134.436 135.114  1.00  0.00    -0.451 OA
ENDROOT
BRANCH   1  12
ATOM     12  C   UNL     1     133.523 135.758 136.974  1.00  0.00     0.063 A 
ATOM     13  C   UNL     1     133.895 136.070 139.356  1.00  0.00     0.047 A 
ATOM     14  C   UNL     1     134.113 135.348 138.180  1.00  0.00     0.020 A 
ATOM     15  C   UNL     1     133.097 137.216 139.340  1.00  0.00     0.119 A 
ATOM     16  C   UNL     1     132.522 137.647 138.138  1.00  0.00     0.093 A 
ATOM     17  C   UNL     1     132.740 136.931 136.951  1.00  0.00     0.130 A 
BRANCH  15  18
ATOM     18  O   UNL     1     132.886 137.923 140.522  1.00  0.00    -0.508 OA
ATOM     19  H   UNL     1     133.440 138.739 140.757  1.00  0.00     0.293 HD
ENDBRANCH  15  18
BRANCH  17  20
ATOM     20  O   UNL     1     132.204 137.397 135.750  1.00  0.00    -0.507 OA
ATOM     21  H   UNL     1     132.705 137.309 134.874  1.00  0.00     0.293 HD
ENDBRANCH  17  20
ENDBRANCH   1  12
BRANCH   2  22
ATOM     22  O   UNL     1     136.164 135.429 135.864  1.00  0.00    -0.502 OA
ATOM     23  H   UNL     1     136.173 136.417 136.085  1.00  0.00     0.293 HD
ENDBRANCH   2  22
BRANCH   6  24
ATOM     24  O   UNL     1     135.467 132.440 131.663  1.00  0.00    -0.507 OA
ATOM     25  H   UNL     1     135.823 133.013 130.907  1.00  0.00     0.293 HD
ENDBRANCH   6  24
BRANCH   8  26
ATOM     26  O   UNL     1     130.657 131.889 131.676  1.00  0.00    -0.508 OA
ATOM     27  H   UNL     1     130.699 131.186 130.947  1.00  0.00     0.293 HD
ENDBRANCH   8  26
TORSDOF 6
ENDMDL
