MODEL 1
REMARK VINA RESULT:    -3.631      0.000      0.000
REMARK INTER + INTRA:         -11.139
REMARK INTER:                  -7.876
REMARK INTRA:                  -3.263
REMARK UNBOUND:                -3.263
REMARK SMILES CCCCCCCCCCCCCCCCCCCCCC(=O)[O-]
REMARK SMILES IDX 12 1 11 2 10 3 9 4 8 5 7 6 6 7 5 8 4 9 3 10 2 11 1 12 13 13
REMARK SMILES IDX 14 14 15 15 16 16 17 17 18 18 19 19 20 20 21 21 22 22 23 23
REMARK SMILES IDX 24 24
REMARK H PARENT
REMARK Flexibility Score: inf
ROOT
ATOM      1  C   UNL     1     302.157 324.526 647.909  1.00  0.00     0.000 C 
ENDROOT
BRANCH   1   2
ATOM      2  C   UNL     1     303.467 323.886 648.407  1.00  0.00     0.000 C 
BRANCH   2   3
ATOM      3  C   UNL     1     303.715 322.438 647.937  1.00  0.00     0.000 C 
BRANCH   3   4
ATOM      4  C   UNL     1     304.541 321.569 648.902  1.00  0.00    -0.000 C 
BRANCH   4   5
ATOM      5  C   UNL     1     305.137 322.372 650.069  1.00  0.00    -0.000 C 
BRANCH   5   6
ATOM      6  C   UNL     1     306.545 321.895 650.465  1.00  0.00    -0.000 C 
BRANCH   6   7
ATOM      7  C   UNL     1     307.676 322.817 649.966  1.00  0.00    -0.000 C 
BRANCH   7   8
ATOM      8  C   UNL     1     307.282 323.573 648.684  1.00  0.00    -0.000 C 
BRANCH   8   9
ATOM      9  C   UNL     1     307.326 325.100 648.859  1.00  0.00    -0.000 C 
BRANCH   9  10
ATOM     10  C   UNL     1     306.698 325.850 647.672  1.00  0.00    -0.000 C 
BRANCH  10  11
ATOM     11  C   UNL     1     306.437 324.930 646.468  1.00  0.00    -0.003 C 
ATOM     12  C   UNL     1     305.323 325.449 645.561  1.00  0.00     0.004 C 
ENDBRANCH  10  11
ENDBRANCH   9  10
ENDBRANCH   8   9
ENDBRANCH   7   8
ENDBRANCH   6   7
ENDBRANCH   5   6
ENDBRANCH   4   5
ENDBRANCH   3   4
ENDBRANCH   2   3
ENDBRANCH   1   2
BRANCH   1  13
ATOM     13  C   UNL     1     301.132 323.539 647.326  1.00  0.00     0.000 C 
BRANCH  13  14
ATOM     14  C   UNL     1     299.685 324.050 647.428  1.00  0.00     0.000 C 
BRANCH  14  15
ATOM     15  C   UNL     1     299.614 325.570 647.685  1.00  0.00     0.000 C 
BRANCH  15  16
ATOM     16  C   UNL     1     299.236 326.395 646.440  1.00  0.00     0.000 C 
BRANCH  16  17
ATOM     17  C   UNL     1     300.410 327.137 645.775  1.00  0.00     0.000 C 
BRANCH  17  18
ATOM     18  C   UNL     1     301.192 326.322 644.724  1.00  0.00     0.000 C 
BRANCH  18  19
ATOM     19  C   UNL     1     300.326 325.466 643.783  1.00  0.00     0.000 C 
BRANCH  19  20
ATOM     20  C   UNL     1     300.915 324.066 643.536  1.00  0.00     0.006 C 
BRANCH  20  21
ATOM     21  C   UNL     1     302.363 323.955 644.030  1.00  0.00     0.053 C 
BRANCH  21  22
ATOM     22  C   UNL     1     303.135 322.925 643.260  1.00  0.00     0.041 C 
ATOM     23  O   UNL     1     304.198 322.444 643.734  1.00  0.00    -0.550 OA
ATOM     24  O   UNL     1     302.672 322.484 642.026  1.00  0.00    -0.550 OA
ENDBRANCH  21  22
ENDBRANCH  20  21
ENDBRANCH  19  20
ENDBRANCH  18  19
ENDBRANCH  17  18
ENDBRANCH  16  17
ENDBRANCH  15  16
ENDBRANCH  14  15
ENDBRANCH  13  14
ENDBRANCH   1  13
TORSDOF 20
ENDMDL
MODEL 2
REMARK VINA RESULT:    -3.601      2.533      5.810
REMARK INTER + INTRA:         -11.074
REMARK INTER:                  -7.199
REMARK INTRA:                  -3.876
REMARK UNBOUND:                -3.263
REMARK SMILES CCCCCCCCCCCCCCCCCCCCCC(=O)[O-]
REMARK SMILES IDX 12 1 11 2 10 3 9 4 8 5 7 6 6 7 5 8 4 9 3 10 2 11 1 12 13 13
REMARK SMILES IDX 14 14 15 15 16 16 17 17 18 18 19 19 20 20 21 21 22 22 23 23
REMARK SMILES IDX 24 24
REMARK H PARENT
REMARK Flexibility Score: inf
ROOT
ATOM      1  C   UNL     1     299.468 324.374 645.031  1.00  0.00     0.000 C 
ENDROOT
BRANCH   1   2
ATOM      2  C   UNL     1     299.134 325.440 646.093  1.00  0.00     0.000 C 
BRANCH   2   3
ATOM      3  C   UNL     1     299.642 325.136 647.517  1.00  0.00     0.000 C 
BRANCH   3   4
ATOM      4  C   UNL     1     300.435 323.825 647.662  1.00  0.00    -0.000 C 
BRANCH   4   5
ATOM      5  C   UNL     1     301.923 324.056 647.974  1.00  0.00    -0.000 C 
BRANCH   5   6
ATOM      6  C   UNL     1     302.813 323.992 646.721  1.00  0.00    -0.000 C 
BRANCH   6   7
ATOM      7  C   UNL     1     303.782 325.185 646.587  1.00  0.00    -0.000 C 
BRANCH   7   8
ATOM      8  C   UNL     1     303.042 326.535 646.597  1.00  0.00    -0.000 C 
BRANCH   8   9
ATOM      9  C   UNL     1     302.710 327.039 645.183  1.00  0.00    -0.000 C 
BRANCH   9  10
ATOM     10  C   UNL     1     302.169 328.479 645.180  1.00  0.00    -0.000 C 
BRANCH  10  11
ATOM     11  C   UNL     1     300.633 328.529 645.187  1.00  0.00    -0.003 C 
ATOM     12  C   UNL     1     300.037 328.545 643.780  1.00  0.00     0.004 C 
ENDBRANCH  10  11
ENDBRANCH   9  10
ENDBRANCH   8   9
ENDBRANCH   7   8
ENDBRANCH   6   7
ENDBRANCH   5   6
ENDBRANCH   4   5
ENDBRANCH   3   4
ENDBRANCH   2   3
ENDBRANCH   1   2
BRANCH   1  13
ATOM     13  C   UNL     1     300.348 324.865 643.870  1.00  0.00     0.000 C 
BRANCH  13  14
ATOM     14  C   UNL     1     301.444 323.859 643.483  1.00  0.00     0.000 C 
BRANCH  14  15
ATOM     15  C   UNL     1     302.510 324.477 642.553  1.00  0.00     0.000 C 
BRANCH  15  16
ATOM     16  C   UNL     1     303.912 323.861 642.718  1.00  0.00     0.000 C 
BRANCH  16  17
ATOM     17  C   UNL     1     303.972 322.630 643.642  1.00  0.00     0.000 C 
BRANCH  17  18
ATOM     18  C   UNL     1     305.270 322.488 644.465  1.00  0.00     0.000 C 
BRANCH  18  19
ATOM     19  C   UNL     1     305.220 321.435 645.586  1.00  0.00     0.000 C 
BRANCH  19  20
ATOM     20  C   UNL     1     305.967 321.879 646.856  1.00  0.00     0.006 C 
BRANCH  20  21
ATOM     21  C   UNL     1     305.237 321.448 648.135  1.00  0.00     0.053 C 
BRANCH  21  22
ATOM     22  C   UNL     1     305.361 322.478 649.219  1.00  0.00     0.041 C 
ATOM     23  O   UNL     1     305.696 323.658 648.936  1.00  0.00    -0.550 OA
ATOM     24  O   UNL     1     305.091 322.137 650.539  1.00  0.00    -0.550 OA
ENDBRANCH  21  22
ENDBRANCH  20  21
ENDBRANCH  19  20
ENDBRANCH  18  19
ENDBRANCH  17  18
ENDBRANCH  16  17
ENDBRANCH  15  16
ENDBRANCH  14  15
ENDBRANCH  13  14
ENDBRANCH   1  13
TORSDOF 20
ENDMDL
MODEL 3
REMARK VINA RESULT:    -3.594      3.967      8.291
REMARK INTER + INTRA:         -11.060
REMARK INTER:                  -9.522
REMARK INTRA:                  -1.538
REMARK UNBOUND:                -3.263
REMARK SMILES CCCCCCCCCCCCCCCCCCCCCC(=O)[O-]
REMARK SMILES IDX 12 1 11 2 10 3 9 4 8 5 7 6 6 7 5 8 4 9 3 10 2 11 1 12 13 13
REMARK SMILES IDX 14 14 15 15 16 16 17 17 18 18 19 19 20 20 21 21 22 22 23 23
REMARK SMILES IDX 24 24
REMARK H PARENT
REMARK Flexibility Score: inf
ROOT
ATOM      1  C   UNL     1     299.056 324.389 646.341  1.00  0.00     0.000 C 
ENDROOT
BRANCH   1   2
ATOM      2  C   UNL     1     299.778 324.335 644.981  1.00  0.00     0.000 C 
BRANCH   2   3
ATOM      3  C   UNL     1     299.845 325.673 644.215  1.00  0.00     0.000 C 
BRANCH   3   4
ATOM      4  C   UNL     1     300.589 326.807 644.943  1.00  0.00    -0.000 C 
BRANCH   4   5
ATOM      5  C   UNL     1     299.768 328.103 645.026  1.00  0.00    -0.000 C 
BRANCH   5   6
ATOM      6  C   UNL     1     299.992 329.031 643.820  1.00  0.00    -0.000 C 
BRANCH   6   7
ATOM      7  C   UNL     1     299.154 330.325 643.870  1.00  0.00    -0.000 C 
BRANCH   7   8
ATOM      8  C   UNL     1     299.273 331.141 642.570  1.00  0.00    -0.000 C 
BRANCH   8   9
ATOM      9  C   UNL     1     299.729 332.589 642.818  1.00  0.00    -0.000 C 
BRANCH   9  10
ATOM     10  C   UNL     1     300.052 332.863 644.296  1.00  0.00    -0.000 C 
BRANCH  10  11
ATOM     11  C   UNL     1     300.295 334.355 644.576  1.00  0.00    -0.003 C 
ATOM     12  C   UNL     1     301.274 334.586 645.727  1.00  0.00     0.004 C 
ENDBRANCH  10  11
ENDBRANCH   9  10
ENDBRANCH   8   9
ENDBRANCH   7   8
ENDBRANCH   6   7
ENDBRANCH   5   6
ENDBRANCH   4   5
ENDBRANCH   3   4
ENDBRANCH   2   3
ENDBRANCH   1   2
BRANCH   1  13
ATOM     13  C   UNL     1     299.793 323.692 647.497  1.00  0.00     0.000 C 
BRANCH  13  14
ATOM     14  C   UNL     1     301.108 324.393 647.877  1.00  0.00     0.000 C 
BRANCH  14  15
ATOM     15  C   UNL     1     302.346 323.518 647.586  1.00  0.00     0.000 C 
BRANCH  15  16
ATOM     16  C   UNL     1     303.153 323.975 646.355  1.00  0.00     0.000 C 
BRANCH  16  17
ATOM     17  C   UNL     1     304.554 324.531 646.670  1.00  0.00     0.000 C 
BRANCH  17  18
ATOM     18  C   UNL     1     305.122 324.139 648.050  1.00  0.00     0.000 C 
BRANCH  18  19
ATOM     19  C   UNL     1     306.455 323.369 648.012  1.00  0.00     0.000 C 
BRANCH  19  20
ATOM     20  C   UNL     1     306.379 322.008 648.727  1.00  0.00     0.006 C 
BRANCH  20  21
ATOM     21  C   UNL     1     305.445 322.047 649.944  1.00  0.00     0.053 C 
BRANCH  21  22
ATOM     22  C   UNL     1     305.242 320.682 650.532  1.00  0.00     0.041 C 
ATOM     23  O   UNL     1     304.437 319.876 649.997  1.00  0.00    -0.550 OA
ATOM     24  O   UNL     1     305.954 320.296 651.661  1.00  0.00    -0.550 OA
ENDBRANCH  21  22
ENDBRANCH  20  21
ENDBRANCH  19  20
ENDBRANCH  18  19
ENDBRANCH  17  18
ENDBRANCH  16  17
ENDBRANCH  15  16
ENDBRANCH  14  15
ENDBRANCH  13  14
ENDBRANCH   1  13
TORSDOF 20
ENDMDL
MODEL 4
REMARK VINA RESULT:    -3.577      2.532      7.003
REMARK INTER + INTRA:         -11.023
REMARK INTER:                  -7.566
REMARK INTRA:                  -3.457
REMARK UNBOUND:                -3.263
REMARK SMILES CCCCCCCCCCCCCCCCCCCCCC(=O)[O-]
REMARK SMILES IDX 12 1 11 2 10 3 9 4 8 5 7 6 6 7 5 8 4 9 3 10 2 11 1 12 13 13
REMARK SMILES IDX 14 14 15 15 16 16 17 17 18 18 19 19 20 20 21 21 22 22 23 23
REMARK SMILES IDX 24 24
REMARK H PARENT
REMARK Flexibility Score: inf
ROOT
ATOM      1  C   UNL     1     302.475 324.366 648.236  1.00  0.00     0.000 C 
ENDROOT
BRANCH   1   2
ATOM      2  C   UNL     1     301.429 323.600 647.403  1.00  0.00     0.000 C 
BRANCH   2   3
ATOM      3  C   UNL     1     299.960 323.998 647.660  1.00  0.00     0.000 C 
BRANCH   3   4
ATOM      4  C   UNL     1     299.152 324.362 646.401  1.00  0.00    -0.000 C 
BRANCH   4   5
ATOM      5  C   UNL     1     299.380 325.811 645.942  1.00  0.00    -0.000 C 
BRANCH   5   6
ATOM      6  C   UNL     1     300.489 325.935 644.884  1.00  0.00    -0.000 C 
BRANCH   6   7
ATOM      7  C   UNL     1     300.447 324.830 643.809  1.00  0.00    -0.000 C 
BRANCH   7   8
ATOM      8  C   UNL     1     301.755 324.020 643.761  1.00  0.00    -0.000 C 
BRANCH   8   9
ATOM      9  C   UNL     1     303.007 324.908 643.852  1.00  0.00    -0.000 C 
BRANCH   9  10
ATOM     10  C   UNL     1     304.136 324.259 644.671  1.00  0.00    -0.000 C 
BRANCH  10  11
ATOM     11  C   UNL     1     304.855 325.268 645.580  1.00  0.00    -0.003 C 
ATOM     12  C   UNL     1     304.100 326.590 645.707  1.00  0.00     0.004 C 
ENDBRANCH  10  11
ENDBRANCH   9  10
ENDBRANCH   8   9
ENDBRANCH   7   8
ENDBRANCH   6   7
ENDBRANCH   5   6
ENDBRANCH   4   5
ENDBRANCH   3   4
ENDBRANCH   2   3
ENDBRANCH   1   2
BRANCH   1  13
ATOM     13  C   UNL     1     303.691 323.534 648.676  1.00  0.00     0.000 C 
BRANCH  13  14
ATOM     14  C   UNL     1     303.872 322.253 647.844  1.00  0.00     0.000 C 
BRANCH  14  15
ATOM     15  C   UNL     1     305.035 321.378 648.357  1.00  0.00     0.000 C 
BRANCH  15  16
ATOM     16  C   UNL     1     305.248 321.458 649.881  1.00  0.00     0.000 C 
BRANCH  16  17
ATOM     17  C   UNL     1     306.722 321.488 650.327  1.00  0.00     0.000 C 
BRANCH  17  18
ATOM     18  C   UNL     1     307.444 322.836 650.120  1.00  0.00     0.000 C 
BRANCH  18  19
ATOM     19  C   UNL     1     308.385 322.893 648.903  1.00  0.00     0.000 C 
BRANCH  19  20
ATOM     20  C   UNL     1     307.995 323.990 647.898  1.00  0.00     0.006 C 
BRANCH  20  21
ATOM     21  C   UNL     1     306.919 324.929 648.458  1.00  0.00     0.053 C 
BRANCH  21  22
ATOM     22  C   UNL     1     307.464 326.301 648.728  1.00  0.00     0.041 C 
ATOM     23  O   UNL     1     306.806 327.321 648.396  1.00  0.00    -0.550 OA
ATOM     24  O   UNL     1     308.692 326.450 649.361  1.00  0.00    -0.550 OA
ENDBRANCH  21  22
ENDBRANCH  20  21
ENDBRANCH  19  20
ENDBRANCH  18  19
ENDBRANCH  17  18
ENDBRANCH  16  17
ENDBRANCH  15  16
ENDBRANCH  14  15
ENDBRANCH  13  14
ENDBRANCH   1  13
TORSDOF 20
ENDMDL
MODEL 5
REMARK VINA RESULT:    -3.524      3.268      7.414
REMARK INTER + INTRA:         -10.907
REMARK INTER:                  -7.713
REMARK INTRA:                  -3.194
REMARK UNBOUND:                -3.263
REMARK SMILES CCCCCCCCCCCCCCCCCCCCCC(=O)[O-]
REMARK SMILES IDX 12 1 11 2 10 3 9 4 8 5 7 6 6 7 5 8 4 9 3 10 2 11 1 12 13 13
REMARK SMILES IDX 14 14 15 15 16 16 17 17 18 18 19 19 20 20 21 21 22 22 23 23
REMARK SMILES IDX 24 24
REMARK H PARENT
REMARK Flexibility Score: inf
ROOT
ATOM      1  C   UNL     1     302.498 324.601 643.851  1.00  0.00     0.000 C 
ENDROOT
BRANCH   1   2
ATOM      2  C   UNL     1     302.555 325.941 644.611  1.00  0.00     0.000 C 
BRANCH   2   3
ATOM      3  C   UNL     1     302.806 327.186 643.735  1.00  0.00     0.000 C 
BRANCH   3   4
ATOM      4  C   UNL     1     302.299 328.514 644.325  1.00  0.00    -0.000 C 
BRANCH   4   5
ATOM      5  C   UNL     1     301.109 328.328 645.279  1.00  0.00    -0.000 C 
BRANCH   5   6
ATOM      6  C   UNL     1     299.855 329.097 644.826  1.00  0.00    -0.000 C 
BRANCH   6   7
ATOM      7  C   UNL     1     299.292 328.622 643.472  1.00  0.00    -0.000 C 
BRANCH   7   8
ATOM      8  C   UNL     1     299.069 329.791 642.496  1.00  0.00    -0.000 C 
BRANCH   8   9
ATOM      9  C   UNL     1     300.189 330.842 642.564  1.00  0.00    -0.000 C 
BRANCH   9  10
ATOM     10  C   UNL     1     299.648 332.275 642.706  1.00  0.00    -0.000 C 
BRANCH  10  11
ATOM     11  C   UNL     1     299.993 332.899 644.068  1.00  0.00    -0.003 C 
ATOM     12  C   UNL     1     301.356 332.451 644.594  1.00  0.00     0.004 C 
ENDBRANCH  10  11
ENDBRANCH   9  10
ENDBRANCH   8   9
ENDBRANCH   7   8
ENDBRANCH   6   7
ENDBRANCH   5   6
ENDBRANCH   4   5
ENDBRANCH   3   4
ENDBRANCH   2   3
ENDBRANCH   1   2
BRANCH   1  13
ATOM     13  C   UNL     1     301.084 324.028 643.649  1.00  0.00     0.000 C 
BRANCH  13  14
ATOM     14  C   UNL     1     299.978 324.986 644.121  1.00  0.00     0.000 C 
BRANCH  14  15
ATOM     15  C   UNL     1     299.150 324.402 645.286  1.00  0.00     0.000 C 
BRANCH  15  16
ATOM     16  C   UNL     1     299.010 325.354 646.488  1.00  0.00     0.000 C 
BRANCH  16  17
ATOM     17  C   UNL     1     300.070 325.165 647.590  1.00  0.00     0.000 C 
BRANCH  17  18
ATOM     18  C   UNL     1     300.977 323.928 647.423  1.00  0.00     0.000 C 
BRANCH  18  19
ATOM     19  C   UNL     1     302.425 324.109 647.913  1.00  0.00     0.000 C 
BRANCH  19  20
ATOM     20  C   UNL     1     303.388 323.059 647.332  1.00  0.00     0.006 C 
BRANCH  20  21
ATOM     21  C   UNL     1     304.819 323.234 647.858  1.00  0.00     0.053 C 
BRANCH  21  22
ATOM     22  C   UNL     1     305.160 322.205 648.894  1.00  0.00     0.041 C 
ATOM     23  O   UNL     1     304.491 321.141 648.974  1.00  0.00    -0.550 OA
ATOM     24  O   UNL     1     306.226 322.414 649.761  1.00  0.00    -0.550 OA
ENDBRANCH  21  22
ENDBRANCH  20  21
ENDBRANCH  19  20
ENDBRANCH  18  19
ENDBRANCH  17  18
ENDBRANCH  16  17
ENDBRANCH  15  16
ENDBRANCH  14  15
ENDBRANCH  13  14
ENDBRANCH   1  13
TORSDOF 20
ENDMDL
MODEL 6
REMARK VINA RESULT:    -3.505      2.755      6.413
REMARK INTER + INTRA:         -10.867
REMARK INTER:                  -7.392
REMARK INTRA:                  -3.475
REMARK UNBOUND:                -3.263
REMARK SMILES CCCCCCCCCCCCCCCCCCCCCC(=O)[O-]
REMARK SMILES IDX 12 1 11 2 10 3 9 4 8 5 7 6 6 7 5 8 4 9 3 10 2 11 1 12 13 13
REMARK SMILES IDX 14 14 15 15 16 16 17 17 18 18 19 19 20 20 21 21 22 22 23 23
REMARK SMILES IDX 24 24
REMARK H PARENT
REMARK Flexibility Score: inf
ROOT
ATOM      1  C   UNL     1     303.562 324.510 647.131  1.00  0.00     0.000 C 
ENDROOT
BRANCH   1   2
ATOM      2  C   UNL     1     303.768 325.523 645.987  1.00  0.00     0.000 C 
BRANCH   2   3
ATOM      3  C   UNL     1     302.873 326.778 646.048  1.00  0.00     0.000 C 
BRANCH   3   4
ATOM      4  C   UNL     1     303.475 328.042 645.408  1.00  0.00    -0.000 C 
BRANCH   4   5
ATOM      5  C   UNL     1     302.469 329.200 645.311  1.00  0.00    -0.000 C 
BRANCH   5   6
ATOM      6  C   UNL     1     301.030 328.722 645.054  1.00  0.00    -0.000 C 
BRANCH   6   7
ATOM      7  C   UNL     1     300.706 328.502 643.563  1.00  0.00    -0.000 C 
BRANCH   7   8
ATOM      8  C   UNL     1     299.257 328.893 643.222  1.00  0.00    -0.000 C 
BRANCH   8   9
ATOM      9  C   UNL     1     298.933 330.351 643.588  1.00  0.00    -0.000 C 
BRANCH   9  10
ATOM     10  C   UNL     1     299.374 331.346 642.500  1.00  0.00    -0.000 C 
BRANCH  10  11
ATOM     11  C   UNL     1     300.305 332.439 643.048  1.00  0.00    -0.003 C 
ATOM     12  C   UNL     1     300.437 332.392 644.570  1.00  0.00     0.004 C 
ENDBRANCH  10  11
ENDBRANCH   9  10
ENDBRANCH   8   9
ENDBRANCH   7   8
ENDBRANCH   6   7
ENDBRANCH   5   6
ENDBRANCH   4   5
ENDBRANCH   3   4
ENDBRANCH   2   3
ENDBRANCH   1   2
BRANCH   1  13
ATOM     13  C   UNL     1     302.229 324.647 647.888  1.00  0.00     0.000 C 
BRANCH  13  14
ATOM     14  C   UNL     1     301.265 323.480 647.617  1.00  0.00     0.000 C 
BRANCH  14  15
ATOM     15  C   UNL     1     299.789 323.930 647.590  1.00  0.00     0.000 C 
BRANCH  15  16
ATOM     16  C   UNL     1     299.607 325.460 647.551  1.00  0.00     0.000 C 
BRANCH  16  17
ATOM     17  C   UNL     1     299.047 326.011 646.226  1.00  0.00     0.000 C 
BRANCH  17  18
ATOM     18  C   UNL     1     298.943 324.985 645.079  1.00  0.00     0.000 C 
BRANCH  18  19
ATOM     19  C   UNL     1     300.030 325.104 643.995  1.00  0.00     0.000 C 
BRANCH  19  20
ATOM     20  C   UNL     1     301.085 323.987 644.082  1.00  0.00     0.006 C 
BRANCH  20  21
ATOM     21  C   UNL     1     301.845 323.808 642.761  1.00  0.00     0.053 C 
BRANCH  21  22
ATOM     22  C   UNL     1     300.996 323.145 641.717  1.00  0.00     0.041 C 
ATOM     23  O   UNL     1     300.657 321.939 641.849  1.00  0.00    -0.550 OA
ATOM     24  O   UNL     1     300.565 323.863 640.609  1.00  0.00    -0.550 OA
ENDBRANCH  21  22
ENDBRANCH  20  21
ENDBRANCH  19  20
ENDBRANCH  18  19
ENDBRANCH  17  18
ENDBRANCH  16  17
ENDBRANCH  15  16
ENDBRANCH  14  15
ENDBRANCH  13  14
ENDBRANCH   1  13
TORSDOF 20
ENDMDL
MODEL 7
REMARK VINA RESULT:    -3.492      2.587      5.193
REMARK INTER + INTRA:         -10.839
REMARK INTER:                  -7.559
REMARK INTRA:                  -3.279
REMARK UNBOUND:                -3.263
REMARK SMILES CCCCCCCCCCCCCCCCCCCCCC(=O)[O-]
REMARK SMILES IDX 12 1 11 2 10 3 9 4 8 5 7 6 6 7 5 8 4 9 3 10 2 11 1 12 13 13
REMARK SMILES IDX 14 14 15 15 16 16 17 17 18 18 19 19 20 20 21 21 22 22 23 23
REMARK SMILES IDX 24 24
REMARK H PARENT
REMARK Flexibility Score: inf
ROOT
ATOM      1  C   UNL     1     300.958 326.191 644.582  1.00  0.00     0.000 C 
ENDROOT
BRANCH   1   2
ATOM      2  C   UNL     1     302.329 325.547 644.296  1.00  0.00     0.000 C 
BRANCH   2   3
ATOM      3  C   UNL     1     302.356 324.005 644.344  1.00  0.00     0.000 C 
BRANCH   3   4
ATOM      4  C   UNL     1     302.686 323.315 643.009  1.00  0.00    -0.000 C 
BRANCH   4   5
ATOM      5  C   UNL     1     303.986 322.496 643.064  1.00  0.00    -0.000 C 
BRANCH   5   6
ATOM      6  C   UNL     1     304.540 322.348 644.491  1.00  0.00    -0.000 C 
BRANCH   6   7
ATOM      7  C   UNL     1     306.052 322.630 644.602  1.00  0.00    -0.000 C 
BRANCH   7   8
ATOM      8  C   UNL     1     306.355 324.138 644.684  1.00  0.00    -0.000 C 
BRANCH   8   9
ATOM      9  C   UNL     1     306.013 324.738 646.057  1.00  0.00    -0.000 C 
BRANCH   9  10
ATOM     10  C   UNL     1     307.146 324.554 647.082  1.00  0.00    -0.000 C 
BRANCH  10  11
ATOM     11  C   UNL     1     307.098 325.604 648.203  1.00  0.00    -0.003 C 
ATOM     12  C   UNL     1     306.564 326.954 647.725  1.00  0.00     0.004 C 
ENDBRANCH  10  11
ENDBRANCH   9  10
ENDBRANCH   8   9
ENDBRANCH   7   8
ENDBRANCH   6   7
ENDBRANCH   5   6
ENDBRANCH   4   5
ENDBRANCH   3   4
ENDBRANCH   2   3
ENDBRANCH   1   2
BRANCH   1  13
ATOM     13  C   UNL     1     299.743 325.325 644.208  1.00  0.00     0.000 C 
BRANCH  13  14
ATOM     14  C   UNL     1     299.027 324.737 645.435  1.00  0.00     0.000 C 
BRANCH  14  15
ATOM     15  C   UNL     1     299.294 325.553 646.719  1.00  0.00     0.000 C 
BRANCH  15  16
ATOM     16  C   UNL     1     299.814 324.706 647.896  1.00  0.00     0.000 C 
BRANCH  16  17
ATOM     17  C   UNL     1     300.930 323.710 647.532  1.00  0.00     0.000 C 
BRANCH  17  18
ATOM     18  C   UNL     1     302.348 324.116 647.985  1.00  0.00     0.000 C 
BRANCH  18  19
ATOM     19  C   UNL     1     303.384 322.977 647.990  1.00  0.00     0.000 C 
BRANCH  19  20
ATOM     20  C   UNL     1     304.427 323.124 649.111  1.00  0.00     0.006 C 
BRANCH  20  21
ATOM     21  C   UNL     1     305.412 321.948 649.139  1.00  0.00     0.053 C 
BRANCH  21  22
ATOM     22  C   UNL     1     306.396 322.075 650.265  1.00  0.00     0.041 C 
ATOM     23  O   UNL     1     307.545 322.543 650.052  1.00  0.00    -0.550 OA
ATOM     24  O   UNL     1     306.037 321.692 651.552  1.00  0.00    -0.550 OA
ENDBRANCH  21  22
ENDBRANCH  20  21
ENDBRANCH  19  20
ENDBRANCH  18  19
ENDBRANCH  17  18
ENDBRANCH  16  17
ENDBRANCH  15  16
ENDBRANCH  14  15
ENDBRANCH  13  14
ENDBRANCH   1  13
TORSDOF 20
ENDMDL
MODEL 8
REMARK VINA RESULT:    -3.474      4.533      8.514
REMARK INTER + INTRA:         -10.798
REMARK INTER:                  -9.283
REMARK INTRA:                  -1.515
REMARK UNBOUND:                -3.263
REMARK SMILES CCCCCCCCCCCCCCCCCCCCCC(=O)[O-]
REMARK SMILES IDX 12 1 11 2 10 3 9 4 8 5 7 6 6 7 5 8 4 9 3 10 2 11 1 12 13 13
REMARK SMILES IDX 14 14 15 15 16 16 17 17 18 18 19 19 20 20 21 21 22 22 23 23
REMARK SMILES IDX 24 24
REMARK H PARENT
REMARK Flexibility Score: inf
ROOT
ATOM      1  C   UNL     1     300.431 326.949 645.349  1.00  0.00     0.000 C 
ENDROOT
BRANCH   1   2
ATOM      2  C   UNL     1     300.543 328.179 644.428  1.00  0.00     0.000 C 
BRANCH   2   3
ATOM      3  C   UNL     1     299.214 328.904 644.130  1.00  0.00     0.000 C 
BRANCH   3   4
ATOM      4  C   UNL     1     299.286 330.441 644.167  1.00  0.00    -0.000 C 
BRANCH   4   5
ATOM      5  C   UNL     1     300.024 331.035 642.956  1.00  0.00    -0.000 C 
BRANCH   5   6
ATOM      6  C   UNL     1     299.692 332.519 642.723  1.00  0.00    -0.000 C 
BRANCH   6   7
ATOM      7  C   UNL     1     300.696 333.489 643.378  1.00  0.00    -0.000 C 
BRANCH   7   8
ATOM      8  C   UNL     1     300.086 334.226 644.584  1.00  0.00    -0.000 C 
BRANCH   8   9
ATOM      9  C   UNL     1     301.044 334.296 645.784  1.00  0.00    -0.000 C 
BRANCH   9  10
ATOM     10  C   UNL     1     301.680 332.935 646.114  1.00  0.00    -0.000 C 
BRANCH  10  11
ATOM     11  C   UNL     1     303.165 333.057 646.492  1.00  0.00    -0.003 C 
ATOM     12  C   UNL     1     303.575 334.494 646.812  1.00  0.00     0.004 C 
ENDBRANCH  10  11
ENDBRANCH   9  10
ENDBRANCH   8   9
ENDBRANCH   7   8
ENDBRANCH   6   7
ENDBRANCH   5   6
ENDBRANCH   4   5
ENDBRANCH   3   4
ENDBRANCH   2   3
ENDBRANCH   1   2
BRANCH   1  13
ATOM     13  C   UNL     1     299.006 326.396 645.525  1.00  0.00     0.000 C 
BRANCH  13  14
ATOM     14  C   UNL     1     298.979 324.878 645.767  1.00  0.00     0.000 C 
BRANCH  14  15
ATOM     15  C   UNL     1     299.224 324.514 647.247  1.00  0.00     0.000 C 
BRANCH  15  16
ATOM     16  C   UNL     1     300.429 323.579 647.466  1.00  0.00     0.000 C 
BRANCH  16  17
ATOM     17  C   UNL     1     301.781 324.296 647.636  1.00  0.00     0.000 C 
BRANCH  17  18
ATOM     18  C   UNL     1     302.829 323.992 646.545  1.00  0.00     0.000 C 
BRANCH  18  19
ATOM     19  C   UNL     1     304.088 323.255 647.035  1.00  0.00     0.000 C 
BRANCH  19  20
ATOM     20  C   UNL     1     303.839 322.431 648.311  1.00  0.00     0.006 C 
BRANCH  20  21
ATOM     21  C   UNL     1     304.698 322.915 649.486  1.00  0.00     0.053 C 
BRANCH  21  22
ATOM     22  C   UNL     1     305.308 321.768 650.237  1.00  0.00     0.041 C 
ATOM     23  O   UNL     1     306.215 321.977 651.084  1.00  0.00    -0.550 OA
ATOM     24  O   UNL     1     304.862 320.471 650.012  1.00  0.00    -0.550 OA
ENDBRANCH  21  22
ENDBRANCH  20  21
ENDBRANCH  19  20
ENDBRANCH  18  19
ENDBRANCH  17  18
ENDBRANCH  16  17
ENDBRANCH  15  16
ENDBRANCH  14  15
ENDBRANCH  13  14
ENDBRANCH   1  13
TORSDOF 20
ENDMDL
MODEL 9
REMARK VINA RESULT:    -3.459      3.077      4.224
REMARK INTER + INTRA:         -10.765
REMARK INTER:                  -7.480
REMARK INTRA:                  -3.285
REMARK UNBOUND:                -3.263
REMARK SMILES CCCCCCCCCCCCCCCCCCCCCC(=O)[O-]
REMARK SMILES IDX 12 1 11 2 10 3 9 4 8 5 7 6 6 7 5 8 4 9 3 10 2 11 1 12 13 13
REMARK SMILES IDX 14 14 15 15 16 16 17 17 18 18 19 19 20 20 21 21 22 22 23 23
REMARK SMILES IDX 24 24
REMARK H PARENT
REMARK Flexibility Score: inf
ROOT
ATOM      1  C   UNL     1     303.299 324.758 646.946  1.00  0.00     0.000 C 
ENDROOT
BRANCH   1   2
ATOM      2  C   UNL     1     303.312 323.755 645.776  1.00  0.00     0.000 C 
BRANCH   2   3
ATOM      3  C   UNL     1     304.692 323.511 645.131  1.00  0.00     0.000 C 
BRANCH   3   4
ATOM      4  C   UNL     1     305.037 322.035 644.865  1.00  0.00    -0.000 C 
BRANCH   4   5
ATOM      5  C   UNL     1     306.290 321.568 645.624  1.00  0.00    -0.000 C 
BRANCH   5   6
ATOM      6  C   UNL     1     306.000 320.423 646.608  1.00  0.00    -0.000 C 
BRANCH   6   7
ATOM      7  C   UNL     1     306.052 320.851 648.089  1.00  0.00    -0.000 C 
BRANCH   7   8
ATOM      8  C   UNL     1     304.736 321.504 648.549  1.00  0.00    -0.000 C 
BRANCH   8   9
ATOM      9  C   UNL     1     304.964 322.733 649.444  1.00  0.00    -0.000 C 
BRANCH   9  10
ATOM     10  C   UNL     1     306.401 323.276 649.350  1.00  0.00    -0.000 C 
BRANCH  10  11
ATOM     11  C   UNL     1     306.546 324.367 648.277  1.00  0.00    -0.003 C 
ATOM     12  C   UNL     1     307.891 324.307 647.554  1.00  0.00     0.004 C 
ENDBRANCH  10  11
ENDBRANCH   9  10
ENDBRANCH   8   9
ENDBRANCH   7   8
ENDBRANCH   6   7
ENDBRANCH   5   6
ENDBRANCH   4   5
ENDBRANCH   3   4
ENDBRANCH   2   3
ENDBRANCH   1   2
BRANCH   1  13
ATOM     13  C   UNL     1     302.072 324.666 647.869  1.00  0.00     0.000 C 
BRANCH  13  14
ATOM     14  C   UNL     1     301.044 323.625 647.394  1.00  0.00     0.000 C 
BRANCH  14  15
ATOM     15  C   UNL     1     299.589 324.099 647.597  1.00  0.00     0.000 C 
BRANCH  15  16
ATOM     16  C   UNL     1     298.879 324.502 646.291  1.00  0.00     0.000 C 
BRANCH  16  17
ATOM     17  C   UNL     1     299.744 324.386 645.022  1.00  0.00     0.000 C 
BRANCH  17  18
ATOM     18  C   UNL     1     300.010 325.715 644.284  1.00  0.00     0.000 C 
BRANCH  18  19
ATOM     19  C   UNL     1     300.866 326.733 645.058  1.00  0.00     0.000 C 
BRANCH  19  20
ATOM     20  C   UNL     1     301.219 327.975 644.222  1.00  0.00     0.006 C 
BRANCH  20  21
ATOM     21  C   UNL     1     300.805 329.278 644.920  1.00  0.00     0.053 C 
BRANCH  21  22
ATOM     22  C   UNL     1     299.771 330.026 644.132  1.00  0.00     0.041 C 
ATOM     23  O   UNL     1     299.327 331.126 644.554  1.00  0.00    -0.550 OA
ATOM     24  O   UNL     1     299.310 329.516 642.925  1.00  0.00    -0.550 OA
ENDBRANCH  21  22
ENDBRANCH  20  21
ENDBRANCH  19  20
ENDBRANCH  18  19
ENDBRANCH  17  18
ENDBRANCH  16  17
ENDBRANCH  15  16
ENDBRANCH  14  15
ENDBRANCH  13  14
ENDBRANCH   1  13
TORSDOF 20
ENDMDL
