MODEL 1
REMARK VINA RESULT:    -6.105      0.000      0.000
REMARK INTER + INTRA:         -13.309
REMARK INTER:                 -11.458
REMARK INTRA:                  -1.851
REMARK UNBOUND:                -1.851
REMARK SMILES CCCCCCCCC=CCCCCCCCC(=O)[O-]
REMARK SMILES IDX 10 1 9 2 11 3 12 4 13 5 14 6 15 7 16 8 17 9 18 10 19 11
REMARK SMILES IDX 20 12 8 13 7 14 6 15 5 16 4 17 3 18 2 19 1 20
REMARK H PARENT
REMARK Flexibility Score: inf
ROOT
ATOM      1  C   UNL     1      54.714  53.885  41.072  1.00  0.00    -0.031 C 
ATOM      2  C   UNL     1      53.842  53.106  41.729  1.00  0.00    -0.031 C 
ENDROOT
BRANCH   1   3
ATOM      3  C   UNL     1      55.459  54.977  41.792  1.00  0.00     0.027 C 
BRANCH   3   4
ATOM      4  C   UNL     1      56.980  54.783  41.725  1.00  0.00     0.004 C 
BRANCH   4   5
ATOM      5  C   UNL     1      57.365  53.513  40.946  1.00  0.00     0.000 C 
BRANCH   5   6
ATOM      6  C   UNL     1      57.960  52.424  41.851  1.00  0.00     0.000 C 
BRANCH   6   7
ATOM      7  C   UNL     1      56.931  51.345  42.232  1.00  0.00     0.000 C 
BRANCH   7   8
ATOM      8  C   UNL     1      56.681  51.274  43.750  1.00  0.00     0.006 C 
BRANCH   8   9
ATOM      9  C   UNL     1      57.806  50.587  44.542  1.00  0.00     0.053 C 
BRANCH   9  10
ATOM     10  C   UNL     1      57.515  49.138  44.787  1.00  0.00     0.041 C 
ATOM     11  O   UNL     1      56.721  48.515  44.035  1.00  0.00    -0.550 OA
ATOM     12  O   UNL     1      58.096  48.484  45.866  1.00  0.00    -0.550 OA
ENDBRANCH   9  10
ENDBRANCH   8   9
ENDBRANCH   7   8
ENDBRANCH   6   7
ENDBRANCH   5   6
ENDBRANCH   4   5
ENDBRANCH   3   4
ENDBRANCH   1   3
BRANCH   2  13
ATOM     13  C   UNL     1      53.107  51.986  41.039  1.00  0.00     0.027 C 
BRANCH  13  14
ATOM     14  C   UNL     1      53.047  50.703  41.888  1.00  0.00     0.004 C 
BRANCH  14  15
ATOM     15  C   UNL     1      52.865  50.950  43.397  1.00  0.00     0.000 C 
BRANCH  15  16
ATOM     16  C   UNL     1      52.614  49.654  44.186  1.00  0.00     0.000 C 
BRANCH  16  17
ATOM     17  C   UNL     1      51.182  49.566  44.736  1.00  0.00    -0.000 C 
BRANCH  17  18
ATOM     18  C   UNL     1      50.168  50.326  43.867  1.00  0.00    -0.000 C 
BRANCH  18  19
ATOM     19  C   UNL     1      49.481  49.381  42.874  1.00  0.00    -0.003 C 
ATOM     20  C   UNL     1      49.644  49.875  41.439  1.00  0.00     0.004 C 
ENDBRANCH  18  19
ENDBRANCH  17  18
ENDBRANCH  16  17
ENDBRANCH  15  16
ENDBRANCH  14  15
ENDBRANCH  13  14
ENDBRANCH   2  13
TORSDOF 15
ENDMDL
MODEL 2
REMARK VINA RESULT:    -6.074      2.816      5.593
REMARK INTER + INTRA:         -13.251
REMARK INTER:                 -10.749
REMARK INTRA:                  -2.502
REMARK UNBOUND:                -1.851
REMARK SMILES CCCCCCCCC=CCCCCCCCC(=O)[O-]
REMARK SMILES IDX 10 1 9 2 11 3 12 4 13 5 14 6 15 7 16 8 17 9 18 10 19 11
REMARK SMILES IDX 20 12 8 13 7 14 6 15 5 16 4 17 3 18 2 19 1 20
REMARK H PARENT
REMARK Flexibility Score: inf
ROOT
ATOM      1  C   UNL     1      57.928  51.740  42.616  1.00  0.00    -0.031 C 
ATOM      2  C   UNL     1      57.736  53.010  42.233  1.00  0.00    -0.031 C 
ENDROOT
BRANCH   1   3
ATOM      3  C   UNL     1      57.902  51.366  44.074  1.00  0.00     0.027 C 
BRANCH   3   4
ATOM      4  C   UNL     1      56.617  50.621  44.459  1.00  0.00     0.004 C 
BRANCH   4   5
ATOM      5  C   UNL     1      56.389  49.375  43.584  1.00  0.00     0.000 C 
BRANCH   5   6
ATOM      6  C   UNL     1      54.917  48.937  43.554  1.00  0.00     0.000 C 
BRANCH   6   7
ATOM      7  C   UNL     1      53.950  50.097  43.848  1.00  0.00     0.000 C 
BRANCH   7   8
ATOM      8  C   UNL     1      52.487  49.633  43.975  1.00  0.00     0.006 C 
BRANCH   8   9
ATOM      9  C   UNL     1      51.457  50.645  43.446  1.00  0.00     0.053 C 
BRANCH   9  10
ATOM     10  C   UNL     1      50.051  50.158  43.619  1.00  0.00     0.041 C 
ATOM     11  O   UNL     1      49.584  49.282  42.844  1.00  0.00    -0.550 OA
ATOM     12  O   UNL     1      49.245  50.695  44.614  1.00  0.00    -0.550 OA
ENDBRANCH   9  10
ENDBRANCH   8   9
ENDBRANCH   7   8
ENDBRANCH   6   7
ENDBRANCH   5   6
ENDBRANCH   4   5
ENDBRANCH   3   4
ENDBRANCH   1   3
BRANCH   2  13
ATOM     13  C   UNL     1      57.727  53.405  40.779  1.00  0.00     0.027 C 
BRANCH  13  14
ATOM     14  C   UNL     1      56.645  54.451  40.453  1.00  0.00     0.004 C 
BRANCH  14  15
ATOM     15  C   UNL     1      55.734  54.810  41.642  1.00  0.00     0.000 C 
BRANCH  15  16
ATOM     16  C   UNL     1      54.295  54.298  41.464  1.00  0.00     0.000 C 
BRANCH  16  17
ATOM     17  C   UNL     1      54.172  52.786  41.708  1.00  0.00    -0.000 C 
BRANCH  17  18
ATOM     18  C   UNL     1      53.199  52.108  40.731  1.00  0.00    -0.000 C 
BRANCH  18  19
ATOM     19  C   UNL     1      53.811  50.830  40.146  1.00  0.00    -0.003 C 
ATOM     20  C   UNL     1      55.319  50.781  40.386  1.00  0.00     0.004 C 
ENDBRANCH  18  19
ENDBRANCH  17  18
ENDBRANCH  16  17
ENDBRANCH  15  16
ENDBRANCH  14  15
ENDBRANCH  13  14
ENDBRANCH   2  13
TORSDOF 15
ENDMDL
MODEL 3
REMARK VINA RESULT:    -6.051      2.923      6.264
REMARK INTER + INTRA:         -13.208
REMARK INTER:                 -11.031
REMARK INTRA:                  -2.177
REMARK UNBOUND:                -1.851
REMARK SMILES CCCCCCCCC=CCCCCCCCC(=O)[O-]
REMARK SMILES IDX 10 1 9 2 11 3 12 4 13 5 14 6 15 7 16 8 17 9 18 10 19 11
REMARK SMILES IDX 20 12 8 13 7 14 6 15 5 16 4 17 3 18 2 19 1 20
REMARK H PARENT
REMARK Flexibility Score: inf
ROOT
ATOM      1  C   UNL     1      53.880  52.924  41.696  1.00  0.00    -0.031 C 
ATOM      2  C   UNL     1      54.623  53.900  41.158  1.00  0.00    -0.031 C 
ENDROOT
BRANCH   1   3
ATOM      3  C   UNL     1      53.048  52.023  40.822  1.00  0.00     0.027 C 
BRANCH   3   4
ATOM      4  C   UNL     1      52.388  50.889  41.618  1.00  0.00     0.004 C 
BRANCH   4   5
ATOM      5  C   UNL     1      52.377  51.178  43.130  1.00  0.00     0.000 C 
BRANCH   5   6
ATOM      6  C   UNL     1      52.992  50.035  43.953  1.00  0.00     0.000 C 
BRANCH   6   7
ATOM      7  C   UNL     1      51.963  49.345  44.866  1.00  0.00     0.000 C 
BRANCH   7   8
ATOM      8  C   UNL     1      52.131  47.814  44.899  1.00  0.00     0.006 C 
BRANCH   8   9
ATOM      9  C   UNL     1      50.933  47.063  45.503  1.00  0.00     0.053 C 
BRANCH   9  10
ATOM     10  C   UNL     1      49.627  47.578  44.982  1.00  0.00     0.041 C 
ATOM     11  O   UNL     1      49.300  47.379  43.783  1.00  0.00    -0.550 OA
ATOM     12  O   UNL     1      48.786  48.309  45.812  1.00  0.00    -0.550 OA
ENDBRANCH   9  10
ENDBRANCH   8   9
ENDBRANCH   7   8
ENDBRANCH   6   7
ENDBRANCH   5   6
ENDBRANCH   4   5
ENDBRANCH   3   4
ENDBRANCH   1   3
BRANCH   2  13
ATOM     13  C   UNL     1      55.488  54.795  42.008  1.00  0.00     0.027 C 
BRANCH  13  14
ATOM     14  C   UNL     1      56.972  54.752  41.599  1.00  0.00     0.004 C 
BRANCH  14  15
ATOM     15  C   UNL     1      57.419  53.413  40.984  1.00  0.00     0.000 C 
BRANCH  15  16
ATOM     16  C   UNL     1      57.822  52.376  42.045  1.00  0.00     0.000 C 
BRANCH  16  17
ATOM     17  C   UNL     1      56.904  51.144  42.045  1.00  0.00    -0.000 C 
BRANCH  17  18
ATOM     18  C   UNL     1      56.507  50.704  43.463  1.00  0.00    -0.000 C 
BRANCH  18  19
ATOM     19  C   UNL     1      56.928  51.751  44.500  1.00  0.00    -0.003 C 
ATOM     20  C   UNL     1      55.733  52.582  44.960  1.00  0.00     0.004 C 
ENDBRANCH  18  19
ENDBRANCH  17  18
ENDBRANCH  16  17
ENDBRANCH  15  16
ENDBRANCH  14  15
ENDBRANCH  13  14
ENDBRANCH   2  13
TORSDOF 15
ENDMDL
MODEL 4
REMARK VINA RESULT:    -6.020      1.296      2.008
REMARK INTER + INTRA:         -13.150
REMARK INTER:                 -11.338
REMARK INTRA:                  -1.812
REMARK UNBOUND:                -1.851
REMARK SMILES CCCCCCCCC=CCCCCCCCC(=O)[O-]
REMARK SMILES IDX 10 1 9 2 11 3 12 4 13 5 14 6 15 7 16 8 17 9 18 10 19 11
REMARK SMILES IDX 20 12 8 13 7 14 6 15 5 16 4 17 3 18 2 19 1 20
REMARK H PARENT
REMARK Flexibility Score: inf
ROOT
ATOM      1  C   UNL     1      54.162  53.294  41.492  1.00  0.00    -0.031 C 
ATOM      2  C   UNL     1      54.275  52.065  40.970  1.00  0.00    -0.031 C 
ENDROOT
BRANCH   1   3
ATOM      3  C   UNL     1      55.134  54.380  41.114  1.00  0.00     0.027 C 
BRANCH   3   4
ATOM      4  C   UNL     1      56.351  54.422  42.048  1.00  0.00     0.004 C 
BRANCH   4   5
ATOM      5  C   UNL     1      57.505  53.545  41.530  1.00  0.00     0.000 C 
BRANCH   5   6
ATOM      6  C   UNL     1      57.677  52.256  42.347  1.00  0.00     0.000 C 
BRANCH   6   7
ATOM      7  C   UNL     1      56.979  52.326  43.716  1.00  0.00     0.000 C 
BRANCH   7   8
ATOM      8  C   UNL     1      56.289  51.003  44.099  1.00  0.00     0.006 C 
BRANCH   8   9
ATOM      9  C   UNL     1      56.484  49.872  43.076  1.00  0.00     0.053 C 
BRANCH   9  10
ATOM     10  C   UNL     1      56.250  48.522  43.680  1.00  0.00     0.041 C 
ATOM     11  O   UNL     1      57.218  47.848  44.120  1.00  0.00    -0.550 OA
ATOM     12  O   UNL     1      54.966  47.993  43.727  1.00  0.00    -0.550 OA
ENDBRANCH   9  10
ENDBRANCH   8   9
ENDBRANCH   7   8
ENDBRANCH   6   7
ENDBRANCH   5   6
ENDBRANCH   4   5
ENDBRANCH   3   4
ENDBRANCH   1   3
BRANCH   2  13
ATOM     13  C   UNL     1      53.298  50.969  41.309  1.00  0.00     0.027 C 
BRANCH  13  14
ATOM     14  C   UNL     1      51.832  51.397  41.116  1.00  0.00     0.004 C 
BRANCH  14  15
ATOM     15  C   UNL     1      50.810  50.497  41.835  1.00  0.00     0.000 C 
BRANCH  15  16
ATOM     16  C   UNL     1      50.893  50.609  43.366  1.00  0.00     0.000 C 
BRANCH  16  17
ATOM     17  C   UNL     1      49.786  49.813  44.076  1.00  0.00    -0.000 C 
BRANCH  17  18
ATOM     18  C   UNL     1      49.509  48.460  43.404  1.00  0.00    -0.000 C 
BRANCH  18  19
ATOM     19  C   UNL     1      49.729  47.304  44.387  1.00  0.00    -0.003 C 
ATOM     20  C   UNL     1      51.188  47.230  44.832  1.00  0.00     0.004 C 
ENDBRANCH  18  19
ENDBRANCH  17  18
ENDBRANCH  16  17
ENDBRANCH  15  16
ENDBRANCH  14  15
ENDBRANCH  13  14
ENDBRANCH   2  13
TORSDOF 15
ENDMDL
MODEL 5
REMARK VINA RESULT:    -5.987      3.046      6.504
REMARK INTER + INTRA:         -13.087
REMARK INTER:                 -10.687
REMARK INTRA:                  -2.401
REMARK UNBOUND:                -1.851
REMARK SMILES CCCCCCCCC=CCCCCCCCC(=O)[O-]
REMARK SMILES IDX 10 1 9 2 11 3 12 4 13 5 14 6 15 7 16 8 17 9 18 10 19 11
REMARK SMILES IDX 20 12 8 13 7 14 6 15 5 16 4 17 3 18 2 19 1 20
REMARK H PARENT
REMARK Flexibility Score: inf
ROOT
ATOM      1  C   UNL     1      54.256  52.233  40.850  1.00  0.00    -0.031 C 
ATOM      2  C   UNL     1      53.951  53.328  41.562  1.00  0.00    -0.031 C 
ENDROOT
BRANCH   1   3
ATOM      3  C   UNL     1      53.401  50.997  40.940  1.00  0.00     0.027 C 
BRANCH   3   4
ATOM      4  C   UNL     1      51.907  51.331  41.038  1.00  0.00     0.004 C 
BRANCH   4   5
ATOM      5  C   UNL     1      51.247  50.669  42.261  1.00  0.00     0.000 C 
BRANCH   5   6
ATOM      6  C   UNL     1      52.167  50.658  43.492  1.00  0.00     0.000 C 
BRANCH   6   7
ATOM      7  C   UNL     1      51.813  49.535  44.483  1.00  0.00     0.000 C 
BRANCH   7   8
ATOM      8  C   UNL     1      50.435  48.907  44.200  1.00  0.00     0.006 C 
BRANCH   8   9
ATOM      9  C   UNL     1      49.978  47.890  45.260  1.00  0.00     0.053 C 
BRANCH   9  10
ATOM     10  C   UNL     1      48.965  48.473  46.196  1.00  0.00     0.041 C 
ATOM     11  O   UNL     1      48.799  49.719  46.255  1.00  0.00    -0.550 OA
ATOM     12  O   UNL     1      48.227  47.641  47.029  1.00  0.00    -0.550 OA
ENDBRANCH   9  10
ENDBRANCH   8   9
ENDBRANCH   7   8
ENDBRANCH   6   7
ENDBRANCH   5   6
ENDBRANCH   4   5
ENDBRANCH   3   4
ENDBRANCH   1   3
BRANCH   2  13
ATOM     13  C   UNL     1      54.773  54.587  41.466  1.00  0.00     0.027 C 
BRANCH  13  14
ATOM     14  C   UNL     1      56.110  54.372  40.735  1.00  0.00     0.004 C 
BRANCH  14  15
ATOM     15  C   UNL     1      57.319  54.181  41.670  1.00  0.00     0.000 C 
BRANCH  15  16
ATOM     16  C   UNL     1      58.011  52.822  41.477  1.00  0.00     0.000 C 
BRANCH  16  17
ATOM     17  C   UNL     1      57.682  51.827  42.601  1.00  0.00    -0.000 C 
BRANCH  17  18
ATOM     18  C   UNL     1      56.885  52.473  43.745  1.00  0.00    -0.000 C 
BRANCH  18  19
ATOM     19  C   UNL     1      55.759  51.547  44.220  1.00  0.00    -0.003 C 
ATOM     20  C   UNL     1      55.876  50.165  43.581  1.00  0.00     0.004 C 
ENDBRANCH  18  19
ENDBRANCH  17  18
ENDBRANCH  16  17
ENDBRANCH  15  16
ENDBRANCH  14  15
ENDBRANCH  13  14
ENDBRANCH   2  13
TORSDOF 15
ENDMDL
MODEL 6
REMARK VINA RESULT:    -5.959      2.818      6.456
REMARK INTER + INTRA:         -13.035
REMARK INTER:                 -11.212
REMARK INTRA:                  -1.823
REMARK UNBOUND:                -1.851
REMARK SMILES CCCCCCCCC=CCCCCCCCC(=O)[O-]
REMARK SMILES IDX 10 1 9 2 11 3 12 4 13 5 14 6 15 7 16 8 17 9 18 10 19 11
REMARK SMILES IDX 20 12 8 13 7 14 6 15 5 16 4 17 3 18 2 19 1 20
REMARK H PARENT
REMARK Flexibility Score: inf
ROOT
ATOM      1  C   UNL     1      55.885  50.307  41.211  1.00  0.00    -0.031 C 
ATOM      2  C   UNL     1      55.546  49.880  42.435  1.00  0.00    -0.031 C 
ENDROOT
BRANCH   1   3
ATOM      3  C   UNL     1      54.909  51.091  40.374  1.00  0.00     0.027 C 
BRANCH   3   4
ATOM      4  C   UNL     1      53.463  50.617  40.572  1.00  0.00     0.004 C 
BRANCH   4   5
ATOM      5  C   UNL     1      52.619  51.649  41.340  1.00  0.00     0.000 C 
BRANCH   5   6
ATOM      6  C   UNL     1      51.704  50.998  42.389  1.00  0.00     0.000 C 
BRANCH   6   7
ATOM      7  C   UNL     1      50.525  50.240  41.755  1.00  0.00     0.000 C 
BRANCH   7   8
ATOM      8  C   UNL     1      49.676  49.485  42.795  1.00  0.00     0.006 C 
BRANCH   8   9
ATOM      9  C   UNL     1      49.536  50.215  44.142  1.00  0.00     0.053 C 
BRANCH   9  10
ATOM     10  C   UNL     1      49.350  49.259  45.281  1.00  0.00     0.041 C 
ATOM     11  O   UNL     1      49.047  49.689  46.425  1.00  0.00    -0.550 OA
ATOM     12  O   UNL     1      49.546  47.898  45.087  1.00  0.00    -0.550 OA
ENDBRANCH   9  10
ENDBRANCH   8   9
ENDBRANCH   7   8
ENDBRANCH   6   7
ENDBRANCH   5   6
ENDBRANCH   4   5
ENDBRANCH   3   4
ENDBRANCH   1   3
BRANCH   2  13
ATOM     13  C   UNL     1      56.513  49.120  43.304  1.00  0.00     0.027 C 
BRANCH  13  14
ATOM     14  C   UNL     1      57.040  49.959  44.483  1.00  0.00     0.004 C 
BRANCH  14  15
ATOM     15  C   UNL     1      57.552  51.356  44.086  1.00  0.00     0.000 C 
BRANCH  15  16
ATOM     16  C   UNL     1      56.631  52.488  44.572  1.00  0.00     0.000 C 
BRANCH  16  17
ATOM     17  C   UNL     1      55.980  53.258  43.413  1.00  0.00    -0.000 C 
BRANCH  17  18
ATOM     18  C   UNL     1      56.983  53.615  42.305  1.00  0.00    -0.000 C 
BRANCH  18  19
ATOM     19  C   UNL     1      56.281  54.309  41.132  1.00  0.00    -0.003 C 
ATOM     20  C   UNL     1      54.881  54.774  41.525  1.00  0.00     0.004 C 
ENDBRANCH  18  19
ENDBRANCH  17  18
ENDBRANCH  16  17
ENDBRANCH  15  16
ENDBRANCH  14  15
ENDBRANCH  13  14
ENDBRANCH   2  13
TORSDOF 15
ENDMDL
MODEL 7
REMARK VINA RESULT:    -5.808      2.848      6.081
REMARK INTER + INTRA:         -12.752
REMARK INTER:                 -10.879
REMARK INTRA:                  -1.873
REMARK UNBOUND:                -1.851
REMARK SMILES CCCCCCCCC=CCCCCCCCC(=O)[O-]
REMARK SMILES IDX 10 1 9 2 11 3 12 4 13 5 14 6 15 7 16 8 17 9 18 10 19 11
REMARK SMILES IDX 20 12 8 13 7 14 6 15 5 16 4 17 3 18 2 19 1 20
REMARK H PARENT
REMARK Flexibility Score: inf
ROOT
ATOM      1  C   UNL     1      55.543  51.120  40.574  1.00  0.00    -0.031 C 
ATOM      2  C   UNL     1      55.809  52.410  40.823  1.00  0.00    -0.031 C 
ENDROOT
BRANCH   1   3
ATOM      3  C   UNL     1      54.140  50.674  40.257  1.00  0.00     0.027 C 
BRANCH   3   4
ATOM      4  C   UNL     1      53.089  51.693  40.716  1.00  0.00     0.004 C 
BRANCH   4   5
ATOM      5  C   UNL     1      52.025  51.053  41.626  1.00  0.00     0.000 C 
BRANCH   5   6
ATOM      6  C   UNL     1      52.320  51.269  43.119  1.00  0.00     0.000 C 
BRANCH   6   7
ATOM      7  C   UNL     1      52.926  50.023  43.787  1.00  0.00     0.000 C 
BRANCH   7   8
ATOM      8  C   UNL     1      51.993  49.403  44.844  1.00  0.00     0.006 C 
BRANCH   8   9
ATOM      9  C   UNL     1      50.496  49.626  44.570  1.00  0.00     0.053 C 
BRANCH   9  10
ATOM     10  C   UNL     1      49.708  48.357  44.690  1.00  0.00     0.041 C 
ATOM     11  O   UNL     1      48.930  48.184  45.664  1.00  0.00    -0.550 OA
ATOM     12  O   UNL     1      49.860  47.352  43.743  1.00  0.00    -0.550 OA
ENDBRANCH   9  10
ENDBRANCH   8   9
ENDBRANCH   7   8
ENDBRANCH   6   7
ENDBRANCH   5   6
ENDBRANCH   4   5
ENDBRANCH   3   4
ENDBRANCH   1   3
BRANCH   2  13
ATOM     13  C   UNL     1      57.209  52.887  41.113  1.00  0.00     0.027 C 
BRANCH  13  14
ATOM     14  C   UNL     1      57.633  52.636  42.571  1.00  0.00     0.004 C 
BRANCH  14  15
ATOM     15  C   UNL     1      56.489  52.764  43.594  1.00  0.00     0.000 C 
BRANCH  15  16
ATOM     16  C   UNL     1      56.564  51.705  44.706  1.00  0.00     0.000 C 
BRANCH  16  17
ATOM     17  C   UNL     1      57.413  50.488  44.305  1.00  0.00    -0.000 C 
BRANCH  17  18
ATOM     18  C   UNL     1      56.568  49.349  43.714  1.00  0.00    -0.000 C 
BRANCH  18  19
ATOM     19  C   UNL     1      56.998  47.993  44.287  1.00  0.00    -0.003 C 
ATOM     20  C   UNL     1      57.765  48.166  45.595  1.00  0.00     0.004 C 
ENDBRANCH  18  19
ENDBRANCH  17  18
ENDBRANCH  16  17
ENDBRANCH  15  16
ENDBRANCH  14  15
ENDBRANCH  13  14
ENDBRANCH   2  13
TORSDOF 15
ENDMDL
MODEL 8
REMARK VINA RESULT:    -5.792      2.323      4.301
REMARK INTER + INTRA:         -12.721
REMARK INTER:                 -10.820
REMARK INTRA:                  -1.901
REMARK UNBOUND:                -1.851
REMARK SMILES CCCCCCCCC=CCCCCCCCC(=O)[O-]
REMARK SMILES IDX 10 1 9 2 11 3 12 4 13 5 14 6 15 7 16 8 17 9 18 10 19 11
REMARK SMILES IDX 20 12 8 13 7 14 6 15 5 16 4 17 3 18 2 19 1 20
REMARK H PARENT
REMARK Flexibility Score: inf
ROOT
ATOM      1  C   UNL     1      54.696  49.664  42.993  1.00  0.00    -0.031 C 
ATOM      2  C   UNL     1      53.707  50.203  43.719  1.00  0.00    -0.031 C 
ENDROOT
BRANCH   1   3
ATOM      3  C   UNL     1      55.531  48.540  43.548  1.00  0.00     0.027 C 
BRANCH   3   4
ATOM      4  C   UNL     1      57.017  48.911  43.637  1.00  0.00     0.004 C 
BRANCH   4   5
ATOM      5  C   UNL     1      57.307  49.850  44.822  1.00  0.00     0.000 C 
BRANCH   5   6
ATOM      6  C   UNL     1      58.045  51.128  44.394  1.00  0.00     0.000 C 
BRANCH   6   7
ATOM      7  C   UNL     1      57.112  52.154  43.729  1.00  0.00     0.000 C 
BRANCH   7   8
ATOM      8  C   UNL     1      57.517  52.471  42.277  1.00  0.00     0.006 C 
BRANCH   8   9
ATOM      9  C   UNL     1      56.760  53.657  41.657  1.00  0.00     0.053 C 
BRANCH   9  10
ATOM     10  C   UNL     1      55.393  53.266  41.185  1.00  0.00     0.041 C 
ATOM     11  O   UNL     1      55.227  52.196  40.544  1.00  0.00    -0.550 OA
ATOM     12  O   UNL     1      54.309  54.101  41.425  1.00  0.00    -0.550 OA
ENDBRANCH   9  10
ENDBRANCH   8   9
ENDBRANCH   7   8
ENDBRANCH   6   7
ENDBRANCH   5   6
ENDBRANCH   4   5
ENDBRANCH   3   4
ENDBRANCH   1   3
BRANCH   2  13
ATOM     13  C   UNL     1      52.838  51.307  43.175  1.00  0.00     0.027 C 
BRANCH  13  14
ATOM     14  C   UNL     1      52.332  51.019  41.750  1.00  0.00     0.004 C 
BRANCH  14  15
ATOM     15  C   UNL     1      50.859  50.575  41.679  1.00  0.00     0.000 C 
BRANCH  15  16
ATOM     16  C   UNL     1      50.280  50.214  43.057  1.00  0.00     0.000 C 
BRANCH  16  17
ATOM     17  C   UNL     1      49.238  49.087  42.982  1.00  0.00    -0.000 C 
BRANCH  17  18
ATOM     18  C   UNL     1      49.322  48.125  44.177  1.00  0.00    -0.000 C 
BRANCH  18  19
ATOM     19  C   UNL     1      50.516  47.175  44.033  1.00  0.00    -0.003 C 
ATOM     20  C   UNL     1      51.588  47.475  45.079  1.00  0.00     0.004 C 
ENDBRANCH  18  19
ENDBRANCH  17  18
ENDBRANCH  16  17
ENDBRANCH  15  16
ENDBRANCH  14  15
ENDBRANCH  13  14
ENDBRANCH   2  13
TORSDOF 15
ENDMDL
MODEL 9
REMARK VINA RESULT:    -5.770      1.334      2.336
REMARK INTER + INTRA:         -12.680
REMARK INTER:                 -10.247
REMARK INTRA:                  -2.433
REMARK UNBOUND:                -1.851
REMARK SMILES CCCCCCCCC=CCCCCCCCC(=O)[O-]
REMARK SMILES IDX 10 1 9 2 11 3 12 4 13 5 14 6 15 7 16 8 17 9 18 10 19 11
REMARK SMILES IDX 20 12 8 13 7 14 6 15 5 16 4 17 3 18 2 19 1 20
REMARK H PARENT
REMARK Flexibility Score: inf
ROOT
ATOM      1  C   UNL     1      54.056  50.530  41.885  1.00  0.00    -0.031 C 
ATOM      2  C   UNL     1      53.299  51.156  42.798  1.00  0.00    -0.031 C 
ENDROOT
BRANCH   1   3
ATOM      3  C   UNL     1      54.379  51.193  40.573  1.00  0.00     0.027 C 
BRANCH   3   4
ATOM      4  C   UNL     1      55.887  51.411  40.389  1.00  0.00     0.004 C 
BRANCH   4   5
ATOM      5  C   UNL     1      56.348  52.762  40.965  1.00  0.00     0.000 C 
BRANCH   5   6
ATOM      6  C   UNL     1      57.193  52.602  42.238  1.00  0.00     0.000 C 
BRANCH   6   7
ATOM      7  C   UNL     1      56.423  52.994  43.511  1.00  0.00     0.000 C 
BRANCH   7   8
ATOM      8  C   UNL     1      56.484  51.906  44.600  1.00  0.00     0.006 C 
BRANCH   8   9
ATOM      9  C   UNL     1      57.755  51.041  44.554  1.00  0.00     0.053 C 
BRANCH   9  10
ATOM     10  C   UNL     1      57.437  49.577  44.537  1.00  0.00     0.041 C 
ATOM     11  O   UNL     1      57.961  48.805  45.381  1.00  0.00    -0.550 OA
ATOM     12  O   UNL     1      56.587  49.061  43.567  1.00  0.00    -0.550 OA
ENDBRANCH   9  10
ENDBRANCH   8   9
ENDBRANCH   7   8
ENDBRANCH   6   7
ENDBRANCH   5   6
ENDBRANCH   4   5
ENDBRANCH   3   4
ENDBRANCH   1   3
BRANCH   2  13
ATOM     13  C   UNL     1      52.986  50.528  44.131  1.00  0.00     0.027 C 
BRANCH  13  14
ATOM     14  C   UNL     1      53.052  48.990  44.095  1.00  0.00     0.004 C 
BRANCH  14  15
ATOM     15  C   UNL     1      52.191  48.295  45.166  1.00  0.00     0.000 C 
BRANCH  15  16
ATOM     16  C   UNL     1      50.780  47.948  44.662  1.00  0.00     0.000 C 
BRANCH  16  17
ATOM     17  C   UNL     1      49.729  48.983  45.090  1.00  0.00    -0.000 C 
BRANCH  17  18
ATOM     18  C   UNL     1      49.402  49.988  43.975  1.00  0.00    -0.000 C 
BRANCH  18  19
ATOM     19  C   UNL     1      49.357  49.295  42.608  1.00  0.00    -0.003 C 
ATOM     20  C   UNL     1      50.101  50.110  41.552  1.00  0.00     0.004 C 
ENDBRANCH  18  19
ENDBRANCH  17  18
ENDBRANCH  16  17
ENDBRANCH  15  16
ENDBRANCH  14  15
ENDBRANCH  13  14
ENDBRANCH   2  13
TORSDOF 15
ENDMDL
