MODEL 1
REMARK VINA RESULT:     7.397      0.000      0.000
REMARK INTER + INTRA:          19.719
REMARK INTER:                  19.506
REMARK INTRA:                   0.213
REMARK UNBOUND:                 0.213
REMARK SMILES CCCCCCCCCCCCCCCCCCCCCCCCCCCCCC(=O)[O-]
REMARK SMILES IDX 16 1 17 2 18 3 19 4 20 5 21 6 22 7 23 8 24 9 25 10 26 11
REMARK SMILES IDX 27 12 28 13 29 14 30 15 31 16 32 17 15 18 14 19 13 20 12 21
REMARK SMILES IDX 11 22 10 23 9 24 8 25 7 26 6 27 5 28 4 29 3 30 2 31 1 32
REMARK H PARENT
REMARK Flexibility Score: inf
ROOT
ATOM      1  C   UNL     1     -28.329   8.016  -5.051  1.00  0.00     0.000 C 
ENDROOT
BRANCH   1   2
ATOM      2  C   UNL     1     -27.324   8.924  -5.791  1.00  0.00     0.000 C 
BRANCH   2   3
ATOM      3  C   UNL     1     -27.583  10.437  -5.649  1.00  0.00     0.000 C 
BRANCH   3   4
ATOM      4  C   UNL     1     -26.961  11.091  -4.397  1.00  0.00     0.000 C 
BRANCH   4   5
ATOM      5  C   UNL     1     -25.423  11.058  -4.346  1.00  0.00     0.000 C 
BRANCH   5   6
ATOM      6  C   UNL     1     -24.841   9.719  -4.831  1.00  0.00     0.000 C 
BRANCH   6   7
ATOM      7  C   UNL     1     -23.778   9.156  -3.875  1.00  0.00     0.000 C 
BRANCH   7   8
ATOM      8  C   UNL     1     -22.344   9.395  -4.385  1.00  0.00     0.000 C 
BRANCH   8   9
ATOM      9  C   UNL     1     -21.593   8.084  -4.665  1.00  0.00     0.000 C 
BRANCH   9  10
ATOM     10  C   UNL     1     -21.998   7.445  -6.006  1.00  0.00     0.000 C 
BRANCH  10  11
ATOM     11  C   UNL     1     -23.079   6.364  -5.845  1.00  0.00     0.000 C 
BRANCH  11  12
ATOM     12  C   UNL     1     -24.525   6.894  -5.847  1.00  0.00     0.000 C 
BRANCH  12  13
ATOM     13  C   UNL     1     -25.581   5.817  -6.175  1.00  0.00     0.006 C 
BRANCH  13  14
ATOM     14  C   UNL     1     -24.963   4.568  -6.817  1.00  0.00     0.053 C 
BRANCH  14  15
ATOM     15  C   UNL     1     -25.888   3.398  -6.697  1.00  0.00     0.041 C 
ATOM     16  O   UNL     1     -25.976   2.561  -7.635  1.00  0.00    -0.550 OA
ATOM     17  O   UNL     1     -26.630   3.212  -5.536  1.00  0.00    -0.550 OA
ENDBRANCH  14  15
ENDBRANCH  13  14
ENDBRANCH  12  13
ENDBRANCH  11  12
ENDBRANCH  10  11
ENDBRANCH   9  10
ENDBRANCH   8   9
ENDBRANCH   7   8
ENDBRANCH   6   7
ENDBRANCH   5   6
ENDBRANCH   4   5
ENDBRANCH   3   4
ENDBRANCH   2   3
ENDBRANCH   1   2
BRANCH   1  18
ATOM     18  C   UNL     1     -29.696   7.851  -5.742  1.00  0.00     0.000 C 
BRANCH  18  19
ATOM     19  C   UNL     1     -30.798   8.706  -5.094  1.00  0.00     0.000 C 
BRANCH  19  20
ATOM     20  C   UNL     1     -31.597   9.536  -6.116  1.00  0.00     0.000 C 
BRANCH  20  21
ATOM     21  C   UNL     1     -31.299   9.233  -7.596  1.00  0.00     0.000 C 
BRANCH  21  22
ATOM     22  C   UNL     1     -32.383   8.369  -8.264  1.00  0.00     0.000 C 
BRANCH  22  23
ATOM     23  C   UNL     1     -33.247   7.605  -7.245  1.00  0.00     0.000 C 
BRANCH  23  24
ATOM     24  C   UNL     1     -33.071   6.074  -7.252  1.00  0.00    -0.000 C 
BRANCH  24  25
ATOM     25  C   UNL     1     -33.682   5.348  -8.467  1.00  0.00    -0.000 C 
BRANCH  25  26
ATOM     26  C   UNL     1     -34.125   6.266  -9.623  1.00  0.00    -0.000 C 
BRANCH  26  27
ATOM     27  C   UNL     1     -33.792   5.740 -11.031  1.00  0.00    -0.000 C 
BRANCH  27  28
ATOM     28  C   UNL     1     -32.426   6.229 -11.543  1.00  0.00    -0.000 C 
BRANCH  28  29
ATOM     29  C   UNL     1     -31.905   5.404 -12.735  1.00  0.00    -0.000 C 
BRANCH  29  30
ATOM     30  C   UNL     1     -32.357   3.932 -12.752  1.00  0.00    -0.000 C 
BRANCH  30  31
ATOM     31  C   UNL     1     -33.857   3.769 -13.038  1.00  0.00    -0.003 C 
ATOM     32  C   UNL     1     -34.107   2.647 -14.040  1.00  0.00     0.004 C 
ENDBRANCH  30  31
ENDBRANCH  29  30
ENDBRANCH  28  29
ENDBRANCH  27  28
ENDBRANCH  26  27
ENDBRANCH  25  26
ENDBRANCH  24  25
ENDBRANCH  23  24
ENDBRANCH  22  23
ENDBRANCH  21  22
ENDBRANCH  20  21
ENDBRANCH  19  20
ENDBRANCH  18  19
ENDBRANCH   1  18
TORSDOF 28
ENDMDL
MODEL 2
REMARK VINA RESULT:     8.195      3.787     11.263
REMARK INTER + INTRA:          21.822
REMARK INTER:                  23.334
REMARK INTRA:                  -1.512
REMARK UNBOUND:                 0.213
REMARK SMILES CCCCCCCCCCCCCCCCCCCCCCCCCCCCCC(=O)[O-]
REMARK SMILES IDX 16 1 17 2 18 3 19 4 20 5 21 6 22 7 23 8 24 9 25 10 26 11
REMARK SMILES IDX 27 12 28 13 29 14 30 15 31 16 32 17 15 18 14 19 13 20 12 21
REMARK SMILES IDX 11 22 10 23 9 24 8 25 7 26 6 27 5 28 4 29 3 30 2 31 1 32
REMARK H PARENT
REMARK Flexibility Score: inf
ROOT
ATOM      1  C   UNL     1     -24.771   8.293  -4.127  1.00  0.00     0.000 C 
ENDROOT
BRANCH   1   2
ATOM      2  C   UNL     1     -23.658   9.362  -4.115  1.00  0.00     0.000 C 
BRANCH   2   3
ATOM      3  C   UNL     1     -24.133  10.803  -4.388  1.00  0.00     0.000 C 
BRANCH   3   4
ATOM      4  C   UNL     1     -24.428  11.124  -5.868  1.00  0.00     0.000 C 
BRANCH   4   5
ATOM      5  C   UNL     1     -25.903  10.975  -6.282  1.00  0.00     0.000 C 
BRANCH   5   6
ATOM      6  C   UNL     1     -26.867  11.065  -5.086  1.00  0.00     0.000 C 
BRANCH   6   7
ATOM      7  C   UNL     1     -27.202   9.688  -4.493  1.00  0.00     0.000 C 
BRANCH   7   8
ATOM      8  C   UNL     1     -28.268   8.939  -5.313  1.00  0.00     0.000 C 
BRANCH   8   9
ATOM      9  C   UNL     1     -29.387   8.359  -4.434  1.00  0.00     0.000 C 
BRANCH   9  10
ATOM     10  C   UNL     1     -30.638   7.975  -5.244  1.00  0.00     0.000 C 
BRANCH  10  11
ATOM     11  C   UNL     1     -30.415   8.073  -6.762  1.00  0.00     0.000 C 
BRANCH  11  12
ATOM     12  C   UNL     1     -31.407   8.991  -7.501  1.00  0.00     0.000 C 
BRANCH  12  13
ATOM     13  C   UNL     1     -32.882   8.563  -7.346  1.00  0.00     0.006 C 
BRANCH  13  14
ATOM     14  C   UNL     1     -33.500   8.102  -8.673  1.00  0.00     0.053 C 
BRANCH  14  15
ATOM     15  C   UNL     1     -33.623   6.611  -8.708  1.00  0.00     0.041 C 
ATOM     16  O   UNL     1     -33.665   6.004  -9.812  1.00  0.00    -0.550 OA
ATOM     17  O   UNL     1     -33.657   5.885  -7.523  1.00  0.00    -0.550 OA
ENDBRANCH  14  15
ENDBRANCH  13  14
ENDBRANCH  12  13
ENDBRANCH  11  12
ENDBRANCH  10  11
ENDBRANCH   9  10
ENDBRANCH   8   9
ENDBRANCH   7   8
ENDBRANCH   6   7
ENDBRANCH   5   6
ENDBRANCH   4   5
ENDBRANCH   3   4
ENDBRANCH   2   3
ENDBRANCH   1   2
BRANCH   1  18
ATOM     18  C   UNL     1     -24.936   7.533  -5.457  1.00  0.00     0.000 C 
BRANCH  18  19
ATOM     19  C   UNL     1     -24.540   6.051  -5.350  1.00  0.00     0.000 C 
BRANCH  19  20
ATOM     20  C   UNL     1     -23.515   5.622  -6.417  1.00  0.00     0.000 C 
BRANCH  20  21
ATOM     21  C   UNL     1     -22.037   5.779  -6.020  1.00  0.00     0.000 C 
BRANCH  21  22
ATOM     22  C   UNL     1     -21.541   7.232  -6.109  1.00  0.00     0.000 C 
BRANCH  22  23
ATOM     23  C   UNL     1     -20.344   7.512  -5.183  1.00  0.00     0.000 C 
BRANCH  23  24
ATOM     24  C   UNL     1     -19.077   8.037  -5.887  1.00  0.00    -0.000 C 
BRANCH  24  25
ATOM     25  C   UNL     1     -17.801   8.045  -5.022  1.00  0.00    -0.000 C 
BRANCH  25  26
ATOM     26  C   UNL     1     -16.503   8.406  -5.772  1.00  0.00    -0.000 C 
BRANCH  26  27
ATOM     27  C   UNL     1     -16.532   8.126  -7.286  1.00  0.00    -0.000 C 
BRANCH  27  28
ATOM     28  C   UNL     1     -15.785   6.836  -7.668  1.00  0.00    -0.000 C 
BRANCH  28  29
ATOM     29  C   UNL     1     -15.314   6.033  -6.441  1.00  0.00    -0.000 C 
BRANCH  29  30
ATOM     30  C   UNL     1     -15.573   4.517  -6.521  1.00  0.00    -0.000 C 
BRANCH  30  31
ATOM     31  C   UNL     1     -16.801   4.074  -5.713  1.00  0.00    -0.003 C 
ATOM     32  C   UNL     1     -16.729   4.585  -4.278  1.00  0.00     0.004 C 
ENDBRANCH  30  31
ENDBRANCH  29  30
ENDBRANCH  28  29
ENDBRANCH  27  28
ENDBRANCH  26  27
ENDBRANCH  25  26
ENDBRANCH  24  25
ENDBRANCH  23  24
ENDBRANCH  22  23
ENDBRANCH  21  22
ENDBRANCH  20  21
ENDBRANCH  19  20
ENDBRANCH  18  19
ENDBRANCH   1  18
TORSDOF 28
ENDMDL
MODEL 3
REMARK VINA RESULT:     8.543      2.634      8.495
REMARK INTER + INTRA:          22.740
REMARK INTER:                  16.996
REMARK INTRA:                   5.743
REMARK UNBOUND:                 0.213
REMARK SMILES CCCCCCCCCCCCCCCCCCCCCCCCCCCCCC(=O)[O-]
REMARK SMILES IDX 16 1 17 2 18 3 19 4 20 5 21 6 22 7 23 8 24 9 25 10 26 11
REMARK SMILES IDX 27 12 28 13 29 14 30 15 31 16 32 17 15 18 14 19 13 20 12 21
REMARK SMILES IDX 11 22 10 23 9 24 8 25 7 26 6 27 5 28 4 29 3 30 2 31 1 32
REMARK H PARENT
REMARK Flexibility Score: inf
ROOT
ATOM      1  C   UNL     1     -24.702  11.060  -3.970  1.00  0.00     0.000 C 
ENDROOT
BRANCH   1   2
ATOM      2  C   UNL     1     -26.104  11.125  -4.613  1.00  0.00     0.000 C 
BRANCH   2   3
ATOM      3  C   UNL     1     -26.120  11.071  -6.153  1.00  0.00     0.000 C 
BRANCH   3   4
ATOM      4  C   UNL     1     -27.191  10.143  -6.763  1.00  0.00     0.000 C 
BRANCH   4   5
ATOM      5  C   UNL     1     -27.451   8.847  -5.974  1.00  0.00     0.000 C 
BRANCH   5   6
ATOM      6  C   UNL     1     -28.228   9.093  -4.668  1.00  0.00     0.000 C 
BRANCH   6   7
ATOM      7  C   UNL     1     -29.737   9.264  -4.902  1.00  0.00     0.000 C 
BRANCH   7   8
ATOM      8  C   UNL     1     -30.497   7.927  -4.828  1.00  0.00     0.000 C 
BRANCH   8   9
ATOM      9  C   UNL     1     -31.096   7.515  -6.182  1.00  0.00     0.000 C 
BRANCH   9  10
ATOM     10  C   UNL     1     -31.373   8.721  -7.097  1.00  0.00     0.000 C 
BRANCH  10  11
ATOM     11  C   UNL     1     -32.874   8.951  -7.337  1.00  0.00     0.000 C 
BRANCH  11  12
ATOM     12  C   UNL     1     -33.449   8.222  -8.566  1.00  0.00     0.000 C 
BRANCH  12  13
ATOM     13  C   UNL     1     -34.098   6.862  -8.234  1.00  0.00     0.006 C 
BRANCH  13  14
ATOM     14  C   UNL     1     -34.103   5.907  -9.435  1.00  0.00     0.053 C 
BRANCH  14  15
ATOM     15  C   UNL     1     -33.007   6.256 -10.392  1.00  0.00     0.041 C 
ATOM     16  O   UNL     1     -32.224   7.210 -10.139  1.00  0.00    -0.550 OA
ATOM     17  O   UNL     1     -32.826   5.506 -11.549  1.00  0.00    -0.550 OA
ENDBRANCH  14  15
ENDBRANCH  13  14
ENDBRANCH  12  13
ENDBRANCH  11  12
ENDBRANCH  10  11
ENDBRANCH   9  10
ENDBRANCH   8   9
ENDBRANCH   7   8
ENDBRANCH   6   7
ENDBRANCH   5   6
ENDBRANCH   4   5
ENDBRANCH   3   4
ENDBRANCH   2   3
ENDBRANCH   1   2
BRANCH   1  18
ATOM     18  C   UNL     1     -24.053   9.663  -3.952  1.00  0.00     0.000 C 
BRANCH  18  19
ATOM     19  C   UNL     1     -22.527   9.713  -4.139  1.00  0.00     0.000 C 
BRANCH  19  20
ATOM     20  C   UNL     1     -22.029   8.800  -5.275  1.00  0.00     0.000 C 
BRANCH  20  21
ATOM     21  C   UNL     1     -21.729   7.344  -4.874  1.00  0.00     0.000 C 
BRANCH  21  22
ATOM     22  C   UNL     1     -21.111   6.521  -6.016  1.00  0.00     0.000 C 
BRANCH  22  23
ATOM     23  C   UNL     1     -22.110   5.537  -6.652  1.00  0.00     0.000 C 
BRANCH  23  24
ATOM     24  C   UNL     1     -23.519   5.538  -6.027  1.00  0.00    -0.000 C 
BRANCH  24  25
ATOM     25  C   UNL     1     -24.009   6.907  -5.514  1.00  0.00    -0.000 C 
BRANCH  25  26
ATOM     26  C   UNL     1     -25.527   7.148  -5.639  1.00  0.00    -0.000 C 
BRANCH  26  27
ATOM     27  C   UNL     1     -26.375   5.871  -5.780  1.00  0.00    -0.000 C 
BRANCH  27  28
ATOM     28  C   UNL     1     -25.522   4.594  -5.869  1.00  0.00    -0.000 C 
BRANCH  28  29
ATOM     29  C   UNL     1     -25.929   3.683  -7.042  1.00  0.00    -0.000 C 
BRANCH  29  30
ATOM     30  C   UNL     1     -25.259   4.020  -8.387  1.00  0.00    -0.000 C 
BRANCH  30  31
ATOM     31  C   UNL     1     -24.808   2.773  -9.161  1.00  0.00    -0.003 C 
ATOM     32  C   UNL     1     -24.109   3.156 -10.462  1.00  0.00     0.004 C 
ENDBRANCH  30  31
ENDBRANCH  29  30
ENDBRANCH  28  29
ENDBRANCH  27  28
ENDBRANCH  26  27
ENDBRANCH  25  26
ENDBRANCH  24  25
ENDBRANCH  23  24
ENDBRANCH  22  23
ENDBRANCH  21  22
ENDBRANCH  20  21
ENDBRANCH  19  20
ENDBRANCH  18  19
ENDBRANCH   1  18
TORSDOF 28
ENDMDL
MODEL 4
REMARK VINA RESULT:     8.567      1.547      3.668
REMARK INTER + INTRA:          22.803
REMARK INTER:                  24.562
REMARK INTRA:                  -1.759
REMARK UNBOUND:                 0.213
REMARK SMILES CCCCCCCCCCCCCCCCCCCCCCCCCCCCCC(=O)[O-]
REMARK SMILES IDX 16 1 17 2 18 3 19 4 20 5 21 6 22 7 23 8 24 9 25 10 26 11
REMARK SMILES IDX 27 12 28 13 29 14 30 15 31 16 32 17 15 18 14 19 13 20 12 21
REMARK SMILES IDX 11 22 10 23 9 24 8 25 7 26 6 27 5 28 4 29 3 30 2 31 1 32
REMARK H PARENT
REMARK Flexibility Score: inf
ROOT
ATOM      1  C   UNL     1     -26.659  10.961  -4.831  1.00  0.00     0.000 C 
ENDROOT
BRANCH   1   2
ATOM      2  C   UNL     1     -25.233  11.066  -4.249  1.00  0.00     0.000 C 
BRANCH   2   3
ATOM      3  C   UNL     1     -24.538   9.718  -3.976  1.00  0.00     0.000 C 
BRANCH   3   4
ATOM      4  C   UNL     1     -23.020   9.698  -4.254  1.00  0.00     0.000 C 
BRANCH   4   5
ATOM      5  C   UNL     1     -22.579   8.742  -5.377  1.00  0.00     0.000 C 
BRANCH   5   6
ATOM      6  C   UNL     1     -22.404   7.293  -4.888  1.00  0.00     0.000 C 
BRANCH   6   7
ATOM      7  C   UNL     1     -23.264   6.295  -5.680  1.00  0.00     0.000 C 
BRANCH   7   8
ATOM      8  C   UNL     1     -24.772   6.503  -5.442  1.00  0.00     0.000 C 
BRANCH   8   9
ATOM      9  C   UNL     1     -25.638   5.671  -6.401  1.00  0.00     0.000 C 
BRANCH   9  10
ATOM     10  C   UNL     1     -26.448   4.583  -5.674  1.00  0.00     0.000 C 
BRANCH  10  11
ATOM     11  C   UNL     1     -25.895   3.170  -5.918  1.00  0.00     0.000 C 
BRANCH  11  12
ATOM     12  C   UNL     1     -25.983   2.687  -7.378  1.00  0.00     0.000 C 
BRANCH  12  13
ATOM     13  C   UNL     1     -25.673   3.787  -8.415  1.00  0.00     0.006 C 
BRANCH  13  14
ATOM     14  C   UNL     1     -24.296   3.604  -9.068  1.00  0.00     0.053 C 
BRANCH  14  15
ATOM     15  C   UNL     1     -24.438   3.086 -10.464  1.00  0.00     0.041 C 
ATOM     16  O   UNL     1     -25.582   2.890 -10.955  1.00  0.00    -0.550 OA
ATOM     17  O   UNL     1     -23.308   2.849 -11.239  1.00  0.00    -0.550 OA
ENDBRANCH  14  15
ENDBRANCH  13  14
ENDBRANCH  12  13
ENDBRANCH  11  12
ENDBRANCH  10  11
ENDBRANCH   9  10
ENDBRANCH   8   9
ENDBRANCH   7   8
ENDBRANCH   6   7
ENDBRANCH   5   6
ENDBRANCH   4   5
ENDBRANCH   3   4
ENDBRANCH   2   3
ENDBRANCH   1   2
BRANCH   1  18
ATOM     18  C   UNL     1     -26.785  10.108  -6.108  1.00  0.00     0.000 C 
BRANCH  18  19
ATOM     19  C   UNL     1     -27.281   8.681  -5.823  1.00  0.00     0.000 C 
BRANCH  19  20
ATOM     20  C   UNL     1     -28.083   8.570  -4.513  1.00  0.00     0.000 C 
BRANCH  20  21
ATOM     21  C   UNL     1     -29.548   8.124  -4.667  1.00  0.00     0.000 C 
BRANCH  21  22
ATOM     22  C   UNL     1     -29.996   8.022  -6.135  1.00  0.00     0.000 C 
BRANCH  22  23
ATOM     23  C   UNL     1     -31.382   8.643  -6.380  1.00  0.00     0.000 C 
BRANCH  23  24
ATOM     24  C   UNL     1     -31.742   8.883  -7.860  1.00  0.00    -0.000 C 
BRANCH  24  25
ATOM     25  C   UNL     1     -33.011   8.160  -8.352  1.00  0.00    -0.000 C 
BRANCH  25  26
ATOM     26  C   UNL     1     -33.410   6.911  -7.540  1.00  0.00    -0.000 C 
BRANCH  26  27
ATOM     27  C   UNL     1     -33.713   5.660  -8.383  1.00  0.00    -0.000 C 
BRANCH  27  28
ATOM     28  C   UNL     1     -34.125   5.998  -9.826  1.00  0.00    -0.000 C 
BRANCH  28  29
ATOM     29  C   UNL     1     -33.145   5.439 -10.875  1.00  0.00    -0.000 C 
BRANCH  29  30
ATOM     30  C   UNL     1     -32.006   6.396 -11.272  1.00  0.00    -0.000 C 
BRANCH  30  31
ATOM     31  C   UNL     1     -31.290   5.974 -12.564  1.00  0.00    -0.003 C 
ATOM     32  C   UNL     1     -31.637   4.537 -12.940  1.00  0.00     0.004 C 
ENDBRANCH  30  31
ENDBRANCH  29  30
ENDBRANCH  28  29
ENDBRANCH  27  28
ENDBRANCH  26  27
ENDBRANCH  25  26
ENDBRANCH  24  25
ENDBRANCH  23  24
ENDBRANCH  22  23
ENDBRANCH  21  22
ENDBRANCH  20  21
ENDBRANCH  19  20
ENDBRANCH  18  19
ENDBRANCH   1  18
TORSDOF 28
ENDMDL
MODEL 5
REMARK VINA RESULT:     8.807      3.379     10.543
REMARK INTER + INTRA:          23.436
REMARK INTER:                  24.450
REMARK INTRA:                  -1.014
REMARK UNBOUND:                 0.213
REMARK SMILES CCCCCCCCCCCCCCCCCCCCCCCCCCCCCC(=O)[O-]
REMARK SMILES IDX 16 1 17 2 18 3 19 4 20 5 21 6 22 7 23 8 24 9 25 10 26 11
REMARK SMILES IDX 27 12 28 13 29 14 30 15 31 16 32 17 15 18 14 19 13 20 12 21
REMARK SMILES IDX 11 22 10 23 9 24 8 25 7 26 6 27 5 28 4 29 3 30 2 31 1 32
REMARK H PARENT
REMARK Flexibility Score: inf
ROOT
ATOM      1  C   UNL     1     -24.865   8.525  -4.193  1.00  0.00     0.000 C 
ENDROOT
BRANCH   1   2
ATOM      2  C   UNL     1     -24.085   9.847  -4.023  1.00  0.00     0.000 C 
BRANCH   2   3
ATOM      3  C   UNL     1     -24.861  11.119  -4.417  1.00  0.00     0.000 C 
BRANCH   3   4
ATOM      4  C   UNL     1     -25.660  11.015  -5.733  1.00  0.00     0.000 C 
BRANCH   4   5
ATOM      5  C   UNL     1     -27.186  10.912  -5.558  1.00  0.00     0.000 C 
BRANCH   5   6
ATOM      6  C   UNL     1     -27.599  10.618  -4.105  1.00  0.00     0.000 C 
BRANCH   6   7
ATOM      7  C   UNL     1     -28.353   9.287  -3.963  1.00  0.00     0.000 C 
BRANCH   7   8
ATOM      8  C   UNL     1     -28.924   8.790  -5.304  1.00  0.00     0.000 C 
BRANCH   8   9
ATOM      9  C   UNL     1     -30.362   8.264  -5.171  1.00  0.00     0.000 C 
BRANCH   9  10
ATOM     10  C   UNL     1     -31.011   7.964  -6.534  1.00  0.00     0.000 C 
BRANCH  10  11
ATOM     11  C   UNL     1     -31.295   9.237  -7.348  1.00  0.00     0.000 C 
BRANCH  11  12
ATOM     12  C   UNL     1     -32.763   9.701  -7.328  1.00  0.00     0.000 C 
BRANCH  12  13
ATOM     13  C   UNL     1     -33.766   8.604  -7.745  1.00  0.00     0.006 C 
BRANCH  13  14
ATOM     14  C   UNL     1     -33.253   7.757  -8.917  1.00  0.00     0.053 C 
BRANCH  14  15
ATOM     15  C   UNL     1     -33.796   6.365  -8.841  1.00  0.00     0.041 C 
ATOM     16  O   UNL     1     -34.125   5.872  -7.729  1.00  0.00    -0.550 OA
ATOM     17  O   UNL     1     -33.973   5.621 -10.002  1.00  0.00    -0.550 OA
ENDBRANCH  14  15
ENDBRANCH  13  14
ENDBRANCH  12  13
ENDBRANCH  11  12
ENDBRANCH  10  11
ENDBRANCH   9  10
ENDBRANCH   8   9
ENDBRANCH   7   8
ENDBRANCH   6   7
ENDBRANCH   5   6
ENDBRANCH   4   5
ENDBRANCH   3   4
ENDBRANCH   2   3
ENDBRANCH   1   2
BRANCH   1  18
ATOM     18  C   UNL     1     -25.262   8.179  -5.640  1.00  0.00     0.000 C 
BRANCH  18  19
ATOM     19  C   UNL     1     -26.268   7.019  -5.721  1.00  0.00     0.000 C 
BRANCH  19  20
ATOM     20  C   UNL     1     -25.613   5.677  -6.094  1.00  0.00     0.000 C 
BRANCH  20  21
ATOM     21  C   UNL     1     -24.245   5.401  -5.445  1.00  0.00     0.000 C 
BRANCH  21  22
ATOM     22  C   UNL     1     -23.180   4.945  -6.457  1.00  0.00     0.000 C 
BRANCH  22  23
ATOM     23  C   UNL     1     -22.220   6.077  -6.863  1.00  0.00     0.000 C 
BRANCH  23  24
ATOM     24  C   UNL     1     -22.325   7.363  -6.019  1.00  0.00    -0.000 C 
BRANCH  24  25
ATOM     25  C   UNL     1     -21.518   7.353  -4.705  1.00  0.00    -0.000 C 
BRANCH  25  26
ATOM     26  C   UNL     1     -20.170   8.099  -4.760  1.00  0.00    -0.000 C 
BRANCH  26  27
ATOM     27  C   UNL     1     -19.082   7.408  -5.602  1.00  0.00    -0.000 C 
BRANCH  27  28
ATOM     28  C   UNL     1     -18.922   5.917  -5.263  1.00  0.00    -0.000 C 
BRANCH  28  29
ATOM     29  C   UNL     1     -17.603   5.609  -4.527  1.00  0.00    -0.000 C 
BRANCH  29  30
ATOM     30  C   UNL     1     -16.400   5.328  -5.446  1.00  0.00    -0.000 C 
BRANCH  30  31
ATOM     31  C   UNL     1     -15.738   3.971  -5.170  1.00  0.00    -0.003 C 
ATOM     32  C   UNL     1     -15.816   3.062  -6.393  1.00  0.00     0.004 C 
ENDBRANCH  30  31
ENDBRANCH  29  30
ENDBRANCH  28  29
ENDBRANCH  27  28
ENDBRANCH  26  27
ENDBRANCH  25  26
ENDBRANCH  24  25
ENDBRANCH  23  24
ENDBRANCH  22  23
ENDBRANCH  21  22
ENDBRANCH  20  21
ENDBRANCH  19  20
ENDBRANCH  18  19
ENDBRANCH   1  18
TORSDOF 28
ENDMDL
MODEL 6
REMARK VINA RESULT:     8.912      2.514      6.983
REMARK INTER + INTRA:          23.713
REMARK INTER:                  23.953
REMARK INTRA:                  -0.240
REMARK UNBOUND:                 0.213
REMARK SMILES CCCCCCCCCCCCCCCCCCCCCCCCCCCCCC(=O)[O-]
REMARK SMILES IDX 16 1 17 2 18 3 19 4 20 5 21 6 22 7 23 8 24 9 25 10 26 11
REMARK SMILES IDX 27 12 28 13 29 14 30 15 31 16 32 17 15 18 14 19 13 20 12 21
REMARK SMILES IDX 11 22 10 23 9 24 8 25 7 26 6 27 5 28 4 29 3 30 2 31 1 32
REMARK H PARENT
REMARK Flexibility Score: inf
ROOT
ATOM      1  C   UNL     1     -28.129   4.159 -13.162  1.00  0.00     0.000 C 
ENDROOT
BRANCH   1   2
ATOM      2  C   UNL     1     -27.480   2.955 -12.446  1.00  0.00     0.000 C 
BRANCH   2   3
ATOM      3  C   UNL     1     -26.980   3.238 -11.015  1.00  0.00     0.000 C 
BRANCH   3   4
ATOM      4  C   UNL     1     -25.445   3.257 -10.852  1.00  0.00     0.000 C 
BRANCH   4   5
ATOM      5  C   UNL     1     -24.940   2.934  -9.435  1.00  0.00     0.000 C 
BRANCH   5   6
ATOM      6  C   UNL     1     -25.715   3.689  -8.341  1.00  0.00     0.000 C 
BRANCH   6   7
ATOM      7  C   UNL     1     -24.827   4.081  -7.150  1.00  0.00     0.000 C 
BRANCH   7   8
ATOM      8  C   UNL     1     -25.624   4.762  -6.022  1.00  0.00     0.000 C 
BRANCH   8   9
ATOM      9  C   UNL     1     -25.571   6.295  -6.107  1.00  0.00     0.000 C 
BRANCH   9  10
ATOM     10  C   UNL     1     -25.060   6.943  -4.809  1.00  0.00     0.000 C 
BRANCH  10  11
ATOM     11  C   UNL     1     -25.442   8.428  -4.696  1.00  0.00     0.000 C 
BRANCH  11  12
ATOM     12  C   UNL     1     -24.269   9.372  -4.371  1.00  0.00     0.000 C 
BRANCH  12  13
ATOM     13  C   UNL     1     -22.987   9.069  -5.174  1.00  0.00     0.006 C 
BRANCH  13  14
ATOM     14  C   UNL     1     -22.082   8.049  -4.470  1.00  0.00     0.053 C 
BRANCH  14  15
ATOM     15  C   UNL     1     -21.461   7.118  -5.463  1.00  0.00     0.041 C 
ATOM     16  O   UNL     1     -20.224   7.177  -5.699  1.00  0.00    -0.550 OA
ATOM     17  O   UNL     1     -22.240   6.162  -6.105  1.00  0.00    -0.550 OA
ENDBRANCH  14  15
ENDBRANCH  13  14
ENDBRANCH  12  13
ENDBRANCH  11  12
ENDBRANCH  10  11
ENDBRANCH   9  10
ENDBRANCH   8   9
ENDBRANCH   7   8
ENDBRANCH   6   7
ENDBRANCH   5   6
ENDBRANCH   4   5
ENDBRANCH   3   4
ENDBRANCH   2   3
ENDBRANCH   1   2
BRANCH   1  18
ATOM     18  C   UNL     1     -29.668   4.137 -13.216  1.00  0.00     0.000 C 
BRANCH  18  19
ATOM     19  C   UNL     1     -30.298   5.482 -12.812  1.00  0.00     0.000 C 
BRANCH  19  20
ATOM     20  C   UNL     1     -31.779   5.358 -12.411  1.00  0.00     0.000 C 
BRANCH  20  21
ATOM     21  C   UNL     1     -32.236   6.275 -11.262  1.00  0.00     0.000 C 
BRANCH  21  22
ATOM     22  C   UNL     1     -33.509   5.773 -10.561  1.00  0.00     0.000 C 
BRANCH  22  23
ATOM     23  C   UNL     1     -33.741   6.441  -9.194  1.00  0.00     0.000 C 
BRANCH  23  24
ATOM     24  C   UNL     1     -32.926   7.726  -8.945  1.00  0.00    -0.000 C 
BRANCH  24  25
ATOM     25  C   UNL     1     -33.530   8.696  -7.910  1.00  0.00    -0.000 C 
BRANCH  25  26
ATOM     26  C   UNL     1     -32.502   9.477  -7.067  1.00  0.00    -0.000 C 
BRANCH  26  27
ATOM     27  C   UNL     1     -31.057   8.954  -7.161  1.00  0.00    -0.000 C 
BRANCH  27  28
ATOM     28  C   UNL     1     -30.793   7.762  -6.224  1.00  0.00    -0.000 C 
BRANCH  28  29
ATOM     29  C   UNL     1     -30.358   8.197  -4.812  1.00  0.00    -0.000 C 
BRANCH  29  30
ATOM     30  C   UNL     1     -28.980   8.880  -4.739  1.00  0.00    -0.000 C 
BRANCH  30  31
ATOM     31  C   UNL     1     -28.199   8.796  -6.058  1.00  0.00    -0.003 C 
ATOM     32  C   UNL     1     -27.290  10.008  -6.237  1.00  0.00     0.004 C 
ENDBRANCH  30  31
ENDBRANCH  29  30
ENDBRANCH  28  29
ENDBRANCH  27  28
ENDBRANCH  26  27
ENDBRANCH  25  26
ENDBRANCH  24  25
ENDBRANCH  23  24
ENDBRANCH  22  23
ENDBRANCH  21  22
ENDBRANCH  20  21
ENDBRANCH  19  20
ENDBRANCH  18  19
ENDBRANCH   1  18
TORSDOF 28
ENDMDL
MODEL 7
REMARK VINA RESULT:     9.069      3.413      4.858
REMARK INTER + INTRA:          24.126
REMARK INTER:                  24.033
REMARK INTRA:                   0.093
REMARK UNBOUND:                 0.213
REMARK SMILES CCCCCCCCCCCCCCCCCCCCCCCCCCCCCC(=O)[O-]
REMARK SMILES IDX 16 1 17 2 18 3 19 4 20 5 21 6 22 7 23 8 24 9 25 10 26 11
REMARK SMILES IDX 27 12 28 13 29 14 30 15 31 16 32 17 15 18 14 19 13 20 12 21
REMARK SMILES IDX 11 22 10 23 9 24 8 25 7 26 6 27 5 28 4 29 3 30 2 31 1 32
REMARK H PARENT
REMARK Flexibility Score: inf
ROOT
ATOM      1  C   UNL     1     -26.341  10.870  -5.404  1.00  0.00     0.000 C 
ENDROOT
BRANCH   1   2
ATOM      2  C   UNL     1     -27.127   9.932  -6.345  1.00  0.00     0.000 C 
BRANCH   2   3
ATOM      3  C   UNL     1     -26.633   8.472  -6.374  1.00  0.00     0.000 C 
BRANCH   3   4
ATOM      4  C   UNL     1     -26.265   7.880  -4.997  1.00  0.00     0.000 C 
BRANCH   4   5
ATOM      5  C   UNL     1     -25.096   8.581  -4.281  1.00  0.00     0.000 C 
BRANCH   5   6
ATOM      6  C   UNL     1     -24.123   9.261  -5.261  1.00  0.00     0.000 C 
BRANCH   6   7
ATOM      7  C   UNL     1     -22.716   9.438  -4.668  1.00  0.00     0.000 C 
BRANCH   7   8
ATOM      8  C   UNL     1     -22.012   8.092  -4.416  1.00  0.00     0.000 C 
BRANCH   8   9
ATOM      9  C   UNL     1     -21.914   7.233  -5.686  1.00  0.00     0.000 C 
BRANCH   9  10
ATOM     10  C   UNL     1     -20.525   6.594  -5.863  1.00  0.00     0.000 C 
BRANCH  10  11
ATOM     11  C   UNL     1     -19.394   7.465  -5.292  1.00  0.00     0.000 C 
BRANCH  11  12
ATOM     12  C   UNL     1     -17.982   6.869  -5.447  1.00  0.00     0.000 C 
BRANCH  12  13
ATOM     13  C   UNL     1     -17.888   5.382  -5.045  1.00  0.00     0.006 C 
BRANCH  13  14
ATOM     14  C   UNL     1     -16.439   4.922  -4.839  1.00  0.00     0.053 C 
BRANCH  14  15
ATOM     15  C   UNL     1     -15.925   4.231  -6.063  1.00  0.00     0.041 C 
ATOM     16  O   UNL     1     -14.703   4.301  -6.364  1.00  0.00    -0.550 OA
ATOM     17  O   UNL     1     -16.787   3.481  -6.855  1.00  0.00    -0.550 OA
ENDBRANCH  14  15
ENDBRANCH  13  14
ENDBRANCH  12  13
ENDBRANCH  11  12
ENDBRANCH  10  11
ENDBRANCH   9  10
ENDBRANCH   8   9
ENDBRANCH   7   8
ENDBRANCH   6   7
ENDBRANCH   5   6
ENDBRANCH   4   5
ENDBRANCH   3   4
ENDBRANCH   2   3
ENDBRANCH   1   2
BRANCH   1  18
ATOM     18  C   UNL     1     -26.988  11.110  -4.027  1.00  0.00     0.000 C 
BRANCH  18  19
ATOM     19  C   UNL     1     -28.515  10.929  -4.046  1.00  0.00     0.000 C 
BRANCH  19  20
ATOM     20  C   UNL     1     -28.950   9.456  -3.936  1.00  0.00     0.000 C 
BRANCH  20  21
ATOM     21  C   UNL     1     -30.421   9.169  -4.284  1.00  0.00     0.000 C 
BRANCH  21  22
ATOM     22  C   UNL     1     -30.645   7.747  -4.826  1.00  0.00     0.000 C 
BRANCH  22  23
ATOM     23  C   UNL     1     -30.203   7.591  -6.291  1.00  0.00     0.000 C 
BRANCH  23  24
ATOM     24  C   UNL     1     -30.662   8.716  -7.240  1.00  0.00    -0.000 C 
BRANCH  24  25
ATOM     25  C   UNL     1     -32.034   8.493  -7.907  1.00  0.00    -0.000 C 
BRANCH  25  26
ATOM     26  C   UNL     1     -33.103   7.845  -7.004  1.00  0.00    -0.000 C 
BRANCH  26  27
ATOM     27  C   UNL     1     -34.125   6.963  -7.743  1.00  0.00    -0.000 C 
BRANCH  27  28
ATOM     28  C   UNL     1     -33.616   5.531  -7.979  1.00  0.00    -0.000 C 
BRANCH  28  29
ATOM     29  C   UNL     1     -33.623   5.131  -9.467  1.00  0.00    -0.000 C 
BRANCH  29  30
ATOM     30  C   UNL     1     -32.464   5.711 -10.299  1.00  0.00    -0.000 C 
BRANCH  30  31
ATOM     31  C   UNL     1     -32.799   5.834 -11.792  1.00  0.00    -0.003 C 
ATOM     32  C   UNL     1     -34.070   5.063 -12.136  1.00  0.00     0.004 C 
ENDBRANCH  30  31
ENDBRANCH  29  30
ENDBRANCH  28  29
ENDBRANCH  27  28
ENDBRANCH  26  27
ENDBRANCH  25  26
ENDBRANCH  24  25
ENDBRANCH  23  24
ENDBRANCH  22  23
ENDBRANCH  21  22
ENDBRANCH  20  21
ENDBRANCH  19  20
ENDBRANCH  18  19
ENDBRANCH   1  18
TORSDOF 28
ENDMDL
MODEL 8
REMARK VINA RESULT:     9.198      3.701      6.758
REMARK INTER + INTRA:          24.467
REMARK INTER:                  24.763
REMARK INTRA:                  -0.297
REMARK UNBOUND:                 0.213
REMARK SMILES CCCCCCCCCCCCCCCCCCCCCCCCCCCCCC(=O)[O-]
REMARK SMILES IDX 16 1 17 2 18 3 19 4 20 5 21 6 22 7 23 8 24 9 25 10 26 11
REMARK SMILES IDX 27 12 28 13 29 14 30 15 31 16 32 17 15 18 14 19 13 20 12 21
REMARK SMILES IDX 11 22 10 23 9 24 8 25 7 26 6 27 5 28 4 29 3 30 2 31 1 32
REMARK H PARENT
REMARK Flexibility Score: inf
ROOT
ATOM      1  C   UNL     1     -25.963   7.351  -5.686  1.00  0.00     0.000 C 
ENDROOT
BRANCH   1   2
ATOM      2  C   UNL     1     -26.251   5.856  -5.431  1.00  0.00     0.000 C 
BRANCH   2   3
ATOM      3  C   UNL     1     -25.279   4.877  -6.120  1.00  0.00     0.000 C 
BRANCH   3   4
ATOM      4  C   UNL     1     -24.104   5.541  -6.867  1.00  0.00     0.000 C 
BRANCH   4   5
ATOM      5  C   UNL     1     -22.756   4.808  -6.738  1.00  0.00     0.000 C 
BRANCH   5   6
ATOM      6  C   UNL     1     -21.762   5.552  -5.828  1.00  0.00     0.000 C 
BRANCH   6   7
ATOM      7  C   UNL     1     -22.008   7.068  -5.799  1.00  0.00     0.000 C 
BRANCH   7   8
ATOM      8  C   UNL     1     -20.769   7.855  -5.330  1.00  0.00     0.000 C 
BRANCH   8   9
ATOM      9  C   UNL     1     -19.507   7.495  -6.129  1.00  0.00     0.000 C 
BRANCH   9  10
ATOM     10  C   UNL     1     -18.211   7.857  -5.382  1.00  0.00     0.000 C 
BRANCH  10  11
ATOM     11  C   UNL     1     -17.777   6.770  -4.385  1.00  0.00     0.000 C 
BRANCH  11  12
ATOM     12  C   UNL     1     -17.603   5.367  -4.997  1.00  0.00     0.000 C 
BRANCH  12  13
ATOM     13  C   UNL     1     -16.556   4.498  -4.269  1.00  0.00     0.006 C 
BRANCH  13  14
ATOM     14  C   UNL     1     -15.770   3.598  -5.232  1.00  0.00     0.053 C 
BRANCH  14  15
ATOM     15  C   UNL     1     -15.923   4.074  -6.643  1.00  0.00     0.041 C 
ATOM     16  O   UNL     1     -15.212   5.023  -7.072  1.00  0.00    -0.550 OA
ATOM     17  O   UNL     1     -16.825   3.449  -7.496  1.00  0.00    -0.550 OA
ENDBRANCH  14  15
ENDBRANCH  13  14
ENDBRANCH  12  13
ENDBRANCH  11  12
ENDBRANCH  10  11
ENDBRANCH   9  10
ENDBRANCH   8   9
ENDBRANCH   7   8
ENDBRANCH   6   7
ENDBRANCH   5   6
ENDBRANCH   4   5
ENDBRANCH   3   4
ENDBRANCH   2   3
ENDBRANCH   1   2
BRANCH   1  18
ATOM     18  C   UNL     1     -24.762   7.928  -4.914  1.00  0.00     0.000 C 
BRANCH  18  19
ATOM     19  C   UNL     1     -25.154   9.087  -3.981  1.00  0.00     0.000 C 
BRANCH  19  20
ATOM     20  C   UNL     1     -24.293  10.347  -4.189  1.00  0.00     0.000 C 
BRANCH  20  21
ATOM     21  C   UNL     1     -24.326  10.948  -5.605  1.00  0.00     0.000 C 
BRANCH  21  22
ATOM     22  C   UNL     1     -25.741  10.995  -6.206  1.00  0.00     0.000 C 
BRANCH  22  23
ATOM     23  C   UNL     1     -26.845  10.842  -5.145  1.00  0.00     0.000 C 
BRANCH  23  24
ATOM     24  C   UNL     1     -27.945   9.816  -5.484  1.00  0.00    -0.000 C 
BRANCH  24  25
ATOM     25  C   UNL     1     -28.584   9.114  -4.270  1.00  0.00    -0.000 C 
BRANCH  25  26
ATOM     26  C   UNL     1     -29.772   8.188  -4.600  1.00  0.00    -0.000 C 
BRANCH  26  27
ATOM     27  C   UNL     1     -30.116   8.085  -6.097  1.00  0.00    -0.000 C 
BRANCH  27  28
ATOM     28  C   UNL     1     -31.507   8.651  -6.429  1.00  0.00    -0.000 C 
BRANCH  28  29
ATOM     29  C   UNL     1     -31.745   8.801  -7.944  1.00  0.00    -0.000 C 
BRANCH  29  30
ATOM     30  C   UNL     1     -33.175   8.473  -8.411  1.00  0.00    -0.000 C 
BRANCH  30  31
ATOM     31  C   UNL     1     -33.362   6.993  -8.776  1.00  0.00    -0.003 C 
ATOM     32  C   UNL     1     -33.700   6.161  -7.543  1.00  0.00     0.004 C 
ENDBRANCH  30  31
ENDBRANCH  29  30
ENDBRANCH  28  29
ENDBRANCH  27  28
ENDBRANCH  26  27
ENDBRANCH  25  26
ENDBRANCH  24  25
ENDBRANCH  23  24
ENDBRANCH  22  23
ENDBRANCH  21  22
ENDBRANCH  20  21
ENDBRANCH  19  20
ENDBRANCH  18  19
ENDBRANCH   1  18
TORSDOF 28
ENDMDL
