MODEL 1
REMARK VINA RESULT:     5.584      0.000      0.000
REMARK INTER + INTRA:          12.962
REMARK INTER:                  14.070
REMARK INTRA:                  -1.108
REMARK UNBOUND:                -1.108
REMARK SMILES CCCCCCCCCCCCCCCCCCCCCCCCCCCC(=O)[O-]
REMARK SMILES IDX 15 1 16 2 17 3 18 4 19 5 20 6 21 7 22 8 23 9 24 10 25 11
REMARK SMILES IDX 26 12 27 13 28 14 29 15 30 16 14 17 13 18 12 19 11 20 10 21
REMARK SMILES IDX 9 22 8 23 7 24 6 25 5 26 4 27 3 28 2 29 1 30
REMARK H PARENT
REMARK Flexibility Score: inf
ROOT
ATOM      1  C   UNL     1       5.987  77.887   0.903  1.00  0.00     0.000 C 
ENDROOT
BRANCH   1   2
ATOM      2  C   UNL     1       6.682  76.536   0.634  1.00  0.00     0.000 C 
BRANCH   2   3
ATOM      3  C   UNL     1       5.793  75.296   0.837  1.00  0.00     0.000 C 
BRANCH   3   4
ATOM      4  C   UNL     1       6.511  73.985   0.489  1.00  0.00     0.000 C 
BRANCH   4   5
ATOM      5  C   UNL     1       8.025  74.204   0.381  1.00  0.00     0.000 C 
BRANCH   5   6
ATOM      6  C   UNL     1       8.733  73.845   1.696  1.00  0.00     0.000 C 
BRANCH   6   7
ATOM      7  C   UNL     1       9.981  74.706   1.951  1.00  0.00     0.000 C 
BRANCH   7   8
ATOM      8  C   UNL     1      11.011  73.999   2.849  1.00  0.00     0.000 C 
BRANCH   8   9
ATOM      9  C   UNL     1      12.453  74.143   2.329  1.00  0.00     0.000 C 
BRANCH   9  10
ATOM     10  C   UNL     1      12.989  75.587   2.269  1.00  0.00     0.000 C 
BRANCH  10  11
ATOM     11  C   UNL     1      14.120  75.907   3.263  1.00  0.00     0.000 C 
BRANCH  11  12
ATOM     12  C   UNL     1      14.386  74.762   4.252  1.00  0.00     0.006 C 
BRANCH  12  13
ATOM     13  C   UNL     1      13.843  75.101   5.642  1.00  0.00     0.053 C 
BRANCH  13  14
ATOM     14  C   UNL     1      14.523  74.277   6.690  1.00  0.00     0.041 C 
ATOM     15  O   UNL     1      14.806  74.784   7.808  1.00  0.00    -0.550 OA
ATOM     16  O   UNL     1      14.805  72.938   6.449  1.00  0.00    -0.550 OA
ENDBRANCH  13  14
ENDBRANCH  12  13
ENDBRANCH  11  12
ENDBRANCH  10  11
ENDBRANCH   9  10
ENDBRANCH   8   9
ENDBRANCH   7   8
ENDBRANCH   6   7
ENDBRANCH   5   6
ENDBRANCH   4   5
ENDBRANCH   3   4
ENDBRANCH   2   3
ENDBRANCH   1   2
BRANCH   1  17
ATOM     17  C   UNL     1       5.580  78.135   2.369  1.00  0.00     0.000 C 
BRANCH  17  18
ATOM     18  C   UNL     1       5.004  76.906   3.101  1.00  0.00     0.000 C 
BRANCH  18  19
ATOM     19  C   UNL     1       5.403  76.788   4.584  1.00  0.00     0.000 C 
BRANCH  19  20
ATOM     20  C   UNL     1       4.247  76.985   5.585  1.00  0.00     0.000 C 
BRANCH  20  21
ATOM     21  C   UNL     1       2.975  77.628   4.996  1.00  0.00     0.000 C 
BRANCH  21  22
ATOM     22  C   UNL     1       1.649  77.074   5.549  1.00  0.00    -0.000 C 
BRANCH  22  23
ATOM     23  C   UNL     1       1.198  77.777   6.837  1.00  0.00    -0.000 C 
BRANCH  23  24
ATOM     24  C   UNL     1       2.148  78.929   7.195  1.00  0.00    -0.000 C 
BRANCH  24  25
ATOM     25  C   UNL     1       2.766  78.787   8.598  1.00  0.00    -0.000 C 
BRANCH  25  26
ATOM     26  C   UNL     1       3.077  77.341   9.043  1.00  0.00    -0.000 C 
BRANCH  26  27
ATOM     27  C   UNL     1       3.468  77.188  10.526  1.00  0.00    -0.000 C 
BRANCH  27  28
ATOM     28  C   UNL     1       3.765  78.531  11.230  1.00  0.00    -0.000 C 
BRANCH  28  29
ATOM     29  C   UNL     1       5.016  78.487  12.124  1.00  0.00    -0.003 C 
ATOM     30  C   UNL     1       6.203  77.802  11.447  1.00  0.00     0.004 C 
ENDBRANCH  28  29
ENDBRANCH  27  28
ENDBRANCH  26  27
ENDBRANCH  25  26
ENDBRANCH  24  25
ENDBRANCH  23  24
ENDBRANCH  22  23
ENDBRANCH  21  22
ENDBRANCH  20  21
ENDBRANCH  19  20
ENDBRANCH  18  19
ENDBRANCH  17  18
ENDBRANCH   1  17
TORSDOF 26
ENDMDL
MODEL 2
REMARK VINA RESULT:     5.918      3.319     10.065
REMARK INTER + INTRA:          13.804
REMARK INTER:                  14.858
REMARK INTRA:                  -1.054
REMARK UNBOUND:                -1.108
REMARK SMILES CCCCCCCCCCCCCCCCCCCCCCCCCCCC(=O)[O-]
REMARK SMILES IDX 15 1 16 2 17 3 18 4 19 5 20 6 21 7 22 8 23 9 24 10 25 11
REMARK SMILES IDX 26 12 27 13 28 14 29 15 30 16 14 17 13 18 12 19 11 20 10 21
REMARK SMILES IDX 9 22 8 23 7 24 6 25 5 26 4 27 3 28 2 29 1 30
REMARK H PARENT
REMARK Flexibility Score: inf
ROOT
ATOM      1  C   UNL     1       6.705  76.708   0.244  1.00  0.00     0.000 C 
ENDROOT
BRANCH   1   2
ATOM      2  C   UNL     1       5.766  77.854   0.674  1.00  0.00     0.000 C 
BRANCH   2   3
ATOM      3  C   UNL     1       5.734  78.136   2.186  1.00  0.00     0.000 C 
BRANCH   3   4
ATOM      4  C   UNL     1       5.179  76.960   3.001  1.00  0.00     0.000 C 
BRANCH   4   5
ATOM      5  C   UNL     1       5.151  77.297   4.496  1.00  0.00     0.000 C 
BRANCH   5   6
ATOM      6  C   UNL     1       3.836  76.839   5.144  1.00  0.00     0.000 C 
BRANCH   6   7
ATOM      7  C   UNL     1       2.608  77.570   4.574  1.00  0.00     0.000 C 
BRANCH   7   8
ATOM      8  C   UNL     1       1.471  77.702   5.601  1.00  0.00     0.000 C 
BRANCH   8   9
ATOM      9  C   UNL     1       1.881  78.511   6.845  1.00  0.00     0.000 C 
BRANCH   9  10
ATOM     10  C   UNL     1       2.010  77.696   8.147  1.00  0.00     0.000 C 
BRANCH  10  11
ATOM     11  C   UNL     1       3.357  76.976   8.336  1.00  0.00     0.000 C 
BRANCH  11  12
ATOM     12  C   UNL     1       4.405  77.846   9.045  1.00  0.00     0.006 C 
BRANCH  12  13
ATOM     13  C   UNL     1       3.737  78.981   9.827  1.00  0.00     0.053 C 
BRANCH  13  14
ATOM     14  C   UNL     1       3.766  78.697  11.296  1.00  0.00     0.041 C 
ATOM     15  O   UNL     1       2.826  78.055  11.836  1.00  0.00    -0.550 OA
ATOM     16  O   UNL     1       4.853  79.102  12.062  1.00  0.00    -0.550 OA
ENDBRANCH  13  14
ENDBRANCH  12  13
ENDBRANCH  11  12
ENDBRANCH  10  11
ENDBRANCH   9  10
ENDBRANCH   8   9
ENDBRANCH   7   8
ENDBRANCH   6   7
ENDBRANCH   5   6
ENDBRANCH   4   5
ENDBRANCH   3   4
ENDBRANCH   2   3
ENDBRANCH   1   2
BRANCH   1  17
ATOM     17  C   UNL     1       6.238  75.294   0.641  1.00  0.00     0.000 C 
BRANCH  17  18
ATOM     18  C   UNL     1       7.368  74.258   0.810  1.00  0.00     0.000 C 
BRANCH  18  19
ATOM     19  C   UNL     1       8.615  74.774   1.552  1.00  0.00     0.000 C 
BRANCH  19  20
ATOM     20  C   UNL     1       9.652  73.690   1.910  1.00  0.00     0.000 C 
BRANCH  20  21
ATOM     21  C   UNL     1      10.975  74.221   2.499  1.00  0.00     0.000 C 
BRANCH  21  22
ATOM     22  C   UNL     1      12.245  73.524   1.978  1.00  0.00    -0.000 C 
BRANCH  22  23
ATOM     23  C   UNL     1      13.505  74.390   2.121  1.00  0.00    -0.000 C 
BRANCH  23  24
ATOM     24  C   UNL     1      13.184  75.871   1.873  1.00  0.00    -0.000 C 
BRANCH  24  25
ATOM     25  C   UNL     1      13.557  76.777   3.060  1.00  0.00    -0.000 C 
BRANCH  25  26
ATOM     26  C   UNL     1      14.554  76.168   4.071  1.00  0.00    -0.000 C 
BRANCH  26  27
ATOM     27  C   UNL     1      13.911  75.318   5.185  1.00  0.00    -0.000 C 
BRANCH  27  28
ATOM     28  C   UNL     1      14.548  73.918   5.340  1.00  0.00    -0.000 C 
BRANCH  28  29
ATOM     29  C   UNL     1      14.647  73.452   6.803  1.00  0.00    -0.003 C 
ATOM     30  C   UNL     1      14.413  74.586   7.802  1.00  0.00     0.004 C 
ENDBRANCH  28  29
ENDBRANCH  27  28
ENDBRANCH  26  27
ENDBRANCH  25  26
ENDBRANCH  24  25
ENDBRANCH  23  24
ENDBRANCH  22  23
ENDBRANCH  21  22
ENDBRANCH  20  21
ENDBRANCH  19  20
ENDBRANCH  18  19
ENDBRANCH  17  18
ENDBRANCH   1  17
TORSDOF 26
ENDMDL
MODEL 3
REMARK VINA RESULT:     6.394      3.291      9.831
REMARK INTER + INTRA:          15.005
REMARK INTER:                  14.459
REMARK INTRA:                   0.545
REMARK UNBOUND:                -1.108
REMARK SMILES CCCCCCCCCCCCCCCCCCCCCCCCCCCC(=O)[O-]
REMARK SMILES IDX 15 1 16 2 17 3 18 4 19 5 20 6 21 7 22 8 23 9 24 10 25 11
REMARK SMILES IDX 26 12 27 13 28 14 29 15 30 16 14 17 13 18 12 19 11 20 10 21
REMARK SMILES IDX 9 22 8 23 7 24 6 25 5 26 4 27 3 28 2 29 1 30
REMARK H PARENT
REMARK Flexibility Score: inf
ROOT
ATOM      1  C   UNL     1       5.456  73.400  -0.308  1.00  0.00     0.000 C 
ENDROOT
BRANCH   1   2
ATOM      2  C   UNL     1       4.698  74.729  -0.114  1.00  0.00     0.000 C 
BRANCH   2   3
ATOM      3  C   UNL     1       5.242  75.630   1.009  1.00  0.00     0.000 C 
BRANCH   3   4
ATOM      4  C   UNL     1       5.772  76.974   0.491  1.00  0.00     0.000 C 
BRANCH   4   5
ATOM      5  C   UNL     1       6.440  77.768   1.620  1.00  0.00     0.000 C 
BRANCH   5   6
ATOM      6  C   UNL     1       5.423  78.154   2.704  1.00  0.00     0.000 C 
BRANCH   6   7
ATOM      7  C   UNL     1       5.015  76.962   3.586  1.00  0.00     0.000 C 
BRANCH   7   8
ATOM      8  C   UNL     1       4.455  77.401   4.950  1.00  0.00     0.000 C 
BRANCH   8   9
ATOM      9  C   UNL     1       3.026  76.885   5.200  1.00  0.00     0.000 C 
BRANCH   9  10
ATOM     10  C   UNL     1       1.909  77.933   5.025  1.00  0.00     0.000 C 
BRANCH  10  11
ATOM     11  C   UNL     1       1.582  78.756   6.283  1.00  0.00     0.000 C 
BRANCH  11  12
ATOM     12  C   UNL     1       1.879  77.999   7.586  1.00  0.00     0.006 C 
BRANCH  12  13
ATOM     13  C   UNL     1       3.218  78.439   8.184  1.00  0.00     0.053 C 
BRANCH  13  14
ATOM     14  C   UNL     1       3.623  77.527   9.299  1.00  0.00     0.041 C 
ATOM     15  O   UNL     1       4.213  77.989  10.312  1.00  0.00    -0.550 OA
ATOM     16  O   UNL     1       3.310  76.174   9.240  1.00  0.00    -0.550 OA
ENDBRANCH  13  14
ENDBRANCH  12  13
ENDBRANCH  11  12
ENDBRANCH  10  11
ENDBRANCH   9  10
ENDBRANCH   8   9
ENDBRANCH   7   8
ENDBRANCH   6   7
ENDBRANCH   5   6
ENDBRANCH   4   5
ENDBRANCH   3   4
ENDBRANCH   2   3
ENDBRANCH   1   2
BRANCH   1  17
ATOM     17  C   UNL     1       6.791  73.289   0.455  1.00  0.00     0.000 C 
BRANCH  17  18
ATOM     18  C   UNL     1       7.688  74.541   0.384  1.00  0.00     0.000 C 
BRANCH  18  19
ATOM     19  C   UNL     1       8.727  74.661   1.514  1.00  0.00     0.000 C 
BRANCH  19  20
ATOM     20  C   UNL     1       9.847  73.601   1.482  1.00  0.00     0.000 C 
BRANCH  20  21
ATOM     21  C   UNL     1      10.717  73.531   2.753  1.00  0.00     0.000 C 
BRANCH  21  22
ATOM     22  C   UNL     1      11.749  74.664   2.899  1.00  0.00    -0.000 C 
BRANCH  22  23
ATOM     23  C   UNL     1      12.860  74.602   1.841  1.00  0.00    -0.000 C 
BRANCH  23  24
ATOM     24  C   UNL     1      13.467  75.992   1.600  1.00  0.00    -0.000 C 
BRANCH  24  25
ATOM     25  C   UNL     1      14.713  76.262   2.461  1.00  0.00    -0.000 C 
BRANCH  25  26
ATOM     26  C   UNL     1      14.962  75.254   3.605  1.00  0.00    -0.000 C 
BRANCH  26  27
ATOM     27  C   UNL     1      14.174  75.533   4.900  1.00  0.00    -0.000 C 
BRANCH  27  28
ATOM     28  C   UNL     1      14.086  74.315   5.846  1.00  0.00    -0.000 C 
BRANCH  28  29
ATOM     29  C   UNL     1      14.809  74.529   7.187  1.00  0.00    -0.003 C 
ATOM     30  C   UNL     1      15.115  73.218   7.910  1.00  0.00     0.004 C 
ENDBRANCH  28  29
ENDBRANCH  27  28
ENDBRANCH  26  27
ENDBRANCH  25  26
ENDBRANCH  24  25
ENDBRANCH  23  24
ENDBRANCH  22  23
ENDBRANCH  21  22
ENDBRANCH  20  21
ENDBRANCH  19  20
ENDBRANCH  18  19
ENDBRANCH  17  18
ENDBRANCH   1  17
TORSDOF 26
ENDMDL
MODEL 4
REMARK VINA RESULT:     6.484      2.775      9.694
REMARK INTER + INTRA:          15.232
REMARK INTER:                  16.202
REMARK INTRA:                  -0.970
REMARK UNBOUND:                -1.108
REMARK SMILES CCCCCCCCCCCCCCCCCCCCCCCCCCCC(=O)[O-]
REMARK SMILES IDX 15 1 16 2 17 3 18 4 19 5 20 6 21 7 22 8 23 9 24 10 25 11
REMARK SMILES IDX 26 12 27 13 28 14 29 15 30 16 14 17 13 18 12 19 11 20 10 21
REMARK SMILES IDX 9 22 8 23 7 24 6 25 5 26 4 27 3 28 2 29 1 30
REMARK H PARENT
REMARK Flexibility Score: inf
ROOT
ATOM      1  C   UNL     1       5.662  78.085   1.340  1.00  0.00     0.000 C 
ENDROOT
BRANCH   1   2
ATOM      2  C   UNL     1       5.074  78.346   2.741  1.00  0.00     0.000 C 
BRANCH   2   3
ATOM      3  C   UNL     1       5.302  77.218   3.763  1.00  0.00     0.000 C 
BRANCH   3   4
ATOM      4  C   UNL     1       4.052  76.907   4.597  1.00  0.00     0.000 C 
BRANCH   4   5
ATOM      5  C   UNL     1       2.986  77.992   4.406  1.00  0.00     0.000 C 
BRANCH   5   6
ATOM      6  C   UNL     1       1.637  77.555   4.998  1.00  0.00     0.000 C 
BRANCH   6   7
ATOM      7  C   UNL     1       1.595  77.675   6.531  1.00  0.00     0.000 C 
BRANCH   7   8
ATOM      8  C   UNL     1       2.236  76.467   7.235  1.00  0.00     0.000 C 
BRANCH   8   9
ATOM      9  C   UNL     1       3.169  76.876   8.390  1.00  0.00     0.000 C 
BRANCH   9  10
ATOM     10  C   UNL     1       3.297  78.394   8.624  1.00  0.00     0.000 C 
BRANCH  10  11
ATOM     11  C   UNL     1       3.279  78.831  10.100  1.00  0.00     0.000 C 
BRANCH  11  12
ATOM     12  C   UNL     1       2.925  77.684  11.058  1.00  0.00     0.006 C 
BRANCH  12  13
ATOM     13  C   UNL     1       4.008  77.506  12.125  1.00  0.00     0.053 C 
BRANCH  13  14
ATOM     14  C   UNL     1       5.337  77.962  11.609  1.00  0.00     0.041 C 
ATOM     15  O   UNL     1       5.749  79.125  11.863  1.00  0.00    -0.550 OA
ATOM     16  O   UNL     1       6.140  77.088  10.887  1.00  0.00    -0.550 OA
ENDBRANCH  13  14
ENDBRANCH  12  13
ENDBRANCH  11  12
ENDBRANCH  10  11
ENDBRANCH   9  10
ENDBRANCH   8   9
ENDBRANCH   7   8
ENDBRANCH   6   7
ENDBRANCH   5   6
ENDBRANCH   4   5
ENDBRANCH   3   4
ENDBRANCH   2   3
ENDBRANCH   1   2
BRANCH   1  17
ATOM     17  C   UNL     1       6.261  76.680   1.131  1.00  0.00     0.000 C 
BRANCH  17  18
ATOM     18  C   UNL     1       5.364  75.700   0.349  1.00  0.00     0.000 C 
BRANCH  18  19
ATOM     19  C   UNL     1       5.648  74.209   0.613  1.00  0.00     0.000 C 
BRANCH  19  20
ATOM     20  C   UNL     1       7.113  73.778   0.396  1.00  0.00     0.000 C 
BRANCH  20  21
ATOM     21  C   UNL     1       8.113  74.312   1.442  1.00  0.00     0.000 C 
BRANCH  21  22
ATOM     22  C   UNL     1       9.582  73.925   1.194  1.00  0.00    -0.000 C 
BRANCH  22  23
ATOM     23  C   UNL     1      10.346  73.616   2.490  1.00  0.00    -0.000 C 
BRANCH  23  24
ATOM     24  C   UNL     1      11.805  74.087   2.393  1.00  0.00    -0.000 C 
BRANCH  24  25
ATOM     25  C   UNL     1      12.415  74.443   3.760  1.00  0.00    -0.000 C 
BRANCH  25  26
ATOM     26  C   UNL     1      13.643  75.380   3.715  1.00  0.00    -0.000 C 
BRANCH  26  27
ATOM     27  C   UNL     1      14.672  75.157   4.840  1.00  0.00    -0.000 C 
BRANCH  27  28
ATOM     28  C   UNL     1      14.166  75.585   6.236  1.00  0.00    -0.000 C 
BRANCH  28  29
ATOM     29  C   UNL     1      13.960  74.403   7.199  1.00  0.00    -0.003 C 
ATOM     30  C   UNL     1      14.889  73.227   6.900  1.00  0.00     0.004 C 
ENDBRANCH  28  29
ENDBRANCH  27  28
ENDBRANCH  26  27
ENDBRANCH  25  26
ENDBRANCH  24  25
ENDBRANCH  23  24
ENDBRANCH  22  23
ENDBRANCH  21  22
ENDBRANCH  20  21
ENDBRANCH  19  20
ENDBRANCH  18  19
ENDBRANCH  17  18
ENDBRANCH   1  17
TORSDOF 26
ENDMDL
MODEL 5
REMARK VINA RESULT:     6.926      3.223     10.151
REMARK INTER + INTRA:          16.344
REMARK INTER:                  17.164
REMARK INTRA:                  -0.820
REMARK UNBOUND:                -1.108
REMARK SMILES CCCCCCCCCCCCCCCCCCCCCCCCCCCC(=O)[O-]
REMARK SMILES IDX 15 1 16 2 17 3 18 4 19 5 20 6 21 7 22 8 23 9 24 10 25 11
REMARK SMILES IDX 26 12 27 13 28 14 29 15 30 16 14 17 13 18 12 19 11 20 10 21
REMARK SMILES IDX 9 22 8 23 7 24 6 25 5 26 4 27 3 28 2 29 1 30
REMARK H PARENT
REMARK Flexibility Score: inf
ROOT
ATOM      1  C   UNL     1       5.631  78.113   1.346  1.00  0.00     0.000 C 
ENDROOT
BRANCH   1   2
ATOM      2  C   UNL     1       5.099  78.349   2.773  1.00  0.00     0.000 C 
BRANCH   2   3
ATOM      3  C   UNL     1       5.386  77.213   3.771  1.00  0.00     0.000 C 
BRANCH   3   4
ATOM      4  C   UNL     1       4.286  77.059   4.831  1.00  0.00     0.000 C 
BRANCH   4   5
ATOM      5  C   UNL     1       3.012  77.798   4.407  1.00  0.00     0.000 C 
BRANCH   5   6
ATOM      6  C   UNL     1       1.775  77.217   5.108  1.00  0.00     0.000 C 
BRANCH   6   7
ATOM      7  C   UNL     1       1.686  77.624   6.588  1.00  0.00     0.000 C 
BRANCH   7   8
ATOM      8  C   UNL     1       2.188  76.520   7.535  1.00  0.00     0.000 C 
BRANCH   8   9
ATOM      9  C   UNL     1       3.366  76.978   8.413  1.00  0.00     0.000 C 
BRANCH   9  10
ATOM     10  C   UNL     1       3.637  78.496   8.410  1.00  0.00     0.000 C 
BRANCH  10  11
ATOM     11  C   UNL     1       3.849  79.124   9.799  1.00  0.00     0.000 C 
BRANCH  11  12
ATOM     12  C   UNL     1       2.598  79.051  10.686  1.00  0.00     0.006 C 
BRANCH  12  13
ATOM     13  C   UNL     1       2.960  78.633  12.113  1.00  0.00     0.053 C 
BRANCH  13  14
ATOM     14  C   UNL     1       4.014  77.571  12.101  1.00  0.00     0.041 C 
ATOM     15  O   UNL     1       5.233  77.888  12.115  1.00  0.00    -0.550 OA
ATOM     16  O   UNL     1       3.650  76.230  12.120  1.00  0.00    -0.550 OA
ENDBRANCH  13  14
ENDBRANCH  12  13
ENDBRANCH  11  12
ENDBRANCH  10  11
ENDBRANCH   9  10
ENDBRANCH   8   9
ENDBRANCH   7   8
ENDBRANCH   6   7
ENDBRANCH   5   6
ENDBRANCH   4   5
ENDBRANCH   3   4
ENDBRANCH   2   3
ENDBRANCH   1   2
BRANCH   1  17
ATOM     17  C   UNL     1       6.103  76.674   1.051  1.00  0.00     0.000 C 
BRANCH  17  18
ATOM     18  C   UNL     1       5.174  75.861   0.128  1.00  0.00     0.000 C 
BRANCH  18  19
ATOM     19  C   UNL     1       5.240  74.334   0.323  1.00  0.00     0.000 C 
BRANCH  19  20
ATOM     20  C   UNL     1       6.654  73.727   0.221  1.00  0.00     0.000 C 
BRANCH  20  21
ATOM     21  C   UNL     1       7.729  74.428   1.077  1.00  0.00     0.000 C 
BRANCH  21  22
ATOM     22  C   UNL     1       9.066  73.672   1.190  1.00  0.00    -0.000 C 
BRANCH  22  23
ATOM     23  C   UNL     1       9.704  73.791   2.582  1.00  0.00    -0.000 C 
BRANCH  23  24
ATOM     24  C   UNL     1      11.237  73.809   2.483  1.00  0.00    -0.000 C 
BRANCH  24  25
ATOM     25  C   UNL     1      11.916  74.367   3.746  1.00  0.00    -0.000 C 
BRANCH  25  26
ATOM     26  C   UNL     1      13.445  74.563   3.646  1.00  0.00    -0.000 C 
BRANCH  26  27
ATOM     27  C   UNL     1      13.925  76.020   3.797  1.00  0.00    -0.000 C 
BRANCH  27  28
ATOM     28  C   UNL     1      14.409  76.653   2.472  1.00  0.00    -0.000 C 
BRANCH  28  29
ATOM     29  C   UNL     1      13.931  75.894   1.223  1.00  0.00    -0.003 C 
ATOM     30  C   UNL     1      14.015  76.737  -0.049  1.00  0.00     0.004 C 
ENDBRANCH  28  29
ENDBRANCH  27  28
ENDBRANCH  26  27
ENDBRANCH  25  26
ENDBRANCH  24  25
ENDBRANCH  23  24
ENDBRANCH  22  23
ENDBRANCH  21  22
ENDBRANCH  20  21
ENDBRANCH  19  20
ENDBRANCH  18  19
ENDBRANCH  17  18
ENDBRANCH   1  17
TORSDOF 26
ENDMDL
MODEL 6
REMARK VINA RESULT:     6.949      0.908      1.649
REMARK INTER + INTRA:          16.404
REMARK INTER:                  16.653
REMARK INTRA:                  -0.249
REMARK UNBOUND:                -1.108
REMARK SMILES CCCCCCCCCCCCCCCCCCCCCCCCCCCC(=O)[O-]
REMARK SMILES IDX 15 1 16 2 17 3 18 4 19 5 20 6 21 7 22 8 23 9 24 10 25 11
REMARK SMILES IDX 26 12 27 13 28 14 29 15 30 16 14 17 13 18 12 19 11 20 10 21
REMARK SMILES IDX 9 22 8 23 7 24 6 25 5 26 4 27 3 28 2 29 1 30
REMARK H PARENT
REMARK Flexibility Score: inf
ROOT
ATOM      1  C   UNL     1       5.207  75.704   0.904  1.00  0.00     0.000 C 
ENDROOT
BRANCH   1   2
ATOM      2  C   UNL     1       5.807  74.357   0.452  1.00  0.00     0.000 C 
BRANCH   2   3
ATOM      3  C   UNL     1       7.344  74.321   0.376  1.00  0.00     0.000 C 
BRANCH   3   4
ATOM      4  C   UNL     1       7.992  73.780   1.658  1.00  0.00     0.000 C 
BRANCH   4   5
ATOM      5  C   UNL     1       9.455  74.227   1.760  1.00  0.00     0.000 C 
BRANCH   5   6
ATOM      6  C   UNL     1      10.309  73.170   2.477  1.00  0.00     0.000 C 
BRANCH   6   7
ATOM      7  C   UNL     1      11.701  73.696   2.865  1.00  0.00     0.000 C 
BRANCH   7   8
ATOM      8  C   UNL     1      11.947  75.133   2.373  1.00  0.00     0.000 C 
BRANCH   8   9
ATOM      9  C   UNL     1      13.274  75.282   1.608  1.00  0.00     0.000 C 
BRANCH   9  10
ATOM     10  C   UNL     1      14.128  76.503   2.004  1.00  0.00     0.000 C 
BRANCH  10  11
ATOM     11  C   UNL     1      15.115  76.261   3.160  1.00  0.00     0.000 C 
BRANCH  11  12
ATOM     12  C   UNL     1      14.887  74.919   3.870  1.00  0.00     0.006 C 
BRANCH  12  13
ATOM     13  C   UNL     1      13.828  75.053   4.968  1.00  0.00     0.053 C 
BRANCH  13  14
ATOM     14  C   UNL     1      14.298  74.408   6.235  1.00  0.00     0.041 C 
ATOM     15  O   UNL     1      14.094  74.970   7.344  1.00  0.00    -0.550 OA
ATOM     16  O   UNL     1      14.919  73.166   6.195  1.00  0.00    -0.550 OA
ENDBRANCH  13  14
ENDBRANCH  12  13
ENDBRANCH  11  12
ENDBRANCH  10  11
ENDBRANCH   9  10
ENDBRANCH   8   9
ENDBRANCH   7   8
ENDBRANCH   6   7
ENDBRANCH   5   6
ENDBRANCH   4   5
ENDBRANCH   3   4
ENDBRANCH   2   3
ENDBRANCH   1   2
BRANCH   1  17
ATOM     17  C   UNL     1       6.208  76.874   0.981  1.00  0.00     0.000 C 
BRANCH  17  18
ATOM     18  C   UNL     1       5.599  78.225   1.405  1.00  0.00     0.000 C 
BRANCH  18  19
ATOM     19  C   UNL     1       5.192  78.318   2.888  1.00  0.00     0.000 C 
BRANCH  19  20
ATOM     20  C   UNL     1       5.386  77.019   3.696  1.00  0.00     0.000 C 
BRANCH  20  21
ATOM     21  C   UNL     1       4.627  76.966   5.038  1.00  0.00     0.000 C 
BRANCH  21  22
ATOM     22  C   UNL     1       3.125  77.295   4.950  1.00  0.00    -0.000 C 
BRANCH  22  23
ATOM     23  C   UNL     1       2.587  77.973   6.219  1.00  0.00    -0.000 C 
BRANCH  23  24
ATOM     24  C   UNL     1       2.834  77.097   7.456  1.00  0.00    -0.000 C 
BRANCH  24  25
ATOM     25  C   UNL     1       2.418  77.780   8.771  1.00  0.00    -0.000 C 
BRANCH  25  26
ATOM     26  C   UNL     1       3.575  78.377   9.603  1.00  0.00    -0.000 C 
BRANCH  26  27
ATOM     27  C   UNL     1       3.155  78.979  10.959  1.00  0.00    -0.000 C 
BRANCH  27  28
ATOM     28  C   UNL     1       4.300  79.026  11.996  1.00  0.00    -0.000 C 
BRANCH  28  29
ATOM     29  C   UNL     1       5.558  78.261  11.550  1.00  0.00    -0.003 C 
ATOM     30  C   UNL     1       5.448  76.755  11.782  1.00  0.00     0.004 C 
ENDBRANCH  28  29
ENDBRANCH  27  28
ENDBRANCH  26  27
ENDBRANCH  25  26
ENDBRANCH  24  25
ENDBRANCH  23  24
ENDBRANCH  22  23
ENDBRANCH  21  22
ENDBRANCH  20  21
ENDBRANCH  19  20
ENDBRANCH  18  19
ENDBRANCH  17  18
ENDBRANCH   1  17
TORSDOF 26
ENDMDL
MODEL 7
REMARK VINA RESULT:     7.012      1.053      1.987
REMARK INTER + INTRA:          16.563
REMARK INTER:                  13.763
REMARK INTRA:                   2.800
REMARK UNBOUND:                -1.108
REMARK SMILES CCCCCCCCCCCCCCCCCCCCCCCCCCCC(=O)[O-]
REMARK SMILES IDX 15 1 16 2 17 3 18 4 19 5 20 6 21 7 22 8 23 9 24 10 25 11
REMARK SMILES IDX 26 12 27 13 28 14 29 15 30 16 14 17 13 18 12 19 11 20 10 21
REMARK SMILES IDX 9 22 8 23 7 24 6 25 5 26 4 27 3 28 2 29 1 30
REMARK H PARENT
REMARK Flexibility Score: inf
ROOT
ATOM      1  C   UNL     1       4.656  75.110   1.125  1.00  0.00     0.000 C 
ENDROOT
BRANCH   1   2
ATOM      2  C   UNL     1       4.544  74.846  -0.390  1.00  0.00     0.000 C 
BRANCH   2   3
ATOM      3  C   UNL     1       4.873  73.407  -0.826  1.00  0.00     0.000 C 
BRANCH   3   4
ATOM      4  C   UNL     1       6.119  72.842  -0.130  1.00  0.00     0.000 C 
BRANCH   4   5
ATOM      5  C   UNL     1       6.732  73.881   0.816  1.00  0.00     0.000 C 
BRANCH   5   6
ATOM      6  C   UNL     1       8.217  74.112   0.498  1.00  0.00     0.000 C 
BRANCH   6   7
ATOM      7  C   UNL     1       9.022  74.575   1.724  1.00  0.00     0.000 C 
BRANCH   7   8
ATOM      8  C   UNL     1      10.240  73.677   2.003  1.00  0.00     0.000 C 
BRANCH   8   9
ATOM      9  C   UNL     1      11.376  74.424   2.727  1.00  0.00     0.000 C 
BRANCH   9  10
ATOM     10  C   UNL     1      12.772  74.268   2.092  1.00  0.00     0.000 C 
BRANCH  10  11
ATOM     11  C   UNL     1      13.704  75.481   2.260  1.00  0.00     0.000 C 
BRANCH  11  12
ATOM     12  C   UNL     1      14.600  75.379   3.504  1.00  0.00     0.006 C 
BRANCH  12  13
ATOM     13  C   UNL     1      13.861  75.866   4.753  1.00  0.00     0.053 C 
BRANCH  13  14
ATOM     14  C   UNL     1      13.676  74.745   5.727  1.00  0.00     0.041 C 
ATOM     15  O   UNL     1      14.591  74.458   6.543  1.00  0.00    -0.550 OA
ATOM     16  O   UNL     1      12.475  74.048   5.765  1.00  0.00    -0.550 OA
ENDBRANCH  13  14
ENDBRANCH  12  13
ENDBRANCH  11  12
ENDBRANCH  10  11
ENDBRANCH   9  10
ENDBRANCH   8   9
ENDBRANCH   7   8
ENDBRANCH   6   7
ENDBRANCH   5   6
ENDBRANCH   4   5
ENDBRANCH   3   4
ENDBRANCH   2   3
ENDBRANCH   1   2
BRANCH   1  17
ATOM     17  C   UNL     1       5.860  75.974   1.553  1.00  0.00     0.000 C 
BRANCH  17  18
ATOM     18  C   UNL     1       5.931  77.364   0.891  1.00  0.00     0.000 C 
BRANCH  18  19
ATOM     19  C   UNL     1       5.775  78.553   1.858  1.00  0.00     0.000 C 
BRANCH  19  20
ATOM     20  C   UNL     1       4.702  78.364   2.950  1.00  0.00     0.000 C 
BRANCH  20  21
ATOM     21  C   UNL     1       4.877  77.107   3.827  1.00  0.00     0.000 C 
BRANCH  21  22
ATOM     22  C   UNL     1       4.346  77.238   5.266  1.00  0.00    -0.000 C 
BRANCH  22  23
ATOM     23  C   UNL     1       2.830  77.010   5.366  1.00  0.00    -0.000 C 
BRANCH  23  24
ATOM     24  C   UNL     1       2.339  77.214   6.807  1.00  0.00    -0.000 C 
BRANCH  24  25
ATOM     25  C   UNL     1       2.346  78.690   7.244  1.00  0.00    -0.000 C 
BRANCH  25  26
ATOM     26  C   UNL     1       2.720  78.942   8.722  1.00  0.00    -0.000 C 
BRANCH  26  27
ATOM     27  C   UNL     1       3.902  78.102   9.246  1.00  0.00    -0.000 C 
BRANCH  27  28
ATOM     28  C   UNL     1       3.535  77.201  10.447  1.00  0.00    -0.000 C 
BRANCH  28  29
ATOM     29  C   UNL     1       3.539  77.948  11.792  1.00  0.00    -0.003 C 
ATOM     30  C   UNL     1       4.891  78.587  12.110  1.00  0.00     0.004 C 
ENDBRANCH  28  29
ENDBRANCH  27  28
ENDBRANCH  26  27
ENDBRANCH  25  26
ENDBRANCH  24  25
ENDBRANCH  23  24
ENDBRANCH  22  23
ENDBRANCH  21  22
ENDBRANCH  20  21
ENDBRANCH  19  20
ENDBRANCH  18  19
ENDBRANCH  17  18
ENDBRANCH   1  17
TORSDOF 26
ENDMDL
MODEL 8
REMARK VINA RESULT:     7.159      1.779      2.133
REMARK INTER + INTRA:          16.932
REMARK INTER:                  17.375
REMARK INTRA:                  -0.443
REMARK UNBOUND:                -1.108
REMARK SMILES CCCCCCCCCCCCCCCCCCCCCCCCCCCC(=O)[O-]
REMARK SMILES IDX 15 1 16 2 17 3 18 4 19 5 20 6 21 7 22 8 23 9 24 10 25 11
REMARK SMILES IDX 26 12 27 13 28 14 29 15 30 16 14 17 13 18 12 19 11 20 10 21
REMARK SMILES IDX 9 22 8 23 7 24 6 25 5 26 4 27 3 28 2 29 1 30
REMARK H PARENT
REMARK Flexibility Score: inf
ROOT
ATOM      1  C   UNL     1       5.942  77.889   0.868  1.00  0.00     0.000 C 
ENDROOT
BRANCH   1   2
ATOM      2  C   UNL     1       6.786  76.601   0.795  1.00  0.00     0.000 C 
BRANCH   2   3
ATOM      3  C   UNL     1       5.996  75.324   0.453  1.00  0.00     0.000 C 
BRANCH   3   4
ATOM      4  C   UNL     1       6.844  74.050   0.568  1.00  0.00     0.000 C 
BRANCH   4   5
ATOM      5  C   UNL     1       7.931  74.213   1.637  1.00  0.00     0.000 C 
BRANCH   5   6
ATOM      6  C   UNL     1       9.331  74.019   1.037  1.00  0.00     0.000 C 
BRANCH   6   7
ATOM      7  C   UNL     1      10.151  72.948   1.777  1.00  0.00     0.000 C 
BRANCH   7   8
ATOM      8  C   UNL     1      11.544  73.452   2.189  1.00  0.00     0.000 C 
BRANCH   8   9
ATOM      9  C   UNL     1      11.490  74.504   3.312  1.00  0.00     0.000 C 
BRANCH   9  10
ATOM     10  C   UNL     1      12.387  74.210   4.531  1.00  0.00     0.000 C 
BRANCH  10  11
ATOM     11  C   UNL     1      13.407  75.312   4.872  1.00  0.00     0.000 C 
BRANCH  11  12
ATOM     12  C   UNL     1      14.801  75.035   4.290  1.00  0.00     0.006 C 
BRANCH  12  13
ATOM     13  C   UNL     1      14.743  74.898   2.767  1.00  0.00     0.053 C 
BRANCH  13  14
ATOM     14  C   UNL     1      14.141  76.120   2.149  1.00  0.00     0.041 C 
ATOM     15  O   UNL     1      14.136  77.212   2.779  1.00  0.00    -0.550 OA
ATOM     16  O   UNL     1      13.625  76.067   0.860  1.00  0.00    -0.550 OA
ENDBRANCH  13  14
ENDBRANCH  12  13
ENDBRANCH  11  12
ENDBRANCH  10  11
ENDBRANCH   9  10
ENDBRANCH   8   9
ENDBRANCH   7   8
ENDBRANCH   6   7
ENDBRANCH   5   6
ENDBRANCH   4   5
ENDBRANCH   3   4
ENDBRANCH   2   3
ENDBRANCH   1   2
BRANCH   1  17
ATOM     17  C   UNL     1       5.333  78.197   2.251  1.00  0.00     0.000 C 
BRANCH  17  18
ATOM     18  C   UNL     1       4.836  76.964   3.032  1.00  0.00     0.000 C 
BRANCH  18  19
ATOM     19  C   UNL     1       5.333  76.873   4.487  1.00  0.00     0.000 C 
BRANCH  19  20
ATOM     20  C   UNL     1       4.315  77.335   5.550  1.00  0.00     0.000 C 
BRANCH  20  21
ATOM     21  C   UNL     1       2.998  77.909   4.988  1.00  0.00     0.000 C 
BRANCH  21  22
ATOM     22  C   UNL     1       1.718  77.223   5.499  1.00  0.00    -0.000 C 
BRANCH  22  23
ATOM     23  C   UNL     1       1.590  77.261   7.029  1.00  0.00    -0.000 C 
BRANCH  23  24
ATOM     24  C   UNL     1       2.095  78.598   7.590  1.00  0.00    -0.000 C 
BRANCH  24  25
ATOM     25  C   UNL     1       3.244  78.433   8.600  1.00  0.00    -0.000 C 
BRANCH  25  26
ATOM     26  C   UNL     1       2.911  78.831  10.055  1.00  0.00    -0.000 C 
BRANCH  26  27
ATOM     27  C   UNL     1       3.615  77.988  11.137  1.00  0.00    -0.000 C 
BRANCH  27  28
ATOM     28  C   UNL     1       4.475  78.825  12.111  1.00  0.00    -0.000 C 
BRANCH  28  29
ATOM     29  C   UNL     1       5.980  78.523  12.011  1.00  0.00    -0.003 C 
ATOM     30  C   UNL     1       6.292  77.031  12.122  1.00  0.00     0.004 C 
ENDBRANCH  28  29
ENDBRANCH  27  28
ENDBRANCH  26  27
ENDBRANCH  25  26
ENDBRANCH  24  25
ENDBRANCH  23  24
ENDBRANCH  22  23
ENDBRANCH  21  22
ENDBRANCH  20  21
ENDBRANCH  19  20
ENDBRANCH  18  19
ENDBRANCH  17  18
ENDBRANCH   1  17
TORSDOF 26
ENDMDL
MODEL 9
REMARK VINA RESULT:     7.799      6.933     12.038
REMARK INTER + INTRA:          18.546
REMARK INTER:                  19.587
REMARK INTRA:                  -1.041
REMARK UNBOUND:                -1.108
REMARK SMILES CCCCCCCCCCCCCCCCCCCCCCCCCCCC(=O)[O-]
REMARK SMILES IDX 15 1 16 2 17 3 18 4 19 5 20 6 21 7 22 8 23 9 24 10 25 11
REMARK SMILES IDX 26 12 27 13 28 14 29 15 30 16 14 17 13 18 12 19 11 20 10 21
REMARK SMILES IDX 9 22 8 23 7 24 6 25 5 26 4 27 3 28 2 29 1 30
REMARK H PARENT
REMARK Flexibility Score: inf
ROOT
ATOM      1  C   UNL     1       5.890  74.281   0.630  1.00  0.00     0.000 C 
ENDROOT
BRANCH   1   2
ATOM      2  C   UNL     1       6.590  75.655   0.642  1.00  0.00     0.000 C 
BRANCH   2   3
ATOM      3  C   UNL     1       5.646  76.867   0.547  1.00  0.00     0.000 C 
BRANCH   3   4
ATOM      4  C   UNL     1       6.213  78.120   1.227  1.00  0.00     0.000 C 
BRANCH   4   5
ATOM      5  C   UNL     1       5.819  78.163   2.708  1.00  0.00     0.000 C 
BRANCH   5   6
ATOM      6  C   UNL     1       5.030  76.907   3.108  1.00  0.00     0.000 C 
BRANCH   6   7
ATOM      7  C   UNL     1       4.631  76.904   4.593  1.00  0.00     0.000 C 
BRANCH   7   8
ATOM      8  C   UNL     1       3.162  77.306   4.811  1.00  0.00     0.000 C 
BRANCH   8   9
ATOM      9  C   UNL     1       2.725  77.191   6.282  1.00  0.00     0.000 C 
BRANCH   9  10
ATOM     10  C   UNL     1       2.037  78.442   6.863  1.00  0.00     0.000 C 
BRANCH  10  11
ATOM     11  C   UNL     1       2.429  78.789   8.311  1.00  0.00     0.000 C 
BRANCH  11  12
ATOM     12  C   UNL     1       3.511  77.858   8.876  1.00  0.00     0.006 C 
BRANCH  12  13
ATOM     13  C   UNL     1       4.268  78.531  10.025  1.00  0.00     0.053 C 
BRANCH  13  14
ATOM     14  C   UNL     1       4.260  77.661  11.242  1.00  0.00     0.041 C 
ATOM     15  O   UNL     1       3.206  77.065  11.588  1.00  0.00    -0.550 OA
ATOM     16  O   UNL     1       5.429  77.473  11.970  1.00  0.00    -0.550 OA
ENDBRANCH  13  14
ENDBRANCH  12  13
ENDBRANCH  11  12
ENDBRANCH  10  11
ENDBRANCH   9  10
ENDBRANCH   8   9
ENDBRANCH   7   8
ENDBRANCH   6   7
ENDBRANCH   5   6
ENDBRANCH   4   5
ENDBRANCH   3   4
ENDBRANCH   2   3
ENDBRANCH   1   2
BRANCH   1  17
ATOM     17  C   UNL     1       4.500  74.259  -0.038  1.00  0.00     0.000 C 
BRANCH  17  18
ATOM     18  C   UNL     1       4.429  73.482  -1.368  1.00  0.00     0.000 C 
BRANCH  18  19
ATOM     19  C   UNL     1       3.942  72.026  -1.244  1.00  0.00     0.000 C 
BRANCH  19  20
ATOM     20  C   UNL     1       2.427  71.828  -1.459  1.00  0.00     0.000 C 
BRANCH  20  21
ATOM     21  C   UNL     1       1.932  70.374  -1.320  1.00  0.00     0.000 C 
BRANCH  21  22
ATOM     22  C   UNL     1       0.406  70.214  -1.201  1.00  0.00    -0.000 C 
BRANCH  22  23
ATOM     23  C   UNL     1      -0.129  68.993  -1.962  1.00  0.00    -0.000 C 
BRANCH  23  24
ATOM     24  C   UNL     1      -1.446  69.326  -2.679  1.00  0.00    -0.000 C 
BRANCH  24  25
ATOM     25  C   UNL     1      -1.239  70.122  -3.980  1.00  0.00    -0.000 C 
BRANCH  25  26
ATOM     26  C   UNL     1      -1.117  69.273  -5.265  1.00  0.00    -0.000 C 
BRANCH  26  27
ATOM     27  C   UNL     1      -2.444  68.681  -5.781  1.00  0.00    -0.000 C 
BRANCH  27  28
ATOM     28  C   UNL     1      -3.685  69.521  -5.402  1.00  0.00    -0.000 C 
BRANCH  28  29
ATOM     29  C   UNL     1      -3.835  70.801  -6.242  1.00  0.00    -0.003 C 
ATOM     30  C   UNL     1      -5.091  71.597  -5.886  1.00  0.00     0.004 C 
ENDBRANCH  28  29
ENDBRANCH  27  28
ENDBRANCH  26  27
ENDBRANCH  25  26
ENDBRANCH  24  25
ENDBRANCH  23  24
ENDBRANCH  22  23
ENDBRANCH  21  22
ENDBRANCH  20  21
ENDBRANCH  19  20
ENDBRANCH  18  19
ENDBRANCH  17  18
ENDBRANCH   1  17
TORSDOF 26
ENDMDL
