MODEL 1
REMARK VINA RESULT:    -3.761      0.000      0.000
REMARK INTER + INTRA:          -8.235
REMARK INTER:                  -6.399
REMARK INTRA:                  -1.836
REMARK UNBOUND:                -1.836
REMARK SMILES CCCCCCCCCCCCCC(=O)[O-]
REMARK SMILES IDX 8 1 9 2 10 3 11 4 12 5 13 6 14 7 15 8 16 9 7 10 6 11 5 12
REMARK SMILES IDX 4 13 3 14 2 15 1 16
REMARK H PARENT
REMARK Flexibility Score: inf
ROOT
ATOM      1  C   UNL     1       0.681   8.233  -7.911  1.00  0.00     0.000 C 
ENDROOT
BRANCH   1   2
ATOM      2  C   UNL     1      -0.714   7.849  -8.436  1.00  0.00     0.000 C 
BRANCH   2   3
ATOM      3  C   UNL     1      -0.682   6.642  -9.385  1.00  0.00     0.000 C 
BRANCH   3   4
ATOM      4  C   UNL     1      -1.320   6.993 -10.738  1.00  0.00     0.000 C 
BRANCH   4   5
ATOM      5  C   UNL     1      -2.860   6.981 -10.694  1.00  0.00     0.006 C 
BRANCH   5   6
ATOM      6  C   UNL     1      -3.525   8.069 -11.549  1.00  0.00     0.053 C 
BRANCH   6   7
ATOM      7  C   UNL     1      -4.143   9.144 -10.708  1.00  0.00     0.041 C 
ATOM      8  O   UNL     1      -3.573   9.532  -9.655  1.00  0.00    -0.550 OA
ATOM      9  O   UNL     1      -5.365   9.695 -11.072  1.00  0.00    -0.550 OA
ENDBRANCH   6   7
ENDBRANCH   5   6
ENDBRANCH   4   5
ENDBRANCH   3   4
ENDBRANCH   2   3
ENDBRANCH   1   2
BRANCH   1  10
ATOM     10  C   UNL     1       1.864   7.610  -8.680  1.00  0.00     0.000 C 
BRANCH  10  11
ATOM     11  C   UNL     1       2.477   8.504  -9.773  1.00  0.00    -0.000 C 
BRANCH  11  12
ATOM     12  C   UNL     1       2.231   7.968 -11.190  1.00  0.00    -0.000 C 
BRANCH  12  13
ATOM     13  C   UNL     1       1.551   9.030 -12.069  1.00  0.00    -0.000 C 
BRANCH  13  14
ATOM     14  C   UNL     1       0.972  10.192 -11.234  1.00  0.00    -0.000 C 
BRANCH  14  15
ATOM     15  C   UNL     1      -0.560  10.307 -11.323  1.00  0.00    -0.003 C 
ATOM     16  C   UNL     1      -1.036  11.711 -11.689  1.00  0.00     0.004 C 
ENDBRANCH  14  15
ENDBRANCH  13  14
ENDBRANCH  12  13
ENDBRANCH  11  12
ENDBRANCH  10  11
ENDBRANCH   1  10
TORSDOF 12
ENDMDL
MODEL 2
REMARK VINA RESULT:    -3.645      0.728      1.691
REMARK INTER + INTRA:          -8.037
REMARK INTER:                  -6.319
REMARK INTRA:                  -1.718
REMARK UNBOUND:                -1.836
REMARK SMILES CCCCCCCCCCCCCC(=O)[O-]
REMARK SMILES IDX 8 1 9 2 10 3 11 4 12 5 13 6 14 7 15 8 16 9 7 10 6 11 5 12
REMARK SMILES IDX 4 13 3 14 2 15 1 16
REMARK H PARENT
REMARK Flexibility Score: inf
ROOT
ATOM      1  C   UNL     1      -1.006   8.066  -8.619  1.00  0.00     0.000 C 
ENDROOT
BRANCH   1   2
ATOM      2  C   UNL     1      -1.249   6.824  -9.496  1.00  0.00     0.000 C 
BRANCH   2   3
ATOM      3  C   UNL     1      -1.363   7.164 -10.990  1.00  0.00     0.000 C 
BRANCH   3   4
ATOM      4  C   UNL     1      -2.683   6.634 -11.572  1.00  0.00     0.000 C 
BRANCH   4   5
ATOM      5  C   UNL     1      -3.838   7.645 -11.448  1.00  0.00     0.006 C 
BRANCH   5   6
ATOM      6  C   UNL     1      -3.389   9.112 -11.381  1.00  0.00     0.053 C 
BRANCH   6   7
ATOM      7  C   UNL     1      -4.394   9.974 -10.679  1.00  0.00     0.041 C 
ATOM      8  O   UNL     1      -5.611   9.656 -10.676  1.00  0.00    -0.550 OA
ATOM      9  O   UNL     1      -3.987  11.148 -10.055  1.00  0.00    -0.550 OA
ENDBRANCH   6   7
ENDBRANCH   5   6
ENDBRANCH   4   5
ENDBRANCH   3   4
ENDBRANCH   2   3
ENDBRANCH   1   2
BRANCH   1  10
ATOM     10  C   UNL     1       0.377   8.127  -7.941  1.00  0.00     0.000 C 
BRANCH  10  11
ATOM     11  C   UNL     1       1.498   7.367  -8.671  1.00  0.00    -0.000 C 
BRANCH  11  12
ATOM     12  C   UNL     1       2.348   8.276  -9.571  1.00  0.00    -0.000 C 
BRANCH  12  13
ATOM     13  C   UNL     1       2.250   7.841 -11.041  1.00  0.00    -0.000 C 
BRANCH  13  14
ATOM     14  C   UNL     1       1.575   8.915 -11.922  1.00  0.00    -0.000 C 
BRANCH  14  15
ATOM     15  C   UNL     1       1.252  10.215 -11.166  1.00  0.00    -0.003 C 
ATOM     16  C   UNL     1      -0.183  10.692 -11.378  1.00  0.00     0.004 C 
ENDBRANCH  14  15
ENDBRANCH  13  14
ENDBRANCH  12  13
ENDBRANCH  11  12
ENDBRANCH  10  11
ENDBRANCH   1  10
TORSDOF 12
ENDMDL
MODEL 3
REMARK VINA RESULT:    -3.561      1.796      3.547
REMARK INTER + INTRA:          -7.895
REMARK INTER:                  -6.849
REMARK INTRA:                  -1.046
REMARK UNBOUND:                -1.836
REMARK SMILES CCCCCCCCCCCCCC(=O)[O-]
REMARK SMILES IDX 8 1 9 2 10 3 11 4 12 5 13 6 14 7 15 8 16 9 7 10 6 11 5 12
REMARK SMILES IDX 4 13 3 14 2 15 1 16
REMARK H PARENT
REMARK Flexibility Score: inf
ROOT
ATOM      1  C   UNL     1      -1.403   7.504 -10.683  1.00  0.00     0.000 C 
ENDROOT
BRANCH   1   2
ATOM      2  C   UNL     1      -2.515   6.672 -11.347  1.00  0.00     0.000 C 
BRANCH   2   3
ATOM      3  C   UNL     1      -3.695   7.530 -11.826  1.00  0.00     0.000 C 
BRANCH   3   4
ATOM      4  C   UNL     1      -3.534   8.987 -11.366  1.00  0.00     0.000 C 
BRANCH   4   5
ATOM      5  C   UNL     1      -4.769   9.516 -10.614  1.00  0.00     0.006 C 
BRANCH   5   6
ATOM      6  C   UNL     1      -4.971  11.035 -10.720  1.00  0.00     0.053 C 
BRANCH   6   7
ATOM      7  C   UNL     1      -6.258  11.383 -11.404  1.00  0.00     0.041 C 
ATOM      8  O   UNL     1      -6.940  10.487 -11.967  1.00  0.00    -0.550 OA
ATOM      9  O   UNL     1      -6.687  12.703 -11.447  1.00  0.00    -0.550 OA
ENDBRANCH   6   7
ENDBRANCH   5   6
ENDBRANCH   4   5
ENDBRANCH   3   4
ENDBRANCH   2   3
ENDBRANCH   1   2
BRANCH   1  10
ATOM     10  C   UNL     1      -0.953   7.005  -9.295  1.00  0.00     0.000 C 
BRANCH  10  11
ATOM     11  C   UNL     1      -0.483   8.105  -8.326  1.00  0.00    -0.000 C 
BRANCH  11  12
ATOM     12  C   UNL     1       0.950   7.884  -7.823  1.00  0.00    -0.000 C 
BRANCH  12  13
ATOM     13  C   UNL     1       1.880   7.474  -8.976  1.00  0.00    -0.000 C 
BRANCH  13  14
ATOM     14  C   UNL     1       2.373   8.691  -9.788  1.00  0.00    -0.000 C 
BRANCH  14  15
ATOM     15  C   UNL     1       1.943   8.659 -11.265  1.00  0.00    -0.003 C 
ATOM     16  C   UNL     1       2.359   7.378 -11.983  1.00  0.00     0.004 C 
ENDBRANCH  14  15
ENDBRANCH  13  14
ENDBRANCH  12  13
ENDBRANCH  11  12
ENDBRANCH  10  11
ENDBRANCH   1  10
TORSDOF 12
ENDMDL
MODEL 4
REMARK VINA RESULT:    -3.458      3.250      5.032
REMARK INTER + INTRA:          -7.719
REMARK INTER:                  -5.836
REMARK INTRA:                  -1.884
REMARK UNBOUND:                -1.836
REMARK SMILES CCCCCCCCCCCCCC(=O)[O-]
REMARK SMILES IDX 8 1 9 2 10 3 11 4 12 5 13 6 14 7 15 8 16 9 7 10 6 11 5 12
REMARK SMILES IDX 4 13 3 14 2 15 1 16
REMARK H PARENT
REMARK Flexibility Score: inf
ROOT
ATOM      1  C   UNL     1       1.511   7.312  -8.403  1.00  0.00     0.000 C 
ENDROOT
BRANCH   1   2
ATOM      2  C   UNL     1       2.270   8.069  -9.508  1.00  0.00     0.000 C 
BRANCH   2   3
ATOM      3  C   UNL     1       1.744   7.753 -10.916  1.00  0.00     0.000 C 
BRANCH   3   4
ATOM      4  C   UNL     1       1.029   8.971 -11.520  1.00  0.00     0.000 C 
BRANCH   4   5
ATOM      5  C   UNL     1       1.184  10.240 -10.662  1.00  0.00     0.006 C 
BRANCH   5   6
ATOM      6  C   UNL     1       2.084  11.318 -11.286  1.00  0.00     0.053 C 
BRANCH   6   7
ATOM      7  C   UNL     1       3.480  11.266 -10.745  1.00  0.00     0.041 C 
ATOM      8  O   UNL     1       4.312  10.447 -11.214  1.00  0.00    -0.550 OA
ATOM      9  O   UNL     1       3.850  12.101  -9.698  1.00  0.00    -0.550 OA
ENDBRANCH   6   7
ENDBRANCH   5   6
ENDBRANCH   4   5
ENDBRANCH   3   4
ENDBRANCH   2   3
ENDBRANCH   1   2
BRANCH   1  10
ATOM     10  C   UNL     1       0.422   8.129  -7.678  1.00  0.00     0.000 C 
BRANCH  10  11
ATOM     11  C   UNL     1      -0.947   8.161  -8.379  1.00  0.00    -0.000 C 
BRANCH  11  12
ATOM     12  C   UNL     1      -1.250   6.873  -9.157  1.00  0.00    -0.000 C 
BRANCH  12  13
ATOM     13  C   UNL     1      -2.218   7.147 -10.318  1.00  0.00    -0.000 C 
BRANCH  13  14
ATOM     14  C   UNL     1      -2.905   8.523 -10.192  1.00  0.00    -0.000 C 
BRANCH  14  15
ATOM     15  C   UNL     1      -2.957   9.308 -11.514  1.00  0.00    -0.003 C 
ATOM     16  C   UNL     1      -2.441  10.739 -11.384  1.00  0.00     0.004 C 
ENDBRANCH  14  15
ENDBRANCH  13  14
ENDBRANCH  12  13
ENDBRANCH  11  12
ENDBRANCH  10  11
ENDBRANCH   1  10
TORSDOF 12
ENDMDL
MODEL 5
REMARK VINA RESULT:    -3.277      1.516      2.111
REMARK INTER + INTRA:          -7.411
REMARK INTER:                  -6.263
REMARK INTRA:                  -1.148
REMARK UNBOUND:                -1.836
REMARK SMILES CCCCCCCCCCCCCC(=O)[O-]
REMARK SMILES IDX 8 1 9 2 10 3 11 4 12 5 13 6 14 7 15 8 16 9 7 10 6 11 5 12
REMARK SMILES IDX 4 13 3 14 2 15 1 16
REMARK H PARENT
REMARK Flexibility Score: inf
ROOT
ATOM      1  C   UNL     1      -0.581   8.103  -8.413  1.00  0.00     0.000 C 
ENDROOT
BRANCH   1   2
ATOM      2  C   UNL     1      -1.147   6.862  -9.128  1.00  0.00     0.000 C 
BRANCH   2   3
ATOM      3  C   UNL     1      -1.455   7.118 -10.610  1.00  0.00     0.000 C 
BRANCH   3   4
ATOM      4  C   UNL     1      -2.123   8.489 -10.801  1.00  0.00     0.000 C 
BRANCH   4   5
ATOM      5  C   UNL     1      -3.661   8.408 -10.802  1.00  0.00     0.006 C 
BRANCH   5   6
ATOM      6  C   UNL     1      -4.317   8.876 -12.109  1.00  0.00     0.053 C 
BRANCH   6   7
ATOM      7  C   UNL     1      -5.016  10.191 -11.947  1.00  0.00     0.041 C 
ATOM      8  O   UNL     1      -4.367  11.219 -11.619  1.00  0.00    -0.550 OA
ATOM      9  O   UNL     1      -6.392  10.274 -12.125  1.00  0.00    -0.550 OA
ENDBRANCH   6   7
ENDBRANCH   5   6
ENDBRANCH   4   5
ENDBRANCH   3   4
ENDBRANCH   2   3
ENDBRANCH   1   2
BRANCH   1  10
ATOM     10  C   UNL     1       0.880   7.976  -7.937  1.00  0.00     0.000 C 
BRANCH  10  11
ATOM     11  C   UNL     1       1.872   7.470  -8.999  1.00  0.00    -0.000 C 
BRANCH  11  12
ATOM     12  C   UNL     1       2.529   8.608  -9.791  1.00  0.00    -0.000 C 
BRANCH  12  13
ATOM     13  C   UNL     1       1.520   9.272 -10.741  1.00  0.00    -0.000 C 
BRANCH  13  14
ATOM     14  C   UNL     1       1.450  10.801 -10.541  1.00  0.00    -0.000 C 
BRANCH  14  15
ATOM     15  C   UNL     1       2.660  11.377  -9.785  1.00  0.00    -0.003 C 
ATOM     16  C   UNL     1       2.310  11.877  -8.385  1.00  0.00     0.004 C 
ENDBRANCH  14  15
ENDBRANCH  13  14
ENDBRANCH  12  13
ENDBRANCH  11  12
ENDBRANCH  10  11
ENDBRANCH   1  10
TORSDOF 12
ENDMDL
MODEL 6
REMARK VINA RESULT:    -3.264     15.913     17.786
REMARK INTER + INTRA:          -7.389
REMARK INTER:                  -6.078
REMARK INTRA:                  -1.311
REMARK UNBOUND:                -1.836
REMARK SMILES CCCCCCCCCCCCCC(=O)[O-]
REMARK SMILES IDX 8 1 9 2 10 3 11 4 12 5 13 6 14 7 15 8 16 9 7 10 6 11 5 12
REMARK SMILES IDX 4 13 3 14 2 15 1 16
REMARK H PARENT
REMARK Flexibility Score: inf
ROOT
ATOM      1  C   UNL     1       0.798  12.737   4.664  1.00  0.00     0.000 C 
ENDROOT
BRANCH   1   2
ATOM      2  C   UNL     1       2.033  13.647   4.536  1.00  0.00     0.000 C 
BRANCH   2   3
ATOM      3  C   UNL     1       3.000  13.509   5.721  1.00  0.00     0.000 C 
BRANCH   3   4
ATOM      4  C   UNL     1       2.598  12.331   6.621  1.00  0.00     0.000 C 
BRANCH   4   5
ATOM      5  C   UNL     1       3.811  11.590   7.213  1.00  0.00     0.006 C 
BRANCH   5   6
ATOM      6  C   UNL     1       5.145  11.908   6.520  1.00  0.00     0.053 C 
BRANCH   6   7
ATOM      7  C   UNL     1       5.816  10.673   6.001  1.00  0.00     0.041 C 
ATOM      8  O   UNL     1       5.221   9.564   6.040  1.00  0.00    -0.550 OA
ATOM      9  O   UNL     1       7.112  10.742   5.506  1.00  0.00    -0.550 OA
ENDBRANCH   6   7
ENDBRANCH   5   6
ENDBRANCH   4   5
ENDBRANCH   3   4
ENDBRANCH   2   3
ENDBRANCH   1   2
BRANCH   1  10
ATOM     10  C   UNL     1      -0.485  13.278   4.002  1.00  0.00     0.000 C 
BRANCH  10  11
ATOM     11  C   UNL     1      -1.558  13.793   4.978  1.00  0.00    -0.000 C 
BRANCH  11  12
ATOM     12  C   UNL     1      -1.289  13.382   6.432  1.00  0.00    -0.000 C 
BRANCH  12  13
ATOM     13  C   UNL     1      -2.213  12.230   6.857  1.00  0.00    -0.000 C 
BRANCH  13  14
ATOM     14  C   UNL     1      -1.529  10.853   6.720  1.00  0.00    -0.000 C 
BRANCH  14  15
ATOM     15  C   UNL     1      -1.959  10.076   5.463  1.00  0.00    -0.003 C 
ATOM     16  C   UNL     1      -3.455  10.179   5.177  1.00  0.00     0.004 C 
ENDBRANCH  14  15
ENDBRANCH  13  14
ENDBRANCH  12  13
ENDBRANCH  11  12
ENDBRANCH  10  11
ENDBRANCH   1  10
TORSDOF 12
ENDMDL
MODEL 7
REMARK VINA RESULT:    -3.206     15.311     16.977
REMARK INTER + INTRA:          -7.290
REMARK INTER:                  -6.565
REMARK INTRA:                  -0.726
REMARK UNBOUND:                -1.836
REMARK SMILES CCCCCCCCCCCCCC(=O)[O-]
REMARK SMILES IDX 8 1 9 2 10 3 11 4 12 5 13 6 14 7 15 8 16 9 7 10 6 11 5 12
REMARK SMILES IDX 4 13 3 14 2 15 1 16
REMARK H PARENT
REMARK Flexibility Score: inf
ROOT
ATOM      1  C   UNL     1       0.960  12.766   4.887  1.00  0.00     0.000 C 
ENDROOT
BRANCH   1   2
ATOM      2  C   UNL     1      -0.251  13.045   3.978  1.00  0.00     0.000 C 
BRANCH   2   3
ATOM      3  C   UNL     1      -1.309  13.931   4.651  1.00  0.00     0.000 C 
BRANCH   3   4
ATOM      4  C   UNL     1      -2.596  13.136   4.921  1.00  0.00     0.000 C 
BRANCH   4   5
ATOM      5  C   UNL     1      -2.447  12.134   6.081  1.00  0.00     0.006 C 
BRANCH   5   6
ATOM      6  C   UNL     1      -3.061  10.753   5.806  1.00  0.00     0.053 C 
BRANCH   6   7
ATOM      7  C   UNL     1      -2.014   9.725   5.501  1.00  0.00     0.041 C 
ATOM      8  O   UNL     1      -1.224   9.892   4.535  1.00  0.00    -0.550 OA
ATOM      9  O   UNL     1      -1.935   8.567   6.264  1.00  0.00    -0.550 OA
ENDBRANCH   6   7
ENDBRANCH   5   6
ENDBRANCH   4   5
ENDBRANCH   3   4
ENDBRANCH   2   3
ENDBRANCH   1   2
BRANCH   1  10
ATOM     10  C   UNL     1       2.182  13.676   4.648  1.00  0.00     0.000 C 
BRANCH  10  11
ATOM     11  C   UNL     1       3.180  13.751   5.817  1.00  0.00    -0.000 C 
BRANCH  11  12
ATOM     12  C   UNL     1       3.274  12.438   6.607  1.00  0.00    -0.000 C 
BRANCH  12  13
ATOM     13  C   UNL     1       4.736  12.092   6.927  1.00  0.00    -0.000 C 
BRANCH  13  14
ATOM     14  C   UNL     1       5.212  10.826   6.182  1.00  0.00    -0.000 C 
BRANCH  14  15
ATOM     15  C   UNL     1       6.741  10.663   6.164  1.00  0.00    -0.003 C 
ATOM     16  C   UNL     1       7.468  11.723   6.989  1.00  0.00     0.004 C 
ENDBRANCH  14  15
ENDBRANCH  13  14
ENDBRANCH  12  13
ENDBRANCH  11  12
ENDBRANCH  10  11
ENDBRANCH   1  10
TORSDOF 12
ENDMDL
MODEL 8
REMARK VINA RESULT:    -3.112      1.596      2.303
REMARK INTER + INTRA:          -7.131
REMARK INTER:                  -5.783
REMARK INTRA:                  -1.348
REMARK UNBOUND:                -1.836
REMARK SMILES CCCCCCCCCCCCCC(=O)[O-]
REMARK SMILES IDX 8 1 9 2 10 3 11 4 12 5 13 6 14 7 15 8 16 9 7 10 6 11 5 12
REMARK SMILES IDX 4 13 3 14 2 15 1 16
REMARK H PARENT
REMARK Flexibility Score: inf
ROOT
ATOM      1  C   UNL     1       1.518   7.803  -9.483  1.00  0.00     0.000 C 
ENDROOT
BRANCH   1   2
ATOM      2  C   UNL     1       0.430   6.987  -8.762  1.00  0.00     0.000 C 
BRANCH   2   3
ATOM      3  C   UNL     1      -0.932   7.697  -8.743  1.00  0.00     0.000 C 
BRANCH   3   4
ATOM      4  C   UNL     1      -2.003   6.846  -9.442  1.00  0.00     0.000 C 
BRANCH   4   5
ATOM      5  C   UNL     1      -1.978   6.997 -10.975  1.00  0.00     0.006 C 
BRANCH   5   6
ATOM      6  C   UNL     1      -3.351   7.273 -11.605  1.00  0.00     0.053 C 
BRANCH   6   7
ATOM      7  C   UNL     1      -3.835   8.659 -11.309  1.00  0.00     0.041 C 
ATOM      8  O   UNL     1      -3.040   9.633 -11.359  1.00  0.00    -0.550 OA
ATOM      9  O   UNL     1      -5.160   8.870 -10.945  1.00  0.00    -0.550 OA
ENDBRANCH   6   7
ENDBRANCH   5   6
ENDBRANCH   4   5
ENDBRANCH   3   4
ENDBRANCH   2   3
ENDBRANCH   1   2
BRANCH   1  10
ATOM     10  C   UNL     1       1.667   7.509 -10.990  1.00  0.00     0.000 C 
BRANCH  10  11
ATOM     11  C   UNL     1       1.494   8.727 -11.914  1.00  0.00    -0.000 C 
BRANCH  11  12
ATOM     12  C   UNL     1       0.463   9.735 -11.387  1.00  0.00    -0.000 C 
BRANCH  12  13
ATOM     13  C   UNL     1       1.058  11.151 -11.328  1.00  0.00    -0.000 C 
BRANCH  13  14
ATOM     14  C   UNL     1       2.496  11.156 -10.765  1.00  0.00    -0.000 C 
BRANCH  14  15
ATOM     15  C   UNL     1       2.820  12.399  -9.919  1.00  0.00    -0.003 C 
ATOM     16  C   UNL     1       2.811  12.122  -8.418  1.00  0.00     0.004 C 
ENDBRANCH  14  15
ENDBRANCH  13  14
ENDBRANCH  12  13
ENDBRANCH  11  12
ENDBRANCH  10  11
ENDBRANCH   1  10
TORSDOF 12
ENDMDL
MODEL 9
REMARK VINA RESULT:    -3.100      1.873      4.353
REMARK INTER + INTRA:          -7.110
REMARK INTER:                  -6.038
REMARK INTRA:                  -1.072
REMARK UNBOUND:                -1.836
REMARK SMILES CCCCCCCCCCCCCC(=O)[O-]
REMARK SMILES IDX 8 1 9 2 10 3 11 4 12 5 13 6 14 7 15 8 16 9 7 10 6 11 5 12
REMARK SMILES IDX 4 13 3 14 2 15 1 16
REMARK H PARENT
REMARK Flexibility Score: inf
ROOT
ATOM      1  C   UNL     1      -0.628   8.114  -8.383  1.00  0.00     0.000 C 
ENDROOT
BRANCH   1   2
ATOM      2  C   UNL     1       0.756   8.149  -7.709  1.00  0.00     0.000 C 
BRANCH   2   3
ATOM      3  C   UNL     1       1.828   7.397  -8.512  1.00  0.00     0.000 C 
BRANCH   3   4
ATOM      4  C   UNL     1       2.242   8.198  -9.756  1.00  0.00     0.000 C 
BRANCH   4   5
ATOM      5  C   UNL     1       2.201   9.720  -9.528  1.00  0.00     0.006 C 
BRANCH   5   6
ATOM      6  C   UNL     1       2.095  10.550 -10.815  1.00  0.00     0.053 C 
BRANCH   6   7
ATOM      7  C   UNL     1       0.694  11.015 -11.069  1.00  0.00     0.041 C 
ATOM      8  O   UNL     1      -0.205  10.187 -11.370  1.00  0.00    -0.550 OA
ATOM      9  O   UNL     1       0.389  12.369 -11.004  1.00  0.00    -0.550 OA
ENDBRANCH   6   7
ENDBRANCH   5   6
ENDBRANCH   4   5
ENDBRANCH   3   4
ENDBRANCH   2   3
ENDBRANCH   1   2
BRANCH   1  10
ATOM     10  C   UNL     1      -0.954   6.811  -9.141  1.00  0.00     0.000 C 
BRANCH  10  11
ATOM     11  C   UNL     1      -1.269   6.987 -10.637  1.00  0.00    -0.000 C 
BRANCH  11  12
ATOM     12  C   UNL     1      -2.775   6.984 -10.934  1.00  0.00    -0.000 C 
BRANCH  12  13
ATOM     13  C   UNL     1      -3.259   8.384 -11.340  1.00  0.00    -0.000 C 
BRANCH  13  14
ATOM     14  C   UNL     1      -3.667   9.237 -10.118  1.00  0.00    -0.000 C 
BRANCH  14  15
ATOM     15  C   UNL     1      -4.366  10.554 -10.495  1.00  0.00    -0.003 C 
ATOM     16  C   UNL     1      -3.425  11.571 -11.136  1.00  0.00     0.004 C 
ENDBRANCH  14  15
ENDBRANCH  13  14
ENDBRANCH  12  13
ENDBRANCH  11  12
ENDBRANCH  10  11
ENDBRANCH   1  10
TORSDOF 12
ENDMDL
