MODEL 1
REMARK VINA RESULT:     4.819      0.000      0.000
REMARK INTER + INTRA:           9.621
REMARK INTER:                   7.918
REMARK INTRA:                   1.703
REMARK UNBOUND:                 1.703
REMARK SMILES C[C@@H]1O[C@@H](OC[C@@H]2O[C@@H](Oc3c(-c4ccc(O)c(O)c4)oc4cc(O)cc(O)c4c3=O)[C@@H](O)[C@H](O)[C@H]2O)[C@H](O)[C@@H](O)[C@@H]1O
REMARK SMILES IDX 7 1 36 2 34 3 32 4 9 5 8 6 6 7 5 8 4 9 1 10 2 11 42 12 3 13
REMARK SMILES IDX 40 14 38 15 43 16 41 18 39 20 37 22 35 24 10 26 11 27 12 28
REMARK SMILES IDX 30 29 21 30 29 31 31 32 22 33 27 34 23 35 26 36 24 37 13 38
REMARK SMILES IDX 20 39 14 40 18 41 15 42 16 43 19 44 17 46 28 48 25 50 33 52
REMARK H PARENT 43 17 41 19 39 21 37 23 35 25 19 45 17 47 28 49 25 51 33 53
REMARK Flexibility Score: inf
ROOT
ATOM      1  C   UNL     1       3.916 -16.281   6.542  1.00  0.00     0.180 C 
ATOM      2  C   UNL     1       3.952 -17.200   5.294  1.00  0.00     0.177 C 
ATOM      3  C   UNL     1       4.061 -16.359   4.014  1.00  0.00     0.180 C 
ATOM      4  C   UNL     1       2.987 -15.264   4.008  1.00  0.00     0.214 C 
ATOM      5  C   UNL     1       3.043 -14.464   5.318  1.00  0.00     0.339 C 
ATOM      6  O   UNL     1       2.875 -15.320   6.436  1.00  0.00    -0.332 OA
ENDROOT
BRANCH   1   7
ATOM      7  C   UNL     1       3.656 -17.091   7.821  1.00  0.00     0.198 C 
BRANCH   7   8
ATOM      8  O   UNL     1       2.974 -18.297   7.532  1.00  0.00    -0.347 OA
BRANCH   8   9
ATOM      9  C   UNL     1       3.473 -19.364   8.333  1.00  0.00     0.281 C 
ATOM     10  C   UNL     1       6.920 -19.444   7.028  1.00  0.00     0.041 C 
ATOM     11  C   UNL     1       5.399 -19.615   7.009  1.00  0.00     0.150 C 
ATOM     12  C   UNL     1       5.003 -21.029   6.511  1.00  0.00     0.174 C 
ATOM     13  O   UNL     1       4.892 -19.378   8.312  1.00  0.00    -0.344 OA
ATOM     14  C   UNL     1       3.470 -21.190   6.540  1.00  0.00     0.179 C 
ATOM     15  C   UNL     1       2.878 -20.720   7.885  1.00  0.00     0.202 C 
BRANCH  12  16
ATOM     16  O   UNL     1       5.626 -22.057   7.250  1.00  0.00    -0.388 OA
ATOM     17  H   UNL     1       5.500 -21.871   8.217  1.00  0.00     0.211 HD
ENDBRANCH  12  16
BRANCH  14  18
ATOM     18  O   UNL     1       2.894 -20.444   5.497  1.00  0.00    -0.387 OA
ATOM     19  H   UNL     1       3.418 -20.633   4.677  1.00  0.00     0.211 HD
ENDBRANCH  14  18
BRANCH  15  20
ATOM     20  O   UNL     1       3.114 -21.680   8.883  1.00  0.00    -0.385 OA
ATOM     21  H   UNL     1       2.503 -21.469   9.640  1.00  0.00     0.211 HD
ENDBRANCH  15  20
ENDBRANCH   8   9
ENDBRANCH   7   8
ENDBRANCH   1   7
BRANCH   2  22
ATOM     22  O   UNL     1       5.054 -18.064   5.369  1.00  0.00    -0.387 OA
ATOM     23  H   UNL     1       5.655 -17.707   6.071  1.00  0.00     0.211 HD
ENDBRANCH   2  22
BRANCH   3  24
ATOM     24  O   UNL     1       3.894 -17.190   2.894  1.00  0.00    -0.387 OA
ATOM     25  H   UNL     1       3.809 -16.598   2.100  1.00  0.00     0.211 HD
ENDBRANCH   3  24
BRANCH   5  26
ATOM     26  O   UNL     1       4.266 -13.726   5.397  1.00  0.00    -0.454 OA
BRANCH  26  27
ATOM     27  C   UNL     1       4.421 -12.351   5.667  1.00  0.00     0.214 A 
ATOM     28  C   UNL     1       4.870 -11.976   6.949  1.00  0.00     0.180 A 
ATOM     29  C   UNL     1       4.186 -11.330   4.717  1.00  0.00     0.239 A 
ATOM     30  O   UNL     1       5.115 -10.699   7.227  1.00  0.00    -0.452 OA
ATOM     31  C   UNL     1       4.438  -9.985   5.062  1.00  0.00     0.111 A 
ATOM     32  O   UNL     1       3.755 -11.613   3.569  1.00  0.00    -0.285 OA
ATOM     33  C   UNL     1       4.924  -9.715   6.361  1.00  0.00     0.146 A 
ATOM     34  C   UNL     1       4.231  -8.904   4.169  1.00  0.00     0.134 A 
ATOM     35  C   UNL     1       5.206  -8.404   6.753  1.00  0.00     0.094 A 
ATOM     36  C   UNL     1       4.513  -7.593   4.583  1.00  0.00     0.093 A 
ATOM     37  C   UNL     1       5.001  -7.341   5.867  1.00  0.00     0.123 A 
BRANCH  28  38
ATOM     38  C   UNL     1       5.111 -12.973   8.013  1.00  0.00     0.025 A 
ATOM     39  C   UNL     1       4.034 -13.715   8.526  1.00  0.00     0.062 A 
ATOM     40  C   UNL     1       6.409 -13.240   8.480  1.00  0.00     0.016 A 
ATOM     41  C   UNL     1       4.244 -14.693   9.504  1.00  0.00     0.158 A 
ATOM     42  C   UNL     1       6.622 -14.213   9.459  1.00  0.00     0.051 A 
ATOM     43  C   UNL     1       5.545 -14.945   9.974  1.00  0.00     0.157 A 
BRANCH  41  44
ATOM     44  O   UNL     1       3.154 -15.410   9.992  1.00  0.00    -0.504 OA
ATOM     45  H   UNL     1       2.198 -15.104   9.846  1.00  0.00     0.293 HD
ENDBRANCH  41  44
BRANCH  43  46
ATOM     46  O   UNL     1       5.761 -15.922  10.942  1.00  0.00    -0.504 OA
ATOM     47  H   UNL     1       5.042 -16.175  11.614  1.00  0.00     0.293 HD
ENDBRANCH  43  46
ENDBRANCH  28  38
BRANCH  34  48
ATOM     48  O   UNL     1       3.751  -9.120   2.878  1.00  0.00    -0.507 OA
ATOM     49  H   UNL     1       3.099  -8.481   2.439  1.00  0.00     0.293 HD
ENDBRANCH  34  48
BRANCH  37  50
ATOM     50  O   UNL     1       5.274  -6.032   6.253  1.00  0.00    -0.508 OA
ATOM     51  H   UNL     1       5.411  -5.785   7.227  1.00  0.00     0.293 HD
ENDBRANCH  37  50
ENDBRANCH  26  27
ENDBRANCH   5  26
BRANCH   4  52
ATOM     52  O   UNL     1       3.193 -14.410   2.912  1.00  0.00    -0.384 OA
ATOM     53  H   UNL     1       3.843 -13.718   3.206  1.00  0.00     0.211 HD
ENDBRANCH   4  52
TORSDOF 16
ENDMDL
MODEL 2
REMARK VINA RESULT:     5.673      1.882      8.802
REMARK INTER + INTRA:          11.024
REMARK INTER:                   8.106
REMARK INTRA:                   2.918
REMARK UNBOUND:                 1.703
REMARK SMILES C[C@@H]1O[C@@H](OC[C@@H]2O[C@@H](Oc3c(-c4ccc(O)c(O)c4)oc4cc(O)cc(O)c4c3=O)[C@@H](O)[C@H](O)[C@H]2O)[C@H](O)[C@@H](O)[C@@H]1O
REMARK SMILES IDX 7 1 36 2 34 3 32 4 9 5 8 6 6 7 5 8 4 9 1 10 2 11 42 12 3 13
REMARK SMILES IDX 40 14 38 15 43 16 41 18 39 20 37 22 35 24 10 26 11 27 12 28
REMARK SMILES IDX 30 29 21 30 29 31 31 32 22 33 27 34 23 35 26 36 24 37 13 38
REMARK SMILES IDX 20 39 14 40 18 41 15 42 16 43 19 44 17 46 28 48 25 50 33 52
REMARK H PARENT 43 17 41 19 39 21 37 23 35 25 19 45 17 47 28 49 25 51 33 53
REMARK Flexibility Score: inf
ROOT
ATOM      1  C   UNL     1       3.391 -12.580   5.521  1.00  0.00     0.180 C 
ATOM      2  C   UNL     1       4.253 -13.055   4.324  1.00  0.00     0.177 C 
ATOM      3  C   UNL     1       4.882 -14.422   4.628  1.00  0.00     0.180 C 
ATOM      4  C   UNL     1       5.589 -14.388   5.989  1.00  0.00     0.214 C 
ATOM      5  C   UNL     1       4.629 -13.860   7.067  1.00  0.00     0.339 C 
ATOM      6  O   UNL     1       4.149 -12.571   6.722  1.00  0.00    -0.332 OA
ENDROOT
BRANCH   1   7
ATOM      7  C   UNL     1       2.875 -11.150   5.302  1.00  0.00     0.198 C 
BRANCH   7   8
ATOM      8  O   UNL     1       3.831 -10.192   5.720  1.00  0.00    -0.347 OA
BRANCH   8   9
ATOM      9  C   UNL     1       3.223  -8.916   5.897  1.00  0.00     0.281 C 
ATOM     10  C   UNL     1       4.547  -7.270   2.876  1.00  0.00     0.041 C 
ATOM     11  C   UNL     1       4.584  -7.909   4.265  1.00  0.00     0.150 C 
ATOM     12  C   UNL     1       5.309  -6.991   5.282  1.00  0.00     0.174 C 
ATOM     13  O   UNL     1       3.257  -8.178   4.685  1.00  0.00    -0.344 OA
ATOM     14  C   UNL     1       5.298  -7.638   6.682  1.00  0.00     0.179 C 
ATOM     15  C   UNL     1       3.889  -8.142   7.060  1.00  0.00     0.202 C 
BRANCH  12  16
ATOM     16  O   UNL     1       4.758  -5.694   5.329  1.00  0.00    -0.388 OA
ATOM     17  H   UNL     1       5.415  -5.088   5.761  1.00  0.00     0.211 HD
ENDBRANCH  12  16
BRANCH  14  18
ATOM     18  O   UNL     1       6.196  -8.719   6.714  1.00  0.00    -0.387 OA
ATOM     19  H   UNL     1       5.736  -9.495   6.303  1.00  0.00     0.211 HD
ENDBRANCH  14  18
BRANCH  15  20
ATOM     20  O   UNL     1       3.067  -7.062   7.425  1.00  0.00    -0.385 OA
ATOM     21  H   UNL     1       3.659  -6.270   7.534  1.00  0.00     0.211 HD
ENDBRANCH  15  20
ENDBRANCH   8   9
ENDBRANCH   7   8
ENDBRANCH   1   7
BRANCH   2  22
ATOM     22  O   UNL     1       3.456 -13.162   3.175  1.00  0.00    -0.387 OA
ATOM     23  H   UNL     1       3.965 -12.753   2.429  1.00  0.00     0.211 HD
ENDBRANCH   2  22
BRANCH   3  24
ATOM     24  O   UNL     1       5.809 -14.743   3.622  1.00  0.00    -0.387 OA
ATOM     25  H   UNL     1       6.047 -15.702   3.739  1.00  0.00     0.211 HD
ENDBRANCH   3  24
BRANCH   5  26
ATOM     26  O   UNL     1       3.557 -14.785   7.274  1.00  0.00    -0.454 OA
BRANCH  26  27
ATOM     27  C   UNL     1       3.507 -16.139   6.887  1.00  0.00     0.214 A 
ATOM     28  C   UNL     1       3.633 -17.118   7.893  1.00  0.00     0.180 A 
ATOM     29  C   UNL     1       3.304 -16.572   5.556  1.00  0.00     0.239 A 
ATOM     30  O   UNL     1       3.506 -18.407   7.594  1.00  0.00    -0.452 OA
ATOM     31  C   UNL     1       3.198 -17.952   5.281  1.00  0.00     0.111 A 
ATOM     32  O   UNL     1       3.216 -15.736   4.620  1.00  0.00    -0.285 OA
ATOM     33  C   UNL     1       3.299 -18.853   6.364  1.00  0.00     0.146 A 
ATOM     34  C   UNL     1       2.993 -18.468   3.977  1.00  0.00     0.134 A 
ATOM     35  C   UNL     1       3.186 -20.230   6.152  1.00  0.00     0.094 A 
ATOM     36  C   UNL     1       2.889 -19.854   3.783  1.00  0.00     0.093 A 
ATOM     37  C   UNL     1       2.982 -20.733   4.864  1.00  0.00     0.123 A 
BRANCH  28  38
ATOM     38  C   UNL     1       3.878 -16.758   9.306  1.00  0.00     0.025 A 
ATOM     39  C   UNL     1       5.114 -16.200   9.675  1.00  0.00     0.062 A 
ATOM     40  C   UNL     1       2.876 -16.903  10.279  1.00  0.00     0.016 A 
ATOM     41  C   UNL     1       5.354 -15.814  10.998  1.00  0.00     0.158 A 
ATOM     42  C   UNL     1       3.113 -16.521  11.600  1.00  0.00     0.051 A 
ATOM     43  C   UNL     1       4.349 -15.974  11.968  1.00  0.00     0.157 A 
BRANCH  41  44
ATOM     44  O   UNL     1       6.591 -15.265  11.331  1.00  0.00    -0.504 OA
ATOM     45  H   UNL     1       6.674 -14.427  11.896  1.00  0.00     0.293 HD
ENDBRANCH  41  44
BRANCH  43  46
ATOM     46  O   UNL     1       4.580 -15.584  13.284  1.00  0.00    -0.504 OA
ATOM     47  H   UNL     1       4.336 -14.655  13.615  1.00  0.00     0.293 HD
ENDBRANCH  43  46
ENDBRANCH  28  38
BRANCH  34  48
ATOM     48  O   UNL     1       2.888 -17.618   2.876  1.00  0.00    -0.507 OA
ATOM     49  H   UNL     1       3.558 -17.648   2.116  1.00  0.00     0.293 HD
ENDBRANCH  34  48
BRANCH  37  50
ATOM     50  O   UNL     1       2.875 -22.104   4.645  1.00  0.00    -0.508 OA
ATOM     51  H   UNL     1       2.980 -22.770   5.402  1.00  0.00     0.293 HD
ENDBRANCH  37  50
ENDBRANCH  26  27
ENDBRANCH   5  26
BRANCH   4  52
ATOM     52  O   UNL     1       6.025 -15.681   6.323  1.00  0.00    -0.384 OA
ATOM     53  H   UNL     1       5.233 -16.278   6.256  1.00  0.00     0.211 HD
ENDBRANCH   4  52
TORSDOF 16
ENDMDL
MODEL 3
REMARK VINA RESULT:     6.352      4.947     11.675
REMARK INTER + INTRA:          12.139
REMARK INTER:                   9.537
REMARK INTRA:                   2.602
REMARK UNBOUND:                 1.703
REMARK SMILES C[C@@H]1O[C@@H](OC[C@@H]2O[C@@H](Oc3c(-c4ccc(O)c(O)c4)oc4cc(O)cc(O)c4c3=O)[C@@H](O)[C@H](O)[C@H]2O)[C@H](O)[C@@H](O)[C@@H]1O
REMARK SMILES IDX 7 1 36 2 34 3 32 4 9 5 8 6 6 7 5 8 4 9 1 10 2 11 42 12 3 13
REMARK SMILES IDX 40 14 38 15 43 16 41 18 39 20 37 22 35 24 10 26 11 27 12 28
REMARK SMILES IDX 30 29 21 30 29 31 31 32 22 33 27 34 23 35 26 36 24 37 13 38
REMARK SMILES IDX 20 39 14 40 18 41 15 42 16 43 19 44 17 46 28 48 25 50 33 52
REMARK H PARENT 43 17 41 19 39 21 37 23 35 25 19 45 17 47 28 49 25 51 33 53
REMARK Flexibility Score: inf
ROOT
ATOM      1  C   UNL     1       6.589  -5.264   3.964  1.00  0.00     0.180 C 
ATOM      2  C   UNL     1       6.487  -3.718   3.988  1.00  0.00     0.177 C 
ATOM      3  C   UNL     1       5.015  -3.279   4.000  1.00  0.00     0.180 C 
ATOM      4  C   UNL     1       4.246  -3.982   2.875  1.00  0.00     0.214 C 
ATOM      5  C   UNL     1       4.472  -5.500   2.952  1.00  0.00     0.339 C 
ATOM      6  O   UNL     1       5.855  -5.805   2.875  1.00  0.00    -0.332 OA
ENDROOT
BRANCH   1   7
ATOM      7  C   UNL     1       8.046  -5.722   3.801  1.00  0.00     0.198 C 
BRANCH   7   8
ATOM      8  O   UNL     1       8.892  -4.632   3.486  1.00  0.00    -0.347 OA
BRANCH   8   9
ATOM      9  C   UNL     1      10.246  -4.934   3.808  1.00  0.00     0.281 C 
ATOM     10  C   UNL     1       9.622  -7.550   6.330  1.00  0.00     0.041 C 
ATOM     11  C   UNL     1       9.642  -6.141   5.734  1.00  0.00     0.150 C 
ATOM     12  C   UNL     1      10.308  -5.134   6.705  1.00  0.00     0.174 C 
ATOM     13  O   UNL     1      10.327  -6.175   4.493  1.00  0.00    -0.344 OA
ATOM     14  C   UNL     1      10.352  -3.731   6.066  1.00  0.00     0.179 C 
ATOM     15  C   UNL     1      10.892  -3.786   4.621  1.00  0.00     0.202 C 
BRANCH  12  16
ATOM     16  O   UNL     1      11.598  -5.540   7.105  1.00  0.00    -0.388 OA
ATOM     17  H   UNL     1      11.627  -5.566   8.097  1.00  0.00     0.211 HD
ENDBRANCH  12  16
BRANCH  14  18
ATOM     18  O   UNL     1       9.063  -3.173   6.054  1.00  0.00    -0.387 OA
ATOM     19  H   UNL     1       8.489  -3.749   6.622  1.00  0.00     0.211 HD
ENDBRANCH  14  18
BRANCH  15  20
ATOM     20  O   UNL     1      12.287  -3.955   4.628  1.00  0.00    -0.385 OA
ATOM     21  H   UNL     1      12.471  -4.874   4.293  1.00  0.00     0.211 HD
ENDBRANCH  15  20
ENDBRANCH   8   9
ENDBRANCH   7   8
ENDBRANCH   1   7
BRANCH   2  22
ATOM     22  O   UNL     1       7.123  -3.215   5.133  1.00  0.00    -0.387 OA
ATOM     23  H   UNL     1       6.939  -2.241   5.163  1.00  0.00     0.211 HD
ENDBRANCH   2  22
BRANCH   3  24
ATOM     24  O   UNL     1       4.942  -1.887   3.824  1.00  0.00    -0.387 OA
ATOM     25  H   UNL     1       4.123  -1.575   4.295  1.00  0.00     0.211 HD
ENDBRANCH   3  24
BRANCH   5  26
ATOM     26  O   UNL     1       3.879  -6.032   4.140  1.00  0.00    -0.454 OA
BRANCH  26  27
ATOM     27  C   UNL     1       4.163  -7.265   4.761  1.00  0.00     0.214 A 
ATOM     28  C   UNL     1       4.840  -7.242   5.997  1.00  0.00     0.180 A 
ATOM     29  C   UNL     1       3.778  -8.520   4.235  1.00  0.00     0.239 A 
ATOM     30  O   UNL     1       5.055  -8.370   6.665  1.00  0.00    -0.452 OA
ATOM     31  C   UNL     1       4.047  -9.696   4.967  1.00  0.00     0.111 A 
ATOM     32  O   UNL     1       3.198  -8.594   3.119  1.00  0.00    -0.285 OA
ATOM     33  C   UNL     1       4.695  -9.564   6.215  1.00  0.00     0.146 A 
ATOM     34  C   UNL     1       3.693 -10.990   4.513  1.00  0.00     0.134 A 
ATOM     35  C   UNL     1       4.973 -10.692   6.992  1.00  0.00     0.094 A 
ATOM     36  C   UNL     1       3.986 -12.112   5.303  1.00  0.00     0.093 A 
ATOM     37  C   UNL     1       4.620 -11.967   6.538  1.00  0.00     0.123 A 
BRANCH  28  38
ATOM     38  C   UNL     1       5.307  -5.979   6.606  1.00  0.00     0.025 A 
ATOM     39  C   UNL     1       4.516  -4.822   6.499  1.00  0.00     0.062 A 
ATOM     40  C   UNL     1       6.499  -5.925   7.348  1.00  0.00     0.016 A 
ATOM     41  C   UNL     1       4.918  -3.626   7.102  1.00  0.00     0.158 A 
ATOM     42  C   UNL     1       6.904  -4.732   7.949  1.00  0.00     0.051 A 
ATOM     43  C   UNL     1       6.118  -3.578   7.832  1.00  0.00     0.157 A 
BRANCH  41  44
ATOM     44  O   UNL     1       4.111  -2.497   6.975  1.00  0.00    -0.504 OA
ATOM     45  H   UNL     1       4.176  -1.713   7.615  1.00  0.00     0.293 HD
ENDBRANCH  41  44
BRANCH  43  46
ATOM     46  O   UNL     1       6.519  -2.392   8.442  1.00  0.00    -0.504 OA
ATOM     47  H   UNL     1       6.155  -1.491   8.146  1.00  0.00     0.293 HD
ENDBRANCH  43  46
ENDBRANCH  28  38
BRANCH  34  48
ATOM     48  O   UNL     1       3.051 -11.171   3.287  1.00  0.00    -0.507 OA
ATOM     49  H   UNL     1       3.512 -10.959   2.410  1.00  0.00     0.293 HD
ENDBRANCH  34  48
BRANCH  37  50
ATOM     50  O   UNL     1       4.900 -13.096   7.304  1.00  0.00    -0.508 OA
ATOM     51  H   UNL     1       4.931 -14.021   6.890  1.00  0.00     0.293 HD
ENDBRANCH  37  50
ENDBRANCH  26  27
ENDBRANCH   5  26
BRANCH   4  52
ATOM     52  O   UNL     1       2.876  -3.693   2.991  1.00  0.00    -0.384 OA
ATOM     53  H   UNL     1       2.706  -2.883   2.441  1.00  0.00     0.211 HD
ENDBRANCH   4  52
TORSDOF 16
ENDMDL
MODEL 4
REMARK VINA RESULT:     6.364      1.813      5.470
REMARK INTER + INTRA:          12.160
REMARK INTER:                   5.744
REMARK INTRA:                   6.416
REMARK UNBOUND:                 1.703
REMARK SMILES C[C@@H]1O[C@@H](OC[C@@H]2O[C@@H](Oc3c(-c4ccc(O)c(O)c4)oc4cc(O)cc(O)c4c3=O)[C@@H](O)[C@H](O)[C@H]2O)[C@H](O)[C@@H](O)[C@@H]1O
REMARK SMILES IDX 7 1 36 2 34 3 32 4 9 5 8 6 6 7 5 8 4 9 1 10 2 11 42 12 3 13
REMARK SMILES IDX 40 14 38 15 43 16 41 18 39 20 37 22 35 24 10 26 11 27 12 28
REMARK SMILES IDX 30 29 21 30 29 31 31 32 22 33 27 34 23 35 26 36 24 37 13 38
REMARK SMILES IDX 20 39 14 40 18 41 15 42 16 43 19 44 17 46 28 48 25 50 33 52
REMARK H PARENT 43 17 41 19 39 21 37 23 35 25 19 45 17 47 28 49 25 51 33 53
REMARK Flexibility Score: inf
ROOT
ATOM      1  C   UNL     1       3.554 -15.531   3.845  1.00  0.00     0.180 C 
ATOM      2  C   UNL     1       5.087 -15.454   3.629  1.00  0.00     0.177 C 
ATOM      3  C   UNL     1       5.587 -14.020   3.854  1.00  0.00     0.180 C 
ATOM      4  C   UNL     1       4.747 -13.033   3.036  1.00  0.00     0.214 C 
ATOM      5  C   UNL     1       3.252 -13.252   3.320  1.00  0.00     0.339 C 
ATOM      6  O   UNL     1       2.877 -14.588   3.026  1.00  0.00    -0.332 OA
ENDROOT
BRANCH   1   7
ATOM      7  C   UNL     1       3.011 -16.920   3.478  1.00  0.00     0.198 C 
BRANCH   7   8
ATOM      8  O   UNL     1       3.992 -17.922   3.675  1.00  0.00    -0.347 OA
BRANCH   8   9
ATOM      9  C   UNL     1       3.383 -19.175   3.971  1.00  0.00     0.281 C 
ATOM     10  C   UNL     1       5.109 -19.869   7.153  1.00  0.00     0.041 C 
ATOM     11  C   UNL     1       4.957 -19.680   5.642  1.00  0.00     0.150 C 
ATOM     12  C   UNL     1       5.556 -20.881   4.866  1.00  0.00     0.174 C 
ATOM     13  O   UNL     1       3.583 -19.514   5.335  1.00  0.00    -0.344 OA
ATOM     14  C   UNL     1       5.354 -20.685   3.350  1.00  0.00     0.179 C 
ATOM     15  C   UNL     1       3.901 -20.281   3.021  1.00  0.00     0.202 C 
BRANCH  12  16
ATOM     16  O   UNL     1       5.020 -22.116   5.285  1.00  0.00    -0.388 OA
ATOM     17  H   UNL     1       5.393 -22.834   4.708  1.00  0.00     0.211 HD
ENDBRANCH  12  16
BRANCH  14  18
ATOM     18  O   UNL     1       6.227 -19.690   2.879  1.00  0.00    -0.387 OA
ATOM     19  H   UNL     1       7.027 -20.149   2.516  1.00  0.00     0.211 HD
ENDBRANCH  14  18
BRANCH  15  20
ATOM     20  O   UNL     1       3.053 -21.398   3.108  1.00  0.00    -0.385 OA
ATOM     21  H   UNL     1       3.585 -22.137   3.509  1.00  0.00     0.211 HD
ENDBRANCH  15  20
ENDBRANCH   8   9
ENDBRANCH   7   8
ENDBRANCH   1   7
BRANCH   2  22
ATOM     22  O   UNL     1       5.739 -16.313   4.526  1.00  0.00    -0.387 OA
ATOM     23  H   UNL     1       6.510 -15.813   4.897  1.00  0.00     0.211 HD
ENDBRANCH   2  22
BRANCH   3  24
ATOM     24  O   UNL     1       6.934 -13.929   3.465  1.00  0.00    -0.387 OA
ATOM     25  H   UNL     1       7.341 -13.189   3.991  1.00  0.00     0.211 HD
ENDBRANCH   3  24
BRANCH   5  26
ATOM     26  O   UNL     1       2.947 -12.903   4.673  1.00  0.00    -0.454 OA
BRANCH  26  27
ATOM     27  C   UNL     1       3.542 -13.414   5.844  1.00  0.00     0.214 A 
ATOM     28  C   UNL     1       4.234 -12.513   6.680  1.00  0.00     0.180 A 
ATOM     29  C   UNL     1       3.456 -14.766   6.248  1.00  0.00     0.239 A 
ATOM     30  O   UNL     1       4.739 -12.925   7.838  1.00  0.00    -0.452 OA
ATOM     31  C   UNL     1       4.027 -15.166   7.475  1.00  0.00     0.111 A 
ATOM     32  O   UNL     1       2.875 -15.614   5.520  1.00  0.00    -0.285 OA
ATOM     33  C   UNL     1       4.666 -14.180   8.259  1.00  0.00     0.146 A 
ATOM     34  C   UNL     1       3.984 -16.499   7.952  1.00  0.00     0.134 A 
ATOM     35  C   UNL     1       5.235 -14.514   9.491  1.00  0.00     0.094 A 
ATOM     36  C   UNL     1       4.567 -16.818   9.188  1.00  0.00     0.093 A 
ATOM     37  C   UNL     1       5.188 -15.832   9.957  1.00  0.00     0.123 A 
BRANCH  28  38
ATOM     38  C   UNL     1       4.400 -11.088   6.322  1.00  0.00     0.025 A 
ATOM     39  C   UNL     1       5.687 -10.524   6.300  1.00  0.00     0.062 A 
ATOM     40  C   UNL     1       3.301 -10.301   5.941  1.00  0.00     0.016 A 
ATOM     41  C   UNL     1       5.872  -9.189   5.926  1.00  0.00     0.158 A 
ATOM     42  C   UNL     1       3.483  -8.968   5.569  1.00  0.00     0.051 A 
ATOM     43  C   UNL     1       4.765  -8.405   5.557  1.00  0.00     0.157 A 
BRANCH  41  44
ATOM     44  O   UNL     1       7.161  -8.659   5.916  1.00  0.00    -0.504 OA
ATOM     45  H   UNL     1       7.333  -7.660   5.912  1.00  0.00     0.293 HD
ENDBRANCH  41  44
BRANCH  43  46
ATOM     46  O   UNL     1       4.945  -7.078   5.176  1.00  0.00    -0.504 OA
ATOM     47  H   UNL     1       4.222  -6.378   5.323  1.00  0.00     0.293 HD
ENDBRANCH  43  46
ENDBRANCH  28  38
BRANCH  34  48
ATOM     48  O   UNL     1       3.365 -17.507   7.213  1.00  0.00    -0.507 OA
ATOM     49  H   UNL     1       3.597 -17.671   6.240  1.00  0.00     0.293 HD
ENDBRANCH  34  48
BRANCH  37  50
ATOM     50  O   UNL     1       5.758 -16.173  11.181  1.00  0.00    -0.508 OA
ATOM     51  H   UNL     1       6.492 -15.611  11.598  1.00  0.00     0.293 HD
ENDBRANCH  37  50
ENDBRANCH  26  27
ENDBRANCH   5  26
BRANCH   4  52
ATOM     52  O   UNL     1       5.112 -11.718   3.367  1.00  0.00    -0.384 OA
ATOM     53  H   UNL     1       4.576 -11.115   2.786  1.00  0.00     0.211 HD
ENDBRANCH   4  52
TORSDOF 16
ENDMDL
MODEL 5
REMARK VINA RESULT:     7.444      2.359      8.410
REMARK INTER + INTRA:          13.934
REMARK INTER:                   9.120
REMARK INTRA:                   4.814
REMARK UNBOUND:                 1.703
REMARK SMILES C[C@@H]1O[C@@H](OC[C@@H]2O[C@@H](Oc3c(-c4ccc(O)c(O)c4)oc4cc(O)cc(O)c4c3=O)[C@@H](O)[C@H](O)[C@H]2O)[C@H](O)[C@@H](O)[C@@H]1O
REMARK SMILES IDX 7 1 36 2 34 3 32 4 9 5 8 6 6 7 5 8 4 9 1 10 2 11 42 12 3 13
REMARK SMILES IDX 40 14 38 15 43 16 41 18 39 20 37 22 35 24 10 26 11 27 12 28
REMARK SMILES IDX 30 29 21 30 29 31 31 32 22 33 27 34 23 35 26 36 24 37 13 38
REMARK SMILES IDX 20 39 14 40 18 41 15 42 16 43 19 44 17 46 28 48 25 50 33 52
REMARK H PARENT 43 17 41 19 39 21 37 23 35 25 19 45 17 47 28 49 25 51 33 53
REMARK Flexibility Score: inf
ROOT
ATOM      1  C   UNL     1       4.188 -15.799   7.751  1.00  0.00     0.180 C 
ATOM      2  C   UNL     1       5.421 -15.278   8.531  1.00  0.00     0.177 C 
ATOM      3  C   UNL     1       5.369 -15.751   9.992  1.00  0.00     0.180 C 
ATOM      4  C   UNL     1       4.003 -15.422  10.604  1.00  0.00     0.214 C 
ATOM      5  C   UNL     1       2.879 -15.961   9.706  1.00  0.00     0.339 C 
ATOM      6  O   UNL     1       2.981 -15.422   8.398  1.00  0.00    -0.332 OA
ENDROOT
BRANCH   1   7
ATOM      7  C   UNL     1       4.141 -15.215   6.331  1.00  0.00     0.198 C 
BRANCH   7   8
ATOM      8  O   UNL     1       3.662 -13.883   6.342  1.00  0.00    -0.347 OA
BRANCH   8   9
ATOM      9  C   UNL     1       4.728 -12.961   6.135  1.00  0.00     0.281 C 
ATOM     10  C   UNL     1       2.881  -9.846   6.825  1.00  0.00     0.041 C 
ATOM     11  C   UNL     1       3.274 -11.114   6.065  1.00  0.00     0.150 C 
ATOM     12  C   UNL     1       3.570 -10.802   4.575  1.00  0.00     0.174 C 
ATOM     13  O   UNL     1       4.405 -11.695   6.693  1.00  0.00    -0.344 OA
ATOM     14  C   UNL     1       4.003 -12.086   3.841  1.00  0.00     0.179 C 
ATOM     15  C   UNL     1       5.084 -12.853   4.633  1.00  0.00     0.202 C 
BRANCH  12  16
ATOM     16  O   UNL     1       4.537  -9.787   4.416  1.00  0.00    -0.388 OA
ATOM     17  H   UNL     1       4.962  -9.616   5.297  1.00  0.00     0.211 HD
ENDBRANCH  12  16
BRANCH  14  18
ATOM     18  O   UNL     1       2.891 -12.924   3.651  1.00  0.00    -0.387 OA
ATOM     19  H   UNL     1       2.642 -13.286   4.541  1.00  0.00     0.211 HD
ENDBRANCH  14  18
BRANCH  15  20
ATOM     20  O   UNL     1       6.329 -12.217   4.499  1.00  0.00    -0.385 OA
ATOM     21  H   UNL     1       6.441 -11.625   5.291  1.00  0.00     0.211 HD
ENDBRANCH  15  20
ENDBRANCH   8   9
ENDBRANCH   7   8
ENDBRANCH   1   7
BRANCH   2  22
ATOM     22  O   UNL     1       6.599 -15.756   7.937  1.00  0.00    -0.387 OA
ATOM     23  H   UNL     1       6.776 -16.651   8.324  1.00  0.00     0.211 HD
ENDBRANCH   2  22
BRANCH   3  24
ATOM     24  O   UNL     1       6.382 -15.112  10.725  1.00  0.00    -0.387 OA
ATOM     25  H   UNL     1       7.251 -15.458  10.388  1.00  0.00     0.211 HD
ENDBRANCH   3  24
BRANCH   5  26
ATOM     26  O   UNL     1       2.898 -17.391   9.690  1.00  0.00    -0.454 OA
BRANCH  26  27
ATOM     27  C   UNL     1       3.712 -18.229   8.901  1.00  0.00     0.214 A 
ATOM     28  C   UNL     1       4.619 -19.082   9.561  1.00  0.00     0.180 A 
ATOM     29  C   UNL     1       3.647 -18.288   7.489  1.00  0.00     0.239 A 
ATOM     30  O   UNL     1       5.347 -19.952   8.870  1.00  0.00    -0.452 OA
ATOM     31  C   UNL     1       4.456 -19.212   6.793  1.00  0.00     0.111 A 
ATOM     32  O   UNL     1       2.875 -17.524   6.853  1.00  0.00    -0.285 OA
ATOM     33  C   UNL     1       5.304 -20.051   7.549  1.00  0.00     0.146 A 
ATOM     34  C   UNL     1       4.450 -19.336   5.381  1.00  0.00     0.134 A 
ATOM     35  C   UNL     1       6.115 -20.995   6.914  1.00  0.00     0.094 A 
ATOM     36  C   UNL     1       5.276 -20.285   4.760  1.00  0.00     0.093 A 
ATOM     37  C   UNL     1       6.104 -21.114   5.520  1.00  0.00     0.123 A 
BRANCH  28  38
ATOM     38  C   UNL     1       4.775 -19.065  11.032  1.00  0.00     0.025 A 
ATOM     39  C   UNL     1       5.709 -18.195  11.620  1.00  0.00     0.062 A 
ATOM     40  C   UNL     1       3.963 -19.858  11.859  1.00  0.00     0.016 A 
ATOM     41  C   UNL     1       5.845 -18.134  13.011  1.00  0.00     0.158 A 
ATOM     42  C   UNL     1       4.099 -19.800  13.247  1.00  0.00     0.051 A 
ATOM     43  C   UNL     1       5.037 -18.939  13.831  1.00  0.00     0.157 A 
BRANCH  41  44
ATOM     44  O   UNL     1       6.782 -17.260  13.562  1.00  0.00    -0.504 OA
ATOM     45  H   UNL     1       6.771 -16.265  13.367  1.00  0.00     0.293 HD
ENDBRANCH  41  44
BRANCH  43  46
ATOM     46  O   UNL     1       5.163 -18.875  15.216  1.00  0.00    -0.504 OA
ATOM     47  H   UNL     1       5.250 -17.988  15.703  1.00  0.00     0.293 HD
ENDBRANCH  43  46
ENDBRANCH  28  38
BRANCH  34  48
ATOM     48  O   UNL     1       3.630 -18.529   4.592  1.00  0.00    -0.507 OA
ATOM     49  H   UNL     1       3.949 -18.151   3.708  1.00  0.00     0.293 HD
ENDBRANCH  34  48
BRANCH  37  50
ATOM     50  O   UNL     1       6.914 -22.048   4.881  1.00  0.00    -0.508 OA
ATOM     51  H   UNL     1       6.558 -22.633   4.133  1.00  0.00     0.293 HD
ENDBRANCH  37  50
ENDBRANCH  26  27
ENDBRANCH   5  26
BRANCH   4  52
ATOM     52  O   UNL     1       3.912 -15.993  11.884  1.00  0.00    -0.384 OA
ATOM     53  H   UNL     1       3.220 -16.705  11.833  1.00  0.00     0.211 HD
ENDBRANCH   4  52
TORSDOF 16
ENDMDL
MODEL 6
REMARK VINA RESULT:     7.626      1.636      2.530
REMARK INTER + INTRA:          14.233
REMARK INTER:                   9.221
REMARK INTRA:                   5.012
REMARK UNBOUND:                 1.703
REMARK SMILES C[C@@H]1O[C@@H](OC[C@@H]2O[C@@H](Oc3c(-c4ccc(O)c(O)c4)oc4cc(O)cc(O)c4c3=O)[C@@H](O)[C@H](O)[C@H]2O)[C@H](O)[C@@H](O)[C@@H]1O
REMARK SMILES IDX 7 1 36 2 34 3 32 4 9 5 8 6 6 7 5 8 4 9 1 10 2 11 42 12 3 13
REMARK SMILES IDX 40 14 38 15 43 16 41 18 39 20 37 22 35 24 10 26 11 27 12 28
REMARK SMILES IDX 30 29 21 30 29 31 31 32 22 33 27 34 23 35 26 36 24 37 13 38
REMARK SMILES IDX 20 39 14 40 18 41 15 42 16 43 19 44 17 46 28 48 25 50 33 52
REMARK H PARENT 43 17 41 19 39 21 37 23 35 25 19 45 17 47 28 49 25 51 33 53
REMARK Flexibility Score: inf
ROOT
ATOM      1  C   UNL     1       3.976 -16.468   6.949  1.00  0.00     0.180 C 
ATOM      2  C   UNL     1       4.101 -17.642   5.945  1.00  0.00     0.177 C 
ATOM      3  C   UNL     1       4.203 -17.108   4.509  1.00  0.00     0.180 C 
ATOM      4  C   UNL     1       3.070 -16.111   4.234  1.00  0.00     0.214 C 
ATOM      5  C   UNL     1       3.042 -15.032   5.328  1.00  0.00     0.339 C 
ATOM      6  O   UNL     1       2.887 -15.621   6.609  1.00  0.00    -0.332 OA
ENDROOT
BRANCH   1   7
ATOM      7  C   UNL     1       3.721 -16.981   8.375  1.00  0.00     0.198 C 
BRANCH   7   8
ATOM      8  O   UNL     1       3.880 -18.386   8.448  1.00  0.00    -0.347 OA
BRANCH   8   9
ATOM      9  C   UNL     1       3.116 -18.925   9.523  1.00  0.00     0.281 C 
ATOM     10  C   UNL     1       3.772 -16.290  12.016  1.00  0.00     0.041 C 
ATOM     11  C   UNL     1       4.086 -17.471  11.096  1.00  0.00     0.150 C 
ATOM     12  C   UNL     1       4.792 -18.611  11.874  1.00  0.00     0.174 C 
ATOM     13  O   UNL     1       2.880 -17.932  10.510  1.00  0.00    -0.344 OA
ATOM     14  C   UNL     1       5.061 -19.805  10.936  1.00  0.00     0.179 C 
ATOM     15  C   UNL     1       3.805 -20.176  10.120  1.00  0.00     0.202 C 
BRANCH  12  16
ATOM     16  O   UNL     1       4.064 -19.024  13.009  1.00  0.00    -0.388 OA
ATOM     17  H   UNL     1       3.197 -18.540  13.021  1.00  0.00     0.211 HD
ENDBRANCH  12  16
BRANCH  14  18
ATOM     18  O   UNL     1       6.108 -19.489  10.052  1.00  0.00    -0.387 OA
ATOM     19  H   UNL     1       5.748 -19.569   9.132  1.00  0.00     0.211 HD
ENDBRANCH  14  18
BRANCH  15  20
ATOM     20  O   UNL     1       2.886 -20.867  10.927  1.00  0.00    -0.385 OA
ATOM     21  H   UNL     1       3.365 -21.123  11.760  1.00  0.00     0.211 HD
ENDBRANCH  15  20
ENDBRANCH   8   9
ENDBRANCH   7   8
ENDBRANCH   1   7
BRANCH   2  22
ATOM     22  O   UNL     1       5.246 -18.398   6.235  1.00  0.00    -0.387 OA
ATOM     23  H   UNL     1       6.018 -17.776   6.211  1.00  0.00     0.211 HD
ENDBRANCH   2  22
BRANCH   3  24
ATOM     24  O   UNL     1       4.118 -18.180   3.605  1.00  0.00    -0.387 OA
ATOM     25  H   UNL     1       4.161 -17.795   2.689  1.00  0.00     0.211 HD
ENDBRANCH   3  24
BRANCH   5  26
ATOM     26  O   UNL     1       4.218 -14.222   5.258  1.00  0.00    -0.454 OA
BRANCH  26  27
ATOM     27  C   UNL     1       4.330 -12.846   5.544  1.00  0.00     0.214 A 
ATOM     28  C   UNL     1       4.862 -12.472   6.794  1.00  0.00     0.180 A 
ATOM     29  C   UNL     1       3.971 -11.822   4.638  1.00  0.00     0.239 A 
ATOM     30  O   UNL     1       5.069 -11.191   7.079  1.00  0.00    -0.452 OA
ATOM     31  C   UNL     1       4.186 -10.472   4.990  1.00  0.00     0.111 A 
ATOM     32  O   UNL     1       3.463 -12.106   3.522  1.00  0.00    -0.285 OA
ATOM     33  C   UNL     1       4.762 -10.202   6.251  1.00  0.00     0.146 A 
ATOM     34  C   UNL     1       3.857  -9.387   4.140  1.00  0.00     0.134 A 
ATOM     35  C   UNL     1       5.013  -8.885   6.648  1.00  0.00     0.094 A 
ATOM     36  C   UNL     1       4.110  -8.071   4.558  1.00  0.00     0.093 A 
ATOM     37  C   UNL     1       4.687  -7.819   5.804  1.00  0.00     0.123 A 
BRANCH  28  38
ATOM     38  C   UNL     1       5.235 -13.475   7.814  1.00  0.00     0.025 A 
ATOM     39  C   UNL     1       5.776 -14.708   7.411  1.00  0.00     0.062 A 
ATOM     40  C   UNL     1       5.119 -13.195   9.186  1.00  0.00     0.016 A 
ATOM     41  C   UNL     1       6.173 -15.655   8.360  1.00  0.00     0.158 A 
ATOM     42  C   UNL     1       5.513 -14.140  10.135  1.00  0.00     0.051 A 
ATOM     43  C   UNL     1       6.043 -15.372   9.730  1.00  0.00     0.157 A 
BRANCH  41  44
ATOM     44  O   UNL     1       6.705 -16.868   7.926  1.00  0.00    -0.504 OA
ATOM     45  H   UNL     1       7.034 -17.575   8.574  1.00  0.00     0.293 HD
ENDBRANCH  41  44
BRANCH  43  46
ATOM     46  O   UNL     1       6.445 -16.308  10.679  1.00  0.00    -0.504 OA
ATOM     47  H   UNL     1       5.870 -17.114  10.909  1.00  0.00     0.293 HD
ENDBRANCH  43  46
ENDBRANCH  28  38
BRANCH  34  48
ATOM     48  O   UNL     1       3.286  -9.604   2.886  1.00  0.00    -0.507 OA
ATOM     49  H   UNL     1       2.287  -9.529   2.738  1.00  0.00     0.293 HD
ENDBRANCH  34  48
BRANCH  37  50
ATOM     50  O   UNL     1       4.928  -6.504   6.195  1.00  0.00    -0.508 OA
ATOM     51  H   UNL     1       5.718  -5.982   5.834  1.00  0.00     0.293 HD
ENDBRANCH  37  50
ENDBRANCH  26  27
ENDBRANCH   5  26
BRANCH   4  52
ATOM     52  O   UNL     1       3.263 -15.516   2.976  1.00  0.00    -0.384 OA
ATOM     53  H   UNL     1       3.431 -16.254   2.332  1.00  0.00     0.211 HD
ENDBRANCH   4  52
TORSDOF 16
ENDMDL
