MODEL 1
REMARK VINA RESULT:     0.118      0.000      0.000
REMARK INTER + INTRA:           0.477
REMARK INTER:                   0.138
REMARK INTRA:                   0.339
REMARK UNBOUND:                 0.339
REMARK SMILES O=c1c(O)c(-c2ccc(O)cc2)oc2cc(O)cc(O)c12
REMARK SMILES IDX 5 1 3 2 2 3 1 4 21 5 19 6 18 7 16 8 15 9 14 10 13 11 6 12
REMARK SMILES IDX 7 13 8 14 9 15 12 16 11 17 10 18 4 20 20 22 17 24
REMARK H PARENT 10 19 4 21 20 23 17 25
REMARK Flexibility Score: inf
ROOT
ATOM      1  C   UNL     1      14.941  40.009 -12.150  1.00  0.00     0.180 A 
ATOM      2  C   UNL     1      14.083  39.142 -12.848  1.00  0.00     0.208 A 
ATOM      3  C   UNL     1      12.862  38.774 -12.260  1.00  0.00     0.238 A 
ATOM      4  O   UNL     1      12.074  38.041 -12.912  1.00  0.00    -0.285 OA
ATOM      5  C   UNL     1      12.522  39.263 -10.975  1.00  0.00     0.111 A 
ATOM      6  C   UNL     1      11.331  38.922 -10.267  1.00  0.00     0.134 A 
ATOM      7  C   UNL     1      11.036  39.567  -9.061  1.00  0.00     0.093 A 
ATOM      8  C   UNL     1      11.923  40.492  -8.503  1.00  0.00     0.123 A 
ATOM      9  C   UNL     1      13.117  40.786  -9.157  1.00  0.00     0.094 A 
ATOM     10  C   UNL     1      13.421  40.187 -10.381  1.00  0.00     0.146 A 
ATOM     11  O   UNL     1      14.564  40.503 -10.976  1.00  0.00    -0.452 OA
ENDROOT
BRANCH   1  12
ATOM     12  C   UNL     1      16.254  40.424 -12.693  1.00  0.00     0.021 A 
ATOM     13  C   UNL     1      16.862  41.598 -12.216  1.00  0.00     0.016 A 
ATOM     14  C   UNL     1      18.112  41.995 -12.699  1.00  0.00     0.047 A 
ATOM     15  C   UNL     1      18.778  41.219 -13.652  1.00  0.00     0.115 A 
ATOM     16  C   UNL     1      16.939  39.637 -13.638  1.00  0.00     0.016 A 
ATOM     17  C   UNL     1      18.189  40.037 -14.118  1.00  0.00     0.047 A 
BRANCH  15  18
ATOM     18  O   UNL     1      20.022  41.627 -14.125  1.00  0.00    -0.508 OA
ATOM     19  H   UNL     1      20.110  42.365 -14.814  1.00  0.00     0.293 HD
ENDBRANCH  15  18
ENDBRANCH   1  12
BRANCH   2  20
ATOM     20  O   UNL     1      14.427  38.689 -14.124  1.00  0.00    -0.502 OA
ATOM     21  H   UNL     1      15.275  38.166 -14.305  1.00  0.00     0.293 HD
ENDBRANCH   2  20
BRANCH   6  22
ATOM     22  O   UNL     1      10.424  37.945 -10.691  1.00  0.00    -0.507 OA
ATOM     23  H   UNL     1      10.453  36.975 -10.414  1.00  0.00     0.293 HD
ENDBRANCH   6  22
BRANCH   8  24
ATOM     24  O   UNL     1      11.630  41.117  -7.294  1.00  0.00    -0.508 OA
ATOM     25  H   UNL     1      10.852  41.762  -7.205  1.00  0.00     0.293 HD
ENDBRANCH   8  24
TORSDOF 5
ENDMDL
MODEL 2
REMARK VINA RESULT:     1.102      0.960      1.099
REMARK INTER + INTRA:           1.635
REMARK INTER:                   1.686
REMARK INTRA:                  -0.051
REMARK UNBOUND:                 0.339
REMARK SMILES O=c1c(O)c(-c2ccc(O)cc2)oc2cc(O)cc(O)c12
REMARK SMILES IDX 5 1 3 2 2 3 1 4 21 5 19 6 18 7 16 8 15 9 14 10 13 11 6 12
REMARK SMILES IDX 7 13 8 14 9 15 12 16 11 17 10 18 4 20 20 22 17 24
REMARK H PARENT 10 19 4 21 20 23 17 25
REMARK Flexibility Score: inf
ROOT
ATOM      1  C   UNL     1      14.168  39.406 -11.980  1.00  0.00     0.180 A 
ATOM      2  C   UNL     1      13.127  38.771 -12.679  1.00  0.00     0.208 A 
ATOM      3  C   UNL     1      11.879  38.622 -12.054  1.00  0.00     0.238 A 
ATOM      4  O   UNL     1      10.935  38.102 -12.704  1.00  0.00    -0.285 OA
ATOM      5  C   UNL     1      11.691  39.095 -10.733  1.00  0.00     0.111 A 
ATOM      6  C   UNL     1      10.481  38.961  -9.988  1.00  0.00     0.134 A 
ATOM      7  C   UNL     1      10.367  39.583  -8.738  1.00  0.00     0.093 A 
ATOM      8  C   UNL     1      11.443  40.276  -8.178  1.00  0.00     0.123 A 
ATOM      9  C   UNL     1      12.647  40.361  -8.872  1.00  0.00     0.094 A 
ATOM     10  C   UNL     1      12.780  39.784 -10.136  1.00  0.00     0.146 A 
ATOM     11  O   UNL     1      13.941  39.898 -10.767  1.00  0.00    -0.452 OA
ENDROOT
BRANCH   1  12
ATOM     12  C   UNL     1      15.518  39.578 -12.563  1.00  0.00     0.021 A 
ATOM     13  C   UNL     1      16.110  40.852 -12.576  1.00  0.00     0.016 A 
ATOM     14  C   UNL     1      17.393  41.033 -13.100  1.00  0.00     0.047 A 
ATOM     15  C   UNL     1      18.107  39.942 -13.604  1.00  0.00     0.115 A 
ATOM     16  C   UNL     1      16.250  38.481 -13.053  1.00  0.00     0.016 A 
ATOM     17  C   UNL     1      17.534  38.665 -13.577  1.00  0.00     0.047 A 
BRANCH  15  18
ATOM     18  O   UNL     1      19.384  40.137 -14.124  1.00  0.00    -0.508 OA
ATOM     19  H   UNL     1      19.549  40.173 -15.124  1.00  0.00     0.293 HD
ENDBRANCH  15  18
ENDBRANCH   1  12
BRANCH   2  20
ATOM     20  O   UNL     1      13.327  38.331 -13.990  1.00  0.00    -0.502 OA
ATOM     21  H   UNL     1      14.243  38.093 -14.351  1.00  0.00     0.293 HD
ENDBRANCH   2  20
BRANCH   6  22
ATOM     22  O   UNL     1       9.381  38.213 -10.416  1.00  0.00    -0.507 OA
ATOM     23  H   UNL     1       9.373  37.615 -11.228  1.00  0.00     0.293 HD
ENDBRANCH   6  22
BRANCH   8  24
ATOM     24  O   UNL     1      11.326  40.878  -6.927  1.00  0.00    -0.508 OA
ATOM     25  H   UNL     1      10.438  41.229  -6.588  1.00  0.00     0.293 HD
ENDBRANCH   8  24
TORSDOF 5
ENDMDL
MODEL 3
REMARK VINA RESULT:     1.235      2.402      5.939
REMARK INTER + INTRA:           1.791
REMARK INTER:                   1.349
REMARK INTRA:                   0.441
REMARK UNBOUND:                 0.339
REMARK SMILES O=c1c(O)c(-c2ccc(O)cc2)oc2cc(O)cc(O)c12
REMARK SMILES IDX 5 1 3 2 2 3 1 4 21 5 19 6 18 7 16 8 15 9 14 10 13 11 6 12
REMARK SMILES IDX 7 13 8 14 9 15 12 16 11 17 10 18 4 20 20 22 17 24
REMARK H PARENT 10 19 4 21 20 23 17 25
REMARK Flexibility Score: inf
ROOT
ATOM      1  C   UNL     1      15.025  40.971 -11.259  1.00  0.00     0.180 A 
ATOM      2  C   UNL     1      16.308  41.128 -11.810  1.00  0.00     0.208 A 
ATOM      3  C   UNL     1      16.830  40.108 -12.622  1.00  0.00     0.238 A 
ATOM      4  O   UNL     1      17.956  40.278 -13.158  1.00  0.00    -0.285 OA
ATOM      5  C   UNL     1      16.070  38.937 -12.858  1.00  0.00     0.111 A 
ATOM      6  C   UNL     1      16.516  37.823 -13.631  1.00  0.00     0.134 A 
ATOM      7  C   UNL     1      15.630  36.775 -13.907  1.00  0.00     0.093 A 
ATOM      8  C   UNL     1      14.335  36.769 -13.382  1.00  0.00     0.123 A 
ATOM      9  C   UNL     1      13.910  37.824 -12.577  1.00  0.00     0.094 A 
ATOM     10  C   UNL     1      14.759  38.901 -12.315  1.00  0.00     0.146 A 
ATOM     11  O   UNL     1      14.311  39.891 -11.553  1.00  0.00    -0.452 OA
ENDROOT
BRANCH   1  12
ATOM     12  C   UNL     1      14.418  41.991 -10.374  1.00  0.00     0.021 A 
ATOM     13  C   UNL     1      13.350  41.632  -9.534  1.00  0.00     0.016 A 
ATOM     14  C   UNL     1      12.777  42.574  -8.674  1.00  0.00     0.047 A 
ATOM     15  C   UNL     1      13.272  43.881  -8.632  1.00  0.00     0.115 A 
ATOM     16  C   UNL     1      14.924  43.303 -10.312  1.00  0.00     0.016 A 
ATOM     17  C   UNL     1      14.349  44.242  -9.451  1.00  0.00     0.047 A 
BRANCH  15  18
ATOM     18  O   UNL     1      12.690  44.809  -7.772  1.00  0.00    -0.508 OA
ATOM     19  H   UNL     1      13.194  45.632  -7.463  1.00  0.00     0.293 HD
ENDBRANCH  15  18
ENDBRANCH   1  12
BRANCH   2  20
ATOM     20  O   UNL     1      17.033  42.301 -11.583  1.00  0.00    -0.502 OA
ATOM     21  H   UNL     1      17.502  42.803 -12.327  1.00  0.00     0.293 HD
ENDBRANCH   2  20
BRANCH   6  22
ATOM     22  O   UNL     1      17.817  37.686 -14.123  1.00  0.00    -0.507 OA
ATOM     23  H   UNL     1      18.093  37.042 -14.848  1.00  0.00     0.293 HD
ENDBRANCH   6  22
BRANCH   8  24
ATOM     24  O   UNL     1      13.465  35.714 -13.648  1.00  0.00    -0.508 OA
ATOM     25  H   UNL     1      13.729  34.950 -14.260  1.00  0.00     0.293 HD
ENDBRANCH   8  24
TORSDOF 5
ENDMDL
MODEL 4
REMARK VINA RESULT:     1.794      1.615      6.539
REMARK INTER + INTRA:           2.447
REMARK INTER:                   2.342
REMARK INTRA:                   0.105
REMARK UNBOUND:                 0.339
REMARK SMILES O=c1c(O)c(-c2ccc(O)cc2)oc2cc(O)cc(O)c12
REMARK SMILES IDX 5 1 3 2 2 3 1 4 21 5 19 6 18 7 16 8 15 9 14 10 13 11 6 12
REMARK SMILES IDX 7 13 8 14 9 15 12 16 11 17 10 18 4 20 20 22 17 24
REMARK H PARENT 10 19 4 21 20 23 17 25
REMARK Flexibility Score: inf
ROOT
ATOM      1  C   UNL     1      13.377  39.149 -11.108  1.00  0.00     0.180 A 
ATOM      2  C   UNL     1      13.720  37.901 -11.654  1.00  0.00     0.208 A 
ATOM      3  C   UNL     1      14.909  37.783 -12.391  1.00  0.00     0.238 A 
ATOM      4  O   UNL     1      15.238  36.651 -12.831  1.00  0.00    -0.285 OA
ATOM      5  C   UNL     1      15.732  38.918 -12.587  1.00  0.00     0.111 A 
ATOM      6  C   UNL     1      16.938  38.923 -13.351  1.00  0.00     0.134 A 
ATOM      7  C   UNL     1      17.739  40.071 -13.368  1.00  0.00     0.093 A 
ATOM      8  C   UNL     1      17.345  41.235 -12.704  1.00  0.00     0.123 A 
ATOM      9  C   UNL     1      16.141  41.258 -12.005  1.00  0.00     0.094 A 
ATOM     10  C   UNL     1      15.337  40.118 -11.939  1.00  0.00     0.146 A 
ATOM     11  O   UNL     1      14.203  40.179 -11.253  1.00  0.00    -0.452 OA
ENDROOT
BRANCH   1  12
ATOM     12  C   UNL     1      12.129  39.358 -10.339  1.00  0.00     0.021 A 
ATOM     13  C   UNL     1      12.148  40.171  -9.194  1.00  0.00     0.016 A 
ATOM     14  C   UNL     1      10.976  40.399  -8.467  1.00  0.00     0.047 A 
ATOM     15  C   UNL     1       9.768  39.832  -8.883  1.00  0.00     0.115 A 
ATOM     16  C   UNL     1      10.906  38.806 -10.764  1.00  0.00     0.016 A 
ATOM     17  C   UNL     1       9.735  39.037 -10.036  1.00  0.00     0.047 A 
BRANCH  15  18
ATOM     18  O   UNL     1       8.608  40.067  -8.149  1.00  0.00    -0.508 OA
ATOM     19  H   UNL     1       8.316  41.007  -7.907  1.00  0.00     0.293 HD
ENDBRANCH  15  18
ENDBRANCH   1  12
BRANCH   2  20
ATOM     20  O   UNL     1      12.905  36.788 -11.430  1.00  0.00    -0.502 OA
ATOM     21  H   UNL     1      13.119  36.089 -10.729  1.00  0.00     0.293 HD
ENDBRANCH   2  20
BRANCH   6  22
ATOM     22  O   UNL     1      17.375  37.844 -14.125  1.00  0.00    -0.507 OA
ATOM     23  H   UNL     1      18.045  37.910 -14.876  1.00  0.00     0.293 HD
ENDBRANCH   6  22
BRANCH   8  24
ATOM     24  O   UNL     1      18.141  42.377 -12.739  1.00  0.00    -0.508 OA
ATOM     25  H   UNL     1      18.611  42.722 -11.910  1.00  0.00     0.293 HD
ENDBRANCH   8  24
TORSDOF 5
ENDMDL
MODEL 5
REMARK VINA RESULT:     2.879      1.949      6.975
REMARK INTER + INTRA:           3.723
REMARK INTER:                   3.594
REMARK INTRA:                   0.129
REMARK UNBOUND:                 0.339
REMARK SMILES O=c1c(O)c(-c2ccc(O)cc2)oc2cc(O)cc(O)c12
REMARK SMILES IDX 5 1 3 2 2 3 1 4 21 5 19 6 18 7 16 8 15 9 14 10 13 11 6 12
REMARK SMILES IDX 7 13 8 14 9 15 12 16 11 17 10 18 4 20 20 22 17 24
REMARK H PARENT 10 19 4 21 20 23 17 25
REMARK Flexibility Score: inf
ROOT
ATOM      1  C   UNL     1      13.554  39.679 -10.894  1.00  0.00     0.180 A 
ATOM      2  C   UNL     1      14.377  40.799 -11.105  1.00  0.00     0.208 A 
ATOM      3  C   UNL     1      15.544  40.651 -11.871  1.00  0.00     0.238 A 
ATOM      4  O   UNL     1      16.248  41.668 -12.102  1.00  0.00    -0.285 OA
ATOM      5  C   UNL     1      15.883  39.383 -12.403  1.00  0.00     0.111 A 
ATOM      6  C   UNL     1      17.062  39.110 -13.158  1.00  0.00     0.134 A 
ATOM      7  C   UNL     1      17.229  37.850 -13.746  1.00  0.00     0.093 A 
ATOM      8  C   UNL     1      16.292  36.833 -13.548  1.00  0.00     0.123 A 
ATOM      9  C   UNL     1      15.167  37.072 -12.762  1.00  0.00     0.094 A 
ATOM     10  C   UNL     1      14.954  38.330 -12.194  1.00  0.00     0.146 A 
ATOM     11  O   UNL     1      13.864  38.519 -11.461  1.00  0.00    -0.452 OA
ENDROOT
BRANCH   1  12
ATOM     12  C   UNL     1      12.320  39.750 -10.078  1.00  0.00     0.021 A 
ATOM     13  C   UNL     1      11.184  39.025 -10.475  1.00  0.00     0.016 A 
ATOM     14  C   UNL     1      10.017  39.060  -9.707  1.00  0.00     0.047 A 
ATOM     15  C   UNL     1       9.974  39.807  -8.526  1.00  0.00     0.115 A 
ATOM     16  C   UNL     1      12.276  40.484  -8.878  1.00  0.00     0.016 A 
ATOM     17  C   UNL     1      11.108  40.516  -8.112  1.00  0.00     0.047 A 
BRANCH  15  18
ATOM     18  O   UNL     1       8.803  39.833  -7.771  1.00  0.00    -0.508 OA
ATOM     19  H   UNL     1       7.900  39.989  -8.202  1.00  0.00     0.293 HD
ENDBRANCH  15  18
ENDBRANCH   1  12
BRANCH   2  20
ATOM     20  O   UNL     1      14.013  42.046 -10.590  1.00  0.00    -0.502 OA
ATOM     21  H   UNL     1      13.895  42.863 -11.177  1.00  0.00     0.293 HD
ENDBRANCH   2  20
BRANCH   6  22
ATOM     22  O   UNL     1      18.103  40.025 -13.338  1.00  0.00    -0.507 OA
ATOM     23  H   UNL     1      18.928  40.079 -12.761  1.00  0.00     0.293 HD
ENDBRANCH   6  22
BRANCH   8  24
ATOM     24  O   UNL     1      16.474  35.577 -14.123  1.00  0.00    -0.508 OA
ATOM     25  H   UNL     1      17.398  35.220 -14.334  1.00  0.00     0.293 HD
ENDBRANCH   8  24
TORSDOF 5
ENDMDL
MODEL 6
REMARK VINA RESULT:     3.015      2.077      5.851
REMARK INTER + INTRA:           3.883
REMARK INTER:                   3.394
REMARK INTRA:                   0.489
REMARK UNBOUND:                 0.339
REMARK SMILES O=c1c(O)c(-c2ccc(O)cc2)oc2cc(O)cc(O)c12
REMARK SMILES IDX 5 1 3 2 2 3 1 4 21 5 19 6 18 7 16 8 15 9 14 10 13 11 6 12
REMARK SMILES IDX 7 13 8 14 9 15 12 16 11 17 10 18 4 20 20 22 17 24
REMARK H PARENT 10 19 4 21 20 23 17 25
REMARK Flexibility Score: inf
ROOT
ATOM      1  C   UNL     1      14.185  40.301 -10.979  1.00  0.00     0.180 A 
ATOM      2  C   UNL     1      13.336  39.197 -11.168  1.00  0.00     0.208 A 
ATOM      3  C   UNL     1      13.765  38.141 -11.989  1.00  0.00     0.238 A 
ATOM      4  O   UNL     1      13.025  37.131 -12.110  1.00  0.00    -0.285 OA
ATOM      5  C   UNL     1      15.029  38.210 -12.624  1.00  0.00     0.111 A 
ATOM      6  C   UNL     1      15.547  37.218 -13.509  1.00  0.00     0.134 A 
ATOM      7  C   UNL     1      16.862  37.328 -13.976  1.00  0.00     0.093 A 
ATOM      8  C   UNL     1      17.655  38.429 -13.643  1.00  0.00     0.123 A 
ATOM      9  C   UNL     1      17.137  39.433 -12.828  1.00  0.00     0.094 A 
ATOM     10  C   UNL     1      15.841  39.333 -12.317  1.00  0.00     0.146 A 
ATOM     11  O   UNL     1      15.391  40.306 -11.535  1.00  0.00    -0.452 OA
ENDROOT
BRANCH   1  12
ATOM     12  C   UNL     1      13.794  41.463 -10.149  1.00  0.00     0.021 A 
ATOM     13  C   UNL     1      12.766  41.322  -9.201  1.00  0.00     0.016 A 
ATOM     14  C   UNL     1      12.397  42.399  -8.390  1.00  0.00     0.047 A 
ATOM     15  C   UNL     1      13.059  43.626  -8.505  1.00  0.00     0.115 A 
ATOM     16  C   UNL     1      14.469  42.693 -10.245  1.00  0.00     0.016 A 
ATOM     17  C   UNL     1      14.098  43.769  -9.433  1.00  0.00     0.047 A 
BRANCH  15  18
ATOM     18  O   UNL     1      12.680  44.691  -7.692  1.00  0.00    -0.508 OA
ATOM     19  H   UNL     1      11.704  44.902  -7.517  1.00  0.00     0.293 HD
ENDBRANCH  15  18
ENDBRANCH   1  12
BRANCH   2  20
ATOM     20  O   UNL     1      12.103  39.138 -10.515  1.00  0.00    -0.502 OA
ATOM     21  H   UNL     1      11.963  38.608  -9.663  1.00  0.00     0.293 HD
ENDBRANCH   2  20
BRANCH   6  22
ATOM     22  O   UNL     1      14.807  36.128 -13.976  1.00  0.00    -0.507 OA
ATOM     23  H   UNL     1      14.205  36.145 -14.786  1.00  0.00     0.293 HD
ENDBRANCH   6  22
BRANCH   8  24
ATOM     24  O   UNL     1      18.957  38.538 -14.125  1.00  0.00    -0.508 OA
ATOM     25  H   UNL     1      19.160  38.997 -15.006  1.00  0.00     0.293 HD
ENDBRANCH   8  24
TORSDOF 5
ENDMDL
