MODEL 1
REMARK VINA RESULT:    -6.585      0.000      0.000
REMARK INTER + INTRA:         -11.416
REMARK INTER:                 -10.435
REMARK INTRA:                  -0.981
REMARK UNBOUND:                -0.981
REMARK SMILES CCCCCCCCCCCC(=O)[O-]
REMARK SMILES IDX 7 1 8 2 9 3 10 4 11 5 12 6 13 7 14 8 6 9 5 10 4 11 3 12 2 13
REMARK SMILES IDX 1 14
REMARK H PARENT
REMARK Flexibility Score: inf
ROOT
ATOM      1  C   UNL     1      29.031  -3.281  19.765  1.00  0.00     0.000 C 
ENDROOT
BRANCH   1   2
ATOM      2  C   UNL     1      28.919  -4.269  18.589  1.00  0.00     0.000 C 
BRANCH   2   3
ATOM      3  C   UNL     1      27.501  -4.840  18.418  1.00  0.00     0.000 C 
BRANCH   3   4
ATOM      4  C   UNL     1      26.864  -5.258  19.755  1.00  0.00     0.006 C 
BRANCH   4   5
ATOM      5  C   UNL     1      25.331  -5.373  19.720  1.00  0.00     0.053 C 
BRANCH   5   6
ATOM      6  C   UNL     1      24.865  -6.777  19.965  1.00  0.00     0.041 C 
ATOM      7  O   UNL     1      23.652  -7.009  20.203  1.00  0.00    -0.550 OA
ATOM      8  O   UNL     1      25.779  -7.823  19.963  1.00  0.00    -0.550 OA
ENDBRANCH   5   6
ENDBRANCH   4   5
ENDBRANCH   3   4
ENDBRANCH   2   3
ENDBRANCH   1   2
BRANCH   1   9
ATOM      9  C   UNL     1      29.074  -1.792  19.372  1.00  0.00     0.000 C 
BRANCH   9  10
ATOM     10  C   UNL     1      28.051  -0.939  20.142  1.00  0.00    -0.000 C 
BRANCH  10  11
ATOM     11  C   UNL     1      26.801  -1.739  20.543  1.00  0.00    -0.000 C 
BRANCH  11  12
ATOM     12  C   UNL     1      25.540  -1.282  19.790  1.00  0.00    -0.000 C 
BRANCH  12  13
ATOM     13  C   UNL     1      25.384   0.247  19.777  1.00  0.00    -0.003 C 
ATOM     14  C   UNL     1      24.008   0.699  19.291  1.00  0.00     0.004 C 
ENDBRANCH  12  13
ENDBRANCH  11  12
ENDBRANCH  10  11
ENDBRANCH   9  10
ENDBRANCH   1   9
TORSDOF 10
ENDMDL
MODEL 2
REMARK VINA RESULT:    -6.570      0.748      1.846
REMARK INTER + INTRA:         -11.392
REMARK INTER:                 -10.395
REMARK INTRA:                  -0.997
REMARK UNBOUND:                -0.981
REMARK SMILES CCCCCCCCCCCC(=O)[O-]
REMARK SMILES IDX 7 1 8 2 9 3 10 4 11 5 12 6 13 7 14 8 6 9 5 10 4 11 3 12 2 13
REMARK SMILES IDX 1 14
REMARK H PARENT
REMARK Flexibility Score: inf
ROOT
ATOM      1  C   UNL     1      28.723  -4.504  18.624  1.00  0.00     0.000 C 
ENDROOT
BRANCH   1   2
ATOM      2  C   UNL     1      27.293  -5.042  18.427  1.00  0.00     0.000 C 
BRANCH   2   3
ATOM      3  C   UNL     1      26.527  -5.206  19.750  1.00  0.00     0.000 C 
BRANCH   3   4
ATOM      4  C   UNL     1      25.005  -5.317  19.545  1.00  0.00     0.006 C 
BRANCH   4   5
ATOM      5  C   UNL     1      24.487  -6.756  19.390  1.00  0.00     0.053 C 
BRANCH   5   6
ATOM      6  C   UNL     1      24.709  -7.572  20.627  1.00  0.00     0.041 C 
ATOM      7  O   UNL     1      25.657  -8.398  20.680  1.00  0.00    -0.550 OA
ATOM      8  O   UNL     1      23.848  -7.441  21.710  1.00  0.00    -0.550 OA
ENDBRANCH   5   6
ENDBRANCH   4   5
ENDBRANCH   3   4
ENDBRANCH   2   3
ENDBRANCH   1   2
BRANCH   1   9
ATOM      9  C   UNL     1      28.890  -3.480  19.763  1.00  0.00     0.000 C 
BRANCH   9  10
ATOM     10  C   UNL     1      29.199  -2.061  19.254  1.00  0.00    -0.000 C 
BRANCH  10  11
ATOM     11  C   UNL     1      28.028  -1.090  19.473  1.00  0.00    -0.000 C 
BRANCH  11  12
ATOM     12  C   UNL     1      27.017  -1.608  20.509  1.00  0.00    -0.000 C 
BRANCH  12  13
ATOM     13  C   UNL     1      25.589  -1.691  19.949  1.00  0.00    -0.003 C 
ATOM     14  C   UNL     1      24.928  -0.321  19.803  1.00  0.00     0.004 C 
ENDBRANCH  12  13
ENDBRANCH  11  12
ENDBRANCH  10  11
ENDBRANCH   9  10
ENDBRANCH   1   9
TORSDOF 10
ENDMDL
MODEL 3
REMARK VINA RESULT:    -6.502      2.717      5.664
REMARK INTER + INTRA:         -11.284
REMARK INTER:                 -10.417
REMARK INTRA:                  -0.867
REMARK UNBOUND:                -0.981
REMARK SMILES CCCCCCCCCCCC(=O)[O-]
REMARK SMILES IDX 7 1 8 2 9 3 10 4 11 5 12 6 13 7 14 8 6 9 5 10 4 11 3 12 2 13
REMARK SMILES IDX 1 14
REMARK H PARENT
REMARK Flexibility Score: inf
ROOT
ATOM      1  C   UNL     1      25.788  -2.278  20.369  1.00  0.00     0.000 C 
ENDROOT
BRANCH   1   2
ATOM      2  C   UNL     1      26.205  -0.963  19.683  1.00  0.00     0.000 C 
BRANCH   2   3
ATOM      3  C   UNL     1      27.619  -0.504  20.078  1.00  0.00     0.000 C 
BRANCH   3   4
ATOM      4  C   UNL     1      28.722  -1.230  19.286  1.00  0.00     0.006 C 
BRANCH   4   5
ATOM      5  C   UNL     1      29.221  -2.530  19.937  1.00  0.00     0.053 C 
BRANCH   5   6
ATOM      6  C   UNL     1      30.105  -3.318  19.018  1.00  0.00     0.041 C 
ATOM      7  O   UNL     1      29.607  -4.172  18.239  1.00  0.00    -0.550 OA
ATOM      8  O   UNL     1      31.481  -3.132  19.047  1.00  0.00    -0.550 OA
ENDBRANCH   5   6
ENDBRANCH   4   5
ENDBRANCH   3   4
ENDBRANCH   2   3
ENDBRANCH   1   2
BRANCH   1   9
ATOM      9  C   UNL     1      25.140  -3.326  19.444  1.00  0.00     0.000 C 
BRANCH   9  10
ATOM     10  C   UNL     1      26.162  -4.298  18.829  1.00  0.00    -0.000 C 
BRANCH  10  11
ATOM     11  C   UNL     1      26.694  -5.315  19.852  1.00  0.00    -0.000 C 
BRANCH  11  12
ATOM     12  C   UNL     1      26.636  -6.761  19.331  1.00  0.00    -0.000 C 
BRANCH  12  13
ATOM     13  C   UNL     1      25.911  -7.707  20.300  1.00  0.00    -0.003 C 
ATOM     14  C   UNL     1      24.417  -7.404  20.421  1.00  0.00     0.004 C 
ENDBRANCH  12  13
ENDBRANCH  11  12
ENDBRANCH  10  11
ENDBRANCH   9  10
ENDBRANCH   1   9
TORSDOF 10
ENDMDL
MODEL 4
REMARK VINA RESULT:    -6.454      3.311      5.707
REMARK INTER + INTRA:         -11.208
REMARK INTER:                 -10.328
REMARK INTRA:                  -0.880
REMARK UNBOUND:                -0.981
REMARK SMILES CCCCCCCCCCCC(=O)[O-]
REMARK SMILES IDX 7 1 8 2 9 3 10 4 11 5 12 6 13 7 14 8 6 9 5 10 4 11 3 12 2 13
REMARK SMILES IDX 1 14
REMARK H PARENT
REMARK Flexibility Score: inf
ROOT
ATOM      1  C   UNL     1      29.339  -2.247  19.347  1.00  0.00     0.000 C 
ENDROOT
BRANCH   1   2
ATOM      2  C   UNL     1      28.467  -1.107  19.907  1.00  0.00     0.000 C 
BRANCH   2   3
ATOM      3  C   UNL     1      27.166  -1.609  20.554  1.00  0.00     0.000 C 
BRANCH   3   4
ATOM      4  C   UNL     1      25.991  -1.666  19.560  1.00  0.00     0.006 C 
BRANCH   4   5
ATOM      5  C   UNL     1      24.746  -0.879  20.002  1.00  0.00     0.053 C 
BRANCH   5   6
ATOM      6  C   UNL     1      24.725   0.507  19.432  1.00  0.00     0.041 C 
ATOM      7  O   UNL     1      25.771   1.207  19.429  1.00  0.00    -0.550 OA
ATOM      8  O   UNL     1      23.541   1.036  18.934  1.00  0.00    -0.550 OA
ENDBRANCH   5   6
ENDBRANCH   4   5
ENDBRANCH   3   4
ENDBRANCH   2   3
ENDBRANCH   1   2
BRANCH   1   9
ATOM      9  C   UNL     1      28.879  -3.670  19.718  1.00  0.00     0.000 C 
BRANCH   9  10
ATOM     10  C   UNL     1      28.671  -4.573  18.490  1.00  0.00    -0.000 C 
BRANCH  10  11
ATOM     11  C   UNL     1      27.217  -5.053  18.353  1.00  0.00    -0.000 C 
BRANCH  11  12
ATOM     12  C   UNL     1      26.561  -5.344  19.713  1.00  0.00    -0.000 C 
BRANCH  12  13
ATOM     13  C   UNL     1      25.786  -6.670  19.722  1.00  0.00    -0.003 C 
ATOM     14  C   UNL     1      26.702  -7.894  19.690  1.00  0.00     0.004 C 
ENDBRANCH  12  13
ENDBRANCH  11  12
ENDBRANCH  10  11
ENDBRANCH   9  10
ENDBRANCH   1   9
TORSDOF 10
ENDMDL
MODEL 5
REMARK VINA RESULT:    -6.321      1.118      1.929
REMARK INTER + INTRA:         -10.997
REMARK INTER:                 -10.199
REMARK INTRA:                  -0.799
REMARK UNBOUND:                -0.981
REMARK SMILES CCCCCCCCCCCC(=O)[O-]
REMARK SMILES IDX 7 1 8 2 9 3 10 4 11 5 12 6 13 7 14 8 6 9 5 10 4 11 3 12 2 13
REMARK SMILES IDX 1 14
REMARK H PARENT
REMARK Flexibility Score: inf
ROOT
ATOM      1  C   UNL     1      28.585  -1.639  19.491  1.00  0.00     0.000 C 
ENDROOT
BRANCH   1   2
ATOM      2  C   UNL     1      28.404  -3.138  19.796  1.00  0.00     0.000 C 
BRANCH   2   3
ATOM      3  C   UNL     1      28.571  -4.028  18.553  1.00  0.00     0.000 C 
BRANCH   3   4
ATOM      4  C   UNL     1      27.542  -5.171  18.498  1.00  0.00     0.006 C 
BRANCH   4   5
ATOM      5  C   UNL     1      26.896  -5.511  19.852  1.00  0.00     0.053 C 
BRANCH   5   6
ATOM      6  C   UNL     1      25.400  -5.533  19.772  1.00  0.00     0.041 C 
ATOM      7  O   UNL     1      24.789  -4.673  19.086  1.00  0.00    -0.550 OA
ATOM      8  O   UNL     1      24.680  -6.484  20.485  1.00  0.00    -0.550 OA
ENDBRANCH   5   6
ENDBRANCH   4   5
ENDBRANCH   3   4
ENDBRANCH   2   3
ENDBRANCH   1   2
BRANCH   1   9
ATOM      9  C   UNL     1      27.325  -0.772  19.682  1.00  0.00     0.000 C 
BRANCH   9  10
ATOM     10  C   UNL     1      26.099  -1.587  20.130  1.00  0.00    -0.000 C 
BRANCH  10  11
ATOM     11  C   UNL     1      24.772  -0.910  19.749  1.00  0.00    -0.000 C 
BRANCH  11  12
ATOM     12  C   UNL     1      24.883   0.623  19.702  1.00  0.00    -0.000 C 
BRANCH  12  13
ATOM     13  C   UNL     1      23.595   1.293  19.201  1.00  0.00    -0.003 C 
ATOM     14  C   UNL     1      23.843   2.277  18.058  1.00  0.00     0.004 C 
ENDBRANCH  12  13
ENDBRANCH  11  12
ENDBRANCH  10  11
ENDBRANCH   9  10
ENDBRANCH   1   9
TORSDOF 10
ENDMDL
MODEL 6
REMARK VINA RESULT:    -6.274      2.847      6.143
REMARK INTER + INTRA:         -10.923
REMARK INTER:                 -10.252
REMARK INTRA:                  -0.671
REMARK UNBOUND:                -0.981
REMARK SMILES CCCCCCCCCCCC(=O)[O-]
REMARK SMILES IDX 7 1 8 2 9 3 10 4 11 5 12 6 13 7 14 8 6 9 5 10 4 11 3 12 2 13
REMARK SMILES IDX 1 14
REMARK H PARENT
REMARK Flexibility Score: inf
ROOT
ATOM      1  C   UNL     1      25.859  -3.992  19.166  1.00  0.00     0.000 C 
ENDROOT
BRANCH   1   2
ATOM      2  C   UNL     1      25.667  -2.902  20.238  1.00  0.00     0.000 C 
BRANCH   2   3
ATOM      3  C   UNL     1      26.298  -1.556  19.845  1.00  0.00     0.000 C 
BRANCH   3   4
ATOM      4  C   UNL     1      27.731  -1.391  20.382  1.00  0.00     0.006 C 
BRANCH   4   5
ATOM      5  C   UNL     1      28.819  -1.369  19.296  1.00  0.00     0.053 C 
BRANCH   5   6
ATOM      6  C   UNL     1      29.613  -2.640  19.268  1.00  0.00     0.041 C 
ATOM      7  O   UNL     1      29.695  -3.358  20.299  1.00  0.00    -0.550 OA
ATOM      8  O   UNL     1      30.291  -3.012  18.114  1.00  0.00    -0.550 OA
ENDBRANCH   5   6
ENDBRANCH   4   5
ENDBRANCH   3   4
ENDBRANCH   2   3
ENDBRANCH   1   2
BRANCH   1   9
ATOM      9  C   UNL     1      26.760  -5.171  19.581  1.00  0.00     0.000 C 
BRANCH   9  10
ATOM     10  C   UNL     1      26.139  -6.542  19.262  1.00  0.00    -0.000 C 
BRANCH  10  11
ATOM     11  C   UNL     1      26.664  -7.655  20.184  1.00  0.00    -0.000 C 
BRANCH  11  12
ATOM     12  C   UNL     1      25.560  -8.635  20.614  1.00  0.00    -0.000 C 
BRANCH  12  13
ATOM     13  C   UNL     1      24.289  -7.917  21.094  1.00  0.00    -0.003 C 
ATOM     14  C   UNL     1      23.722  -8.511  22.383  1.00  0.00     0.004 C 
ENDBRANCH  12  13
ENDBRANCH  11  12
ENDBRANCH  10  11
ENDBRANCH   9  10
ENDBRANCH   1   9
TORSDOF 10
ENDMDL
MODEL 7
REMARK VINA RESULT:    -6.240      3.160      6.034
REMARK INTER + INTRA:         -10.869
REMARK INTER:                 -10.172
REMARK INTRA:                  -0.697
REMARK UNBOUND:                -0.981
REMARK SMILES CCCCCCCCCCCC(=O)[O-]
REMARK SMILES IDX 7 1 8 2 9 3 10 4 11 5 12 6 13 7 14 8 6 9 5 10 4 11 3 12 2 13
REMARK SMILES IDX 1 14
REMARK H PARENT
REMARK Flexibility Score: inf
ROOT
ATOM      1  C   UNL     1      27.745  -4.370  18.724  1.00  0.00     0.000 C 
ENDROOT
BRANCH   1   2
ATOM      2  C   UNL     1      28.697  -3.375  19.413  1.00  0.00     0.000 C 
BRANCH   2   3
ATOM      3  C   UNL     1      28.185  -1.925  19.368  1.00  0.00     0.000 C 
BRANCH   3   4
ATOM      4  C   UNL     1      27.181  -1.613  20.493  1.00  0.00     0.006 C 
BRANCH   4   5
ATOM      5  C   UNL     1      25.735  -1.402  20.015  1.00  0.00     0.053 C 
BRANCH   5   6
ATOM      6  C   UNL     1      25.441   0.040  19.730  1.00  0.00     0.041 C 
ATOM      7  O   UNL     1      26.358   0.899  19.800  1.00  0.00    -0.550 OA
ATOM      8  O   UNL     1      24.147   0.438  19.421  1.00  0.00    -0.550 OA
ENDBRANCH   5   6
ENDBRANCH   4   5
ENDBRANCH   3   4
ENDBRANCH   2   3
ENDBRANCH   1   2
BRANCH   1   9
ATOM      9  C   UNL     1      26.913  -5.252  19.675  1.00  0.00     0.000 C 
BRANCH   9  10
ATOM     10  C   UNL     1      25.397  -5.055  19.503  1.00  0.00    -0.000 C 
BRANCH  10  11
ATOM     11  C   UNL     1      24.632  -6.388  19.456  1.00  0.00    -0.000 C 
BRANCH  11  12
ATOM     12  C   UNL     1      24.522  -7.054  20.838  1.00  0.00    -0.000 C 
BRANCH  12  13
ATOM     13  C   UNL     1      25.024  -8.506  20.834  1.00  0.00    -0.003 C 
ATOM     14  C   UNL     1      26.505  -8.621  20.474  1.00  0.00     0.004 C 
ENDBRANCH  12  13
ENDBRANCH  11  12
ENDBRANCH  10  11
ENDBRANCH   9  10
ENDBRANCH   1   9
TORSDOF 10
ENDMDL
MODEL 8
REMARK VINA RESULT:    -6.193      3.758      5.994
REMARK INTER + INTRA:         -10.794
REMARK INTER:                 -10.000
REMARK INTRA:                  -0.794
REMARK UNBOUND:                -0.981
REMARK SMILES CCCCCCCCCCCC(=O)[O-]
REMARK SMILES IDX 7 1 8 2 9 3 10 4 11 5 12 6 13 7 14 8 6 9 5 10 4 11 3 12 2 13
REMARK SMILES IDX 1 14
REMARK H PARENT
REMARK Flexibility Score: inf
ROOT
ATOM      1  C   UNL     1      28.189  -1.284  19.284  1.00  0.00     0.000 C 
ENDROOT
BRANCH   1   2
ATOM      2  C   UNL     1      27.183  -1.292  20.451  1.00  0.00     0.000 C 
BRANCH   2   3
ATOM      3  C   UNL     1      25.737  -1.026  19.998  1.00  0.00     0.000 C 
BRANCH   3   4
ATOM      4  C   UNL     1      25.475   0.459  19.688  1.00  0.00     0.006 C 
BRANCH   4   5
ATOM      5  C   UNL     1      24.038   0.769  19.235  1.00  0.00     0.053 C 
BRANCH   5   6
ATOM      6  C   UNL     1      23.997   1.837  18.185  1.00  0.00     0.041 C 
ATOM      7  O   UNL     1      23.303   1.679  17.148  1.00  0.00    -0.550 OA
ATOM      8  O   UNL     1      24.752   2.993  18.339  1.00  0.00    -0.550 OA
ENDBRANCH   5   6
ENDBRANCH   4   5
ENDBRANCH   3   4
ENDBRANCH   2   3
ENDBRANCH   1   2
BRANCH   1   9
ATOM      9  C   UNL     1      29.300  -2.348  19.366  1.00  0.00     0.000 C 
BRANCH   9  10
ATOM     10  C   UNL     1      28.765  -3.749  19.710  1.00  0.00    -0.000 C 
BRANCH  10  11
ATOM     11  C   UNL     1      28.073  -4.425  18.514  1.00  0.00    -0.000 C 
BRANCH  11  12
ATOM     12  C   UNL     1      27.300  -5.691  18.918  1.00  0.00    -0.000 C 
BRANCH  12  13
ATOM     13  C   UNL     1      26.091  -5.381  19.815  1.00  0.00    -0.003 C 
ATOM     14  C   UNL     1      25.115  -4.394  19.176  1.00  0.00     0.004 C 
ENDBRANCH  12  13
ENDBRANCH  11  12
ENDBRANCH  10  11
ENDBRANCH   9  10
ENDBRANCH   1   9
TORSDOF 10
ENDMDL
MODEL 9
REMARK VINA RESULT:    -6.120      1.241      3.155
REMARK INTER + INTRA:         -10.679
REMARK INTER:                  -9.705
REMARK INTRA:                  -0.973
REMARK UNBOUND:                -0.981
REMARK SMILES CCCCCCCCCCCC(=O)[O-]
REMARK SMILES IDX 7 1 8 2 9 3 10 4 11 5 12 6 13 7 14 8 6 9 5 10 4 11 3 12 2 13
REMARK SMILES IDX 1 14
REMARK H PARENT
REMARK Flexibility Score: inf
ROOT
ATOM      1  C   UNL     1      25.487  -2.829  20.235  1.00  0.00     0.000 C 
ENDROOT
BRANCH   1   2
ATOM      2  C   UNL     1      25.610  -3.914  19.149  1.00  0.00     0.000 C 
BRANCH   2   3
ATOM      3  C   UNL     1      26.682  -4.968  19.472  1.00  0.00     0.000 C 
BRANCH   3   4
ATOM      4  C   UNL     1      26.127  -6.404  19.460  1.00  0.00     0.006 C 
BRANCH   4   5
ATOM      5  C   UNL     1      24.602  -6.497  19.634  1.00  0.00     0.053 C 
BRANCH   5   6
ATOM      6  C   UNL     1      24.200  -7.691  20.446  1.00  0.00     0.041 C 
ATOM      7  O   UNL     1      22.997  -7.854  20.779  1.00  0.00    -0.550 OA
ATOM      8  O   UNL     1      25.160  -8.605  20.862  1.00  0.00    -0.550 OA
ENDBRANCH   5   6
ENDBRANCH   4   5
ENDBRANCH   3   4
ENDBRANCH   2   3
ENDBRANCH   1   2
BRANCH   1   9
ATOM      9  C   UNL     1      25.267  -1.396  19.712  1.00  0.00     0.000 C 
BRANCH   9  10
ATOM     10  C   UNL     1      26.535  -0.528  19.790  1.00  0.00    -0.000 C 
BRANCH  10  11
ATOM     11  C   UNL     1      27.624  -1.155  20.676  1.00  0.00    -0.000 C 
BRANCH  11  12
ATOM     12  C   UNL     1      29.000  -1.180  19.990  1.00  0.00    -0.000 C 
BRANCH  12  13
ATOM     13  C   UNL     1      29.089  -2.247  18.888  1.00  0.00    -0.003 C 
ATOM     14  C   UNL     1      30.101  -3.347  19.206  1.00  0.00     0.004 C 
ENDBRANCH  12  13
ENDBRANCH  11  12
ENDBRANCH  10  11
ENDBRANCH   9  10
ENDBRANCH   1   9
TORSDOF 10
ENDMDL
