MODEL 1
REMARK VINA RESULT:    -7.197      0.000      0.000
REMARK INTER + INTRA:          -8.972
REMARK INTER:                  -8.670
REMARK INTRA:                  -0.302
REMARK UNBOUND:                -0.302
REMARK SMILES O=c1c(O)c(-c2ccc(O)c(O)c2)oc2cc(O)cc(O)c12
REMARK SMILES IDX 5 1 3 2 2 3 1 4 22 5 20 6 19 7 17 8 16 9 15 10 14 11 6 12
REMARK SMILES IDX 7 13 8 14 9 15 13 16 11 17 10 18 12 20 4 22 21 24 18 26
REMARK H PARENT 10 19 12 21 4 23 21 25 18 27
REMARK Flexibility Score: inf
ROOT
ATOM      1  C   UNL     1      16.571 -24.712  31.968  1.00  0.00     0.180 A 
ATOM      2  C   UNL     1      17.658 -25.038  32.797  1.00  0.00     0.208 A 
ATOM      3  C   UNL     1      17.496 -24.971  34.190  1.00  0.00     0.238 A 
ATOM      4  O   UNL     1      18.455 -25.316  34.927  1.00  0.00    -0.285 OA
ATOM      5  C   UNL     1      16.255 -24.561  34.736  1.00  0.00     0.111 A 
ATOM      6  C   UNL     1      15.992 -24.417  36.132  1.00  0.00     0.134 A 
ATOM      7  C   UNL     1      14.690 -24.132  36.563  1.00  0.00     0.093 A 
ATOM      8  C   UNL     1      13.659 -23.922  35.650  1.00  0.00     0.123 A 
ATOM      9  C   UNL     1      13.919 -24.001  34.281  1.00  0.00     0.094 A 
ATOM     10  C   UNL     1      15.199 -24.319  33.821  1.00  0.00     0.146 A 
ATOM     11  O   UNL     1      15.401 -24.395  32.510  1.00  0.00    -0.452 OA
ENDROOT
BRANCH   1  12
ATOM     12  C   UNL     1      16.672 -24.736  30.491  1.00  0.00     0.025 A 
ATOM     13  C   UNL     1      16.547 -25.934  29.768  1.00  0.00     0.016 A 
ATOM     14  C   UNL     1      16.669 -25.937  28.376  1.00  0.00     0.051 A 
ATOM     15  C   UNL     1      16.930 -24.750  27.687  1.00  0.00     0.157 A 
ATOM     16  C   UNL     1      16.955 -23.547  29.797  1.00  0.00     0.062 A 
ATOM     17  C   UNL     1      17.076 -23.547  28.399  1.00  0.00     0.158 A 
BRANCH  15  18
ATOM     18  O   UNL     1      17.045 -24.783  26.298  1.00  0.00    -0.504 OA
ATOM     19  H   UNL     1      16.539 -24.139  25.700  1.00  0.00     0.293 HD
ENDBRANCH  15  18
BRANCH  17  20
ATOM     20  O   UNL     1      17.344 -22.360  27.719  1.00  0.00    -0.504 OA
ATOM     21  H   UNL     1      17.233 -21.457  28.165  1.00  0.00     0.293 HD
ENDBRANCH  17  20
ENDBRANCH   1  12
BRANCH   2  22
ATOM     22  O   UNL     1      18.866 -25.461  32.237  1.00  0.00    -0.502 OA
ATOM     23  H   UNL     1      19.082 -26.440  32.085  1.00  0.00     0.293 HD
ENDBRANCH   2  22
BRANCH   6  24
ATOM     24  O   UNL     1      16.971 -24.517  37.125  1.00  0.00    -0.507 OA
ATOM     25  H   UNL     1      17.174 -25.354  37.649  1.00  0.00     0.293 HD
ENDBRANCH   6  24
BRANCH   8  26
ATOM     26  O   UNL     1      12.380 -23.624  36.113  1.00  0.00    -0.508 OA
ATOM     27  H   UNL     1      12.160 -23.626  37.102  1.00  0.00     0.293 HD
ENDBRANCH   8  26
TORSDOF 6
ENDMDL
MODEL 2
REMARK VINA RESULT:    -6.688      6.651      9.175
REMARK INTER + INTRA:          -8.359
REMARK INTER:                  -8.026
REMARK INTRA:                  -0.333
REMARK UNBOUND:                -0.302
REMARK SMILES O=c1c(O)c(-c2ccc(O)c(O)c2)oc2cc(O)cc(O)c12
REMARK SMILES IDX 5 1 3 2 2 3 1 4 22 5 20 6 19 7 17 8 16 9 15 10 14 11 6 12
REMARK SMILES IDX 7 13 8 14 9 15 13 16 11 17 10 18 12 20 4 22 21 24 18 26
REMARK H PARENT 10 19 12 21 4 23 21 25 18 27
REMARK Flexibility Score: inf
ROOT
ATOM      1  C   UNL     1      10.069 -21.219  33.993  1.00  0.00     0.180 A 
ATOM      2  C   UNL     1      10.346 -22.342  34.791  1.00  0.00     0.208 A 
ATOM      3  C   UNL     1      10.333 -23.616  34.202  1.00  0.00     0.238 A 
ATOM      4  O   UNL     1      10.635 -24.613  34.908  1.00  0.00    -0.285 OA
ATOM      5  C   UNL     1      10.025 -23.753  32.826  1.00  0.00     0.111 A 
ATOM      6  C   UNL     1       9.943 -24.999  32.134  1.00  0.00     0.134 A 
ATOM      7  C   UNL     1       9.761 -25.006  30.745  1.00  0.00     0.093 A 
ATOM      8  C   UNL     1       9.593 -23.820  30.035  1.00  0.00     0.123 A 
ATOM      9  C   UNL     1       9.612 -22.599  30.710  1.00  0.00     0.094 A 
ATOM     10  C   UNL     1       9.828 -22.557  32.090  1.00  0.00     0.146 A 
ATOM     11  O   UNL     1       9.850 -21.374  32.693  1.00  0.00    -0.452 OA
ENDROOT
BRANCH   1  12
ATOM     12  C   UNL     1      10.041 -19.846  34.548  1.00  0.00     0.025 A 
ATOM     13  C   UNL     1       8.873 -19.312  35.119  1.00  0.00     0.016 A 
ATOM     14  C   UNL     1       8.862 -18.005  35.614  1.00  0.00     0.051 A 
ATOM     15  C   UNL     1      10.008 -17.210  35.535  1.00  0.00     0.157 A 
ATOM     16  C   UNL     1      11.184 -19.036  34.450  1.00  0.00     0.062 A 
ATOM     17  C   UNL     1      11.176 -17.725  34.948  1.00  0.00     0.158 A 
BRANCH  15  18
ATOM     18  O   UNL     1       9.968 -15.910  36.039  1.00  0.00    -0.504 OA
ATOM     19  H   UNL     1      10.432 -15.138  35.575  1.00  0.00     0.293 HD
ENDBRANCH  15  18
BRANCH  17  20
ATOM     20  O   UNL     1      12.321 -16.934  34.859  1.00  0.00    -0.504 OA
ATOM     21  H   UNL     1      12.603 -16.323  35.616  1.00  0.00     0.293 HD
ENDBRANCH  17  20
ENDBRANCH   1  12
BRANCH   2  22
ATOM     22  O   UNL     1      10.669 -22.182  36.141  1.00  0.00    -0.502 OA
ATOM     23  H   UNL     1      10.570 -21.295  36.622  1.00  0.00     0.293 HD
ENDBRANCH   2  22
BRANCH   6  24
ATOM     24  O   UNL     1      10.007 -26.246  32.762  1.00  0.00    -0.507 OA
ATOM     25  H   UNL     1       9.205 -26.788  33.045  1.00  0.00     0.293 HD
ENDBRANCH   6  24
BRANCH   8  26
ATOM     26  O   UNL     1       9.398 -23.865  28.656  1.00  0.00    -0.508 OA
ATOM     27  H   UNL     1      10.174 -23.965  28.013  1.00  0.00     0.293 HD
ENDBRANCH   8  26
TORSDOF 6
ENDMDL
MODEL 3
REMARK VINA RESULT:    -6.411      8.017      9.504
REMARK INTER + INTRA:          -8.025
REMARK INTER:                  -7.736
REMARK INTRA:                  -0.289
REMARK UNBOUND:                -0.302
REMARK SMILES O=c1c(O)c(-c2ccc(O)c(O)c2)oc2cc(O)cc(O)c12
REMARK SMILES IDX 5 1 3 2 2 3 1 4 22 5 20 6 19 7 17 8 16 9 15 10 14 11 6 12
REMARK SMILES IDX 7 13 8 14 9 15 13 16 11 17 10 18 12 20 4 22 21 24 18 26
REMARK H PARENT 10 19 12 21 4 23 21 25 18 27
REMARK Flexibility Score: inf
ROOT
ATOM      1  C   UNL     1       9.686 -27.962  27.059  1.00  0.00     0.180 A 
ATOM      2  C   UNL     1       8.545 -28.732  26.778  1.00  0.00     0.208 A 
ATOM      3  C   UNL     1       7.953 -29.475  27.811  1.00  0.00     0.238 A 
ATOM      4  O   UNL     1       6.900 -30.119  27.567  1.00  0.00    -0.285 OA
ATOM      5  C   UNL     1       8.521 -29.456  29.108  1.00  0.00     0.111 A 
ATOM      6  C   UNL     1       8.029 -30.203  30.220  1.00  0.00     0.134 A 
ATOM      7  C   UNL     1       8.591 -30.005  31.488  1.00  0.00     0.093 A 
ATOM      8  C   UNL     1       9.666 -29.138  31.672  1.00  0.00     0.123 A 
ATOM      9  C   UNL     1      10.193 -28.447  30.581  1.00  0.00     0.094 A 
ATOM     10  C   UNL     1       9.632 -28.596  29.310  1.00  0.00     0.146 A 
ATOM     11  O   UNL     1      10.156 -27.912  28.300  1.00  0.00    -0.452 OA
ENDROOT
BRANCH   1  12
ATOM     12  C   UNL     1      10.380 -27.171  26.017  1.00  0.00     0.025 A 
ATOM     13  C   UNL     1      11.572 -27.624  25.427  1.00  0.00     0.016 A 
ATOM     14  C   UNL     1      12.222 -26.850  24.462  1.00  0.00     0.051 A 
ATOM     15  C   UNL     1      11.702 -25.609  24.084  1.00  0.00     0.157 A 
ATOM     16  C   UNL     1       9.872 -25.914  25.650  1.00  0.00     0.062 A 
ATOM     17  C   UNL     1      10.522 -25.135  24.682  1.00  0.00     0.158 A 
BRANCH  15  18
ATOM     18  O   UNL     1      12.372 -24.859  23.118  1.00  0.00    -0.504 OA
ATOM     19  H   UNL     1      11.885 -24.224  22.495  1.00  0.00     0.293 HD
ENDBRANCH  15  18
BRANCH  17  20
ATOM     20  O   UNL     1      10.002 -23.895  24.314  1.00  0.00    -0.504 OA
ATOM     21  H   UNL     1       9.514 -23.764  23.436  1.00  0.00     0.293 HD
ENDBRANCH  17  20
ENDBRANCH   1  12
BRANCH   2  22
ATOM     22  O   UNL     1       7.988 -28.719  25.496  1.00  0.00    -0.502 OA
ATOM     23  H   UNL     1       8.349 -28.133  24.752  1.00  0.00     0.293 HD
ENDBRANCH   2  22
BRANCH   6  24
ATOM     24  O   UNL     1       7.018 -31.165  30.129  1.00  0.00    -0.507 OA
ATOM     25  H   UNL     1       6.283 -31.161  29.438  1.00  0.00     0.293 HD
ENDBRANCH   6  24
BRANCH   8  26
ATOM     26  O   UNL     1      10.210 -28.977  32.944  1.00  0.00    -0.508 OA
ATOM     27  H   UNL     1      10.054 -29.658  33.678  1.00  0.00     0.293 HD
ENDBRANCH   8  26
TORSDOF 6
ENDMDL
MODEL 4
REMARK VINA RESULT:    -6.398      8.189     11.027
REMARK INTER + INTRA:          -8.009
REMARK INTER:                  -7.680
REMARK INTRA:                  -0.328
REMARK UNBOUND:                -0.302
REMARK SMILES O=c1c(O)c(-c2ccc(O)c(O)c2)oc2cc(O)cc(O)c12
REMARK SMILES IDX 5 1 3 2 2 3 1 4 22 5 20 6 19 7 17 8 16 9 15 10 14 11 6 12
REMARK SMILES IDX 7 13 8 14 9 15 13 16 11 17 10 18 12 20 4 22 21 24 18 26
REMARK H PARENT 10 19 12 21 4 23 21 25 18 27
REMARK Flexibility Score: inf
ROOT
ATOM      1  C   UNL     1      10.174 -26.567  26.065  1.00  0.00     0.180 A 
ATOM      2  C   UNL     1      11.406 -26.753  25.415  1.00  0.00     0.208 A 
ATOM      3  C   UNL     1      11.792 -25.849  24.413  1.00  0.00     0.238 A 
ATOM      4  O   UNL     1      12.920 -25.989  23.873  1.00  0.00    -0.285 OA
ATOM      5  C   UNL     1      10.933 -24.780  24.060  1.00  0.00     0.111 A 
ATOM      6  C   UNL     1      11.204 -23.828  23.031  1.00  0.00     0.134 A 
ATOM      7  C   UNL     1      10.345 -22.736  22.857  1.00  0.00     0.093 A 
ATOM      8  C   UNL     1       9.193 -22.597  23.629  1.00  0.00     0.123 A 
ATOM      9  C   UNL     1       8.887 -23.553  24.597  1.00  0.00     0.094 A 
ATOM     10  C   UNL     1       9.743 -24.635  24.819  1.00  0.00     0.146 A 
ATOM     11  O   UNL     1       9.421 -25.517  25.757  1.00  0.00    -0.452 OA
ENDROOT
BRANCH   1  12
ATOM     12  C   UNL     1       9.688 -27.491  27.114  1.00  0.00     0.025 A 
ATOM     13  C   UNL     1       8.998 -28.671  26.787  1.00  0.00     0.016 A 
ATOM     14  C   UNL     1       8.527 -29.517  27.795  1.00  0.00     0.051 A 
ATOM     15  C   UNL     1       8.725 -29.193  29.139  1.00  0.00     0.157 A 
ATOM     16  C   UNL     1       9.867 -27.158  28.467  1.00  0.00     0.062 A 
ATOM     17  C   UNL     1       9.397 -28.007  29.480  1.00  0.00     0.158 A 
BRANCH  15  18
ATOM     18  O   UNL     1       8.245 -30.058  30.123  1.00  0.00    -0.504 OA
ATOM     19  H   UNL     1       8.684 -30.951  30.315  1.00  0.00     0.293 HD
ENDBRANCH  15  18
BRANCH  17  20
ATOM     20  O   UNL     1       9.591 -27.674  30.820  1.00  0.00    -0.504 OA
ATOM     21  H   UNL     1      10.098 -28.286  31.450  1.00  0.00     0.293 HD
ENDBRANCH  17  20
ENDBRANCH   1  12
BRANCH   2  22
ATOM     22  O   UNL     1      12.248 -27.802  25.795  1.00  0.00    -0.502 OA
ATOM     23  H   UNL     1      13.233 -27.665  25.992  1.00  0.00     0.293 HD
ENDBRANCH   2  22
BRANCH   6  24
ATOM     24  O   UNL     1      12.279 -23.924  22.143  1.00  0.00    -0.507 OA
ATOM     25  H   UNL     1      12.743 -23.137  21.714  1.00  0.00     0.293 HD
ENDBRANCH   6  24
BRANCH   8  26
ATOM     26  O   UNL     1       8.352 -21.506  23.418  1.00  0.00    -0.508 OA
ATOM     27  H   UNL     1       8.714 -20.563  23.346  1.00  0.00     0.293 HD
ENDBRANCH   8  26
TORSDOF 6
ENDMDL
MODEL 5
REMARK VINA RESULT:    -6.347      8.676     11.777
REMARK INTER + INTRA:          -7.947
REMARK INTER:                  -7.775
REMARK INTRA:                  -0.172
REMARK UNBOUND:                -0.302
REMARK SMILES O=c1c(O)c(-c2ccc(O)c(O)c2)oc2cc(O)cc(O)c12
REMARK SMILES IDX 5 1 3 2 2 3 1 4 22 5 20 6 19 7 17 8 16 9 15 10 14 11 6 12
REMARK SMILES IDX 7 13 8 14 9 15 13 16 11 17 10 18 12 20 4 22 21 24 18 26
REMARK H PARENT 10 19 12 21 4 23 21 25 18 27
REMARK Flexibility Score: inf
ROOT
ATOM      1  C   UNL     1       8.949 -28.692  27.971  1.00  0.00     0.180 A 
ATOM      2  C   UNL     1       8.530 -29.589  26.974  1.00  0.00     0.208 A 
ATOM      3  C   UNL     1       8.377 -29.123  25.659  1.00  0.00     0.238 A 
ATOM      4  O   UNL     1       8.054 -29.943  24.761  1.00  0.00    -0.285 OA
ATOM      5  C   UNL     1       8.627 -27.762  25.360  1.00  0.00     0.111 A 
ATOM      6  C   UNL     1       8.464 -27.172  24.070  1.00  0.00     0.134 A 
ATOM      7  C   UNL     1       8.866 -25.847  23.862  1.00  0.00     0.093 A 
ATOM      8  C   UNL     1       9.364 -25.072  24.908  1.00  0.00     0.123 A 
ATOM      9  C   UNL     1       9.471 -25.620  26.186  1.00  0.00     0.094 A 
ATOM     10  C   UNL     1       9.112 -26.951  26.418  1.00  0.00     0.146 A 
ATOM     11  O   UNL     1       9.240 -27.437  27.647  1.00  0.00    -0.452 OA
ENDROOT
BRANCH   1  12
ATOM     12  C   UNL     1       9.110 -29.103  29.385  1.00  0.00     0.025 A 
ATOM     13  C   UNL     1      10.376 -29.152  29.992  1.00  0.00     0.016 A 
ATOM     14  C   UNL     1      10.507 -29.565  31.321  1.00  0.00     0.051 A 
ATOM     15  C   UNL     1       9.382 -29.948  32.056  1.00  0.00     0.157 A 
ATOM     16  C   UNL     1       7.984 -29.509  30.120  1.00  0.00     0.062 A 
ATOM     17  C   UNL     1       8.113 -29.923  31.454  1.00  0.00     0.158 A 
BRANCH  15  18
ATOM     18  O   UNL     1       9.544 -30.355  33.380  1.00  0.00    -0.504 OA
ATOM     19  H   UNL     1       9.235 -31.263  33.706  1.00  0.00     0.293 HD
ENDBRANCH  15  18
BRANCH  17  20
ATOM     20  O   UNL     1       6.988 -30.310  32.179  1.00  0.00    -0.504 OA
ATOM     21  H   UNL     1       6.319 -30.975  31.806  1.00  0.00     0.293 HD
ENDBRANCH  17  20
ENDBRANCH   1  12
BRANCH   2  22
ATOM     22  O   UNL     1       8.310 -30.933  27.287  1.00  0.00    -0.502 OA
ATOM     23  H   UNL     1       7.528 -31.238  27.856  1.00  0.00     0.293 HD
ENDBRANCH   2  22
BRANCH   6  24
ATOM     24  O   UNL     1       7.892 -27.830  22.978  1.00  0.00    -0.507 OA
ATOM     25  H   UNL     1       7.583 -27.376  22.131  1.00  0.00     0.293 HD
ENDBRANCH   6  24
BRANCH   8  26
ATOM     26  O   UNL     1       9.740 -23.752  24.668  1.00  0.00    -0.508 OA
ATOM     27  H   UNL     1       9.156 -22.974  24.952  1.00  0.00     0.293 HD
ENDBRANCH   8  26
TORSDOF 6
ENDMDL
MODEL 6
REMARK VINA RESULT:    -6.301      6.489      9.051
REMARK INTER + INTRA:          -7.892
REMARK INTER:                  -7.835
REMARK INTRA:                  -0.057
REMARK UNBOUND:                -0.302
REMARK SMILES O=c1c(O)c(-c2ccc(O)c(O)c2)oc2cc(O)cc(O)c12
REMARK SMILES IDX 5 1 3 2 2 3 1 4 22 5 20 6 19 7 17 8 16 9 15 10 14 11 6 12
REMARK SMILES IDX 7 13 8 14 9 15 13 16 11 17 10 18 12 20 4 22 21 24 18 26
REMARK H PARENT 10 19 12 21 4 23 21 25 18 27
REMARK Flexibility Score: inf
ROOT
ATOM      1  C   UNL     1       9.612 -25.041  31.278  1.00  0.00     0.180 A 
ATOM      2  C   UNL     1       9.498 -25.067  29.877  1.00  0.00     0.208 A 
ATOM      3  C   UNL     1       9.201 -26.282  29.240  1.00  0.00     0.238 A 
ATOM      4  O   UNL     1       9.047 -26.288  27.992  1.00  0.00    -0.285 OA
ATOM      5  C   UNL     1       9.039 -27.460  30.010  1.00  0.00     0.111 A 
ATOM      6  C   UNL     1       8.777 -28.753  29.466  1.00  0.00     0.134 A 
ATOM      7  C   UNL     1       8.505 -29.822  30.329  1.00  0.00     0.093 A 
ATOM      8  C   UNL     1       8.549 -29.660  31.712  1.00  0.00     0.123 A 
ATOM      9  C   UNL     1       8.864 -28.414  32.254  1.00  0.00     0.094 A 
ATOM     10  C   UNL     1       9.104 -27.319  31.420  1.00  0.00     0.146 A 
ATOM     11  O   UNL     1       9.389 -26.148  31.976  1.00  0.00    -0.452 OA
ENDROOT
BRANCH   1  12
ATOM     12  C   UNL     1       9.947 -23.803  32.019  1.00  0.00     0.025 A 
ATOM     13  C   UNL     1       9.177 -22.636  31.880  1.00  0.00     0.016 A 
ATOM     14  C   UNL     1       9.525 -21.473  32.571  1.00  0.00     0.051 A 
ATOM     15  C   UNL     1      10.652 -21.452  33.397  1.00  0.00     0.157 A 
ATOM     16  C   UNL     1      11.091 -23.773  32.834  1.00  0.00     0.062 A 
ATOM     17  C   UNL     1      11.442 -22.606  33.530  1.00  0.00     0.158 A 
BRANCH  15  18
ATOM     18  O   UNL     1      10.974 -20.277  34.076  1.00  0.00    -0.504 OA
ATOM     19  H   UNL     1      10.407 -19.439  34.001  1.00  0.00     0.293 HD
ENDBRANCH  15  18
BRANCH  17  20
ATOM     20  O   UNL     1      12.571 -22.590  34.347  1.00  0.00    -0.504 OA
ATOM     21  H   UNL     1      12.584 -22.081  35.223  1.00  0.00     0.293 HD
ENDBRANCH  17  20
ENDBRANCH   1  12
BRANCH   2  22
ATOM     22  O   UNL     1       9.641 -23.888  29.139  1.00  0.00    -0.502 OA
ATOM     23  H   UNL     1       9.401 -23.830  28.156  1.00  0.00     0.293 HD
ENDBRANCH   2  22
BRANCH   6  24
ATOM     24  O   UNL     1       8.799 -29.044  28.099  1.00  0.00    -0.507 OA
ATOM     25  H   UNL     1       9.252 -29.847  27.690  1.00  0.00     0.293 HD
ENDBRANCH   6  24
BRANCH   8  26
ATOM     26  O   UNL     1       8.289 -30.749  32.541  1.00  0.00    -0.508 OA
ATOM     27  H   UNL     1       7.668 -30.674  33.337  1.00  0.00     0.293 HD
ENDBRANCH   8  26
TORSDOF 6
ENDMDL
MODEL 7
REMARK VINA RESULT:    -6.293      8.302      9.999
REMARK INTER + INTRA:          -7.883
REMARK INTER:                  -7.560
REMARK INTRA:                  -0.323
REMARK UNBOUND:                -0.302
REMARK SMILES O=c1c(O)c(-c2ccc(O)c(O)c2)oc2cc(O)cc(O)c12
REMARK SMILES IDX 5 1 3 2 2 3 1 4 22 5 20 6 19 7 17 8 16 9 15 10 14 11 6 12
REMARK SMILES IDX 7 13 8 14 9 15 13 16 11 17 10 18 12 20 4 22 21 24 18 26
REMARK H PARENT 10 19 12 21 4 23 21 25 18 27
REMARK Flexibility Score: inf
ROOT
ATOM      1  C   UNL     1       9.296 -26.489  26.065  1.00  0.00     0.180 A 
ATOM      2  C   UNL     1       8.488 -27.568  25.667  1.00  0.00     0.208 A 
ATOM      3  C   UNL     1       8.186 -28.572  26.600  1.00  0.00     0.238 A 
ATOM      4  O   UNL     1       7.418 -29.507  26.255  1.00  0.00    -0.285 OA
ATOM      5  C   UNL     1       8.709 -28.495  27.914  1.00  0.00     0.111 A 
ATOM      6  C   UNL     1       8.501 -29.477  28.929  1.00  0.00     0.134 A 
ATOM      7  C   UNL     1       8.957 -29.232  30.230  1.00  0.00     0.093 A 
ATOM      8  C   UNL     1       9.669 -28.074  30.538  1.00  0.00     0.123 A 
ATOM      9  C   UNL     1       9.930 -27.135  29.539  1.00  0.00     0.094 A 
ATOM     10  C   UNL     1       9.457 -27.334  28.240  1.00  0.00     0.146 A 
ATOM     11  O   UNL     1       9.717 -26.411  27.322  1.00  0.00    -0.452 OA
ENDROOT
BRANCH   1  12
ATOM     12  C   UNL     1       9.679 -25.405  25.131  1.00  0.00     0.025 A 
ATOM     13  C   UNL     1      10.890 -25.445  24.420  1.00  0.00     0.016 A 
ATOM     14  C   UNL     1      11.242 -24.399  23.563  1.00  0.00     0.051 A 
ATOM     15  C   UNL     1      10.399 -23.294  23.413  1.00  0.00     0.157 A 
ATOM     16  C   UNL     1       8.844 -24.283  24.994  1.00  0.00     0.062 A 
ATOM     17  C   UNL     1       9.195 -23.233  24.133  1.00  0.00     0.158 A 
BRANCH  15  18
ATOM     18  O   UNL     1      10.776 -22.267  22.549  1.00  0.00    -0.504 OA
ATOM     19  H   UNL     1      11.305 -22.442  21.702  1.00  0.00     0.293 HD
ENDBRANCH  15  18
BRANCH  17  20
ATOM     20  O   UNL     1       8.353 -22.130  23.994  1.00  0.00    -0.504 OA
ATOM     21  H   UNL     1       8.498 -21.282  24.529  1.00  0.00     0.293 HD
ENDBRANCH  17  20
ENDBRANCH   1  12
BRANCH   2  22
ATOM     22  O   UNL     1       7.965 -27.613  24.372  1.00  0.00    -0.502 OA
ATOM     23  H   UNL     1       8.401 -28.144  23.627  1.00  0.00     0.293 HD
ENDBRANCH   2  22
BRANCH   6  24
ATOM     24  O   UNL     1       7.881 -30.710  28.706  1.00  0.00    -0.507 OA
ATOM     25  H   UNL     1       8.349 -31.533  28.358  1.00  0.00     0.293 HD
ENDBRANCH   6  24
BRANCH   8  26
ATOM     26  O   UNL     1      10.122 -27.870  31.839  1.00  0.00    -0.508 OA
ATOM     27  H   UNL     1      10.729 -27.095  32.075  1.00  0.00     0.293 HD
ENDBRANCH   8  26
TORSDOF 6
ENDMDL
MODEL 8
REMARK VINA RESULT:    -6.191     10.015     12.814
REMARK INTER + INTRA:          -7.760
REMARK INTER:                  -7.465
REMARK INTRA:                  -0.295
REMARK UNBOUND:                -0.302
REMARK SMILES O=c1c(O)c(-c2ccc(O)c(O)c2)oc2cc(O)cc(O)c12
REMARK SMILES IDX 5 1 3 2 2 3 1 4 22 5 20 6 19 7 17 8 16 9 15 10 14 11 6 12
REMARK SMILES IDX 7 13 8 14 9 15 13 16 11 17 10 18 12 20 4 22 21 24 18 26
REMARK H PARENT 10 19 12 21 4 23 21 25 18 27
REMARK Flexibility Score: inf
ROOT
ATOM      1  C   UNL     1      12.300 -25.194  22.222  1.00  0.00     0.180 A 
ATOM      2  C   UNL     1      13.630 -25.014  22.639  1.00  0.00     0.208 A 
ATOM      3  C   UNL     1      14.648 -25.736  21.998  1.00  0.00     0.238 A 
ATOM      4  O   UNL     1      15.842 -25.531  22.339  1.00  0.00    -0.285 OA
ATOM      5  C   UNL     1      14.323 -26.644  20.960  1.00  0.00     0.111 A 
ATOM      6  C   UNL     1      15.270 -27.458  20.269  1.00  0.00     0.134 A 
ATOM      7  C   UNL     1      14.853 -28.222  19.172  1.00  0.00     0.093 A 
ATOM      8  C   UNL     1      13.516 -28.251  18.782  1.00  0.00     0.123 A 
ATOM      9  C   UNL     1      12.571 -27.504  19.487  1.00  0.00     0.094 A 
ATOM     10  C   UNL     1      12.962 -26.705  20.564  1.00  0.00     0.146 A 
ATOM     11  O   UNL     1      12.034 -26.002  21.202  1.00  0.00    -0.452 OA
ENDROOT
BRANCH   1  12
ATOM     12  C   UNL     1      11.169 -24.486  22.865  1.00  0.00     0.025 A 
ATOM     13  C   UNL     1      10.623 -23.320  22.304  1.00  0.00     0.016 A 
ATOM     14  C   UNL     1       9.571 -22.655  22.941  1.00  0.00     0.051 A 
ATOM     15  C   UNL     1       9.060 -23.134  24.150  1.00  0.00     0.157 A 
ATOM     16  C   UNL     1      10.668 -24.953  24.091  1.00  0.00     0.062 A 
ATOM     17  C   UNL     1       9.611 -24.288  24.731  1.00  0.00     0.158 A 
BRANCH  15  18
ATOM     18  O   UNL     1       8.010 -22.450  24.761  1.00  0.00    -0.504 OA
ATOM     19  H   UNL     1       7.190 -22.929  25.117  1.00  0.00     0.293 HD
ENDBRANCH  15  18
BRANCH  17  20
ATOM     20  O   UNL     1       9.112 -24.768  25.941  1.00  0.00    -0.504 OA
ATOM     21  H   UNL     1       8.982 -25.760  26.105  1.00  0.00     0.293 HD
ENDBRANCH  17  20
ENDBRANCH   1  12
BRANCH   2  22
ATOM     22  O   UNL     1      13.930 -24.097  23.651  1.00  0.00    -0.502 OA
ATOM     23  H   UNL     1      14.774 -23.536  23.642  1.00  0.00     0.293 HD
ENDBRANCH   2  22
BRANCH   6  24
ATOM     24  O   UNL     1      16.614 -27.573  20.635  1.00  0.00    -0.507 OA
ATOM     25  H   UNL     1      16.991 -27.305  21.532  1.00  0.00     0.293 HD
ENDBRANCH   6  24
BRANCH   8  26
ATOM     26  O   UNL     1      13.133 -29.034  17.695  1.00  0.00    -0.508 OA
ATOM     27  H   UNL     1      13.739 -29.161  16.893  1.00  0.00     0.293 HD
ENDBRANCH   8  26
TORSDOF 6
ENDMDL
MODEL 9
REMARK VINA RESULT:    -6.132      7.639     11.240
REMARK INTER + INTRA:          -7.689
REMARK INTER:                  -7.622
REMARK INTRA:                  -0.067
REMARK UNBOUND:                -0.302
REMARK SMILES O=c1c(O)c(-c2ccc(O)c(O)c2)oc2cc(O)cc(O)c12
REMARK SMILES IDX 5 1 3 2 2 3 1 4 22 5 20 6 19 7 17 8 16 9 15 10 14 11 6 12
REMARK SMILES IDX 7 13 8 14 9 15 13 16 11 17 10 18 12 20 4 22 21 24 18 26
REMARK H PARENT 10 19 12 21 4 23 21 25 18 27
REMARK Flexibility Score: inf
ROOT
ATOM      1  C   UNL     1       9.788 -27.435  26.793  1.00  0.00     0.180 A 
ATOM      2  C   UNL     1       8.820 -26.801  25.996  1.00  0.00     0.208 A 
ATOM      3  C   UNL     1       9.236 -26.060  24.879  1.00  0.00     0.238 A 
ATOM      4  O   UNL     1       8.362 -25.540  24.138  1.00  0.00    -0.285 OA
ATOM      5  C   UNL     1      10.616 -25.945  24.584  1.00  0.00     0.111 A 
ATOM      6  C   UNL     1      11.154 -25.185  23.501  1.00  0.00     0.134 A 
ATOM      7  C   UNL     1      12.525 -25.250  23.226  1.00  0.00     0.093 A 
ATOM      8  C   UNL     1      13.387 -25.994  24.030  1.00  0.00     0.123 A 
ATOM      9  C   UNL     1      12.880 -26.693  25.127  1.00  0.00     0.094 A 
ATOM     10  C   UNL     1      11.512 -26.677  25.406  1.00  0.00     0.146 A 
ATOM     11  O   UNL     1      11.069 -27.364  26.452  1.00  0.00    -0.452 OA
ENDROOT
BRANCH   1  12
ATOM     12  C   UNL     1       9.428 -28.214  28.000  1.00  0.00     0.025 A 
ATOM     13  C   UNL     1       8.531 -29.293  27.933  1.00  0.00     0.016 A 
ATOM     14  C   UNL     1       8.188 -29.999  29.089  1.00  0.00     0.051 A 
ATOM     15  C   UNL     1       8.722 -29.632  30.327  1.00  0.00     0.157 A 
ATOM     16  C   UNL     1       9.948 -27.835  29.249  1.00  0.00     0.062 A 
ATOM     17  C   UNL     1       9.606 -28.543  30.410  1.00  0.00     0.158 A 
BRANCH  15  18
ATOM     18  O   UNL     1       8.362 -30.357  31.463  1.00  0.00    -0.504 OA
ATOM     19  H   UNL     1       7.528 -30.142  31.997  1.00  0.00     0.293 HD
ENDBRANCH  15  18
BRANCH  17  20
ATOM     20  O   UNL     1      10.137 -28.167  31.643  1.00  0.00    -0.504 OA
ATOM     21  H   UNL     1       9.723 -27.424  32.194  1.00  0.00     0.293 HD
ENDBRANCH  17  20
ENDBRANCH   1  12
BRANCH   2  22
ATOM     22  O   UNL     1       7.462 -26.945  26.293  1.00  0.00    -0.502 OA
ATOM     23  H   UNL     1       6.782 -27.242  25.602  1.00  0.00     0.293 HD
ENDBRANCH   2  22
BRANCH   6  24
ATOM     24  O   UNL     1      10.394 -24.336  22.691  1.00  0.00    -0.507 OA
ATOM     25  H   UNL     1      10.350 -24.390  21.685  1.00  0.00     0.293 HD
ENDBRANCH   6  24
BRANCH   8  26
ATOM     26  O   UNL     1      14.748 -26.024  23.737  1.00  0.00    -0.508 OA
ATOM     27  H   UNL     1      15.142 -25.463  22.990  1.00  0.00     0.293 HD
ENDBRANCH   8  26
TORSDOF 6
ENDMDL
