MODEL 1
REMARK VINA RESULT:    -4.975      0.000      0.000
REMARK INTER + INTRA:          -9.572
REMARK INTER:                  -9.047
REMARK INTRA:                  -0.526
REMARK UNBOUND:                -0.526
REMARK SMILES CCCCCCCCCCCCCCCC(=O)[O-]
REMARK SMILES IDX 9 1 10 2 11 3 12 4 13 5 14 6 15 7 16 8 17 9 18 10 8 11 7 12
REMARK SMILES IDX 6 13 5 14 4 15 3 16 2 17 1 18
REMARK H PARENT
REMARK Flexibility Score: inf
ROOT
ATOM      1  C   UNL     1     -39.293  76.782 -20.053  1.00  0.00     0.000 C 
ENDROOT
BRANCH   1   2
ATOM      2  C   UNL     1     -38.579  75.699 -19.238  1.00  0.00     0.000 C 
BRANCH   2   3
ATOM      3  C   UNL     1     -38.338  74.438 -20.084  1.00  0.00     0.000 C 
BRANCH   3   4
ATOM      4  C   UNL     1     -37.737  73.282 -19.258  1.00  0.00     0.000 C 
BRANCH   4   5
ATOM      5  C   UNL     1     -38.343  71.904 -19.586  1.00  0.00     0.000 C 
BRANCH   5   6
ATOM      6  C   UNL     1     -37.601  70.703 -18.968  1.00  0.00     0.006 C 
BRANCH   6   7
ATOM      7  C   UNL     1     -36.106  70.951 -18.705  1.00  0.00     0.053 C 
BRANCH   7   8
ATOM      8  C   UNL     1     -35.308  69.685 -18.767  1.00  0.00     0.041 C 
ATOM      9  O   UNL     1     -35.793  68.609 -18.326  1.00  0.00    -0.550 OA
ATOM     10  O   UNL     1     -34.044  69.686 -19.343  1.00  0.00    -0.550 OA
ENDBRANCH   7   8
ENDBRANCH   6   7
ENDBRANCH   5   6
ENDBRANCH   4   5
ENDBRANCH   3   4
ENDBRANCH   2   3
ENDBRANCH   1   2
BRANCH   1  11
ATOM     11  C   UNL     1     -39.875  76.201 -21.351  1.00  0.00     0.000 C 
BRANCH  11  12
ATOM     12  C   UNL     1     -39.343  76.905 -22.609  1.00  0.00    -0.000 C 
BRANCH  12  13
ATOM     13  C   UNL     1     -39.939  76.327 -23.904  1.00  0.00    -0.000 C 
BRANCH  13  14
ATOM     14  C   UNL     1     -38.965  76.400 -25.094  1.00  0.00    -0.000 C 
BRANCH  14  15
ATOM     15  C   UNL     1     -39.274  75.434 -26.255  1.00  0.00    -0.000 C 
BRANCH  15  16
ATOM     16  C   UNL     1     -38.096  74.543 -26.698  1.00  0.00    -0.000 C 
BRANCH  16  17
ATOM     17  C   UNL     1     -37.045  75.249 -27.573  1.00  0.00    -0.003 C 
ATOM     18  C   UNL     1     -36.298  74.289 -28.496  1.00  0.00     0.004 C 
ENDBRANCH  16  17
ENDBRANCH  15  16
ENDBRANCH  14  15
ENDBRANCH  13  14
ENDBRANCH  12  13
ENDBRANCH  11  12
ENDBRANCH   1  11
TORSDOF 14
ENDMDL
MODEL 2
REMARK VINA RESULT:    -4.946      0.932      1.361
REMARK INTER + INTRA:          -9.519
REMARK INTER:                  -9.030
REMARK INTRA:                  -0.489
REMARK UNBOUND:                -0.526
REMARK SMILES CCCCCCCCCCCCCCCC(=O)[O-]
REMARK SMILES IDX 9 1 10 2 11 3 12 4 13 5 14 6 15 7 16 8 17 9 18 10 8 11 7 12
REMARK SMILES IDX 6 13 5 14 4 15 3 16 2 17 1 18
REMARK H PARENT
REMARK Flexibility Score: inf
ROOT
ATOM      1  C   UNL     1     -40.379  76.017 -21.257  1.00  0.00     0.000 C 
ENDROOT
BRANCH   1   2
ATOM      2  C   UNL     1     -38.868  75.991 -21.003  1.00  0.00     0.000 C 
BRANCH   2   3
ATOM      3  C   UNL     1     -38.539  75.246 -19.700  1.00  0.00     0.000 C 
BRANCH   3   4
ATOM      4  C   UNL     1     -38.239  73.751 -19.937  1.00  0.00     0.000 C 
BRANCH   4   5
ATOM      5  C   UNL     1     -37.232  73.152 -18.936  1.00  0.00     0.000 C 
BRANCH   5   6
ATOM      6  C   UNL     1     -37.063  71.623 -19.019  1.00  0.00     0.006 C 
BRANCH   6   7
ATOM      7  C   UNL     1     -35.633  71.129 -18.744  1.00  0.00     0.053 C 
BRANCH   7   8
ATOM      8  C   UNL     1     -35.561  69.635 -18.666  1.00  0.00     0.041 C 
ATOM      9  O   UNL     1     -36.567  68.971 -18.303  1.00  0.00    -0.550 OA
ATOM     10  O   UNL     1     -34.394  68.974 -19.030  1.00  0.00    -0.550 OA
ENDBRANCH   7   8
ENDBRANCH   6   7
ENDBRANCH   5   6
ENDBRANCH   4   5
ENDBRANCH   3   4
ENDBRANCH   2   3
ENDBRANCH   1   2
BRANCH   1  11
ATOM     11  C   UNL     1     -40.683  76.274 -22.740  1.00  0.00     0.000 C 
BRANCH  11  12
ATOM     12  C   UNL     1     -39.414  76.362 -23.602  1.00  0.00    -0.000 C 
BRANCH  12  13
ATOM     13  C   UNL     1     -39.664  75.955 -25.064  1.00  0.00    -0.000 C 
BRANCH  13  14
ATOM     14  C   UNL     1     -38.438  76.185 -25.966  1.00  0.00    -0.000 C 
BRANCH  14  15
ATOM     15  C   UNL     1     -37.538  74.950 -26.177  1.00  0.00    -0.000 C 
BRANCH  15  16
ATOM     16  C   UNL     1     -37.246  74.594 -27.648  1.00  0.00    -0.000 C 
BRANCH  16  17
ATOM     17  C   UNL     1     -36.312  73.387 -27.847  1.00  0.00    -0.003 C 
ATOM     18  C   UNL     1     -34.858  73.696 -27.498  1.00  0.00     0.004 C 
ENDBRANCH  16  17
ENDBRANCH  15  16
ENDBRANCH  14  15
ENDBRANCH  13  14
ENDBRANCH  12  13
ENDBRANCH  11  12
ENDBRANCH   1  11
TORSDOF 14
ENDMDL
MODEL 3
REMARK VINA RESULT:    -4.919      3.486      7.832
REMARK INTER + INTRA:          -9.471
REMARK INTER:                  -8.876
REMARK INTRA:                  -0.595
REMARK UNBOUND:                -0.526
REMARK SMILES CCCCCCCCCCCCCCCC(=O)[O-]
REMARK SMILES IDX 9 1 10 2 11 3 12 4 13 5 14 6 15 7 16 8 17 9 18 10 8 11 7 12
REMARK SMILES IDX 6 13 5 14 4 15 3 16 2 17 1 18
REMARK H PARENT
REMARK Flexibility Score: inf
ROOT
ATOM      1  C   UNL     1     -39.776  76.724 -20.556  1.00  0.00     0.000 C 
ENDROOT
BRANCH   1   2
ATOM      2  C   UNL     1     -39.173  76.982 -21.941  1.00  0.00     0.000 C 
BRANCH   2   3
ATOM      3  C   UNL     1     -40.097  76.461 -23.053  1.00  0.00     0.000 C 
BRANCH   3   4
ATOM      4  C   UNL     1     -39.496  76.663 -24.460  1.00  0.00     0.000 C 
BRANCH   4   5
ATOM      5  C   UNL     1     -38.109  76.017 -24.640  1.00  0.00     0.000 C 
BRANCH   5   6
ATOM      6  C   UNL     1     -37.212  76.687 -25.700  1.00  0.00     0.006 C 
BRANCH   6   7
ATOM      7  C   UNL     1     -36.109  75.776 -26.263  1.00  0.00     0.053 C 
BRANCH   7   8
ATOM      8  C   UNL     1     -36.647  74.797 -27.261  1.00  0.00     0.041 C 
ATOM      9  O   UNL     1     -36.228  73.609 -27.272  1.00  0.00    -0.550 OA
ATOM     10  O   UNL     1     -37.635  75.187 -28.156  1.00  0.00    -0.550 OA
ENDBRANCH   7   8
ENDBRANCH   6   7
ENDBRANCH   5   6
ENDBRANCH   4   5
ENDBRANCH   3   4
ENDBRANCH   2   3
ENDBRANCH   1   2
BRANCH   1  11
ATOM     11  C   UNL     1     -38.775  75.996 -19.647  1.00  0.00     0.000 C 
BRANCH  11  12
ATOM     12  C   UNL     1     -38.507  74.550 -20.094  1.00  0.00    -0.000 C 
BRANCH  12  13
ATOM     13  C   UNL     1     -37.743  73.737 -19.034  1.00  0.00    -0.000 C 
BRANCH  13  14
ATOM     14  C   UNL     1     -37.711  72.230 -19.347  1.00  0.00    -0.000 C 
BRANCH  14  15
ATOM     15  C   UNL     1     -36.564  71.446 -18.678  1.00  0.00    -0.000 C 
BRANCH  15  16
ATOM     16  C   UNL     1     -36.804  69.931 -18.528  1.00  0.00    -0.000 C 
BRANCH  16  17
ATOM     17  C   UNL     1     -35.529  69.070 -18.547  1.00  0.00    -0.003 C 
ATOM     18  C   UNL     1     -34.349  69.769 -19.219  1.00  0.00     0.004 C 
ENDBRANCH  16  17
ENDBRANCH  15  16
ENDBRANCH  14  15
ENDBRANCH  13  14
ENDBRANCH  12  13
ENDBRANCH  11  12
ENDBRANCH   1  11
TORSDOF 14
ENDMDL
MODEL 4
REMARK VINA RESULT:    -4.806      3.944      8.090
REMARK INTER + INTRA:          -9.264
REMARK INTER:                  -8.646
REMARK INTRA:                  -0.618
REMARK UNBOUND:                -0.526
REMARK SMILES CCCCCCCCCCCCCCCC(=O)[O-]
REMARK SMILES IDX 9 1 10 2 11 3 12 4 13 5 14 6 15 7 16 8 17 9 18 10 8 11 7 12
REMARK SMILES IDX 6 13 5 14 4 15 3 16 2 17 1 18
REMARK H PARENT
REMARK Flexibility Score: inf
ROOT
ATOM      1  C   UNL     1     -39.572  76.048 -21.371  1.00  0.00     0.000 C 
ENDROOT
BRANCH   1   2
ATOM      2  C   UNL     1     -41.028  75.614 -21.575  1.00  0.00     0.000 C 
BRANCH   2   3
ATOM      3  C   UNL     1     -41.575  76.127 -22.916  1.00  0.00     0.000 C 
BRANCH   3   4
ATOM      4  C   UNL     1     -40.474  76.746 -23.802  1.00  0.00     0.000 C 
BRANCH   4   5
ATOM      5  C   UNL     1     -40.310  76.049 -25.167  1.00  0.00     0.000 C 
BRANCH   5   6
ATOM      6  C   UNL     1     -38.854  75.744 -25.570  1.00  0.00     0.006 C 
BRANCH   6   7
ATOM      7  C   UNL     1     -38.717  74.840 -26.807  1.00  0.00     0.053 C 
BRANCH   7   8
ATOM      8  C   UNL     1     -37.971  75.517 -27.916  1.00  0.00     0.041 C 
ATOM      9  O   UNL     1     -38.531  76.416 -28.598  1.00  0.00    -0.550 OA
ATOM     10  O   UNL     1     -36.648  75.181 -28.172  1.00  0.00    -0.550 OA
ENDBRANCH   7   8
ENDBRANCH   6   7
ENDBRANCH   5   6
ENDBRANCH   4   5
ENDBRANCH   3   4
ENDBRANCH   2   3
ENDBRANCH   1   2
BRANCH   1  11
ATOM     11  C   UNL     1     -39.370  76.656 -19.974  1.00  0.00     0.000 C 
BRANCH  11  12
ATOM     12  C   UNL     1     -38.495  75.779 -19.065  1.00  0.00    -0.000 C 
BRANCH  12  13
ATOM     13  C   UNL     1     -38.183  74.408 -19.691  1.00  0.00    -0.000 C 
BRANCH  13  14
ATOM     14  C   UNL     1     -37.361  73.500 -18.759  1.00  0.00    -0.000 C 
BRANCH  14  15
ATOM     15  C   UNL     1     -37.493  71.988 -19.032  1.00  0.00    -0.000 C 
BRANCH  15  16
ATOM     16  C   UNL     1     -36.240  71.151 -18.708  1.00  0.00    -0.000 C 
BRANCH  16  17
ATOM     17  C   UNL     1     -36.484  69.634 -18.613  1.00  0.00    -0.003 C 
ATOM     18  C   UNL     1     -35.192  68.820 -18.646  1.00  0.00     0.004 C 
ENDBRANCH  16  17
ENDBRANCH  15  16
ENDBRANCH  14  15
ENDBRANCH  13  14
ENDBRANCH  12  13
ENDBRANCH  11  12
ENDBRANCH   1  11
TORSDOF 14
ENDMDL
MODEL 5
REMARK VINA RESULT:    -4.773      4.197      8.294
REMARK INTER + INTRA:          -9.205
REMARK INTER:                  -8.383
REMARK INTRA:                  -0.822
REMARK UNBOUND:                -0.526
REMARK SMILES CCCCCCCCCCCCCCCC(=O)[O-]
REMARK SMILES IDX 9 1 10 2 11 3 12 4 13 5 14 6 15 7 16 8 17 9 18 10 8 11 7 12
REMARK SMILES IDX 6 13 5 14 4 15 3 16 2 17 1 18
REMARK H PARENT
REMARK Flexibility Score: inf
ROOT
ATOM      1  C   UNL     1     -38.516  75.074 -19.629  1.00  0.00     0.000 C 
ENDROOT
BRANCH   1   2
ATOM      2  C   UNL     1     -39.629  75.652 -20.509  1.00  0.00     0.000 C 
BRANCH   2   3
ATOM      3  C   UNL     1     -39.191  76.975 -21.158  1.00  0.00     0.000 C 
BRANCH   3   4
ATOM      4  C   UNL     1     -39.427  76.988 -22.683  1.00  0.00     0.000 C 
BRANCH   4   5
ATOM      5  C   UNL     1     -38.263  76.388 -23.497  1.00  0.00     0.000 C 
BRANCH   5   6
ATOM      6  C   UNL     1     -38.360  76.598 -25.020  1.00  0.00     0.006 C 
BRANCH   6   7
ATOM      7  C   UNL     1     -38.666  75.318 -25.817  1.00  0.00     0.053 C 
BRANCH   7   8
ATOM      8  C   UNL     1     -39.212  75.622 -27.178  1.00  0.00     0.041 C 
ATOM      9  O   UNL     1     -40.294  75.101 -27.556  1.00  0.00    -0.550 OA
ATOM     10  O   UNL     1     -38.544  76.507 -28.014  1.00  0.00    -0.550 OA
ENDBRANCH   7   8
ENDBRANCH   6   7
ENDBRANCH   5   6
ENDBRANCH   4   5
ENDBRANCH   3   4
ENDBRANCH   2   3
ENDBRANCH   1   2
BRANCH   1  11
ATOM     11  C   UNL     1     -38.093  73.682 -20.121  1.00  0.00     0.000 C 
BRANCH  11  12
ATOM     12  C   UNL     1     -37.537  72.796 -18.995  1.00  0.00    -0.000 C 
BRANCH  12  13
ATOM     13  C   UNL     1     -36.362  73.456 -18.251  1.00  0.00    -0.000 C 
BRANCH  13  14
ATOM     14  C   UNL     1     -35.088  72.594 -18.265  1.00  0.00    -0.000 C 
BRANCH  14  15
ATOM     15  C   UNL     1     -35.062  71.478 -19.330  1.00  0.00    -0.000 C 
BRANCH  15  16
ATOM     16  C   UNL     1     -34.265  70.217 -18.940  1.00  0.00    -0.000 C 
BRANCH  16  17
ATOM     17  C   UNL     1     -35.119  68.952 -18.736  1.00  0.00    -0.003 C 
ATOM     18  C   UNL     1     -36.522  69.260 -18.218  1.00  0.00     0.004 C 
ENDBRANCH  16  17
ENDBRANCH  15  16
ENDBRANCH  14  15
ENDBRANCH  13  14
ENDBRANCH  12  13
ENDBRANCH  11  12
ENDBRANCH   1  11
TORSDOF 14
ENDMDL
MODEL 6
REMARK VINA RESULT:    -4.754      1.193      1.760
REMARK INTER + INTRA:          -9.170
REMARK INTER:                  -8.498
REMARK INTRA:                  -0.672
REMARK UNBOUND:                -0.526
REMARK SMILES CCCCCCCCCCCCCCCC(=O)[O-]
REMARK SMILES IDX 9 1 10 2 11 3 12 4 13 5 14 6 15 7 16 8 17 9 18 10 8 11 7 12
REMARK SMILES IDX 6 13 5 14 4 15 3 16 2 17 1 18
REMARK H PARENT
REMARK Flexibility Score: inf
ROOT
ATOM      1  C   UNL     1     -40.686  75.159 -21.161  1.00  0.00     0.000 C 
ENDROOT
BRANCH   1   2
ATOM      2  C   UNL     1     -39.414  75.978 -20.914  1.00  0.00     0.000 C 
BRANCH   2   3
ATOM      3  C   UNL     1     -38.608  75.405 -19.738  1.00  0.00     0.000 C 
BRANCH   3   4
ATOM      4  C   UNL     1     -38.238  73.921 -19.947  1.00  0.00     0.000 C 
BRANCH   4   5
ATOM      5  C   UNL     1     -37.358  73.337 -18.825  1.00  0.00     0.000 C 
BRANCH   5   6
ATOM      6  C   UNL     1     -37.050  71.832 -18.957  1.00  0.00     0.006 C 
BRANCH   6   7
ATOM      7  C   UNL     1     -35.557  71.480 -18.849  1.00  0.00     0.053 C 
BRANCH   7   8
ATOM      8  C   UNL     1     -35.329  70.000 -18.838  1.00  0.00     0.041 C 
ATOM      9  O   UNL     1     -34.252  69.522 -19.282  1.00  0.00    -0.550 OA
ATOM     10  O   UNL     1     -36.292  69.151 -18.307  1.00  0.00    -0.550 OA
ENDBRANCH   7   8
ENDBRANCH   6   7
ENDBRANCH   5   6
ENDBRANCH   4   5
ENDBRANCH   3   4
ENDBRANCH   2   3
ENDBRANCH   1   2
BRANCH   1  11
ATOM     11  C   UNL     1     -41.882  76.077 -21.458  1.00  0.00     0.000 C 
BRANCH  11  12
ATOM     12  C   UNL     1     -41.700  76.893 -22.747  1.00  0.00    -0.000 C 
BRANCH  12  13
ATOM     13  C   UNL     1     -42.105  76.106 -24.006  1.00  0.00    -0.000 C 
BRANCH  13  14
ATOM     14  C   UNL     1     -41.226  76.437 -25.225  1.00  0.00    -0.000 C 
BRANCH  14  15
ATOM     15  C   UNL     1     -39.754  75.989 -25.113  1.00  0.00    -0.000 C 
BRANCH  15  16
ATOM     16  C   UNL     1     -39.162  75.359 -26.390  1.00  0.00    -0.000 C 
BRANCH  16  17
ATOM     17  C   UNL     1     -37.750  74.768 -26.222  1.00  0.00    -0.003 C 
ATOM     18  C   UNL     1     -37.223  74.117 -27.499  1.00  0.00     0.004 C 
ENDBRANCH  16  17
ENDBRANCH  15  16
ENDBRANCH  14  15
ENDBRANCH  13  14
ENDBRANCH  12  13
ENDBRANCH  11  12
ENDBRANCH   1  11
TORSDOF 14
ENDMDL
MODEL 7
REMARK VINA RESULT:    -4.521      7.208     10.993
REMARK INTER + INTRA:          -8.747
REMARK INTER:                  -7.528
REMARK INTRA:                  -1.219
REMARK UNBOUND:                -0.526
REMARK SMILES CCCCCCCCCCCCCCCC(=O)[O-]
REMARK SMILES IDX 9 1 10 2 11 3 12 4 13 5 14 6 15 7 16 8 17 9 18 10 8 11 7 12
REMARK SMILES IDX 6 13 5 14 4 15 3 16 2 17 1 18
REMARK H PARENT
REMARK Flexibility Score: inf
ROOT
ATOM      1  C   UNL     1     -31.309  75.996 -28.016  1.00  0.00     0.000 C 
ENDROOT
BRANCH   1   2
ATOM      2  C   UNL     1     -32.581  76.433 -28.750  1.00  0.00     0.000 C 
BRANCH   2   3
ATOM      3  C   UNL     1     -33.839  75.995 -27.984  1.00  0.00     0.000 C 
BRANCH   3   4
ATOM      4  C   UNL     1     -33.546  74.874 -26.964  1.00  0.00     0.000 C 
BRANCH   4   5
ATOM      5  C   UNL     1     -34.285  73.555 -27.262  1.00  0.00     0.000 C 
BRANCH   5   6
ATOM      6  C   UNL     1     -35.081  73.539 -28.582  1.00  0.00     0.006 C 
BRANCH   6   7
ATOM      7  C   UNL     1     -36.595  73.342 -28.405  1.00  0.00     0.053 C 
BRANCH   7   8
ATOM      8  C   UNL     1     -37.233  74.501 -27.702  1.00  0.00     0.041 C 
ATOM      9  O   UNL     1     -37.421  75.586 -28.313  1.00  0.00    -0.550 OA
ATOM     10  O   UNL     1     -37.652  74.370 -26.384  1.00  0.00    -0.550 OA
ENDBRANCH   7   8
ENDBRANCH   6   7
ENDBRANCH   5   6
ENDBRANCH   4   5
ENDBRANCH   3   4
ENDBRANCH   2   3
ENDBRANCH   1   2
BRANCH   1  11
ATOM     11  C   UNL     1     -30.096  76.014 -28.960  1.00  0.00     0.000 C 
BRANCH  11  12
ATOM     12  C   UNL     1     -28.757  75.953 -28.209  1.00  0.00    -0.000 C 
BRANCH  12  13
ATOM     13  C   UNL     1     -27.613  75.413 -29.086  1.00  0.00    -0.000 C 
BRANCH  13  14
ATOM     14  C   UNL     1     -27.010  74.106 -28.541  1.00  0.00    -0.000 C 
BRANCH  14  15
ATOM     15  C   UNL     1     -27.840  73.408 -27.444  1.00  0.00    -0.000 C 
BRANCH  15  16
ATOM     16  C   UNL     1     -27.059  73.035 -26.168  1.00  0.00    -0.000 C 
BRANCH  16  17
ATOM     17  C   UNL     1     -26.111  74.131 -25.649  1.00  0.00    -0.003 C 
ATOM     18  C   UNL     1     -26.786  75.084 -24.665  1.00  0.00     0.004 C 
ENDBRANCH  16  17
ENDBRANCH  15  16
ENDBRANCH  14  15
ENDBRANCH  13  14
ENDBRANCH  12  13
ENDBRANCH  11  12
ENDBRANCH   1  11
TORSDOF 14
ENDMDL
MODEL 8
REMARK VINA RESULT:    -4.484     10.566     12.413
REMARK INTER + INTRA:          -8.680
REMARK INTER:                  -7.156
REMARK INTRA:                  -1.524
REMARK UNBOUND:                -0.526
REMARK SMILES CCCCCCCCCCCCCCCC(=O)[O-]
REMARK SMILES IDX 9 1 10 2 11 3 12 4 13 5 14 6 15 7 16 8 17 9 18 10 8 11 7 12
REMARK SMILES IDX 6 13 5 14 4 15 3 16 2 17 1 18
REMARK H PARENT
REMARK Flexibility Score: inf
ROOT
ATOM      1  C   UNL     1     -39.550  70.774 -10.996  1.00  0.00     0.000 C 
ENDROOT
BRANCH   1   2
ATOM      2  C   UNL     1     -38.314  71.315 -10.269  1.00  0.00     0.000 C 
BRANCH   2   3
ATOM      3  C   UNL     1     -38.713  72.111  -9.017  1.00  0.00     0.000 C 
BRANCH   3   4
ATOM      4  C   UNL     1     -38.215  73.571  -9.065  1.00  0.00     0.000 C 
BRANCH   4   5
ATOM      5  C   UNL     1     -38.185  74.170 -10.485  1.00  0.00     0.000 C 
BRANCH   5   6
ATOM      6  C   UNL     1     -37.659  75.616 -10.569  1.00  0.00     0.006 C 
BRANCH   6   7
ATOM      7  C   UNL     1     -38.059  76.361 -11.854  1.00  0.00     0.053 C 
BRANCH   7   8
ATOM      8  C   UNL     1     -39.491  76.798 -11.827  1.00  0.00     0.041 C 
ATOM      9  O   UNL     1     -40.032  77.125 -10.737  1.00  0.00    -0.550 OA
ATOM     10  O   UNL     1     -40.217  76.878 -13.008  1.00  0.00    -0.550 OA
ENDBRANCH   7   8
ENDBRANCH   6   7
ENDBRANCH   5   6
ENDBRANCH   4   5
ENDBRANCH   3   4
ENDBRANCH   2   3
ENDBRANCH   1   2
BRANCH   1  11
ATOM     11  C   UNL     1     -40.699  70.515 -10.009  1.00  0.00     0.000 C 
BRANCH  11  12
ATOM     12  C   UNL     1     -41.774  71.612 -10.047  1.00  0.00    -0.000 C 
BRANCH  12  13
ATOM     13  C   UNL     1     -41.792  72.374 -11.384  1.00  0.00    -0.000 C 
BRANCH  13  14
ATOM     14  C   UNL     1     -41.787  73.901 -11.200  1.00  0.00    -0.000 C 
BRANCH  14  15
ATOM     15  C   UNL     1     -42.869  74.662 -11.994  1.00  0.00    -0.000 C 
BRANCH  15  16
ATOM     16  C   UNL     1     -43.962  73.777 -12.627  1.00  0.00    -0.000 C 
BRANCH  16  17
ATOM     17  C   UNL     1     -43.873  73.637 -14.157  1.00  0.00    -0.003 C 
ATOM     18  C   UNL     1     -43.613  72.202 -14.608  1.00  0.00     0.004 C 
ENDBRANCH  16  17
ENDBRANCH  15  16
ENDBRANCH  14  15
ENDBRANCH  13  14
ENDBRANCH  12  13
ENDBRANCH  11  12
ENDBRANCH   1  11
TORSDOF 14
ENDMDL
MODEL 9
REMARK VINA RESULT:    -4.458     10.628     13.101
REMARK INTER + INTRA:          -8.632
REMARK INTER:                  -6.770
REMARK INTRA:                  -1.862
REMARK UNBOUND:                -0.526
REMARK SMILES CCCCCCCCCCCCCCCC(=O)[O-]
REMARK SMILES IDX 9 1 10 2 11 3 12 4 13 5 14 6 15 7 16 8 17 9 18 10 8 11 7 12
REMARK SMILES IDX 6 13 5 14 4 15 3 16 2 17 1 18
REMARK H PARENT
REMARK Flexibility Score: inf
ROOT
ATOM      1  C   UNL     1     -40.961  70.743  -9.995  1.00  0.00     0.000 C 
ENDROOT
BRANCH   1   2
ATOM      2  C   UNL     1     -41.916  71.821 -10.521  1.00  0.00     0.000 C 
BRANCH   2   3
ATOM      3  C   UNL     1     -41.501  72.290 -11.924  1.00  0.00     0.000 C 
BRANCH   3   4
ATOM      4  C   UNL     1     -41.242  73.811 -11.983  1.00  0.00     0.000 C 
BRANCH   4   5
ATOM      5  C   UNL     1     -42.249  74.644 -11.165  1.00  0.00     0.000 C 
BRANCH   5   6
ATOM      6  C   UNL     1     -43.630  74.824 -11.825  1.00  0.00     0.006 C 
BRANCH   6   7
ATOM      7  C   UNL     1     -43.626  75.737 -13.063  1.00  0.00     0.053 C 
BRANCH   7   8
ATOM      8  C   UNL     1     -43.958  74.985 -14.315  1.00  0.00     0.041 C 
ATOM      9  O   UNL     1     -44.118  75.603 -15.401  1.00  0.00    -0.550 OA
ATOM     10  O   UNL     1     -44.055  73.600 -14.290  1.00  0.00    -0.550 OA
ENDBRANCH   7   8
ENDBRANCH   6   7
ENDBRANCH   5   6
ENDBRANCH   4   5
ENDBRANCH   3   4
ENDBRANCH   2   3
ENDBRANCH   1   2
BRANCH   1  11
ATOM     11  C   UNL     1     -39.641  70.746 -10.781  1.00  0.00     0.000 C 
BRANCH  11  12
ATOM     12  C   UNL     1     -38.450  71.234  -9.941  1.00  0.00    -0.000 C 
BRANCH  12  13
ATOM     13  C   UNL     1     -38.862  72.267  -8.878  1.00  0.00    -0.000 C 
BRANCH  13  14
ATOM     14  C   UNL     1     -38.207  73.642  -9.095  1.00  0.00    -0.000 C 
BRANCH  14  15
ATOM     15  C   UNL     1     -39.162  74.848  -8.990  1.00  0.00    -0.000 C 
BRANCH  15  16
ATOM     16  C   UNL     1     -38.594  76.182  -9.515  1.00  0.00    -0.000 C 
BRANCH  16  17
ATOM     17  C   UNL     1     -39.070  76.577 -10.924  1.00  0.00    -0.003 C 
ATOM     18  C   UNL     1     -38.077  76.187 -12.017  1.00  0.00     0.004 C 
ENDBRANCH  16  17
ENDBRANCH  15  16
ENDBRANCH  14  15
ENDBRANCH  13  14
ENDBRANCH  12  13
ENDBRANCH  11  12
ENDBRANCH   1  11
TORSDOF 14
ENDMDL
