MODEL 1
REMARK VINA RESULT:    -5.767      0.000      0.000
REMARK INTER + INTRA:         -15.250
REMARK INTER:                 -12.509
REMARK INTRA:                  -2.741
REMARK UNBOUND:                -2.741
REMARK SMILES CCCCCCCCCCCCCCCCCCCCCC(=O)[O-]
REMARK SMILES IDX 12 1 11 2 10 3 9 4 8 5 7 6 6 7 5 8 4 9 3 10 2 11 1 12 13 13
REMARK SMILES IDX 14 14 15 15 16 16 17 17 18 18 19 19 20 20 21 21 22 22 23 23
REMARK SMILES IDX 24 24
REMARK H PARENT
REMARK Flexibility Score: inf
ROOT
ATOM      1  C   UNL     1      21.331  -0.866  62.012  1.00  0.00     0.000 C 
ENDROOT
BRANCH   1   2
ATOM      2  C   UNL     1      21.442  -1.228  60.515  1.00  0.00     0.000 C 
BRANCH   2   3
ATOM      3  C   UNL     1      21.281  -2.736  60.271  1.00  0.00     0.000 C 
BRANCH   3   4
ATOM      4  C   UNL     1      22.575  -3.360  59.722  1.00  0.00    -0.000 C 
BRANCH   4   5
ATOM      5  C   UNL     1      22.985  -2.704  58.396  1.00  0.00    -0.000 C 
BRANCH   5   6
ATOM      6  C   UNL     1      24.439  -3.017  57.998  1.00  0.00    -0.000 C 
BRANCH   6   7
ATOM      7  C   UNL     1      25.321  -3.359  59.211  1.00  0.00    -0.000 C 
BRANCH   7   8
ATOM      8  C   UNL     1      26.200  -2.166  59.622  1.00  0.00    -0.000 C 
BRANCH   8   9
ATOM      9  C   UNL     1      25.873  -1.701  61.047  1.00  0.00    -0.000 C 
BRANCH   9  10
ATOM     10  C   UNL     1      25.517  -2.877  61.981  1.00  0.00    -0.000 C 
BRANCH  10  11
ATOM     11  C   UNL     1      24.206  -2.670  62.758  1.00  0.00    -0.003 C 
ATOM     12  C   UNL     1      23.491  -3.978  63.085  1.00  0.00     0.004 C 
ENDBRANCH  10  11
ENDBRANCH   9  10
ENDBRANCH   8   9
ENDBRANCH   7   8
ENDBRANCH   6   7
ENDBRANCH   5   6
ENDBRANCH   4   5
ENDBRANCH   3   4
ENDBRANCH   2   3
ENDBRANCH   1   2
BRANCH   1  13
ATOM     13  C   UNL     1      21.089   0.628  62.275  1.00  0.00     0.000 C 
BRANCH  13  14
ATOM     14  C   UNL     1      21.150   1.041  63.754  1.00  0.00     0.000 C 
BRANCH  14  15
ATOM     15  C   UNL     1      21.206   2.569  63.943  1.00  0.00     0.000 C 
BRANCH  15  16
ATOM     16  C   UNL     1      22.513   3.038  64.611  1.00  0.00     0.000 C 
BRANCH  16  17
ATOM     17  C   UNL     1      23.298   4.030  63.735  1.00  0.00     0.000 C 
BRANCH  17  18
ATOM     18  C   UNL     1      23.248   3.679  62.236  1.00  0.00     0.000 C 
BRANCH  18  19
ATOM     19  C   UNL     1      24.260   2.611  61.777  1.00  0.00     0.000 C 
BRANCH  19  20
ATOM     20  C   UNL     1      25.669   2.739  62.390  1.00  0.00     0.006 C 
BRANCH  20  21
ATOM     21  C   UNL     1      26.087   1.589  63.318  1.00  0.00     0.053 C 
BRANCH  21  22
ATOM     22  C   UNL     1      26.550   2.068  64.665  1.00  0.00     0.041 C 
ATOM     23  O   UNL     1      25.766   2.707  65.414  1.00  0.00    -0.550 OA
ATOM     24  O   UNL     1      27.845   1.802  65.096  1.00  0.00    -0.550 OA
ENDBRANCH  21  22
ENDBRANCH  20  21
ENDBRANCH  19  20
ENDBRANCH  18  19
ENDBRANCH  17  18
ENDBRANCH  16  17
ENDBRANCH  15  16
ENDBRANCH  14  15
ENDBRANCH  13  14
ENDBRANCH   1  13
TORSDOF 20
ENDMDL
MODEL 2
REMARK VINA RESULT:    -5.687      2.372      6.684
REMARK INTER + INTRA:         -15.076
REMARK INTER:                 -12.097
REMARK INTRA:                  -2.979
REMARK UNBOUND:                -2.741
REMARK SMILES CCCCCCCCCCCCCCCCCCCCCC(=O)[O-]
REMARK SMILES IDX 12 1 11 2 10 3 9 4 8 5 7 6 6 7 5 8 4 9 3 10 2 11 1 12 13 13
REMARK SMILES IDX 14 14 15 15 16 16 17 17 18 18 19 19 20 20 21 21 22 22 23 23
REMARK SMILES IDX 24 24
REMARK H PARENT
REMARK Flexibility Score: inf
ROOT
ATOM      1  C   UNL     1      21.119   1.033  62.541  1.00  0.00     0.000 C 
ENDROOT
BRANCH   1   2
ATOM      2  C   UNL     1      21.346   1.607  63.957  1.00  0.00     0.000 C 
BRANCH   2   3
ATOM      3  C   UNL     1      21.333   3.142  63.968  1.00  0.00     0.000 C 
BRANCH   3   4
ATOM      4  C   UNL     1      22.613   3.713  64.599  1.00  0.00    -0.000 C 
BRANCH   4   5
ATOM      5  C   UNL     1      23.226   2.721  65.599  1.00  0.00    -0.000 C 
BRANCH   5   6
ATOM      6  C   UNL     1      24.645   3.118  66.042  1.00  0.00    -0.000 C 
BRANCH   6   7
ATOM      7  C   UNL     1      25.593   3.343  64.851  1.00  0.00    -0.000 C 
BRANCH   7   8
ATOM      8  C   UNL     1      26.264   2.033  64.411  1.00  0.00    -0.000 C 
BRANCH   8   9
ATOM      9  C   UNL     1      25.872   1.664  62.973  1.00  0.00    -0.000 C 
BRANCH   9  10
ATOM     10  C   UNL     1      25.440   2.895  62.149  1.00  0.00    -0.000 C 
BRANCH  10  11
ATOM     11  C   UNL     1      24.037   2.762  61.534  1.00  0.00    -0.003 C 
ATOM     12  C   UNL     1      23.482   4.086  61.017  1.00  0.00     0.004 C 
ENDBRANCH  10  11
ENDBRANCH   9  10
ENDBRANCH   8   9
ENDBRANCH   7   8
ENDBRANCH   6   7
ENDBRANCH   5   6
ENDBRANCH   4   5
ENDBRANCH   3   4
ENDBRANCH   2   3
ENDBRANCH   1   2
BRANCH   1  13
ATOM     13  C   UNL     1      22.054  -0.133  62.184  1.00  0.00     0.000 C 
BRANCH  13  14
ATOM     14  C   UNL     1      21.351  -1.369  61.603  1.00  0.00     0.000 C 
BRANCH  14  15
ATOM     15  C   UNL     1      21.435  -1.433  60.066  1.00  0.00     0.000 C 
BRANCH  15  16
ATOM     16  C   UNL     1      22.253  -2.639  59.564  1.00  0.00     0.000 C 
BRANCH  16  17
ATOM     17  C   UNL     1      22.339  -3.766  60.608  1.00  0.00     0.000 C 
BRANCH  17  18
ATOM     18  C   UNL     1      23.784  -4.074  61.044  1.00  0.00     0.000 C 
BRANCH  18  19
ATOM     19  C   UNL     1      24.296  -3.255  62.246  1.00  0.00     0.000 C 
BRANCH  19  20
ATOM     20  C   UNL     1      25.612  -2.490  62.003  1.00  0.00     0.006 C 
BRANCH  20  21
ATOM     21  C   UNL     1      25.602  -1.534  60.801  1.00  0.00     0.053 C 
BRANCH  21  22
ATOM     22  C   UNL     1      26.285  -2.109  59.593  1.00  0.00     0.041 C 
ATOM     23  O   UNL     1      25.635  -2.798  58.766  1.00  0.00    -0.550 OA
ATOM     24  O   UNL     1      27.640  -1.879  59.378  1.00  0.00    -0.550 OA
ENDBRANCH  21  22
ENDBRANCH  20  21
ENDBRANCH  19  20
ENDBRANCH  18  19
ENDBRANCH  17  18
ENDBRANCH  16  17
ENDBRANCH  15  16
ENDBRANCH  14  15
ENDBRANCH  13  14
ENDBRANCH   1  13
TORSDOF 20
ENDMDL
MODEL 3
REMARK VINA RESULT:    -5.677      1.608      2.251
REMARK INTER + INTRA:         -15.054
REMARK INTER:                 -12.186
REMARK INTRA:                  -2.868
REMARK UNBOUND:                -2.741
REMARK SMILES CCCCCCCCCCCCCCCCCCCCCC(=O)[O-]
REMARK SMILES IDX 12 1 11 2 10 3 9 4 8 5 7 6 6 7 5 8 4 9 3 10 2 11 1 12 13 13
REMARK SMILES IDX 14 14 15 15 16 16 17 17 18 18 19 19 20 20 21 21 22 22 23 23
REMARK SMILES IDX 24 24
REMARK H PARENT
REMARK Flexibility Score: inf
ROOT
ATOM      1  C   UNL     1      21.129   0.137  61.632  1.00  0.00     0.000 C 
ENDROOT
BRANCH   1   2
ATOM      2  C   UNL     1      21.475  -1.365  61.532  1.00  0.00     0.000 C 
BRANCH   2   3
ATOM      3  C   UNL     1      21.339  -1.895  60.097  1.00  0.00     0.000 C 
BRANCH   3   4
ATOM      4  C   UNL     1      22.273  -3.090  59.846  1.00  0.00    -0.000 C 
BRANCH   4   5
ATOM      5  C   UNL     1      23.270  -2.787  58.719  1.00  0.00    -0.000 C 
BRANCH   5   6
ATOM      6  C   UNL     1      24.643  -3.444  58.941  1.00  0.00    -0.000 C 
BRANCH   6   7
ATOM      7  C   UNL     1      25.790  -2.419  58.967  1.00  0.00    -0.000 C 
BRANCH   7   8
ATOM      8  C   UNL     1      26.407  -2.300  60.370  1.00  0.00    -0.000 C 
BRANCH   8   9
ATOM      9  C   UNL     1      25.763  -1.155  61.164  1.00  0.00    -0.000 C 
BRANCH   9  10
ATOM     10  C   UNL     1      24.908  -1.667  62.342  1.00  0.00    -0.000 C 
BRANCH  10  11
ATOM     11  C   UNL     1      24.866  -3.200  62.452  1.00  0.00    -0.003 C 
ATOM     12  C   UNL     1      23.584  -3.719  63.096  1.00  0.00     0.004 C 
ENDBRANCH  10  11
ENDBRANCH   9  10
ENDBRANCH   8   9
ENDBRANCH   7   8
ENDBRANCH   6   7
ENDBRANCH   5   6
ENDBRANCH   4   5
ENDBRANCH   3   4
ENDBRANCH   2   3
ENDBRANCH   1   2
BRANCH   1  13
ATOM     13  C   UNL     1      22.049   0.926  62.577  1.00  0.00     0.000 C 
BRANCH  13  14
ATOM     14  C   UNL     1      21.358   2.058  63.354  1.00  0.00     0.000 C 
BRANCH  14  15
ATOM     15  C   UNL     1      21.735   2.069  64.848  1.00  0.00     0.000 C 
BRANCH  15  16
ATOM     16  C   UNL     1      22.620   3.271  65.229  1.00  0.00     0.000 C 
BRANCH  16  17
ATOM     17  C   UNL     1      23.895   2.848  65.979  1.00  0.00     0.000 C 
BRANCH  17  18
ATOM     18  C   UNL     1      25.183   3.400  65.338  1.00  0.00     0.000 C 
BRANCH  18  19
ATOM     19  C   UNL     1      26.007   2.375  64.534  1.00  0.00     0.000 C 
BRANCH  19  20
ATOM     20  C   UNL     1      25.352   1.890  63.227  1.00  0.00     0.006 C 
BRANCH  20  21
ATOM     21  C   UNL     1      25.498   2.839  62.028  1.00  0.00     0.053 C 
BRANCH  21  22
ATOM     22  C   UNL     1      24.277   3.684  61.803  1.00  0.00     0.041 C 
ATOM     23  O   UNL     1      23.502   3.436  60.843  1.00  0.00    -0.550 OA
ATOM     24  O   UNL     1      23.990   4.743  62.658  1.00  0.00    -0.550 OA
ENDBRANCH  21  22
ENDBRANCH  20  21
ENDBRANCH  19  20
ENDBRANCH  18  19
ENDBRANCH  17  18
ENDBRANCH  16  17
ENDBRANCH  15  16
ENDBRANCH  14  15
ENDBRANCH  13  14
ENDBRANCH   1  13
TORSDOF 20
ENDMDL
MODEL 4
REMARK VINA RESULT:    -5.675      1.558      2.333
REMARK INTER + INTRA:         -15.050
REMARK INTER:                 -12.154
REMARK INTRA:                  -2.896
REMARK UNBOUND:                -2.741
REMARK SMILES CCCCCCCCCCCCCCCCCCCCCC(=O)[O-]
REMARK SMILES IDX 12 1 11 2 10 3 9 4 8 5 7 6 6 7 5 8 4 9 3 10 2 11 1 12 13 13
REMARK SMILES IDX 14 14 15 15 16 16 17 17 18 18 19 19 20 20 21 21 22 22 23 23
REMARK SMILES IDX 24 24
REMARK H PARENT
REMARK Flexibility Score: inf
ROOT
ATOM      1  C   UNL     1      21.819  -1.104  61.757  1.00  0.00     0.000 C 
ENDROOT
BRANCH   1   2
ATOM      2  C   UNL     1      21.327  -1.529  60.356  1.00  0.00     0.000 C 
BRANCH   2   3
ATOM      3  C   UNL     1      21.222  -3.055  60.219  1.00  0.00     0.000 C 
BRANCH   3   4
ATOM      4  C   UNL     1      22.503  -3.658  59.621  1.00  0.00    -0.000 C 
BRANCH   4   5
ATOM      5  C   UNL     1      23.169  -2.680  58.642  1.00  0.00    -0.000 C 
BRANCH   5   6
ATOM      6  C   UNL     1      24.573  -3.136  58.203  1.00  0.00    -0.000 C 
BRANCH   6   7
ATOM      7  C   UNL     1      25.530  -3.323  59.392  1.00  0.00    -0.000 C 
BRANCH   7   8
ATOM      8  C   UNL     1      26.152  -1.987  59.830  1.00  0.00    -0.000 C 
BRANCH   8   9
ATOM      9  C   UNL     1      25.850  -1.693  61.306  1.00  0.00    -0.000 C 
BRANCH   9  10
ATOM     10  C   UNL     1      25.492  -2.967  62.097  1.00  0.00    -0.000 C 
BRANCH  10  11
ATOM     11  C   UNL     1      24.125  -2.891  62.798  1.00  0.00    -0.003 C 
ATOM     12  C   UNL     1      23.489  -4.261  63.019  1.00  0.00     0.004 C 
ENDBRANCH  10  11
ENDBRANCH   9  10
ENDBRANCH   8   9
ENDBRANCH   7   8
ENDBRANCH   6   7
ENDBRANCH   5   6
ENDBRANCH   4   5
ENDBRANCH   3   4
ENDBRANCH   2   3
ENDBRANCH   1   2
BRANCH   1  13
ATOM     13  C   UNL     1      20.986   0.019  62.396  1.00  0.00     0.000 C 
BRANCH  13  14
ATOM     14  C   UNL     1      21.644   1.407  62.367  1.00  0.00     0.000 C 
BRANCH  14  15
ATOM     15  C   UNL     1      23.183   1.336  62.411  1.00  0.00     0.000 C 
BRANCH  15  16
ATOM     16  C   UNL     1      23.853   2.475  61.618  1.00  0.00     0.000 C 
BRANCH  16  17
ATOM     17  C   UNL     1      25.248   2.828  62.162  1.00  0.00     0.000 C 
BRANCH  17  18
ATOM     18  C   UNL     1      25.865   1.703  63.014  1.00  0.00     0.000 C 
BRANCH  18  19
ATOM     19  C   UNL     1      26.308   2.120  64.431  1.00  0.00     0.000 C 
BRANCH  19  20
ATOM     20  C   UNL     1      25.569   3.340  65.015  1.00  0.00     0.006 C 
BRANCH  20  21
ATOM     21  C   UNL     1      24.455   3.012  66.020  1.00  0.00     0.053 C 
BRANCH  21  22
ATOM     22  C   UNL     1      23.081   3.121  65.422  1.00  0.00     0.041 C 
ATOM     23  O   UNL     1      22.170   2.331  65.780  1.00  0.00    -0.550 OA
ATOM     24  O   UNL     1      22.805   4.101  64.475  1.00  0.00    -0.550 OA
ENDBRANCH  21  22
ENDBRANCH  20  21
ENDBRANCH  19  20
ENDBRANCH  18  19
ENDBRANCH  17  18
ENDBRANCH  16  17
ENDBRANCH  15  16
ENDBRANCH  14  15
ENDBRANCH  13  14
ENDBRANCH   1  13
TORSDOF 20
ENDMDL
MODEL 5
REMARK VINA RESULT:    -5.639      2.868      6.855
REMARK INTER + INTRA:         -14.973
REMARK INTER:                 -12.376
REMARK INTRA:                  -2.596
REMARK UNBOUND:                -2.741
REMARK SMILES CCCCCCCCCCCCCCCCCCCCCC(=O)[O-]
REMARK SMILES IDX 12 1 11 2 10 3 9 4 8 5 7 6 6 7 5 8 4 9 3 10 2 11 1 12 13 13
REMARK SMILES IDX 14 14 15 15 16 16 17 17 18 18 19 19 20 20 21 21 22 22 23 23
REMARK SMILES IDX 24 24
REMARK H PARENT
REMARK Flexibility Score: inf
ROOT
ATOM      1  C   UNL     1      21.865   1.122  62.693  1.00  0.00     0.000 C 
ENDROOT
BRANCH   1   2
ATOM      2  C   UNL     1      21.284   1.639  64.027  1.00  0.00     0.000 C 
BRANCH   2   3
ATOM      3  C   UNL     1      21.347   3.170  64.131  1.00  0.00     0.000 C 
BRANCH   3   4
ATOM      4  C   UNL     1      22.719   3.645  64.638  1.00  0.00    -0.000 C 
BRANCH   4   5
ATOM      5  C   UNL     1      23.108   2.925  65.937  1.00  0.00    -0.000 C 
BRANCH   5   6
ATOM      6  C   UNL     1      24.623   2.956  66.207  1.00  0.00    -0.000 C 
BRANCH   6   7
ATOM      7  C   UNL     1      25.428   3.455  64.996  1.00  0.00    -0.000 C 
BRANCH   7   8
ATOM      8  C   UNL     1      26.276   2.329  64.381  1.00  0.00    -0.000 C 
BRANCH   8   9
ATOM      9  C   UNL     1      25.457   1.500  63.382  1.00  0.00    -0.000 C 
BRANCH   9  10
ATOM     10  C   UNL     1      25.373   2.169  61.994  1.00  0.00    -0.000 C 
BRANCH  10  11
ATOM     11  C   UNL     1      24.689   3.545  62.016  1.00  0.00    -0.003 C 
ATOM     12  C   UNL     1      23.536   3.657  61.022  1.00  0.00     0.004 C 
ENDBRANCH  10  11
ENDBRANCH   9  10
ENDBRANCH   8   9
ENDBRANCH   7   8
ENDBRANCH   6   7
ENDBRANCH   5   6
ENDBRANCH   4   5
ENDBRANCH   3   4
ENDBRANCH   2   3
ENDBRANCH   1   2
BRANCH   1  13
ATOM     13  C   UNL     1      20.952   0.127  61.960  1.00  0.00     0.000 C 
BRANCH  13  14
ATOM     14  C   UNL     1      21.589  -1.241  61.671  1.00  0.00     0.000 C 
BRANCH  14  15
ATOM     15  C   UNL     1      23.098  -1.272  61.982  1.00  0.00     0.000 C 
BRANCH  15  16
ATOM     16  C   UNL     1      23.569  -2.643  62.506  1.00  0.00     0.000 C 
BRANCH  16  17
ATOM     17  C   UNL     1      25.085  -2.847  62.336  1.00  0.00     0.000 C 
BRANCH  17  18
ATOM     18  C   UNL     1      25.778  -1.661  61.640  1.00  0.00     0.000 C 
BRANCH  18  19
ATOM     19  C   UNL     1      26.247  -1.929  60.197  1.00  0.00     0.000 C 
BRANCH  19  20
ATOM     20  C   UNL     1      25.747  -3.252  59.582  1.00  0.00     0.006 C 
BRANCH  20  21
ATOM     21  C   UNL     1      24.774  -3.100  58.404  1.00  0.00     0.053 C 
BRANCH  21  22
ATOM     22  C   UNL     1      23.334  -3.145  58.829  1.00  0.00     0.041 C 
ATOM     23  O   UNL     1      22.501  -2.344  58.330  1.00  0.00    -0.550 OA
ATOM     24  O   UNL     1      22.910  -4.074  59.772  1.00  0.00    -0.550 OA
ENDBRANCH  21  22
ENDBRANCH  20  21
ENDBRANCH  19  20
ENDBRANCH  18  19
ENDBRANCH  17  18
ENDBRANCH  16  17
ENDBRANCH  15  16
ENDBRANCH  14  15
ENDBRANCH  13  14
ENDBRANCH   1  13
TORSDOF 20
ENDMDL
MODEL 6
REMARK VINA RESULT:    -5.599      2.251      7.224
REMARK INTER + INTRA:         -14.887
REMARK INTER:                 -12.208
REMARK INTRA:                  -2.679
REMARK UNBOUND:                -2.741
REMARK SMILES CCCCCCCCCCCCCCCCCCCCCC(=O)[O-]
REMARK SMILES IDX 12 1 11 2 10 3 9 4 8 5 7 6 6 7 5 8 4 9 3 10 2 11 1 12 13 13
REMARK SMILES IDX 14 14 15 15 16 16 17 17 18 18 19 19 20 20 21 21 22 22 23 23
REMARK SMILES IDX 24 24
REMARK H PARENT
REMARK Flexibility Score: inf
ROOT
ATOM      1  C   UNL     1      25.056  -0.072  62.190  1.00  0.00     0.000 C 
ENDROOT
BRANCH   1   2
ATOM      2  C   UNL     1      25.879   1.222  62.372  1.00  0.00     0.000 C 
BRANCH   2   3
ATOM      3  C   UNL     1      26.150   1.533  63.851  1.00  0.00     0.000 C 
BRANCH   3   4
ATOM      4  C   UNL     1      26.065   3.041  64.136  1.00  0.00    -0.000 C 
BRANCH   4   5
ATOM      5  C   UNL     1      25.695   3.823  62.868  1.00  0.00    -0.000 C 
BRANCH   5   6
ATOM      6  C   UNL     1      24.320   4.508  62.966  1.00  0.00    -0.000 C 
BRANCH   6   7
ATOM      7  C   UNL     1      23.261   3.831  62.079  1.00  0.00    -0.000 C 
BRANCH   7   8
ATOM      8  C   UNL     1      22.562   2.678  62.818  1.00  0.00    -0.000 C 
BRANCH   8   9
ATOM      9  C   UNL     1      21.722   3.201  63.993  1.00  0.00    -0.000 C 
BRANCH   9  10
ATOM     10  C   UNL     1      21.957   2.394  65.286  1.00  0.00    -0.000 C 
BRANCH  10  11
ATOM     11  C   UNL     1      23.306   2.693  65.961  1.00  0.00    -0.003 C 
ATOM     12  C   UNL     1      23.196   2.851  67.475  1.00  0.00     0.004 C 
ENDBRANCH  10  11
ENDBRANCH   9  10
ENDBRANCH   8   9
ENDBRANCH   7   8
ENDBRANCH   6   7
ENDBRANCH   5   6
ENDBRANCH   4   5
ENDBRANCH   3   4
ENDBRANCH   2   3
ENDBRANCH   1   2
BRANCH   1  13
ATOM     13  C   UNL     1      25.883  -1.273  61.705  1.00  0.00     0.000 C 
BRANCH  13  14
ATOM     14  C   UNL     1      25.376  -2.642  62.185  1.00  0.00     0.000 C 
BRANCH  14  15
ATOM     15  C   UNL     1      25.581  -3.752  61.137  1.00  0.00     0.000 C 
BRANCH  15  16
ATOM     16  C   UNL     1      25.991  -3.200  59.758  1.00  0.00     0.000 C 
BRANCH  16  17
ATOM     17  C   UNL     1      24.824  -3.199  58.754  1.00  0.00     0.000 C 
BRANCH  17  18
ATOM     18  C   UNL     1      23.474  -3.565  59.400  1.00  0.00     0.000 C 
BRANCH  18  19
ATOM     19  C   UNL     1      22.301  -2.631  59.043  1.00  0.00     0.000 C 
BRANCH  19  20
ATOM     20  C   UNL     1      21.276  -2.407  60.172  1.00  0.00     0.006 C 
BRANCH  20  21
ATOM     21  C   UNL     1      21.854  -1.849  61.481  1.00  0.00     0.053 C 
BRANCH  21  22
ATOM     22  C   UNL     1      21.211  -0.557  61.897  1.00  0.00     0.041 C 
ATOM     23  O   UNL     1      20.877   0.292  61.030  1.00  0.00    -0.550 OA
ATOM     24  O   UNL     1      20.975  -0.292  63.241  1.00  0.00    -0.550 OA
ENDBRANCH  21  22
ENDBRANCH  20  21
ENDBRANCH  19  20
ENDBRANCH  18  19
ENDBRANCH  17  18
ENDBRANCH  16  17
ENDBRANCH  15  16
ENDBRANCH  14  15
ENDBRANCH  13  14
ENDBRANCH   1  13
TORSDOF 20
ENDMDL
MODEL 7
REMARK VINA RESULT:    -5.576      2.372      6.682
REMARK INTER + INTRA:         -14.836
REMARK INTER:                 -12.167
REMARK INTRA:                  -2.669
REMARK UNBOUND:                -2.741
REMARK SMILES CCCCCCCCCCCCCCCCCCCCCC(=O)[O-]
REMARK SMILES IDX 12 1 11 2 10 3 9 4 8 5 7 6 6 7 5 8 4 9 3 10 2 11 1 12 13 13
REMARK SMILES IDX 14 14 15 15 16 16 17 17 18 18 19 19 20 20 21 21 22 22 23 23
REMARK SMILES IDX 24 24
REMARK H PARENT
REMARK Flexibility Score: inf
ROOT
ATOM      1  C   UNL     1      21.851   0.082  62.034  1.00  0.00     0.000 C 
ENDROOT
BRANCH   1   2
ATOM      2  C   UNL     1      20.962   0.622  63.176  1.00  0.00     0.000 C 
BRANCH   2   3
ATOM      3  C   UNL     1      21.235   2.104  63.470  1.00  0.00     0.000 C 
BRANCH   3   4
ATOM      4  C   UNL     1      21.850   2.298  64.865  1.00  0.00    -0.000 C 
BRANCH   4   5
ATOM      5  C   UNL     1      22.904   3.415  64.856  1.00  0.00    -0.000 C 
BRANCH   5   6
ATOM      6  C   UNL     1      24.144   3.075  65.702  1.00  0.00    -0.000 C 
BRANCH   6   7
ATOM      7  C   UNL     1      25.459   3.428  64.988  1.00  0.00    -0.000 C 
BRANCH   7   8
ATOM      8  C   UNL     1      26.257   2.165  64.623  1.00  0.00    -0.000 C 
BRANCH   8   9
ATOM      9  C   UNL     1      25.862   1.641  63.235  1.00  0.00    -0.000 C 
BRANCH   9  10
ATOM     10  C   UNL     1      25.582   2.782  62.235  1.00  0.00    -0.000 C 
BRANCH  10  11
ATOM     11  C   UNL     1      24.184   2.713  61.599  1.00  0.00    -0.003 C 
ATOM     12  C   UNL     1      23.564   4.087  61.363  1.00  0.00     0.004 C 
ENDBRANCH  10  11
ENDBRANCH   9  10
ENDBRANCH   8   9
ENDBRANCH   7   8
ENDBRANCH   6   7
ENDBRANCH   5   6
ENDBRANCH   4   5
ENDBRANCH   3   4
ENDBRANCH   2   3
ENDBRANCH   1   2
BRANCH   1  13
ATOM     13  C   UNL     1      21.478  -1.335  61.571  1.00  0.00     0.000 C 
BRANCH  13  14
ATOM     14  C   UNL     1      21.513  -1.548  60.050  1.00  0.00     0.000 C 
BRANCH  14  15
ATOM     15  C   UNL     1      22.142  -2.896  59.652  1.00  0.00     0.000 C 
BRANCH  15  16
ATOM     16  C   UNL     1      23.260  -2.745  58.602  1.00  0.00     0.000 C 
BRANCH  16  17
ATOM     17  C   UNL     1      24.583  -3.387  59.055  1.00  0.00     0.000 C 
BRANCH  17  18
ATOM     18  C   UNL     1      25.756  -2.389  59.089  1.00  0.00     0.000 C 
BRANCH  18  19
ATOM     19  C   UNL     1      26.106  -1.835  60.484  1.00  0.00     0.000 C 
BRANCH  19  20
ATOM     20  C   UNL     1      25.849  -2.803  61.656  1.00  0.00     0.006 C 
BRANCH  20  21
ATOM     21  C   UNL     1      24.584  -2.516  62.477  1.00  0.00     0.053 C 
BRANCH  21  22
ATOM     22  C   UNL     1      23.837  -3.765  62.851  1.00  0.00     0.041 C 
ATOM     23  O   UNL     1      23.767  -4.726  62.042  1.00  0.00    -0.550 OA
ATOM     24  O   UNL     1      23.225  -3.870  64.095  1.00  0.00    -0.550 OA
ENDBRANCH  21  22
ENDBRANCH  20  21
ENDBRANCH  19  20
ENDBRANCH  18  19
ENDBRANCH  17  18
ENDBRANCH  16  17
ENDBRANCH  15  16
ENDBRANCH  14  15
ENDBRANCH  13  14
ENDBRANCH   1  13
TORSDOF 20
ENDMDL
MODEL 8
REMARK VINA RESULT:    -5.521      1.764      3.350
REMARK INTER + INTRA:         -14.716
REMARK INTER:                 -11.859
REMARK INTRA:                  -2.857
REMARK UNBOUND:                -2.741
REMARK SMILES CCCCCCCCCCCCCCCCCCCCCC(=O)[O-]
REMARK SMILES IDX 12 1 11 2 10 3 9 4 8 5 7 6 6 7 5 8 4 9 3 10 2 11 1 12 13 13
REMARK SMILES IDX 14 14 15 15 16 16 17 17 18 18 19 19 20 20 21 21 22 22 23 23
REMARK SMILES IDX 24 24
REMARK H PARENT
REMARK Flexibility Score: inf
ROOT
ATOM      1  C   UNL     1      21.718   1.135  62.816  1.00  0.00     0.000 C 
ENDROOT
BRANCH   1   2
ATOM      2  C   UNL     1      20.756  -0.052  62.589  1.00  0.00     0.000 C 
BRANCH   2   3
ATOM      3  C   UNL     1      21.404  -1.173  61.764  1.00  0.00     0.000 C 
BRANCH   3   4
ATOM      4  C   UNL     1      22.929  -1.206  61.957  1.00  0.00    -0.000 C 
BRANCH   4   5
ATOM      5  C   UNL     1      23.394  -2.583  62.452  1.00  0.00    -0.000 C 
BRANCH   5   6
ATOM      6  C   UNL     1      24.911  -2.794  62.296  1.00  0.00    -0.000 C 
BRANCH   6   7
ATOM      7  C   UNL     1      25.627  -1.546  61.754  1.00  0.00    -0.000 C 
BRANCH   7   8
ATOM      8  C   UNL     1      26.330  -1.835  60.418  1.00  0.00    -0.000 C 
BRANCH   8   9
ATOM      9  C   UNL     1      25.894  -3.190  59.844  1.00  0.00    -0.000 C 
BRANCH   9  10
ATOM     10  C   UNL     1      24.936  -3.039  58.644  1.00  0.00    -0.000 C 
BRANCH  10  11
ATOM     11  C   UNL     1      23.475  -3.385  58.976  1.00  0.00    -0.003 C 
ATOM     12  C   UNL     1      22.480  -2.363  58.435  1.00  0.00     0.004 C 
ENDBRANCH  10  11
ENDBRANCH   9  10
ENDBRANCH   8   9
ENDBRANCH   7   8
ENDBRANCH   6   7
ENDBRANCH   5   6
ENDBRANCH   4   5
ENDBRANCH   3   4
ENDBRANCH   2   3
ENDBRANCH   1   2
BRANCH   1  13
ATOM     13  C   UNL     1      21.087   2.314  63.573  1.00  0.00     0.000 C 
BRANCH  13  14
ATOM     14  C   UNL     1      22.063   3.118  64.446  1.00  0.00     0.000 C 
BRANCH  14  15
ATOM     15  C   UNL     1      22.469   2.368  65.729  1.00  0.00     0.000 C 
BRANCH  15  16
ATOM     16  C   UNL     1      23.801   2.872  66.316  1.00  0.00     0.000 C 
BRANCH  16  17
ATOM     17  C   UNL     1      24.800   3.300  65.226  1.00  0.00     0.000 C 
BRANCH  17  18
ATOM     18  C   UNL     1      25.962   2.306  65.050  1.00  0.00     0.000 C 
BRANCH  18  19
ATOM     19  C   UNL     1      26.065   1.656  63.656  1.00  0.00     0.000 C 
BRANCH  19  20
ATOM     20  C   UNL     1      25.845   2.615  62.469  1.00  0.00     0.006 C 
BRANCH  20  21
ATOM     21  C   UNL     1      24.508   2.451  61.732  1.00  0.00     0.053 C 
BRANCH  21  22
ATOM     22  C   UNL     1      23.864   3.766  61.396  1.00  0.00     0.041 C 
ATOM     23  O   UNL     1      23.227   3.902  60.319  1.00  0.00    -0.550 OA
ATOM     24  O   UNL     1      23.960   4.839  62.274  1.00  0.00    -0.550 OA
ENDBRANCH  21  22
ENDBRANCH  20  21
ENDBRANCH  19  20
ENDBRANCH  18  19
ENDBRANCH  17  18
ENDBRANCH  16  17
ENDBRANCH  15  16
ENDBRANCH  14  15
ENDBRANCH  13  14
ENDBRANCH   1  13
TORSDOF 20
ENDMDL
MODEL 9
REMARK VINA RESULT:    -5.509      2.391      6.264
REMARK INTER + INTRA:         -14.692
REMARK INTER:                 -11.721
REMARK INTRA:                  -2.970
REMARK UNBOUND:                -2.741
REMARK SMILES CCCCCCCCCCCCCCCCCCCCCC(=O)[O-]
REMARK SMILES IDX 12 1 11 2 10 3 9 4 8 5 7 6 6 7 5 8 4 9 3 10 2 11 1 12 13 13
REMARK SMILES IDX 14 14 15 15 16 16 17 17 18 18 19 19 20 20 21 21 22 22 23 23
REMARK SMILES IDX 24 24
REMARK H PARENT
REMARK Flexibility Score: inf
ROOT
ATOM      1  C   UNL     1      21.448  -1.247  60.534  1.00  0.00     0.000 C 
ENDROOT
BRANCH   1   2
ATOM      2  C   UNL     1      21.336  -0.727  61.983  1.00  0.00     0.000 C 
BRANCH   2   3
ATOM      3  C   UNL     1      21.148   0.796  62.038  1.00  0.00     0.000 C 
BRANCH   3   4
ATOM      4  C   UNL     1      22.256   1.472  62.861  1.00  0.00    -0.000 C 
BRANCH   4   5
ATOM      5  C   UNL     1      22.770   2.739  62.162  1.00  0.00    -0.000 C 
BRANCH   5   6
ATOM      6  C   UNL     1      24.272   2.675  61.835  1.00  0.00    -0.000 C 
BRANCH   6   7
ATOM      7  C   UNL     1      24.896   1.317  62.196  1.00  0.00    -0.000 C 
BRANCH   7   8
ATOM      8  C   UNL     1      25.912   1.451  63.342  1.00  0.00    -0.000 C 
BRANCH   8   9
ATOM      9  C   UNL     1      25.984   2.897  63.852  1.00  0.00    -0.000 C 
BRANCH   9  10
ATOM     10  C   UNL     1      25.474   3.034  65.301  1.00  0.00    -0.000 C 
BRANCH  10  11
ATOM     11  C   UNL     1      24.001   3.462  65.397  1.00  0.00    -0.003 C 
ATOM     12  C   UNL     1      23.193   2.615  66.377  1.00  0.00     0.004 C 
ENDBRANCH  10  11
ENDBRANCH   9  10
ENDBRANCH   8   9
ENDBRANCH   7   8
ENDBRANCH   6   7
ENDBRANCH   5   6
ENDBRANCH   4   5
ENDBRANCH   3   4
ENDBRANCH   2   3
ENDBRANCH   1   2
BRANCH   1  13
ATOM     13  C   UNL     1      21.260  -2.767  60.401  1.00  0.00     0.000 C 
BRANCH  13  14
ATOM     14  C   UNL     1      22.316  -3.475  59.538  1.00  0.00     0.000 C 
BRANCH  14  15
ATOM     15  C   UNL     1      22.830  -2.593  58.385  1.00  0.00     0.000 C 
BRANCH  15  16
ATOM     16  C   UNL     1      24.237  -2.998  57.907  1.00  0.00     0.000 C 
BRANCH  16  17
ATOM     17  C   UNL     1      25.178  -3.342  59.075  1.00  0.00     0.000 C 
BRANCH  17  18
ATOM     18  C   UNL     1      26.242  -2.258  59.330  1.00  0.00     0.000 C 
BRANCH  18  19
ATOM     19  C   UNL     1      26.197  -1.609  60.728  1.00  0.00     0.000 C 
BRANCH  19  20
ATOM     20  C   UNL     1      25.831  -2.564  61.881  1.00  0.00     0.006 C 
BRANCH  20  21
ATOM     21  C   UNL     1      24.411  -2.400  62.443  1.00  0.00     0.053 C 
BRANCH  21  22
ATOM     22  C   UNL     1      23.805  -3.701  62.883  1.00  0.00     0.041 C 
ATOM     23  O   UNL     1      23.191  -3.776  63.979  1.00  0.00    -0.550 OA
ATOM     24  O   UNL     1      23.911  -4.831  62.079  1.00  0.00    -0.550 OA
ENDBRANCH  21  22
ENDBRANCH  20  21
ENDBRANCH  19  20
ENDBRANCH  18  19
ENDBRANCH  17  18
ENDBRANCH  16  17
ENDBRANCH  15  16
ENDBRANCH  14  15
ENDBRANCH  13  14
ENDBRANCH   1  13
TORSDOF 20
ENDMDL
