MODEL 1
REMARK VINA RESULT:    -4.464      0.000      0.000
REMARK INTER + INTRA:         -12.699
REMARK INTER:                  -9.683
REMARK INTRA:                  -3.016
REMARK UNBOUND:                -3.016
REMARK SMILES CCCCCCCCCCCCCCCCCCCCCC(=O)[O-]
REMARK SMILES IDX 12 1 11 2 10 3 9 4 8 5 7 6 6 7 5 8 4 9 3 10 2 11 1 12 13 13
REMARK SMILES IDX 14 14 15 15 16 16 17 17 18 18 19 19 20 20 21 21 22 22 23 23
REMARK SMILES IDX 24 24
REMARK H PARENT
REMARK Flexibility Score: inf
ROOT
ATOM      1  C   UNL     1     -49.566  10.056 -29.918  1.00  0.00     0.000 C 
ENDROOT
BRANCH   1   2
ATOM      2  C   UNL     1     -48.178  10.126 -29.262  1.00  0.00     0.000 C 
BRANCH   2   3
ATOM      3  C   UNL     1     -47.202   9.086 -29.842  1.00  0.00     0.000 C 
BRANCH   3   4
ATOM      4  C   UNL     1     -47.384   8.890 -31.356  1.00  0.00    -0.000 C 
BRANCH   4   5
ATOM      5  C   UNL     1     -47.780   7.446 -31.718  1.00  0.00    -0.000 C 
BRANCH   5   6
ATOM      6  C   UNL     1     -48.365   7.331 -33.134  1.00  0.00    -0.000 C 
BRANCH   6   7
ATOM      7  C   UNL     1     -49.780   6.726 -33.141  1.00  0.00    -0.000 C 
BRANCH   7   8
ATOM      8  C   UNL     1     -50.424   6.711 -31.744  1.00  0.00    -0.000 C 
BRANCH   8   9
ATOM      9  C   UNL     1     -51.542   7.753 -31.595  1.00  0.00    -0.000 C 
BRANCH   9  10
ATOM     10  C   UNL     1     -51.698   8.576 -32.883  1.00  0.00    -0.000 C 
BRANCH  10  11
ATOM     11  C   UNL     1     -53.119   8.504 -33.460  1.00  0.00    -0.003 C 
ATOM     12  C   UNL     1     -53.286   7.379 -34.481  1.00  0.00     0.004 C 
ENDBRANCH  10  11
ENDBRANCH   9  10
ENDBRANCH   8   9
ENDBRANCH   7   8
ENDBRANCH   6   7
ENDBRANCH   5   6
ENDBRANCH   4   5
ENDBRANCH   3   4
ENDBRANCH   2   3
ENDBRANCH   1   2
BRANCH   1  13
ATOM     13  C   UNL     1     -50.378  11.343 -29.706  1.00  0.00     0.000 C 
BRANCH  13  14
ATOM     14  C   UNL     1     -50.677  12.032 -31.043  1.00  0.00     0.000 C 
BRANCH  14  15
ATOM     15  C   UNL     1     -52.173  11.940 -31.383  1.00  0.00     0.000 C 
BRANCH  15  16
ATOM     16  C   UNL     1     -52.994  11.278 -30.265  1.00  0.00     0.000 C 
BRANCH  16  17
ATOM     17  C   UNL     1     -54.021  12.237 -29.636  1.00  0.00     0.000 C 
BRANCH  17  18
ATOM     18  C   UNL     1     -53.450  12.974 -28.408  1.00  0.00     0.000 C 
BRANCH  18  19
ATOM     19  C   UNL     1     -53.479  14.508 -28.538  1.00  0.00     0.000 C 
BRANCH  19  20
ATOM     20  C   UNL     1     -52.214  15.077 -29.194  1.00  0.00     0.006 C 
BRANCH  20  21
ATOM     21  C   UNL     1     -52.499  15.527 -30.633  1.00  0.00     0.053 C 
BRANCH  21  22
ATOM     22  C   UNL     1     -51.322  16.251 -31.214  1.00  0.00     0.041 C 
ATOM     23  O   UNL     1     -51.144  17.473 -30.968  1.00  0.00    -0.550 OA
ATOM     24  O   UNL     1     -50.413  15.571 -32.018  1.00  0.00    -0.550 OA
ENDBRANCH  21  22
ENDBRANCH  20  21
ENDBRANCH  19  20
ENDBRANCH  18  19
ENDBRANCH  17  18
ENDBRANCH  16  17
ENDBRANCH  15  16
ENDBRANCH  14  15
ENDBRANCH  13  14
ENDBRANCH   1  13
TORSDOF 20
ENDMDL
MODEL 2
REMARK VINA RESULT:    -4.416     14.090     16.584
REMARK INTER + INTRA:         -12.596
REMARK INTER:                  -9.589
REMARK INTRA:                  -3.007
REMARK UNBOUND:                -3.016
REMARK SMILES CCCCCCCCCCCCCCCCCCCCCC(=O)[O-]
REMARK SMILES IDX 12 1 11 2 10 3 9 4 8 5 7 6 6 7 5 8 4 9 3 10 2 11 1 12 13 13
REMARK SMILES IDX 14 14 15 15 16 16 17 17 18 18 19 19 20 20 21 21 22 22 23 23
REMARK SMILES IDX 24 24
REMARK H PARENT
REMARK Flexibility Score: inf
ROOT
ATOM      1  C   UNL     1     -38.845  19.020 -29.482  1.00  0.00     0.000 C 
ENDROOT
BRANCH   1   2
ATOM      2  C   UNL     1     -38.382  19.077 -28.018  1.00  0.00     0.000 C 
BRANCH   2   3
ATOM      3  C   UNL     1     -37.222  18.106 -27.732  1.00  0.00     0.000 C 
BRANCH   3   4
ATOM      4  C   UNL     1     -36.118  18.747 -26.875  1.00  0.00    -0.000 C 
BRANCH   4   5
ATOM      5  C   UNL     1     -35.084  19.512 -27.724  1.00  0.00    -0.000 C 
BRANCH   5   6
ATOM      6  C   UNL     1     -34.124  18.574 -28.471  1.00  0.00    -0.000 C 
BRANCH   6   7
ATOM      7  C   UNL     1     -34.453  18.463 -29.971  1.00  0.00    -0.000 C 
BRANCH   7   8
ATOM      8  C   UNL     1     -34.557  17.005 -30.447  1.00  0.00    -0.000 C 
BRANCH   8   9
ATOM      9  C   UNL     1     -35.997  16.472 -30.417  1.00  0.00    -0.000 C 
BRANCH   9  10
ATOM     10  C   UNL     1     -36.022  14.986 -30.025  1.00  0.00    -0.000 C 
BRANCH  10  11
ATOM     11  C   UNL     1     -37.252  14.618 -29.182  1.00  0.00    -0.003 C 
ATOM     12  C   UNL     1     -37.588  13.128 -29.248  1.00  0.00     0.004 C 
ENDBRANCH  10  11
ENDBRANCH   9  10
ENDBRANCH   8   9
ENDBRANCH   7   8
ENDBRANCH   6   7
ENDBRANCH   5   6
ENDBRANCH   4   5
ENDBRANCH   3   4
ENDBRANCH   2   3
ENDBRANCH   1   2
BRANCH   1  13
ATOM     13  C   UNL     1     -37.703  19.315 -30.467  1.00  0.00     0.000 C 
BRANCH  13  14
ATOM     14  C   UNL     1     -38.123  20.370 -31.498  1.00  0.00     0.000 C 
BRANCH  14  15
ATOM     15  C   UNL     1     -36.921  21.233 -31.917  1.00  0.00     0.000 C 
BRANCH  15  16
ATOM     16  C   UNL     1     -35.902  21.419 -30.782  1.00  0.00     0.000 C 
BRANCH  16  17
ATOM     17  C   UNL     1     -36.117  22.727 -30.000  1.00  0.00     0.000 C 
BRANCH  17  18
ATOM     18  C   UNL     1     -36.412  22.469 -28.508  1.00  0.00     0.000 C 
BRANCH  18  19
ATOM     19  C   UNL     1     -37.765  23.031 -28.038  1.00  0.00     0.000 C 
BRANCH  19  20
ATOM     20  C   UNL     1     -38.949  22.509 -28.864  1.00  0.00     0.006 C 
BRANCH  20  21
ATOM     21  C   UNL     1     -40.211  23.340 -28.597  1.00  0.00     0.053 C 
BRANCH  21  22
ATOM     22  C   UNL     1     -41.268  23.060 -29.622  1.00  0.00     0.041 C 
ATOM     23  O   UNL     1     -41.011  22.326 -30.613  1.00  0.00    -0.550 OA
ATOM     24  O   UNL     1     -42.542  23.597 -29.475  1.00  0.00    -0.550 OA
ENDBRANCH  21  22
ENDBRANCH  20  21
ENDBRANCH  19  20
ENDBRANCH  18  19
ENDBRANCH  17  18
ENDBRANCH  16  17
ENDBRANCH  15  16
ENDBRANCH  14  15
ENDBRANCH  13  14
ENDBRANCH   1  13
TORSDOF 20
ENDMDL
MODEL 3
REMARK VINA RESULT:    -4.397      2.909      7.674
REMARK INTER + INTRA:         -12.553
REMARK INTER:                  -9.314
REMARK INTRA:                  -3.239
REMARK UNBOUND:                -3.016
REMARK SMILES CCCCCCCCCCCCCCCCCCCCCC(=O)[O-]
REMARK SMILES IDX 12 1 11 2 10 3 9 4 8 5 7 6 6 7 5 8 4 9 3 10 2 11 1 12 13 13
REMARK SMILES IDX 14 14 15 15 16 16 17 17 18 18 19 19 20 20 21 21 22 22 23 23
REMARK SMILES IDX 24 24
REMARK H PARENT
REMARK Flexibility Score: inf
ROOT
ATOM      1  C   UNL     1     -53.018  15.335 -28.073  1.00  0.00     0.000 C 
ENDROOT
BRANCH   1   2
ATOM      2  C   UNL     1     -53.685  16.711 -27.919  1.00  0.00     0.000 C 
BRANCH   2   3
ATOM      3  C   UNL     1     -52.850  17.840 -28.550  1.00  0.00     0.000 C 
BRANCH   3   4
ATOM      4  C   UNL     1     -53.426  18.315 -29.894  1.00  0.00    -0.000 C 
BRANCH   4   5
ATOM      5  C   UNL     1     -52.370  18.323 -31.016  1.00  0.00    -0.000 C 
BRANCH   5   6
ATOM      6  C   UNL     1     -51.248  17.301 -30.778  1.00  0.00    -0.000 C 
BRANCH   6   7
ATOM      7  C   UNL     1     -51.202  16.210 -31.863  1.00  0.00    -0.000 C 
BRANCH   7   8
ATOM      8  C   UNL     1     -51.353  14.793 -31.285  1.00  0.00    -0.000 C 
BRANCH   8   9
ATOM      9  C   UNL     1     -50.002  14.105 -31.043  1.00  0.00    -0.000 C 
BRANCH   9  10
ATOM     10  C   UNL     1     -49.996  13.369 -29.694  1.00  0.00    -0.000 C 
BRANCH  10  11
ATOM     11  C   UNL     1     -49.510  11.918 -29.814  1.00  0.00    -0.003 C 
ATOM     12  C   UNL     1     -49.036  11.341 -28.480  1.00  0.00     0.004 C 
ENDBRANCH  10  11
ENDBRANCH   9  10
ENDBRANCH   8   9
ENDBRANCH   7   8
ENDBRANCH   6   7
ENDBRANCH   5   6
ENDBRANCH   4   5
ENDBRANCH   3   4
ENDBRANCH   2   3
ENDBRANCH   1   2
BRANCH   1  13
ATOM     13  C   UNL     1     -54.046  14.200 -28.206  1.00  0.00     0.000 C 
BRANCH  13  14
ATOM     14  C   UNL     1     -53.363  12.878 -28.577  1.00  0.00     0.000 C 
BRANCH  14  15
ATOM     15  C   UNL     1     -53.790  12.417 -29.980  1.00  0.00     0.000 C 
BRANCH  15  16
ATOM     16  C   UNL     1     -52.973  11.215 -30.481  1.00  0.00     0.000 C 
BRANCH  16  17
ATOM     17  C   UNL     1     -52.539  11.364 -31.950  1.00  0.00     0.000 C 
BRANCH  17  18
ATOM     18  C   UNL     1     -51.563  10.250 -32.381  1.00  0.00     0.000 C 
BRANCH  18  19
ATOM     19  C   UNL     1     -51.342   9.171 -31.306  1.00  0.00     0.000 C 
BRANCH  19  20
ATOM     20  C   UNL     1     -50.223   8.185 -31.669  1.00  0.00     0.006 C 
BRANCH  20  21
ATOM     21  C   UNL     1     -49.147   8.151 -30.576  1.00  0.00     0.053 C 
BRANCH  21  22
ATOM     22  C   UNL     1     -47.851   8.711 -31.078  1.00  0.00     0.041 C 
ATOM     23  O   UNL     1     -47.647   8.824 -32.317  1.00  0.00    -0.550 OA
ATOM     24  O   UNL     1     -46.872   9.120 -30.180  1.00  0.00    -0.550 OA
ENDBRANCH  21  22
ENDBRANCH  20  21
ENDBRANCH  19  20
ENDBRANCH  18  19
ENDBRANCH  17  18
ENDBRANCH  16  17
ENDBRANCH  15  16
ENDBRANCH  14  15
ENDBRANCH  13  14
ENDBRANCH   1  13
TORSDOF 20
ENDMDL
MODEL 4
REMARK VINA RESULT:    -4.393      1.579      2.583
REMARK INTER + INTRA:         -12.546
REMARK INTER:                  -9.220
REMARK INTRA:                  -3.325
REMARK UNBOUND:                -3.016
REMARK SMILES CCCCCCCCCCCCCCCCCCCCCC(=O)[O-]
REMARK SMILES IDX 12 1 11 2 10 3 9 4 8 5 7 6 6 7 5 8 4 9 3 10 2 11 1 12 13 13
REMARK SMILES IDX 14 14 15 15 16 16 17 17 18 18 19 19 20 20 21 21 22 22 23 23
REMARK SMILES IDX 24 24
REMARK H PARENT
REMARK Flexibility Score: inf
ROOT
ATOM      1  C   UNL     1     -49.468  12.621 -29.677  1.00  0.00     0.000 C 
ENDROOT
BRANCH   1   2
ATOM      2  C   UNL     1     -50.035  11.457 -28.847  1.00  0.00     0.000 C 
BRANCH   2   3
ATOM      3  C   UNL     1     -49.056  10.273 -28.753  1.00  0.00     0.000 C 
BRANCH   3   4
ATOM      4  C   UNL     1     -47.731  10.547 -29.484  1.00  0.00    -0.000 C 
BRANCH   4   5
ATOM      5  C   UNL     1     -47.088   9.261 -30.036  1.00  0.00    -0.000 C 
BRANCH   5   6
ATOM      6  C   UNL     1     -47.796   7.988 -29.547  1.00  0.00    -0.000 C 
BRANCH   6   7
ATOM      7  C   UNL     1     -47.884   6.905 -30.637  1.00  0.00    -0.000 C 
BRANCH   7   8
ATOM      8  C   UNL     1     -47.625   7.462 -32.047  1.00  0.00    -0.000 C 
BRANCH   8   9
ATOM      9  C   UNL     1     -48.921   7.730 -32.826  1.00  0.00    -0.000 C 
BRANCH   9  10
ATOM     10  C   UNL     1     -49.042   9.217 -33.192  1.00  0.00    -0.000 C 
BRANCH  10  11
ATOM     11  C   UNL     1     -50.172   9.923 -32.427  1.00  0.00    -0.003 C 
ATOM     12  C   UNL     1     -51.000   8.960 -31.576  1.00  0.00     0.004 C 
ENDBRANCH  10  11
ENDBRANCH   9  10
ENDBRANCH   8   9
ENDBRANCH   7   8
ENDBRANCH   6   7
ENDBRANCH   5   6
ENDBRANCH   4   5
ENDBRANCH   3   4
ENDBRANCH   2   3
ENDBRANCH   1   2
BRANCH   1  13
ATOM     13  C   UNL     1     -50.473  13.140 -30.717  1.00  0.00     0.000 C 
BRANCH  13  14
ATOM     14  C   UNL     1     -51.857  12.516 -30.505  1.00  0.00     0.000 C 
BRANCH  14  15
ATOM     15  C   UNL     1     -52.948  13.366 -31.176  1.00  0.00     0.000 C 
BRANCH  15  16
ATOM     16  C   UNL     1     -53.972  13.914 -30.169  1.00  0.00     0.000 C 
BRANCH  16  17
ATOM     17  C   UNL     1     -53.474  13.837 -28.714  1.00  0.00     0.000 C 
BRANCH  17  18
ATOM     18  C   UNL     1     -53.045  15.217 -28.175  1.00  0.00     0.000 C 
BRANCH  18  19
ATOM     19  C   UNL     1     -53.974  16.365 -28.607  1.00  0.00     0.000 C 
BRANCH  19  20
ATOM     20  C   UNL     1     -53.210  17.585 -29.141  1.00  0.00     0.006 C 
BRANCH  20  21
ATOM     21  C   UNL     1     -53.126  17.551 -30.672  1.00  0.00     0.053 C 
BRANCH  21  22
ATOM     22  C   UNL     1     -51.720  17.305 -31.130  1.00  0.00     0.041 C 
ATOM     23  O   UNL     1     -51.461  16.333 -31.888  1.00  0.00    -0.550 OA
ATOM     24  O   UNL     1     -50.697  18.157 -30.729  1.00  0.00    -0.550 OA
ENDBRANCH  21  22
ENDBRANCH  20  21
ENDBRANCH  19  20
ENDBRANCH  18  19
ENDBRANCH  17  18
ENDBRANCH  16  17
ENDBRANCH  15  16
ENDBRANCH  14  15
ENDBRANCH  13  14
ENDBRANCH   1  13
TORSDOF 20
ENDMDL
MODEL 5
REMARK VINA RESULT:    -4.387      1.568      2.525
REMARK INTER + INTRA:         -12.533
REMARK INTER:                  -9.552
REMARK INTRA:                  -2.981
REMARK UNBOUND:                -3.016
REMARK SMILES CCCCCCCCCCCCCCCCCCCCCC(=O)[O-]
REMARK SMILES IDX 12 1 11 2 10 3 9 4 8 5 7 6 6 7 5 8 4 9 3 10 2 11 1 12 13 13
REMARK SMILES IDX 14 14 15 15 16 16 17 17 18 18 19 19 20 20 21 21 22 22 23 23
REMARK SMILES IDX 24 24
REMARK H PARENT
REMARK Flexibility Score: inf
ROOT
ATOM      1  C   UNL     1     -48.126  10.983 -29.088  1.00  0.00     0.000 C 
ENDROOT
BRANCH   1   2
ATOM      2  C   UNL     1     -48.527   9.511 -29.273  1.00  0.00     0.000 C 
BRANCH   2   3
ATOM      3  C   UNL     1     -47.394   8.667 -29.885  1.00  0.00     0.000 C 
BRANCH   3   4
ATOM      4  C   UNL     1     -47.313   8.815 -31.413  1.00  0.00    -0.000 C 
BRANCH   4   5
ATOM      5  C   UNL     1     -47.665   7.508 -32.149  1.00  0.00    -0.000 C 
BRANCH   5   6
ATOM      6  C   UNL     1     -48.975   7.612 -32.944  1.00  0.00    -0.000 C 
BRANCH   6   7
ATOM      7  C   UNL     1     -49.497   9.057 -33.036  1.00  0.00    -0.000 C 
BRANCH   7   8
ATOM      8  C   UNL     1     -50.988   9.171 -32.679  1.00  0.00    -0.000 C 
BRANCH   8   9
ATOM      9  C   UNL     1     -51.754   7.859 -32.902  1.00  0.00    -0.000 C 
BRANCH   9  10
ATOM     10  C   UNL     1     -52.445   7.402 -31.607  1.00  0.00    -0.000 C 
BRANCH  10  11
ATOM     11  C   UNL     1     -51.688   7.843 -30.346  1.00  0.00    -0.003 C 
ATOM     12  C   UNL     1     -50.808   6.735 -29.768  1.00  0.00     0.004 C 
ENDBRANCH  10  11
ENDBRANCH   9  10
ENDBRANCH   8   9
ENDBRANCH   7   8
ENDBRANCH   6   7
ENDBRANCH   5   6
ENDBRANCH   4   5
ENDBRANCH   3   4
ENDBRANCH   2   3
ENDBRANCH   1   2
BRANCH   1  13
ATOM     13  C   UNL     1     -49.346  11.906 -28.939  1.00  0.00     0.000 C 
BRANCH  13  14
ATOM     14  C   UNL     1     -50.534  11.385 -29.757  1.00  0.00     0.000 C 
BRANCH  14  15
ATOM     15  C   UNL     1     -50.791  12.281 -30.980  1.00  0.00     0.000 C 
BRANCH  15  16
ATOM     16  C   UNL     1     -50.321  13.728 -30.761  1.00  0.00     0.000 C 
BRANCH  16  17
ATOM     17  C   UNL     1     -51.396  14.764 -31.134  1.00  0.00     0.000 C 
BRANCH  17  18
ATOM     18  C   UNL     1     -52.728  14.507 -30.400  1.00  0.00     0.000 C 
BRANCH  18  19
ATOM     19  C   UNL     1     -52.580  14.390 -28.873  1.00  0.00     0.000 C 
BRANCH  19  20
ATOM     20  C   UNL     1     -52.967  15.678 -28.133  1.00  0.00     0.006 C 
BRANCH  20  21
ATOM     21  C   UNL     1     -53.793  16.602 -29.039  1.00  0.00     0.053 C 
BRANCH  21  22
ATOM     22  C   UNL     1     -53.153  17.953 -29.157  1.00  0.00     0.041 C 
ATOM     23  O   UNL     1     -53.817  18.993 -28.906  1.00  0.00    -0.550 OA
ATOM     24  O   UNL     1     -51.819  18.062 -29.532  1.00  0.00    -0.550 OA
ENDBRANCH  21  22
ENDBRANCH  20  21
ENDBRANCH  19  20
ENDBRANCH  18  19
ENDBRANCH  17  18
ENDBRANCH  16  17
ENDBRANCH  15  16
ENDBRANCH  14  15
ENDBRANCH  13  14
ENDBRANCH   1  13
TORSDOF 20
ENDMDL
MODEL 6
REMARK VINA RESULT:    -4.311      1.568      2.138
REMARK INTER + INTRA:         -12.368
REMARK INTER:                  -9.212
REMARK INTRA:                  -3.156
REMARK UNBOUND:                -3.016
REMARK SMILES CCCCCCCCCCCCCCCCCCCCCC(=O)[O-]
REMARK SMILES IDX 12 1 11 2 10 3 9 4 8 5 7 6 6 7 5 8 4 9 3 10 2 11 1 12 13 13
REMARK SMILES IDX 14 14 15 15 16 16 17 17 18 18 19 19 20 20 21 21 22 22 23 23
REMARK SMILES IDX 24 24
REMARK H PARENT
REMARK Flexibility Score: inf
ROOT
ATOM      1  C   UNL     1     -50.209  11.181 -29.241  1.00  0.00     0.000 C 
ENDROOT
BRANCH   1   2
ATOM      2  C   UNL     1     -48.919  10.739 -28.531  1.00  0.00     0.000 C 
BRANCH   2   3
ATOM      3  C   UNL     1     -47.713  10.687 -29.487  1.00  0.00     0.000 C 
BRANCH   3   4
ATOM      4  C   UNL     1     -47.248   9.249 -29.768  1.00  0.00    -0.000 C 
BRANCH   4   5
ATOM      5  C   UNL     1     -47.372   8.872 -31.256  1.00  0.00    -0.000 C 
BRANCH   5   6
ATOM      6  C   UNL     1     -48.248   7.629 -31.480  1.00  0.00    -0.000 C 
BRANCH   6   7
ATOM      7  C   UNL     1     -49.714   7.858 -31.070  1.00  0.00    -0.000 C 
BRANCH   7   8
ATOM      8  C   UNL     1     -50.615   8.206 -32.266  1.00  0.00    -0.000 C 
BRANCH   8   9
ATOM      9  C   UNL     1     -50.554   9.693 -32.643  1.00  0.00    -0.000 C 
BRANCH   9  10
ATOM     10  C   UNL     1     -51.943  10.342 -32.534  1.00  0.00    -0.000 C 
BRANCH  10  11
ATOM     11  C   UNL     1     -52.982   9.412 -31.891  1.00  0.00    -0.003 C 
ATOM     12  C   UNL     1     -53.478   9.926 -30.540  1.00  0.00     0.004 C 
ENDBRANCH  10  11
ENDBRANCH   9  10
ENDBRANCH   8   9
ENDBRANCH   7   8
ENDBRANCH   6   7
ENDBRANCH   5   6
ENDBRANCH   4   5
ENDBRANCH   3   4
ENDBRANCH   2   3
ENDBRANCH   1   2
BRANCH   1  13
ATOM     13  C   UNL     1     -49.976  12.364 -30.193  1.00  0.00     0.000 C 
BRANCH  13  14
ATOM     14  C   UNL     1     -50.883  13.548 -29.835  1.00  0.00     0.000 C 
BRANCH  14  15
ATOM     15  C   UNL     1     -51.944  13.772 -30.924  1.00  0.00     0.000 C 
BRANCH  15  16
ATOM     16  C   UNL     1     -53.375  13.545 -30.411  1.00  0.00     0.000 C 
BRANCH  16  17
ATOM     17  C   UNL     1     -53.425  13.264 -28.898  1.00  0.00     0.000 C 
BRANCH  17  18
ATOM     18  C   UNL     1     -54.125  14.398 -28.122  1.00  0.00     0.000 C 
BRANCH  18  19
ATOM     19  C   UNL     1     -53.240  15.639 -27.907  1.00  0.00     0.000 C 
BRANCH  19  20
ATOM     20  C   UNL     1     -53.734  16.868 -28.682  1.00  0.00     0.006 C 
BRANCH  20  21
ATOM     21  C   UNL     1     -52.592  17.867 -28.910  1.00  0.00     0.053 C 
BRANCH  21  22
ATOM     22  C   UNL     1     -52.204  17.923 -30.356  1.00  0.00     0.041 C 
ATOM     23  O   UNL     1     -50.994  18.044 -30.684  1.00  0.00    -0.550 OA
ATOM     24  O   UNL     1     -53.178  17.826 -31.344  1.00  0.00    -0.550 OA
ENDBRANCH  21  22
ENDBRANCH  20  21
ENDBRANCH  19  20
ENDBRANCH  18  19
ENDBRANCH  17  18
ENDBRANCH  16  17
ENDBRANCH  15  16
ENDBRANCH  14  15
ENDBRANCH  13  14
ENDBRANCH   1  13
TORSDOF 20
ENDMDL
MODEL 7
REMARK VINA RESULT:    -4.303      1.314      3.686
REMARK INTER + INTRA:         -12.351
REMARK INTER:                  -9.315
REMARK INTRA:                  -3.036
REMARK UNBOUND:                -3.016
REMARK SMILES CCCCCCCCCCCCCCCCCCCCCC(=O)[O-]
REMARK SMILES IDX 12 1 11 2 10 3 9 4 8 5 7 6 6 7 5 8 4 9 3 10 2 11 1 12 13 13
REMARK SMILES IDX 14 14 15 15 16 16 17 17 18 18 19 19 20 20 21 21 22 22 23 23
REMARK SMILES IDX 24 24
REMARK H PARENT
REMARK Flexibility Score: inf
ROOT
ATOM      1  C   UNL     1     -50.876  10.462 -31.901  1.00  0.00     0.000 C 
ENDROOT
BRANCH   1   2
ATOM      2  C   UNL     1     -52.219  10.343 -32.639  1.00  0.00     0.000 C 
BRANCH   2   3
ATOM      3  C   UNL     1     -52.880   8.968 -32.435  1.00  0.00     0.000 C 
BRANCH   3   4
ATOM      4  C   UNL     1     -53.334   8.332 -33.759  1.00  0.00    -0.000 C 
BRANCH   4   5
ATOM      5  C   UNL     1     -52.582   7.024 -34.070  1.00  0.00    -0.000 C 
BRANCH   5   6
ATOM      6  C   UNL     1     -52.086   6.311 -32.802  1.00  0.00    -0.000 C 
BRANCH   6   7
ATOM      7  C   UNL     1     -50.595   5.938 -32.880  1.00  0.00    -0.000 C 
BRANCH   7   8
ATOM      8  C   UNL     1     -49.694   6.942 -32.142  1.00  0.00    -0.000 C 
BRANCH   8   9
ATOM      9  C   UNL     1     -48.524   7.436 -33.006  1.00  0.00    -0.000 C 
BRANCH   9  10
ATOM     10  C   UNL     1     -47.724   8.523 -32.272  1.00  0.00    -0.000 C 
BRANCH  10  11
ATOM     11  C   UNL     1     -47.610   8.257 -30.764  1.00  0.00    -0.003 C 
ATOM     12  C   UNL     1     -47.323   9.525 -29.960  1.00  0.00     0.004 C 
ENDBRANCH  10  11
ENDBRANCH   9  10
ENDBRANCH   8   9
ENDBRANCH   7   8
ENDBRANCH   6   7
ENDBRANCH   5   6
ENDBRANCH   4   5
ENDBRANCH   3   4
ENDBRANCH   2   3
ENDBRANCH   1   2
BRANCH   1  13
ATOM     13  C   UNL     1     -50.964   9.976 -30.446  1.00  0.00     0.000 C 
BRANCH  13  14
ATOM     14  C   UNL     1     -50.824  11.145 -29.464  1.00  0.00     0.000 C 
BRANCH  14  15
ATOM     15  C   UNL     1     -50.185  12.362 -30.152  1.00  0.00     0.000 C 
BRANCH  15  16
ATOM     16  C   UNL     1     -51.071  13.616 -30.077  1.00  0.00     0.000 C 
BRANCH  16  17
ATOM     17  C   UNL     1     -52.574  13.280 -30.073  1.00  0.00     0.000 C 
BRANCH  17  18
ATOM     18  C   UNL     1     -53.335  14.044 -28.971  1.00  0.00     0.000 C 
BRANCH  18  19
ATOM     19  C   UNL     1     -52.604  15.305 -28.476  1.00  0.00     0.000 C 
BRANCH  19  20
ATOM     20  C   UNL     1     -53.437  16.584 -28.643  1.00  0.00     0.006 C 
BRANCH  20  21
ATOM     21  C   UNL     1     -53.522  16.993 -30.119  1.00  0.00     0.053 C 
BRANCH  21  22
ATOM     22  C   UNL     1     -52.159  17.266 -30.682  1.00  0.00     0.041 C 
ATOM     23  O   UNL     1     -51.422  18.143 -30.159  1.00  0.00    -0.550 OA
ATOM     24  O   UNL     1     -51.698  16.541 -31.775  1.00  0.00    -0.550 OA
ENDBRANCH  21  22
ENDBRANCH  20  21
ENDBRANCH  19  20
ENDBRANCH  18  19
ENDBRANCH  17  18
ENDBRANCH  16  17
ENDBRANCH  15  16
ENDBRANCH  14  15
ENDBRANCH  13  14
ENDBRANCH   1  13
TORSDOF 20
ENDMDL
MODEL 8
REMARK VINA RESULT:    -4.290      1.464      2.359
REMARK INTER + INTRA:         -12.322
REMARK INTER:                  -9.079
REMARK INTRA:                  -3.243
REMARK UNBOUND:                -3.016
REMARK SMILES CCCCCCCCCCCCCCCCCCCCCC(=O)[O-]
REMARK SMILES IDX 12 1 11 2 10 3 9 4 8 5 7 6 6 7 5 8 4 9 3 10 2 11 1 12 13 13
REMARK SMILES IDX 14 14 15 15 16 16 17 17 18 18 19 19 20 20 21 21 22 22 23 23
REMARK SMILES IDX 24 24
REMARK H PARENT
REMARK Flexibility Score: inf
ROOT
ATOM      1  C   UNL     1     -48.807  11.246 -28.791  1.00  0.00     0.000 C 
ENDROOT
BRANCH   1   2
ATOM      2  C   UNL     1     -47.784  10.483 -29.647  1.00  0.00     0.000 C 
BRANCH   2   3
ATOM      3  C   UNL     1     -47.798   8.969 -29.367  1.00  0.00     0.000 C 
BRANCH   3   4
ATOM      4  C   UNL     1     -49.220   8.386 -29.365  1.00  0.00    -0.000 C 
BRANCH   4   5
ATOM      5  C   UNL     1     -49.247   6.900 -29.769  1.00  0.00    -0.000 C 
BRANCH   5   6
ATOM      6  C   UNL     1     -50.579   6.486 -30.414  1.00  0.00    -0.000 C 
BRANCH   6   7
ATOM      7  C   UNL     1     -51.636   7.603 -30.355  1.00  0.00    -0.000 C 
BRANCH   7   8
ATOM      8  C   UNL     1     -52.291   7.870 -31.720  1.00  0.00    -0.000 C 
BRANCH   8   9
ATOM      9  C   UNL     1     -51.266   8.182 -32.819  1.00  0.00    -0.000 C 
BRANCH   9  10
ATOM     10  C   UNL     1     -50.579   9.532 -32.560  1.00  0.00    -0.000 C 
BRANCH  10  11
ATOM     11  C   UNL     1     -49.178   9.612 -33.184  1.00  0.00    -0.003 C 
ATOM     12  C   UNL     1     -48.417   8.289 -33.097  1.00  0.00     0.004 C 
ENDBRANCH  10  11
ENDBRANCH   9  10
ENDBRANCH   8   9
ENDBRANCH   7   8
ENDBRANCH   6   7
ENDBRANCH   5   6
ENDBRANCH   4   5
ENDBRANCH   3   4
ENDBRANCH   2   3
ENDBRANCH   1   2
BRANCH   1  13
ATOM     13  C   UNL     1     -49.265  12.554 -29.455  1.00  0.00     0.000 C 
BRANCH  13  14
ATOM     14  C   UNL     1     -50.624  12.376 -30.143  1.00  0.00     0.000 C 
BRANCH  14  15
ATOM     15  C   UNL     1     -51.500  11.375 -29.372  1.00  0.00     0.000 C 
BRANCH  15  16
ATOM     16  C   UNL     1     -52.676  12.052 -28.651  1.00  0.00     0.000 C 
BRANCH  16  17
ATOM     17  C   UNL     1     -53.038  13.419 -29.260  1.00  0.00     0.000 C 
BRANCH  17  18
ATOM     18  C   UNL     1     -53.434  14.448 -28.182  1.00  0.00     0.000 C 
BRANCH  18  19
ATOM     19  C   UNL     1     -53.697  15.858 -28.740  1.00  0.00     0.000 C 
BRANCH  19  20
ATOM     20  C   UNL     1     -54.074  15.853 -30.228  1.00  0.00     0.006 C 
BRANCH  20  21
ATOM     21  C   UNL     1     -53.422  17.032 -30.962  1.00  0.00     0.053 C 
BRANCH  21  22
ATOM     22  C   UNL     1     -51.941  16.838 -31.086  1.00  0.00     0.041 C 
ATOM     23  O   UNL     1     -51.480  15.761 -31.550  1.00  0.00    -0.550 OA
ATOM     24  O   UNL     1     -51.070  17.851 -30.702  1.00  0.00    -0.550 OA
ENDBRANCH  21  22
ENDBRANCH  20  21
ENDBRANCH  19  20
ENDBRANCH  18  19
ENDBRANCH  17  18
ENDBRANCH  16  17
ENDBRANCH  15  16
ENDBRANCH  14  15
ENDBRANCH  13  14
ENDBRANCH   1  13
TORSDOF 20
ENDMDL
MODEL 9
REMARK VINA RESULT:    -4.206      2.744      7.196
REMARK INTER + INTRA:         -12.139
REMARK INTER:                  -9.225
REMARK INTRA:                  -2.914
REMARK UNBOUND:                -3.016
REMARK SMILES CCCCCCCCCCCCCCCCCCCCCC(=O)[O-]
REMARK SMILES IDX 12 1 11 2 10 3 9 4 8 5 7 6 6 7 5 8 4 9 3 10 2 11 1 12 13 13
REMARK SMILES IDX 14 14 15 15 16 16 17 17 18 18 19 19 20 20 21 21 22 22 23 23
REMARK SMILES IDX 24 24
REMARK H PARENT
REMARK Flexibility Score: inf
ROOT
ATOM      1  C   UNL     1     -47.846  10.573 -29.271  1.00  0.00     0.000 C 
ENDROOT
BRANCH   1   2
ATOM      2  C   UNL     1     -48.864  11.474 -28.553  1.00  0.00     0.000 C 
BRANCH   2   3
ATOM      3  C   UNL     1     -49.330  12.649 -29.432  1.00  0.00     0.000 C 
BRANCH   3   4
ATOM      4  C   UNL     1     -50.610  12.322 -30.217  1.00  0.00    -0.000 C 
BRANCH   4   5
ATOM      5  C   UNL     1     -51.664  11.604 -29.352  1.00  0.00    -0.000 C 
BRANCH   5   6
ATOM      6  C   UNL     1     -53.068  12.209 -29.508  1.00  0.00    -0.000 C 
BRANCH   6   7
ATOM      7  C   UNL     1     -53.439  13.148 -28.346  1.00  0.00    -0.000 C 
BRANCH   7   8
ATOM      8  C   UNL     1     -53.972  14.506 -28.831  1.00  0.00    -0.000 C 
BRANCH   8   9
ATOM      9  C   UNL     1     -53.325  14.962 -30.146  1.00  0.00    -0.000 C 
BRANCH   9  10
ATOM     10  C   UNL     1     -52.185  15.957 -29.880  1.00  0.00    -0.000 C 
BRANCH  10  11
ATOM     11  C   UNL     1     -51.617  16.565 -31.171  1.00  0.00    -0.003 C 
ATOM     12  C   UNL     1     -50.638  15.632 -31.882  1.00  0.00     0.004 C 
ENDBRANCH  10  11
ENDBRANCH   9  10
ENDBRANCH   8   9
ENDBRANCH   7   8
ENDBRANCH   6   7
ENDBRANCH   5   6
ENDBRANCH   4   5
ENDBRANCH   3   4
ENDBRANCH   2   3
ENDBRANCH   1   2
BRANCH   1  13
ATOM     13  C   UNL     1     -48.268   9.096 -29.265  1.00  0.00     0.000 C 
BRANCH  13  14
ATOM     14  C   UNL     1     -47.044   8.173 -29.265  1.00  0.00     0.000 C 
BRANCH  14  15
ATOM     15  C   UNL     1     -47.433   6.748 -29.690  1.00  0.00     0.000 C 
BRANCH  15  16
ATOM     16  C   UNL     1     -48.644   6.724 -30.637  1.00  0.00     0.000 C 
BRANCH  16  17
ATOM     17  C   UNL     1     -48.237   6.634 -32.119  1.00  0.00     0.000 C 
BRANCH  17  18
ATOM     18  C   UNL     1     -47.761   7.992 -32.673  1.00  0.00     0.000 C 
BRANCH  18  19
ATOM     19  C   UNL     1     -48.855   8.771 -33.423  1.00  0.00     0.000 C 
BRANCH  19  20
ATOM     20  C   UNL     1     -49.640   9.727 -32.513  1.00  0.00     0.006 C 
BRANCH  20  21
ATOM     21  C   UNL     1     -51.152   9.536 -32.694  1.00  0.00     0.053 C 
BRANCH  21  22
ATOM     22  C   UNL     1     -51.647   8.368 -31.896  1.00  0.00     0.041 C 
ATOM     23  O   UNL     1     -51.733   8.448 -30.642  1.00  0.00    -0.550 OA
ATOM     24  O   UNL     1     -52.027   7.195 -32.539  1.00  0.00    -0.550 OA
ENDBRANCH  21  22
ENDBRANCH  20  21
ENDBRANCH  19  20
ENDBRANCH  18  19
ENDBRANCH  17  18
ENDBRANCH  16  17
ENDBRANCH  15  16
ENDBRANCH  14  15
ENDBRANCH  13  14
ENDBRANCH   1  13
TORSDOF 20
ENDMDL
