MODEL 1
REMARK VINA RESULT:    -5.382      0.000      0.000
REMARK INTER + INTRA:          -5.696
REMARK INTER:                  -5.696
REMARK INTRA:                   0.000
REMARK UNBOUND:                 0.000
REMARK SMILES O=c1ccc2cc(O)c(O)cc2o1
REMARK SMILES IDX 4 1 3 2 2 3 1 4 13 5 12 6 11 7 9 8 7 9 6 10 5 11 8 12 10 14
REMARK H PARENT 8 13 10 15
REMARK Flexibility Score: inf
ROOT
ATOM      1  C   UNL     1      20.350  -1.247 -21.648  1.00  0.00     0.019 A 
ATOM      2  C   UNL     1      21.129  -0.591 -22.600  1.00  0.00     0.094 A 
ATOM      3  C   UNL     1      21.866   0.535 -22.214  1.00  0.00     0.336 A 
ATOM      4  O   UNL     1      22.575   1.141 -23.057  1.00  0.00    -0.246 OA
ATOM      5  O   UNL     1      21.822   0.969 -20.957  1.00  0.00    -0.423 OA
ATOM      6  C   UNL     1      21.090   0.373 -20.017  1.00  0.00     0.142 A 
ATOM      7  C   UNL     1      21.082   0.875 -18.714  1.00  0.00     0.098 A 
ATOM      8  C   UNL     1      20.316   0.254 -17.720  1.00  0.00     0.161 A 
ATOM      9  C   UNL     1      19.549  -0.883 -18.034  1.00  0.00     0.158 A 
ATOM     10  C   UNL     1      19.554  -1.392 -19.341  1.00  0.00     0.062 A 
ATOM     11  C   UNL     1      20.321  -0.768 -20.334  1.00  0.00     0.022 A 
ENDROOT
BRANCH   9  12
ATOM     12  O   UNL     1      18.786  -1.504 -17.045  1.00  0.00    -0.504 OA
ATOM     13  H   UNL     1      18.615  -2.503 -17.055  1.00  0.00     0.293 HD
ENDBRANCH   9  12
BRANCH   8  14
ATOM     14  O   UNL     1      20.330   0.779 -16.429  1.00  0.00    -0.504 OA
ATOM     15  H   UNL     1      20.052   0.232 -15.622  1.00  0.00     0.293 HD
ENDBRANCH   8  14
TORSDOF 2
ENDMDL
MODEL 2
REMARK VINA RESULT:    -5.358     16.920     18.091
REMARK INTER + INTRA:          -5.672
REMARK INTER:                  -5.672
REMARK INTRA:                   0.000
REMARK UNBOUND:                 0.000
REMARK SMILES O=c1ccc2cc(O)c(O)cc2o1
REMARK SMILES IDX 4 1 3 2 2 3 1 4 13 5 12 6 11 7 9 8 7 9 6 10 5 11 8 12 10 14
REMARK H PARENT 8 13 10 15
REMARK Flexibility Score: inf
ROOT
ATOM      1  C   UNL     1      10.129  -7.092  -9.738  1.00  0.00     0.019 A 
ATOM      2  C   UNL     1       9.371  -7.805 -10.667  1.00  0.00     0.094 A 
ATOM      3  C   UNL     1       8.005  -7.990 -10.428  1.00  0.00     0.336 A 
ATOM      4  O   UNL     1       7.304  -8.630 -11.253  1.00  0.00    -0.246 OA
ATOM      5  O   UNL     1       7.440  -7.491  -9.331  1.00  0.00    -0.423 OA
ATOM      6  C   UNL     1       8.127  -6.805  -8.420  1.00  0.00     0.142 A 
ATOM      7  C   UNL     1       7.479  -6.305  -7.287  1.00  0.00     0.098 A 
ATOM      8  C   UNL     1       8.194  -5.582  -6.324  1.00  0.00     0.161 A 
ATOM      9  C   UNL     1       9.573  -5.357  -6.496  1.00  0.00     0.158 A 
ATOM     10  C   UNL     1      10.227  -5.856  -7.632  1.00  0.00     0.062 A 
ATOM     11  C   UNL     1       9.510  -6.579  -8.594  1.00  0.00     0.022 A 
ENDROOT
BRANCH   9  12
ATOM     12  O   UNL     1      10.286  -4.636  -5.538  1.00  0.00    -0.504 OA
ATOM     13  H   UNL     1      11.128  -4.125  -5.777  1.00  0.00     0.293 HD
ENDBRANCH   9  12
BRANCH   8  14
ATOM     14  O   UNL     1       7.520  -5.097  -5.205  1.00  0.00    -0.504 OA
ATOM     15  H   UNL     1       7.845  -4.287  -4.689  1.00  0.00     0.293 HD
ENDBRANCH   8  14
TORSDOF 2
ENDMDL
MODEL 3
REMARK VINA RESULT:    -5.229     16.243     17.718
REMARK INTER + INTRA:          -5.535
REMARK INTER:                  -5.535
REMARK INTRA:                   0.000
REMARK UNBOUND:                 0.000
REMARK SMILES O=c1ccc2cc(O)c(O)cc2o1
REMARK SMILES IDX 4 1 3 2 2 3 1 4 13 5 12 6 11 7 9 8 7 9 6 10 5 11 8 12 10 14
REMARK H PARENT 8 13 10 15
REMARK Flexibility Score: inf
ROOT
ATOM      1  C   UNL     1       7.578  -7.639  -9.483  1.00  0.00     0.019 A 
ATOM      2  C   UNL     1       8.316  -8.105 -10.571  1.00  0.00     0.094 A 
ATOM      3  C   UNL     1       9.680  -7.805 -10.643  1.00  0.00     0.336 A 
ATOM      4  O   UNL     1      10.364  -8.216 -11.615  1.00  0.00    -0.246 OA
ATOM      5  O   UNL     1      10.263  -7.086  -9.686  1.00  0.00    -0.423 OA
ATOM      6  C   UNL     1       9.596  -6.622  -8.632  1.00  0.00     0.142 A 
ATOM      7  C   UNL     1      10.261  -5.871  -7.658  1.00  0.00     0.098 A 
ATOM      8  C   UNL     1       9.567  -5.380  -6.546  1.00  0.00     0.161 A 
ATOM      9  C   UNL     1       8.191  -5.641  -6.406  1.00  0.00     0.158 A 
ATOM     10  C   UNL     1       7.519  -6.394  -7.380  1.00  0.00     0.062 A 
ATOM     11  C   UNL     1       8.215  -6.885  -8.492  1.00  0.00     0.022 A 
ENDROOT
BRANCH   9  12
ATOM     12  O   UNL     1       7.498  -5.153  -5.298  1.00  0.00    -0.504 OA
ATOM     13  H   UNL     1       7.130  -4.209  -5.276  1.00  0.00     0.293 HD
ENDBRANCH   9  12
BRANCH   8  14
ATOM     14  O   UNL     1      10.259  -4.635  -5.592  1.00  0.00    -0.504 OA
ATOM     15  H   UNL     1      10.516  -3.667  -5.748  1.00  0.00     0.293 HD
ENDBRANCH   8  14
TORSDOF 2
ENDMDL
MODEL 4
REMARK VINA RESULT:    -5.138     15.536     18.013
REMARK INTER + INTRA:          -5.439
REMARK INTER:                  -5.439
REMARK INTRA:                   0.000
REMARK UNBOUND:                 0.000
REMARK SMILES O=c1ccc2cc(O)c(O)cc2o1
REMARK SMILES IDX 4 1 3 2 2 3 1 4 13 5 12 6 11 7 9 8 7 9 6 10 5 11 8 12 10 14
REMARK H PARENT 8 13 10 15
REMARK Flexibility Score: inf
ROOT
ATOM      1  C   UNL     1      10.270  -8.433  -8.724  1.00  0.00     0.019 A 
ATOM      2  C   UNL     1      11.250  -7.803  -9.491  1.00  0.00     0.094 A 
ATOM      3  C   UNL     1      11.488  -6.438  -9.297  1.00  0.00     0.336 A 
ATOM      4  O   UNL     1      12.368  -5.851  -9.979  1.00  0.00    -0.246 OA
ATOM      5  O   UNL     1      10.790  -5.754  -8.394  1.00  0.00    -0.423 OA
ATOM      6  C   UNL     1       9.846  -6.316  -7.642  1.00  0.00     0.142 A 
ATOM      7  C   UNL     1       9.145  -5.547  -6.710  1.00  0.00     0.098 A 
ATOM      8  C   UNL     1       8.151  -6.131  -5.914  1.00  0.00     0.161 A 
ATOM      9  C   UNL     1       7.855  -7.500  -6.053  1.00  0.00     0.158 A 
ATOM     10  C   UNL     1       8.557  -8.276  -6.987  1.00  0.00     0.062 A 
ATOM     11  C   UNL     1       9.551  -7.690  -7.783  1.00  0.00     0.022 A 
ENDROOT
BRANCH   9  12
ATOM     12  O   UNL     1       6.866  -8.083  -5.262  1.00  0.00    -0.504 OA
ATOM     13  H   UNL     1       6.200  -7.521  -4.745  1.00  0.00     0.293 HD
ENDBRANCH   9  12
BRANCH   8  14
ATOM     14  O   UNL     1       7.470  -5.337  -4.993  1.00  0.00    -0.504 OA
ATOM     15  H   UNL     1       6.769  -4.662  -5.279  1.00  0.00     0.293 HD
ENDBRANCH   8  14
TORSDOF 2
ENDMDL
MODEL 5
REMARK VINA RESULT:    -5.135     17.228     19.222
REMARK INTER + INTRA:          -5.435
REMARK INTER:                  -5.435
REMARK INTRA:                   0.000
REMARK UNBOUND:                 0.000
REMARK SMILES O=c1ccc2cc(O)c(O)cc2o1
REMARK SMILES IDX 4 1 3 2 2 3 1 4 13 5 12 6 11 7 9 8 7 9 6 10 5 11 8 12 10 14
REMARK H PARENT 8 13 10 15
REMARK Flexibility Score: inf
ROOT
ATOM      1  C   UNL     1       7.878  -8.741  -8.276  1.00  0.00     0.019 A 
ATOM      2  C   UNL     1       8.098  -8.362  -9.600  1.00  0.00     0.094 A 
ATOM      3  C   UNL     1       8.291  -7.008  -9.894  1.00  0.00     0.336 A 
ATOM      4  O   UNL     1       8.491  -6.645 -11.082  1.00  0.00    -0.246 OA
ATOM      5  O   UNL     1       8.265  -6.097  -8.924  1.00  0.00    -0.423 OA
ATOM      6  C   UNL     1       8.057  -6.416  -7.648  1.00  0.00     0.142 A 
ATOM      7  C   UNL     1       8.040  -5.416  -6.671  1.00  0.00     0.098 A 
ATOM      8  C   UNL     1       7.824  -5.743  -5.327  1.00  0.00     0.161 A 
ATOM      9  C   UNL     1       7.622  -7.085  -4.955  1.00  0.00     0.158 A 
ATOM     10  C   UNL     1       7.639  -8.092  -5.931  1.00  0.00     0.062 A 
ATOM     11  C   UNL     1       7.855  -7.763  -7.276  1.00  0.00     0.022 A 
ENDROOT
BRANCH   9  12
ATOM     12  O   UNL     1       7.406  -7.413  -3.616  1.00  0.00    -0.504 OA
ATOM     13  H   UNL     1       6.965  -6.763  -2.975  1.00  0.00     0.293 HD
ENDBRANCH   9  12
BRANCH   8  14
ATOM     14  O   UNL     1       7.812  -4.723  -4.377  1.00  0.00    -0.504 OA
ATOM     15  H   UNL     1       8.640  -4.468  -3.851  1.00  0.00     0.293 HD
ENDBRANCH   8  14
TORSDOF 2
ENDMDL
MODEL 6
REMARK VINA RESULT:    -5.133      2.078      2.986
REMARK INTER + INTRA:          -5.433
REMARK INTER:                  -5.433
REMARK INTRA:                   0.000
REMARK UNBOUND:                 0.000
REMARK SMILES O=c1ccc2cc(O)c(O)cc2o1
REMARK SMILES IDX 4 1 3 2 2 3 1 4 13 5 12 6 11 7 9 8 7 9 6 10 5 11 8 12 10 14
REMARK H PARENT 8 13 10 15
REMARK Flexibility Score: inf
ROOT
ATOM      1  C   UNL     1      18.707  -0.793 -18.453  1.00  0.00     0.019 A 
ATOM      2  C   UNL     1      19.086  -1.205 -19.731  1.00  0.00     0.094 A 
ATOM      3  C   UNL     1      20.364  -0.879 -20.197  1.00  0.00     0.336 A 
ATOM      4  O   UNL     1      20.725  -1.242 -21.346  1.00  0.00    -0.246 OA
ATOM      5  O   UNL     1      21.204  -0.188 -19.431  1.00  0.00    -0.423 OA
ATOM      6  C   UNL     1      20.883   0.226 -18.207  1.00  0.00     0.142 A 
ATOM      7  C   UNL     1      21.807   0.950 -17.449  1.00  0.00     0.098 A 
ATOM      8  C   UNL     1      21.477   1.387 -16.160  1.00  0.00     0.161 A 
ATOM      9  C   UNL     1      20.209   1.098 -15.624  1.00  0.00     0.158 A 
ATOM     10  C   UNL     1      19.278   0.371 -16.381  1.00  0.00     0.062 A 
ATOM     11  C   UNL     1      19.610  -0.066 -17.671  1.00  0.00     0.022 A 
ENDROOT
BRANCH   9  12
ATOM     12  O   UNL     1      19.878   1.533 -14.341  1.00  0.00    -0.504 OA
ATOM     13  H   UNL     1      20.012   0.941 -13.529  1.00  0.00     0.293 HD
ENDBRANCH   9  12
BRANCH   8  14
ATOM     14  O   UNL     1      22.421   2.108 -15.429  1.00  0.00    -0.504 OA
ATOM     15  H   UNL     1      23.267   2.470 -15.852  1.00  0.00     0.293 HD
ENDBRANCH   8  14
TORSDOF 2
ENDMDL
MODEL 7
REMARK VINA RESULT:    -5.090     14.317     16.781
REMARK INTER + INTRA:          -5.388
REMARK INTER:                  -5.388
REMARK INTRA:                   0.000
REMARK UNBOUND:                 0.000
REMARK SMILES O=c1ccc2cc(O)c(O)cc2o1
REMARK SMILES IDX 4 1 3 2 2 3 1 4 13 5 12 6 11 7 9 8 7 9 6 10 5 11 8 12 10 14
REMARK H PARENT 8 13 10 15
REMARK Flexibility Score: inf
ROOT
ATOM      1  C   UNL     1       9.633  -5.380 -11.012  1.00  0.00     0.019 A 
ATOM      2  C   UNL     1      10.960  -5.771 -11.194  1.00  0.00     0.094 A 
ATOM      3  C   UNL     1      11.721  -6.126 -10.075  1.00  0.00     0.336 A 
ATOM      4  O   UNL     1      12.919  -6.482 -10.217  1.00  0.00    -0.246 OA
ATOM      5  O   UNL     1      11.186  -6.090  -8.857  1.00  0.00    -0.423 OA
ATOM      6  C   UNL     1       9.925  -5.722  -8.639  1.00  0.00     0.142 A 
ATOM      7  C   UNL     1       9.417  -5.703  -7.337  1.00  0.00     0.098 A 
ATOM      8  C   UNL     1       8.092  -5.318  -7.100  1.00  0.00     0.161 A 
ATOM      9  C   UNL     1       7.265  -4.947  -8.177  1.00  0.00     0.158 A 
ATOM     10  C   UNL     1       7.770  -4.965  -9.485  1.00  0.00     0.062 A 
ATOM     11  C   UNL     1       9.097  -5.350  -9.721  1.00  0.00     0.022 A 
ENDROOT
BRANCH   9  12
ATOM     12  O   UNL     1       5.945  -4.564  -7.942  1.00  0.00    -0.504 OA
ATOM     13  H   UNL     1       5.632  -3.612  -8.100  1.00  0.00     0.293 HD
ENDBRANCH   9  12
BRANCH   8  14
ATOM     14  O   UNL     1       7.615  -5.310  -5.790  1.00  0.00    -0.504 OA
ATOM     15  H   UNL     1       7.386  -4.449  -5.306  1.00  0.00     0.293 HD
ENDBRANCH   8  14
TORSDOF 2
ENDMDL
MODEL 8
REMARK VINA RESULT:    -5.079     15.011     17.138
REMARK INTER + INTRA:          -5.376
REMARK INTER:                  -5.376
REMARK INTRA:                   0.000
REMARK UNBOUND:                 0.000
REMARK SMILES O=c1ccc2cc(O)c(O)cc2o1
REMARK SMILES IDX 4 1 3 2 2 3 1 4 13 5 12 6 11 7 9 8 7 9 6 10 5 11 8 12 10 14
REMARK H PARENT 8 13 10 15
REMARK Flexibility Score: inf
ROOT
ATOM      1  C   UNL     1      11.141  -6.928  -8.444  1.00  0.00     0.019 A 
ATOM      2  C   UNL     1      11.609  -7.256  -9.717  1.00  0.00     0.094 A 
ATOM      3  C   UNL     1      10.809  -6.970 -10.828  1.00  0.00     0.336 A 
ATOM      4  O   UNL     1      11.213  -7.257 -11.984  1.00  0.00    -0.246 OA
ATOM      5  O   UNL     1       9.620  -6.393 -10.671  1.00  0.00    -0.423 OA
ATOM      6  C   UNL     1       9.135  -6.064  -9.475  1.00  0.00     0.142 A 
ATOM      7  C   UNL     1       7.879  -5.461  -9.372  1.00  0.00     0.098 A 
ATOM      8  C   UNL     1       7.363  -5.111  -8.118  1.00  0.00     0.161 A 
ATOM      9  C   UNL     1       8.111  -5.368  -6.954  1.00  0.00     0.158 A 
ATOM     10  C   UNL     1       9.372  -5.974  -7.053  1.00  0.00     0.062 A 
ATOM     11  C   UNL     1       9.888  -6.323  -8.308  1.00  0.00     0.022 A 
ENDROOT
BRANCH   9  12
ATOM     12  O   UNL     1       7.598  -5.021  -5.705  1.00  0.00    -0.504 OA
ATOM     13  H   UNL     1       6.678  -4.607  -5.605  1.00  0.00     0.293 HD
ENDBRANCH   9  12
BRANCH   8  14
ATOM     14  O   UNL     1       6.107  -4.510  -8.048  1.00  0.00    -0.504 OA
ATOM     15  H   UNL     1       5.621  -4.180  -8.875  1.00  0.00     0.293 HD
ENDBRANCH   8  14
TORSDOF 2
ENDMDL
MODEL 9
REMARK VINA RESULT:    -5.075     17.515     19.414
REMARK INTER + INTRA:          -5.372
REMARK INTER:                  -5.372
REMARK INTRA:                   0.000
REMARK UNBOUND:                 0.000
REMARK SMILES O=c1ccc2cc(O)c(O)cc2o1
REMARK SMILES IDX 4 1 3 2 2 3 1 4 13 5 12 6 11 7 9 8 7 9 6 10 5 11 8 12 10 14
REMARK H PARENT 8 13 10 15
REMARK Flexibility Score: inf
ROOT
ATOM      1  C   UNL     1       8.638  -5.785  -8.698  1.00  0.00     0.019 A 
ATOM      2  C   UNL     1       8.645  -6.716  -9.737  1.00  0.00     0.094 A 
ATOM      3  C   UNL     1       8.317  -8.046  -9.457  1.00  0.00     0.336 A 
ATOM      4  O   UNL     1       8.317  -8.901 -10.380  1.00  0.00    -0.246 OA
ATOM      5  O   UNL     1       8.002  -8.416  -8.218  1.00  0.00    -0.423 OA
ATOM      6  C   UNL     1       7.984  -7.560  -7.198  1.00  0.00     0.142 A 
ATOM      7  C   UNL     1       7.646  -8.007  -5.917  1.00  0.00     0.098 A 
ATOM      8  C   UNL     1       7.623  -7.113  -4.839  1.00  0.00     0.161 A 
ATOM      9  C   UNL     1       7.943  -5.758  -5.044  1.00  0.00     0.158 A 
ATOM     10  C   UNL     1       8.282  -5.305  -6.328  1.00  0.00     0.062 A 
ATOM     11  C   UNL     1       8.304  -6.201  -7.405  1.00  0.00     0.022 A 
ENDROOT
BRANCH   9  12
ATOM     12  O   UNL     1       7.921  -4.866  -3.972  1.00  0.00    -0.504 OA
ATOM     13  H   UNL     1       8.205  -5.148  -3.041  1.00  0.00     0.293 HD
ENDBRANCH   9  12
BRANCH   8  14
ATOM     14  O   UNL     1       7.283  -7.589  -3.574  1.00  0.00    -0.504 OA
ATOM     15  H   UNL     1       6.933  -6.978  -2.845  1.00  0.00     0.293 HD
ENDBRANCH   8  14
TORSDOF 2
ENDMDL
