MODEL 1
REMARK VINA RESULT:    -6.044      0.000      0.000
REMARK INTER + INTRA:          -7.603
REMARK INTER:                  -7.281
REMARK INTRA:                  -0.322
REMARK UNBOUND:                -0.322
REMARK SMILES O=c1c(O)c(-c2ccc(O)c(O)c2)oc2cc(O)cc(O)c12
REMARK SMILES IDX 5 1 3 2 2 3 1 4 22 5 20 6 19 7 17 8 16 9 15 10 14 11 6 12
REMARK SMILES IDX 7 13 8 14 9 15 13 16 11 17 10 18 12 20 4 22 21 24 18 26
REMARK H PARENT 10 19 12 21 4 23 21 25 18 27
REMARK Flexibility Score: inf
ROOT
ATOM      1  C   UNL     1       1.083  78.912 -29.231  1.00  0.00     0.180 A 
ATOM      2  C   UNL     1       0.620  77.903 -28.370  1.00  0.00     0.208 A 
ATOM      3  C   UNL     1       1.383  76.733 -28.221  1.00  0.00     0.238 A 
ATOM      4  O   UNL     1       0.937  75.810 -27.490  1.00  0.00    -0.285 OA
ATOM      5  C   UNL     1       2.605  76.594 -28.922  1.00  0.00     0.111 A 
ATOM      6  C   UNL     1       3.477  75.469 -28.815  1.00  0.00     0.134 A 
ATOM      7  C   UNL     1       4.594  75.380 -29.654  1.00  0.00     0.093 A 
ATOM      8  C   UNL     1       4.907  76.406 -30.549  1.00  0.00     0.123 A 
ATOM      9  C   UNL     1       4.094  77.536 -30.618  1.00  0.00     0.094 A 
ATOM     10  C   UNL     1       2.952  77.637 -29.820  1.00  0.00     0.146 A 
ATOM     11  O   UNL     1       2.199  78.725 -29.925  1.00  0.00    -0.452 OA
ENDROOT
BRANCH   1  12
ATOM     12  C   UNL     1       0.348  80.184 -29.421  1.00  0.00     0.025 A 
ATOM     13  C   UNL     1      -0.646  80.267 -30.408  1.00  0.00     0.016 A 
ATOM     14  C   UNL     1      -1.337  81.463 -30.619  1.00  0.00     0.051 A 
ATOM     15  C   UNL     1      -1.036  82.596 -29.858  1.00  0.00     0.157 A 
ATOM     16  C   UNL     1       0.663  81.331 -28.671  1.00  0.00     0.062 A 
ATOM     17  C   UNL     1      -0.028  82.533 -28.882  1.00  0.00     0.158 A 
BRANCH  15  18
ATOM     18  O   UNL     1      -1.744  83.776 -30.089  1.00  0.00    -0.504 OA
ATOM     19  H   UNL     1      -1.362  84.686 -29.861  1.00  0.00     0.293 HD
ENDBRANCH  15  18
BRANCH  17  20
ATOM     20  O   UNL     1       0.286  83.664 -28.130  1.00  0.00    -0.504 OA
ATOM     21  H   UNL     1       0.010  83.749 -27.158  1.00  0.00     0.293 HD
ENDBRANCH  17  20
ENDBRANCH   1  12
BRANCH   2  22
ATOM     22  O   UNL     1      -0.599  78.051 -27.704  1.00  0.00    -0.502 OA
ATOM     23  H   UNL     1      -0.914  78.940 -27.336  1.00  0.00     0.293 HD
ENDBRANCH   2  22
BRANCH   6  24
ATOM     24  O   UNL     1       3.307  74.436 -27.890  1.00  0.00    -0.507 OA
ATOM     25  H   UNL     1       3.624  73.487 -28.022  1.00  0.00     0.293 HD
ENDBRANCH   6  24
BRANCH   8  26
ATOM     26  O   UNL     1       6.030  76.317 -31.370  1.00  0.00    -0.508 OA
ATOM     27  H   UNL     1       6.930  76.028 -31.005  1.00  0.00     0.293 HD
ENDBRANCH   8  26
TORSDOF 6
ENDMDL
MODEL 2
REMARK VINA RESULT:    -5.893      1.831      3.664
REMARK INTER + INTRA:          -7.421
REMARK INTER:                  -7.128
REMARK INTRA:                  -0.294
REMARK UNBOUND:                -0.322
REMARK SMILES O=c1c(O)c(-c2ccc(O)c(O)c2)oc2cc(O)cc(O)c12
REMARK SMILES IDX 5 1 3 2 2 3 1 4 22 5 20 6 19 7 17 8 16 9 15 10 14 11 6 12
REMARK SMILES IDX 7 13 8 14 9 15 13 16 11 17 10 18 12 20 4 22 21 24 18 26
REMARK H PARENT 10 19 12 21 4 23 21 25 18 27
REMARK Flexibility Score: inf
ROOT
ATOM      1  C   UNL     1       2.937  78.243 -29.964  1.00  0.00     0.180 A 
ATOM      2  C   UNL     1       4.215  78.581 -30.440  1.00  0.00     0.208 A 
ATOM      3  C   UNL     1       5.220  77.599 -30.449  1.00  0.00     0.238 A 
ATOM      4  O   UNL     1       6.377  77.922 -30.825  1.00  0.00    -0.285 OA
ATOM      5  C   UNL     1       4.929  76.289 -29.998  1.00  0.00     0.111 A 
ATOM      6  C   UNL     1       5.859  75.207 -30.000  1.00  0.00     0.134 A 
ATOM      7  C   UNL     1       5.501  73.989 -29.409  1.00  0.00     0.093 A 
ATOM      8  C   UNL     1       4.225  73.793 -28.875  1.00  0.00     0.123 A 
ATOM      9  C   UNL     1       3.291  74.826 -28.922  1.00  0.00     0.094 A 
ATOM     10  C   UNL     1       3.630  76.064 -29.472  1.00  0.00     0.146 A 
ATOM     11  O   UNL     1       2.713  77.024 -29.487  1.00  0.00    -0.452 OA
ENDROOT
BRANCH   1  12
ATOM     12  C   UNL     1       1.820  79.215 -29.947  1.00  0.00     0.025 A 
ATOM     13  C   UNL     1       1.729  80.144 -28.900  1.00  0.00     0.016 A 
ATOM     14  C   UNL     1       0.673  81.058 -28.852  1.00  0.00     0.051 A 
ATOM     15  C   UNL     1      -0.316  81.045 -29.841  1.00  0.00     0.157 A 
ATOM     16  C   UNL     1       0.813  79.191 -30.929  1.00  0.00     0.062 A 
ATOM     17  C   UNL     1      -0.249  80.106 -30.883  1.00  0.00     0.158 A 
BRANCH  15  18
ATOM     18  O   UNL     1      -1.358  81.970 -29.768  1.00  0.00    -0.504 OA
ATOM     19  H   UNL     1      -1.703  82.323 -28.883  1.00  0.00     0.293 HD
ENDBRANCH  15  18
BRANCH  17  20
ATOM     20  O   UNL     1      -1.240  80.079 -31.863  1.00  0.00    -0.504 OA
ATOM     21  H   UNL     1      -1.010  80.030 -32.849  1.00  0.00     0.293 HD
ENDBRANCH  17  20
ENDBRANCH   1  12
BRANCH   2  22
ATOM     22  O   UNL     1       4.487  79.885 -30.861  1.00  0.00    -0.502 OA
ATOM     23  H   UNL     1       3.818  80.639 -30.763  1.00  0.00     0.293 HD
ENDBRANCH   2  22
BRANCH   6  24
ATOM     24  O   UNL     1       7.125  75.267 -30.589  1.00  0.00    -0.507 OA
ATOM     25  H   UNL     1       7.993  75.095 -30.106  1.00  0.00     0.293 HD
ENDBRANCH   6  24
BRANCH   8  26
ATOM     26  O   UNL     1       3.873  72.573 -28.303  1.00  0.00    -0.508 OA
ATOM     27  H   UNL     1       3.959  72.411 -27.306  1.00  0.00     0.293 HD
ENDBRANCH   8  26
TORSDOF 6
ENDMDL
MODEL 3
REMARK VINA RESULT:    -5.786     12.816     14.319
REMARK INTER + INTRA:          -7.292
REMARK INTER:                  -6.994
REMARK INTRA:                  -0.298
REMARK UNBOUND:                -0.322
REMARK SMILES O=c1c(O)c(-c2ccc(O)c(O)c2)oc2cc(O)cc(O)c12
REMARK SMILES IDX 5 1 3 2 2 3 1 4 22 5 20 6 19 7 17 8 16 9 15 10 14 11 6 12
REMARK SMILES IDX 7 13 8 14 9 15 13 16 11 17 10 18 12 20 4 22 21 24 18 26
REMARK H PARENT 10 19 12 21 4 23 21 25 18 27
REMARK Flexibility Score: inf
ROOT
ATOM      1  C   UNL     1      13.030  71.578 -27.064  1.00  0.00     0.180 A 
ATOM      2  C   UNL     1      11.701  71.200 -27.324  1.00  0.00     0.208 A 
ATOM      3  C   UNL     1      11.458  70.006 -28.024  1.00  0.00     0.238 A 
ATOM      4  O   UNL     1      10.269  69.700 -28.301  1.00  0.00    -0.285 OA
ATOM      5  C   UNL     1      12.544  69.200 -28.441  1.00  0.00     0.111 A 
ATOM      6  C   UNL     1      12.412  67.952 -29.122  1.00  0.00     0.134 A 
ATOM      7  C   UNL     1      13.556  67.304 -29.602  1.00  0.00     0.093 A 
ATOM      8  C   UNL     1      14.831  67.825 -29.369  1.00  0.00     0.123 A 
ATOM      9  C   UNL     1      14.973  69.012 -28.654  1.00  0.00     0.094 A 
ATOM     10  C   UNL     1      13.849  69.701 -28.193  1.00  0.00     0.146 A 
ATOM     11  O   UNL     1      14.028  70.833 -27.526  1.00  0.00    -0.452 OA
ENDROOT
BRANCH   1  12
ATOM     12  C   UNL     1      13.366  72.807 -26.311  1.00  0.00     0.025 A 
ATOM     13  C   UNL     1      13.624  72.726 -24.935  1.00  0.00     0.016 A 
ATOM     14  C   UNL     1      13.923  73.876 -24.200  1.00  0.00     0.051 A 
ATOM     15  C   UNL     1      13.953  75.126 -24.826  1.00  0.00     0.157 A 
ATOM     16  C   UNL     1      13.376  74.069 -26.934  1.00  0.00     0.062 A 
ATOM     17  C   UNL     1      13.673  75.225 -26.199  1.00  0.00     0.158 A 
BRANCH  15  18
ATOM     18  O   UNL     1      14.256  76.257 -24.068  1.00  0.00    -0.504 OA
ATOM     19  H   UNL     1      14.518  77.137 -24.496  1.00  0.00     0.293 HD
ENDBRANCH  15  18
BRANCH  17  20
ATOM     20  O   UNL     1      13.687  76.470 -26.826  1.00  0.00    -0.504 OA
ATOM     21  H   UNL     1      14.489  77.087 -26.763  1.00  0.00     0.293 HD
ENDBRANCH  17  20
ENDBRANCH   1  12
BRANCH   2  22
ATOM     22  O   UNL     1      10.644  72.021 -26.922  1.00  0.00    -0.502 OA
ATOM     23  H   UNL     1       9.674  71.759 -27.047  1.00  0.00     0.293 HD
ENDBRANCH   2  22
BRANCH   6  24
ATOM     24  O   UNL     1      11.193  67.300 -29.325  1.00  0.00    -0.507 OA
ATOM     25  H   UNL     1      10.287  67.738 -29.259  1.00  0.00     0.293 HD
ENDBRANCH   6  24
BRANCH   8  26
ATOM     26  O   UNL     1      15.965  67.165 -29.838  1.00  0.00    -0.508 OA
ATOM     27  H   UNL     1      15.979  66.159 -29.964  1.00  0.00     0.293 HD
ENDBRANCH   8  26
TORSDOF 6
ENDMDL
MODEL 4
REMARK VINA RESULT:    -5.721      0.890      1.553
REMARK INTER + INTRA:          -7.214
REMARK INTER:                  -6.933
REMARK INTRA:                  -0.281
REMARK UNBOUND:                -0.322
REMARK SMILES O=c1c(O)c(-c2ccc(O)c(O)c2)oc2cc(O)cc(O)c12
REMARK SMILES IDX 5 1 3 2 2 3 1 4 22 5 20 6 19 7 17 8 16 9 15 10 14 11 6 12
REMARK SMILES IDX 7 13 8 14 9 15 13 16 11 17 10 18 12 20 4 22 21 24 18 26
REMARK H PARENT 10 19 12 21 4 23 21 25 18 27
REMARK Flexibility Score: inf
ROOT
ATOM      1  C   UNL     1       1.630  78.511 -29.144  1.00  0.00     0.180 A 
ATOM      2  C   UNL     1       1.118  77.440 -28.392  1.00  0.00     0.208 A 
ATOM      3  C   UNL     1       1.855  76.247 -28.316  1.00  0.00     0.238 A 
ATOM      4  O   UNL     1       1.366  75.274 -27.686  1.00  0.00    -0.285 OA
ATOM      5  C   UNL     1       3.102  76.147 -28.979  1.00  0.00     0.111 A 
ATOM      6  C   UNL     1       3.951  75.000 -28.938  1.00  0.00     0.134 A 
ATOM      7  C   UNL     1       5.099  74.963 -29.739  1.00  0.00     0.093 A 
ATOM      8  C   UNL     1       5.463  76.056 -30.529  1.00  0.00     0.123 A 
ATOM      9  C   UNL     1       4.672  77.202 -30.530  1.00  0.00     0.094 A 
ATOM     10  C   UNL     1       3.501  77.256 -29.770  1.00  0.00     0.146 A 
ATOM     11  O   UNL     1       2.770  78.363 -29.808  1.00  0.00    -0.452 OA
ENDROOT
BRANCH   1  12
ATOM     12  C   UNL     1       0.923  79.808 -29.251  1.00  0.00     0.025 A 
ATOM     13  C   UNL     1       1.331  80.885 -28.450  1.00  0.00     0.016 A 
ATOM     14  C   UNL     1       0.666  82.112 -28.519  1.00  0.00     0.051 A 
ATOM     15  C   UNL     1      -0.426  82.276 -29.377  1.00  0.00     0.157 A 
ATOM     16  C   UNL     1      -0.189  79.969 -30.097  1.00  0.00     0.062 A 
ATOM     17  C   UNL     1      -0.860  81.198 -30.168  1.00  0.00     0.158 A 
BRANCH  15  18
ATOM     18  O   UNL     1      -1.070  83.512 -29.426  1.00  0.00    -0.504 OA
ATOM     19  H   UNL     1      -0.564  84.385 -29.341  1.00  0.00     0.293 HD
ENDBRANCH  15  18
BRANCH  17  20
ATOM     20  O   UNL     1      -1.957  81.351 -31.014  1.00  0.00    -0.504 OA
ATOM     21  H   UNL     1      -1.842  81.552 -32.001  1.00  0.00     0.293 HD
ENDBRANCH  17  20
ENDBRANCH   1  12
BRANCH   2  22
ATOM     22  O   UNL     1      -0.125  77.554 -27.762  1.00  0.00    -0.502 OA
ATOM     23  H   UNL     1      -0.995  77.592 -28.278  1.00  0.00     0.293 HD
ENDBRANCH   2  22
BRANCH   6  24
ATOM     24  O   UNL     1       3.729  73.894 -28.113  1.00  0.00    -0.507 OA
ATOM     25  H   UNL     1       4.439  73.430 -27.568  1.00  0.00     0.293 HD
ENDBRANCH   6  24
BRANCH   8  26
ATOM     26  O   UNL     1       6.616  76.016 -31.310  1.00  0.00    -0.508 OA
ATOM     27  H   UNL     1       6.787  76.701 -32.037  1.00  0.00     0.293 HD
ENDBRANCH   8  26
TORSDOF 6
ENDMDL
MODEL 5
REMARK VINA RESULT:    -5.713     13.611     14.880
REMARK INTER + INTRA:          -7.205
REMARK INTER:                  -7.101
REMARK INTRA:                  -0.104
REMARK UNBOUND:                -0.322
REMARK SMILES O=c1c(O)c(-c2ccc(O)c(O)c2)oc2cc(O)cc(O)c12
REMARK SMILES IDX 5 1 3 2 2 3 1 4 22 5 20 6 19 7 17 8 16 9 15 10 14 11 6 12
REMARK SMILES IDX 7 13 8 14 9 15 13 16 11 17 10 18 12 20 4 22 21 24 18 26
REMARK H PARENT 10 19 12 21 4 23 21 25 18 27
REMARK Flexibility Score: inf
ROOT
ATOM      1  C   UNL     1       9.420  81.941 -18.534  1.00  0.00     0.180 A 
ATOM      2  C   UNL     1       8.398  82.678 -19.158  1.00  0.00     0.208 A 
ATOM      3  C   UNL     1       7.062  82.287 -18.964  1.00  0.00     0.238 A 
ATOM      4  O   UNL     1       6.155  82.917 -19.568  1.00  0.00    -0.285 OA
ATOM      5  C   UNL     1       6.766  81.177 -18.137  1.00  0.00     0.111 A 
ATOM      6  C   UNL     1       5.447  80.718 -17.840  1.00  0.00     0.134 A 
ATOM      7  C   UNL     1       5.277  79.531 -17.117  1.00  0.00     0.093 A 
ATOM      8  C   UNL     1       6.376  78.822 -16.625  1.00  0.00     0.123 A 
ATOM      9  C   UNL     1       7.665  79.295 -16.860  1.00  0.00     0.094 A 
ATOM     10  C   UNL     1       7.869  80.456 -17.609  1.00  0.00     0.146 A 
ATOM     11  O   UNL     1       9.114  80.866 -17.819  1.00  0.00    -0.452 OA
ENDROOT
BRANCH   1  12
ATOM     12  C   UNL     1      10.849  82.306 -18.671  1.00  0.00     0.025 A 
ATOM     13  C   UNL     1      11.448  82.291 -19.939  1.00  0.00     0.016 A 
ATOM     14  C   UNL     1      12.800  82.612 -20.088  1.00  0.00     0.051 A 
ATOM     15  C   UNL     1      13.576  82.936 -18.971  1.00  0.00     0.157 A 
ATOM     16  C   UNL     1      11.637  82.612 -17.546  1.00  0.00     0.062 A 
ATOM     17  C   UNL     1      12.994  82.933 -17.693  1.00  0.00     0.158 A 
BRANCH  15  18
ATOM     18  O   UNL     1      14.922  83.254 -19.151  1.00  0.00    -0.504 OA
ATOM     19  H   UNL     1      15.289  83.554 -20.046  1.00  0.00     0.293 HD
ENDBRANCH  15  18
BRANCH  17  20
ATOM     20  O   UNL     1      13.767  83.241 -16.574  1.00  0.00    -0.504 OA
ATOM     21  H   UNL     1      14.622  83.779 -16.652  1.00  0.00     0.293 HD
ENDBRANCH  17  20
ENDBRANCH   1  12
BRANCH   2  22
ATOM     22  O   UNL     1       8.713  83.758 -19.986  1.00  0.00    -0.502 OA
ATOM     23  H   UNL     1       8.415  83.807 -20.953  1.00  0.00     0.293 HD
ENDBRANCH   2  22
BRANCH   6  24
ATOM     24  O   UNL     1       4.283  81.400 -18.204  1.00  0.00    -0.507 OA
ATOM     25  H   UNL     1       4.046  81.671 -19.146  1.00  0.00     0.293 HD
ENDBRANCH   6  24
BRANCH   8  26
ATOM     26  O   UNL     1       6.197  77.650 -15.894  1.00  0.00    -0.508 OA
ATOM     27  H   UNL     1       6.985  77.118 -15.543  1.00  0.00     0.293 HD
ENDBRANCH   8  26
TORSDOF 6
ENDMDL
MODEL 6
REMARK VINA RESULT:    -5.710     13.881     14.971
REMARK INTER + INTRA:          -7.201
REMARK INTER:                  -6.880
REMARK INTRA:                  -0.322
REMARK UNBOUND:                -0.322
REMARK SMILES O=c1c(O)c(-c2ccc(O)c(O)c2)oc2cc(O)cc(O)c12
REMARK SMILES IDX 5 1 3 2 2 3 1 4 22 5 20 6 19 7 17 8 16 9 15 10 14 11 6 12
REMARK SMILES IDX 7 13 8 14 9 15 13 16 11 17 10 18 12 20 4 22 21 24 18 26
REMARK H PARENT 10 19 12 21 4 23 21 25 18 27
REMARK Flexibility Score: inf
ROOT
ATOM      1  C   UNL     1      10.284  80.942 -18.115  1.00  0.00     0.180 A 
ATOM      2  C   UNL     1       8.998  81.448 -17.857  1.00  0.00     0.208 A 
ATOM      3  C   UNL     1       7.983  80.560 -17.467  1.00  0.00     0.238 A 
ATOM      4  O   UNL     1       6.821  81.010 -17.289  1.00  0.00    -0.285 OA
ATOM      5  C   UNL     1       8.269  79.181 -17.325  1.00  0.00     0.111 A 
ATOM      6  C   UNL     1       7.327  78.197 -16.898  1.00  0.00     0.134 A 
ATOM      7  C   UNL     1       7.684  76.844 -16.920  1.00  0.00     0.093 A 
ATOM      8  C   UNL     1       8.970  76.444 -17.291  1.00  0.00     0.123 A 
ATOM      9  C   UNL     1       9.915  77.402 -17.653  1.00  0.00     0.094 A 
ATOM     10  C   UNL     1       9.578  78.757 -17.676  1.00  0.00     0.146 A 
ATOM     11  O   UNL     1      10.504  79.635 -18.037  1.00  0.00    -0.452 OA
ENDROOT
BRANCH   1  12
ATOM     12  C   UNL     1      11.411  81.819 -18.506  1.00  0.00     0.025 A 
ATOM     13  C   UNL     1      12.233  82.372 -17.513  1.00  0.00     0.016 A 
ATOM     14  C   UNL     1      13.290  83.219 -17.857  1.00  0.00     0.051 A 
ATOM     15  C   UNL     1      13.532  83.536 -19.198  1.00  0.00     0.157 A 
ATOM     16  C   UNL     1      11.644  82.157 -19.852  1.00  0.00     0.062 A 
ATOM     17  C   UNL     1      12.703  83.007 -20.200  1.00  0.00     0.158 A 
BRANCH  15  18
ATOM     18  O   UNL     1      14.596  84.383 -19.512  1.00  0.00    -0.504 OA
ATOM     19  H   UNL     1      14.779  84.686 -20.461  1.00  0.00     0.293 HD
ENDBRANCH  15  18
BRANCH  17  20
ATOM     20  O   UNL     1      12.931  83.332 -21.537  1.00  0.00    -0.504 OA
ATOM     21  H   UNL     1      13.592  82.813 -22.104  1.00  0.00     0.293 HD
ENDBRANCH  17  20
ENDBRANCH   1  12
BRANCH   2  22
ATOM     22  O   UNL     1       8.731  82.810 -18.023  1.00  0.00    -0.502 OA
ATOM     23  H   UNL     1       8.772  83.470 -17.256  1.00  0.00     0.293 HD
ENDBRANCH   2  22
BRANCH   6  24
ATOM     24  O   UNL     1       6.048  78.498 -16.420  1.00  0.00    -0.507 OA
ATOM     25  H   UNL     1       5.196  78.068 -16.746  1.00  0.00     0.293 HD
ENDBRANCH   6  24
BRANCH   8  26
ATOM     26  O   UNL     1       9.322  75.096 -17.295  1.00  0.00    -0.508 OA
ATOM     27  H   UNL     1       8.728  74.392 -16.872  1.00  0.00     0.293 HD
ENDBRANCH   8  26
TORSDOF 6
ENDMDL
MODEL 7
REMARK VINA RESULT:    -5.688     13.647     15.008
REMARK INTER + INTRA:          -7.174
REMARK INTER:                  -7.106
REMARK INTRA:                  -0.068
REMARK UNBOUND:                -0.322
REMARK SMILES O=c1c(O)c(-c2ccc(O)c(O)c2)oc2cc(O)cc(O)c12
REMARK SMILES IDX 5 1 3 2 2 3 1 4 22 5 20 6 19 7 17 8 16 9 15 10 14 11 6 12
REMARK SMILES IDX 7 13 8 14 9 15 13 16 11 17 10 18 12 20 4 22 21 24 18 26
REMARK H PARENT 10 19 12 21 4 23 21 25 18 27
REMARK Flexibility Score: inf
ROOT
ATOM      1  C   UNL     1       9.652  80.870 -17.970  1.00  0.00     0.180 A 
ATOM      2  C   UNL     1       8.488  81.652 -18.066  1.00  0.00     0.208 A 
ATOM      3  C   UNL     1       7.254  81.083 -17.710  1.00  0.00     0.238 A 
ATOM      4  O   UNL     1       6.209  81.771 -17.850  1.00  0.00    -0.285 OA
ATOM      5  C   UNL     1       7.201  79.746 -17.249  1.00  0.00     0.111 A 
ATOM      6  C   UNL     1       6.011  79.082 -16.825  1.00  0.00     0.134 A 
ATOM      7  C   UNL     1       6.057  77.718 -16.512  1.00  0.00     0.093 A 
ATOM      8  C   UNL     1       7.261  77.010 -16.545  1.00  0.00     0.123 A 
ATOM      9  C   UNL     1       8.438  77.665 -16.900  1.00  0.00     0.094 A 
ATOM     10  C   UNL     1       8.419  79.016 -17.253  1.00  0.00     0.146 A 
ATOM     11  O   UNL     1       9.561  79.599 -17.596  1.00  0.00    -0.452 OA
ENDROOT
BRANCH   1  12
ATOM     12  C   UNL     1      10.991  81.406 -18.302  1.00  0.00     0.025 A 
ATOM     13  C   UNL     1      11.455  82.559 -17.651  1.00  0.00     0.016 A 
ATOM     14  C   UNL     1      12.707  83.095 -17.963  1.00  0.00     0.051 A 
ATOM     15  C   UNL     1      13.507  82.496 -18.941  1.00  0.00     0.157 A 
ATOM     16  C   UNL     1      11.789  80.818 -19.300  1.00  0.00     0.062 A 
ATOM     17  C   UNL     1      13.045  81.354 -19.617  1.00  0.00     0.158 A 
BRANCH  15  18
ATOM     18  O   UNL     1      14.753  83.051 -19.231  1.00  0.00    -0.504 OA
ATOM     19  H   UNL     1      14.878  83.739 -19.965  1.00  0.00     0.293 HD
ENDBRANCH  15  18
BRANCH  17  20
ATOM     20  O   UNL     1      13.833  80.761 -20.603  1.00  0.00    -0.504 OA
ATOM     21  H   UNL     1      14.239  79.841 -20.475  1.00  0.00     0.293 HD
ENDBRANCH  17  20
ENDBRANCH   1  12
BRANCH   2  22
ATOM     22  O   UNL     1       8.559  82.963 -18.544  1.00  0.00    -0.502 OA
ATOM     23  H   UNL     1       8.059  83.729 -18.109  1.00  0.00     0.293 HD
ENDBRANCH   2  22
BRANCH   6  24
ATOM     24  O   UNL     1       4.776  79.717 -16.669  1.00  0.00    -0.507 OA
ATOM     25  H   UNL     1       4.642  80.717 -16.650  1.00  0.00     0.293 HD
ENDBRANCH   6  24
BRANCH   8  26
ATOM     26  O   UNL     1       7.300  75.657 -16.217  1.00  0.00    -0.508 OA
ATOM     27  H   UNL     1       6.589  75.012 -16.543  1.00  0.00     0.293 HD
ENDBRANCH   8  26
TORSDOF 6
ENDMDL
MODEL 8
REMARK VINA RESULT:    -5.661      2.208      4.245
REMARK INTER + INTRA:          -7.141
REMARK INTER:                  -7.246
REMARK INTRA:                   0.105
REMARK UNBOUND:                -0.322
REMARK SMILES O=c1c(O)c(-c2ccc(O)c(O)c2)oc2cc(O)cc(O)c12
REMARK SMILES IDX 5 1 3 2 2 3 1 4 22 5 20 6 19 7 17 8 16 9 15 10 14 11 6 12
REMARK SMILES IDX 7 13 8 14 9 15 13 16 11 17 10 18 12 20 4 22 21 24 18 26
REMARK H PARENT 10 19 12 21 4 23 21 25 18 27
REMARK Flexibility Score: inf
ROOT
ATOM      1  C   UNL     1       3.755  77.848 -30.086  1.00  0.00     0.180 A 
ATOM      2  C   UNL     1       4.889  78.630 -30.362  1.00  0.00     0.208 A 
ATOM      3  C   UNL     1       6.139  78.000 -30.475  1.00  0.00     0.238 A 
ATOM      4  O   UNL     1       7.160  78.712 -30.669  1.00  0.00    -0.285 OA
ATOM      5  C   UNL     1       6.237  76.596 -30.326  1.00  0.00     0.111 A 
ATOM      6  C   UNL     1       7.446  75.849 -30.459  1.00  0.00     0.134 A 
ATOM      7  C   UNL     1       7.448  74.480 -30.161  1.00  0.00     0.093 A 
ATOM      8  C   UNL     1       6.271  73.820 -29.799  1.00  0.00     0.123 A 
ATOM      9  C   UNL     1       5.075  74.529 -29.724  1.00  0.00     0.094 A 
ATOM     10  C   UNL     1       5.047  75.902 -29.979  1.00  0.00     0.146 A 
ATOM     11  O   UNL     1       3.888  76.542 -29.887  1.00  0.00    -0.452 OA
ENDROOT
BRANCH   1  12
ATOM     12  C   UNL     1       2.400  78.436 -29.978  1.00  0.00     0.025 A 
ATOM     13  C   UNL     1       1.984  79.391 -30.917  1.00  0.00     0.016 A 
ATOM     14  C   UNL     1       0.717  79.974 -30.822  1.00  0.00     0.051 A 
ATOM     15  C   UNL     1      -0.145  79.623 -29.779  1.00  0.00     0.157 A 
ATOM     16  C   UNL     1       1.539  78.100 -28.917  1.00  0.00     0.062 A 
ATOM     17  C   UNL     1       0.268  78.685 -28.818  1.00  0.00     0.158 A 
BRANCH  15  18
ATOM     18  O   UNL     1      -1.404  80.220 -29.711  1.00  0.00    -0.504 OA
ATOM     19  H   UNL     1      -1.609  80.967 -29.058  1.00  0.00     0.293 HD
ENDBRANCH  15  18
BRANCH  17  20
ATOM     20  O   UNL     1      -0.582  78.342 -27.768  1.00  0.00    -0.504 OA
ATOM     21  H   UNL     1      -1.415  77.784 -27.920  1.00  0.00     0.293 HD
ENDBRANCH  17  20
ENDBRANCH   1  12
BRANCH   2  22
ATOM     22  O   UNL     1       4.774  80.017 -30.485  1.00  0.00    -0.502 OA
ATOM     23  H   UNL     1       5.573  80.637 -30.423  1.00  0.00     0.293 HD
ENDBRANCH   2  22
BRANCH   6  24
ATOM     24  O   UNL     1       8.654  76.393 -30.903  1.00  0.00    -0.507 OA
ATOM     25  H   UNL     1       8.802  76.797 -31.815  1.00  0.00     0.293 HD
ENDBRANCH   6  24
BRANCH   8  26
ATOM     26  O   UNL     1       6.280  72.455 -29.519  1.00  0.00    -0.508 OA
ATOM     27  H   UNL     1       7.144  71.926 -29.487  1.00  0.00     0.293 HD
ENDBRANCH   8  26
TORSDOF 6
ENDMDL
MODEL 9
REMARK VINA RESULT:    -5.616     13.868     15.162
REMARK INTER + INTRA:          -7.088
REMARK INTER:                  -6.757
REMARK INTRA:                  -0.331
REMARK UNBOUND:                -0.322
REMARK SMILES O=c1c(O)c(-c2ccc(O)c(O)c2)oc2cc(O)cc(O)c12
REMARK SMILES IDX 5 1 3 2 2 3 1 4 22 5 20 6 19 7 17 8 16 9 15 10 14 11 6 12
REMARK SMILES IDX 7 13 8 14 9 15 13 16 11 17 10 18 12 20 4 22 21 24 18 26
REMARK H PARENT 10 19 12 21 4 23 21 25 18 27
REMARK Flexibility Score: inf
ROOT
ATOM      1  C   UNL     1      10.608  80.509 -18.123  1.00  0.00     0.180 A 
ATOM      2  C   UNL     1      10.928  79.143 -18.056  1.00  0.00     0.208 A 
ATOM      3  C   UNL     1       9.934  78.229 -17.666  1.00  0.00     0.238 A 
ATOM      4  O   UNL     1      10.241  77.013 -17.556  1.00  0.00    -0.285 OA
ATOM      5  C   UNL     1       8.631  78.692 -17.363  1.00  0.00     0.111 A 
ATOM      6  C   UNL     1       7.538  77.852 -16.996  1.00  0.00     0.134 A 
ATOM      7  C   UNL     1       6.329  78.430 -16.591  1.00  0.00     0.093 A 
ATOM      8  C   UNL     1       6.152  79.816 -16.604  1.00  0.00     0.123 A 
ATOM      9  C   UNL     1       7.195  80.642 -17.018  1.00  0.00     0.094 A 
ATOM     10  C   UNL     1       8.425  80.097 -17.392  1.00  0.00     0.146 A 
ATOM     11  O   UNL     1       9.396  80.920 -17.770  1.00  0.00    -0.452 OA
ENDROOT
BRANCH   1  12
ATOM     12  C   UNL     1      11.594  81.529 -18.549  1.00  0.00     0.025 A 
ATOM     13  C   UNL     1      12.308  82.248 -17.579  1.00  0.00     0.016 A 
ATOM     14  C   UNL     1      13.228  83.229 -17.959  1.00  0.00     0.051 A 
ATOM     15  C   UNL     1      13.436  83.517 -19.312  1.00  0.00     0.157 A 
ATOM     16  C   UNL     1      11.789  81.835 -19.908  1.00  0.00     0.062 A 
ATOM     17  C   UNL     1      12.710  82.820 -20.292  1.00  0.00     0.158 A 
BRANCH  15  18
ATOM     18  O   UNL     1      14.362  84.500 -19.661  1.00  0.00    -0.504 OA
ATOM     19  H   UNL     1      14.778  84.543 -20.583  1.00  0.00     0.293 HD
ENDBRANCH  15  18
BRANCH  17  20
ATOM     20  O   UNL     1      12.903  83.112 -21.642  1.00  0.00    -0.504 OA
ATOM     21  H   UNL     1      12.513  83.947 -22.064  1.00  0.00     0.293 HD
ENDBRANCH  17  20
ENDBRANCH   1  12
BRANCH   2  22
ATOM     22  O   UNL     1      12.226  78.709 -18.338  1.00  0.00    -0.502 OA
ATOM     23  H   UNL     1      12.796  79.133 -19.059  1.00  0.00     0.293 HD
ENDBRANCH   2  22
BRANCH   6  24
ATOM     24  O   UNL     1       7.579  76.455 -17.038  1.00  0.00    -0.507 OA
ATOM     25  H   UNL     1       6.867  75.847 -16.663  1.00  0.00     0.293 HD
ENDBRANCH   6  24
BRANCH   8  26
ATOM     26  O   UNL     1       4.940  80.382 -16.214  1.00  0.00    -0.508 OA
ATOM     27  H   UNL     1       4.059  79.906 -16.369  1.00  0.00     0.293 HD
ENDBRANCH   8  26
TORSDOF 6
ENDMDL
