MODEL 1
REMARK VINA RESULT:    -6.384      0.000      0.000
REMARK INTER + INTRA:          -8.020
REMARK INTER:                  -7.690
REMARK INTRA:                  -0.330
REMARK UNBOUND:                -0.330
REMARK SMILES O=c1c(O)c(-c2ccc(O)c(O)c2)oc2cc(O)cc(O)c12
REMARK SMILES IDX 5 1 3 2 2 3 1 4 22 5 20 6 19 7 17 8 16 9 15 10 14 11 6 12
REMARK SMILES IDX 7 13 8 14 9 15 13 16 11 17 10 18 12 20 4 22 21 24 18 26
REMARK H PARENT 10 19 12 21 4 23 21 25 18 27
REMARK Flexibility Score: inf
ROOT
ATOM      1  C   UNL     1      14.543  55.784  34.500  1.00  0.00     0.180 A 
ATOM      2  C   UNL     1      14.466  55.471  33.132  1.00  0.00     0.208 A 
ATOM      3  C   UNL     1      14.935  56.403  32.193  1.00  0.00     0.238 A 
ATOM      4  O   UNL     1      14.913  56.094  30.972  1.00  0.00    -0.285 OA
ATOM      5  C   UNL     1      15.459  57.642  32.631  1.00  0.00     0.111 A 
ATOM      6  C   UNL     1      15.926  58.677  31.765  1.00  0.00     0.134 A 
ATOM      7  C   UNL     1      16.545  59.808  32.311  1.00  0.00     0.093 A 
ATOM      8  C   UNL     1      16.657  59.973  33.691  1.00  0.00     0.123 A 
ATOM      9  C   UNL     1      16.150  58.995  34.549  1.00  0.00     0.094 A 
ATOM     10  C   UNL     1      15.560  57.838  34.033  1.00  0.00     0.146 A 
ATOM     11  O   UNL     1      15.101  56.927  34.883  1.00  0.00    -0.452 OA
ENDROOT
BRANCH   1  12
ATOM     12  C   UNL     1      14.047  54.864  35.549  1.00  0.00     0.025 A 
ATOM     13  C   UNL     1      14.927  53.935  36.125  1.00  0.00     0.016 A 
ATOM     14  C   UNL     1      14.484  53.071  37.131  1.00  0.00     0.051 A 
ATOM     15  C   UNL     1      13.160  53.135  37.586  1.00  0.00     0.157 A 
ATOM     16  C   UNL     1      12.724  54.939  36.022  1.00  0.00     0.062 A 
ATOM     17  C   UNL     1      12.279  54.077  37.030  1.00  0.00     0.158 A 
BRANCH  15  18
ATOM     18  O   UNL     1      12.721  52.271  38.588  1.00  0.00    -0.504 OA
ATOM     19  H   UNL     1      12.945  51.283  38.571  1.00  0.00     0.293 HD
ENDBRANCH  15  18
BRANCH  17  20
ATOM     20  O   UNL     1      10.959  54.175  37.471  1.00  0.00    -0.504 OA
ATOM     21  H   UNL     1      10.716  54.622  38.346  1.00  0.00     0.293 HD
ENDBRANCH  17  20
ENDBRANCH   1  12
BRANCH   2  22
ATOM     22  O   UNL     1      13.965  54.232  32.722  1.00  0.00    -0.502 OA
ATOM     23  H   UNL     1      13.021  54.118  32.370  1.00  0.00     0.293 HD
ENDBRANCH   2  22
BRANCH   6  24
ATOM     24  O   UNL     1      15.781  58.655  30.374  1.00  0.00    -0.507 OA
ATOM     25  H   UNL     1      16.313  59.222  29.732  1.00  0.00     0.293 HD
ENDBRANCH   6  24
BRANCH   8  26
ATOM     26  O   UNL     1      17.264  61.118  34.200  1.00  0.00    -0.508 OA
ATOM     27  H   UNL     1      16.718  61.889  34.566  1.00  0.00     0.293 HD
ENDBRANCH   8  26
TORSDOF 6
ENDMDL
MODEL 2
REMARK VINA RESULT:    -5.727      1.676      1.813
REMARK INTER + INTRA:          -7.229
REMARK INTER:                  -7.009
REMARK INTRA:                  -0.220
REMARK UNBOUND:                -0.330
REMARK SMILES O=c1c(O)c(-c2ccc(O)c(O)c2)oc2cc(O)cc(O)c12
REMARK SMILES IDX 5 1 3 2 2 3 1 4 22 5 20 6 19 7 17 8 16 9 15 10 14 11 6 12
REMARK SMILES IDX 7 13 8 14 9 15 13 16 11 17 10 18 12 20 4 22 21 24 18 26
REMARK H PARENT 10 19 12 21 4 23 21 25 18 27
REMARK Flexibility Score: inf
ROOT
ATOM      1  C   UNL     1      14.246  55.938  34.676  1.00  0.00     0.180 A 
ATOM      2  C   UNL     1      13.143  56.241  33.859  1.00  0.00     0.208 A 
ATOM      3  C   UNL     1      13.109  57.475  33.192  1.00  0.00     0.238 A 
ATOM      4  O   UNL     1      12.145  57.717  32.419  1.00  0.00    -0.285 OA
ATOM      5  C   UNL     1      14.168  58.398  33.363  1.00  0.00     0.111 A 
ATOM      6  C   UNL     1      14.218  59.694  32.766  1.00  0.00     0.134 A 
ATOM      7  C   UNL     1      15.375  60.471  32.899  1.00  0.00     0.093 A 
ATOM      8  C   UNL     1      16.458  60.029  33.657  1.00  0.00     0.123 A 
ATOM      9  C   UNL     1      16.396  58.788  34.295  1.00  0.00     0.094 A 
ATOM     10  C   UNL     1      15.270  57.974  34.151  1.00  0.00     0.146 A 
ATOM     11  O   UNL     1      15.256  56.797  34.764  1.00  0.00    -0.452 OA
ENDROOT
BRANCH   1  12
ATOM     12  C   UNL     1      14.343  54.668  35.431  1.00  0.00     0.025 A 
ATOM     13  C   UNL     1      15.359  53.753  35.117  1.00  0.00     0.016 A 
ATOM     14  C   UNL     1      15.482  52.558  35.831  1.00  0.00     0.051 A 
ATOM     15  C   UNL     1      14.599  52.267  36.880  1.00  0.00     0.157 A 
ATOM     16  C   UNL     1      13.472  54.382  36.498  1.00  0.00     0.062 A 
ATOM     17  C   UNL     1      13.593  53.187  37.217  1.00  0.00     0.158 A 
BRANCH  15  18
ATOM     18  O   UNL     1      14.722  51.073  37.589  1.00  0.00    -0.504 OA
ATOM     19  H   UNL     1      15.430  50.387  37.353  1.00  0.00     0.293 HD
ENDBRANCH  15  18
BRANCH  17  20
ATOM     20  O   UNL     1      12.708  52.934  38.265  1.00  0.00    -0.504 OA
ATOM     21  H   UNL     1      11.845  53.452  38.378  1.00  0.00     0.293 HD
ENDBRANCH  17  20
ENDBRANCH   1  12
BRANCH   2  22
ATOM     22  O   UNL     1      12.119  55.305  33.688  1.00  0.00    -0.502 OA
ATOM     23  H   UNL     1      12.297  54.311  33.619  1.00  0.00     0.293 HD
ENDBRANCH   2  22
BRANCH   6  24
ATOM     24  O   UNL     1      13.156  60.271  32.064  1.00  0.00    -0.507 OA
ATOM     25  H   UNL     1      12.277  60.548  32.475  1.00  0.00     0.293 HD
ENDBRANCH   6  24
BRANCH   8  26
ATOM     26  O   UNL     1      17.587  60.835  33.781  1.00  0.00    -0.508 OA
ATOM     27  H   UNL     1      18.415  60.677  33.217  1.00  0.00     0.293 HD
ENDBRANCH   8  26
TORSDOF 6
ENDMDL
MODEL 3
REMARK VINA RESULT:    -5.111      3.228      7.043
REMARK INTER + INTRA:          -6.487
REMARK INTER:                  -6.185
REMARK INTRA:                  -0.302
REMARK UNBOUND:                -0.330
REMARK SMILES O=c1c(O)c(-c2ccc(O)c(O)c2)oc2cc(O)cc(O)c12
REMARK SMILES IDX 5 1 3 2 2 3 1 4 22 5 20 6 19 7 17 8 16 9 15 10 14 11 6 12
REMARK SMILES IDX 7 13 8 14 9 15 13 16 11 17 10 18 12 20 4 22 21 24 18 26
REMARK H PARENT 10 19 12 21 4 23 21 25 18 27
REMARK Flexibility Score: inf
ROOT
ATOM      1  C   UNL     1      14.979  54.483  33.386  1.00  0.00     0.180 A 
ATOM      2  C   UNL     1      14.946  53.542  34.430  1.00  0.00     0.208 A 
ATOM      3  C   UNL     1      14.530  52.231  34.152  1.00  0.00     0.238 A 
ATOM      4  O   UNL     1      14.555  51.380  35.080  1.00  0.00    -0.285 OA
ATOM      5  C   UNL     1      14.136  51.879  32.839  1.00  0.00     0.111 A 
ATOM      6  C   UNL     1      13.659  50.591  32.453  1.00  0.00     0.134 A 
ATOM      7  C   UNL     1      13.422  50.319  31.100  1.00  0.00     0.093 A 
ATOM      8  C   UNL     1      13.582  51.304  30.128  1.00  0.00     0.123 A 
ATOM      9  C   UNL     1      13.991  52.586  30.501  1.00  0.00     0.094 A 
ATOM     10  C   UNL     1      14.270  52.878  31.839  1.00  0.00     0.146 A 
ATOM     11  O   UNL     1      14.667  54.105  32.151  1.00  0.00    -0.452 OA
ENDROOT
BRANCH   1  12
ATOM     12  C   UNL     1      15.383  55.890  33.605  1.00  0.00     0.025 A 
ATOM     13  C   UNL     1      14.455  56.801  34.132  1.00  0.00     0.016 A 
ATOM     14  C   UNL     1      14.821  58.130  34.365  1.00  0.00     0.051 A 
ATOM     15  C   UNL     1      16.125  58.563  34.089  1.00  0.00     0.157 A 
ATOM     16  C   UNL     1      16.696  56.324  33.348  1.00  0.00     0.062 A 
ATOM     17  C   UNL     1      17.067  57.652  33.582  1.00  0.00     0.158 A 
BRANCH  15  18
ATOM     18  O   UNL     1      16.486  59.889  34.321  1.00  0.00    -0.504 OA
ATOM     19  H   UNL     1      17.442  60.206  34.205  1.00  0.00     0.293 HD
ENDBRANCH  15  18
BRANCH  17  20
ATOM     20  O   UNL     1      18.376  58.049  33.311  1.00  0.00    -0.504 OA
ATOM     21  H   UNL     1      19.175  57.605  33.748  1.00  0.00     0.293 HD
ENDBRANCH  17  20
ENDBRANCH   1  12
BRANCH   2  22
ATOM     22  O   UNL     1      15.360  53.905  35.715  1.00  0.00    -0.502 OA
ATOM     23  H   UNL     1      15.894  54.747  35.896  1.00  0.00     0.293 HD
ENDBRANCH   2  22
BRANCH   6  24
ATOM     24  O   UNL     1      13.377  49.560  33.356  1.00  0.00    -0.507 OA
ATOM     25  H   UNL     1      12.461  49.170  33.515  1.00  0.00     0.293 HD
ENDBRANCH   6  24
BRANCH   8  26
ATOM     26  O   UNL     1      13.322  51.003  28.794  1.00  0.00    -0.508 OA
ATOM     27  H   UNL     1      13.799  51.483  28.039  1.00  0.00     0.293 HD
ENDBRANCH   8  26
TORSDOF 6
ENDMDL
MODEL 4
REMARK VINA RESULT:    -5.097      2.561      3.492
REMARK INTER + INTRA:          -6.470
REMARK INTER:                  -6.152
REMARK INTRA:                  -0.318
REMARK UNBOUND:                -0.330
REMARK SMILES O=c1c(O)c(-c2ccc(O)c(O)c2)oc2cc(O)cc(O)c12
REMARK SMILES IDX 5 1 3 2 2 3 1 4 22 5 20 6 19 7 17 8 16 9 15 10 14 11 6 12
REMARK SMILES IDX 7 13 8 14 9 15 13 16 11 17 10 18 12 20 4 22 21 24 18 26
REMARK H PARENT 10 19 12 21 4 23 21 25 18 27
REMARK Flexibility Score: inf
ROOT
ATOM      1  C   UNL     1      14.948  56.099  33.867  1.00  0.00     0.180 A 
ATOM      2  C   UNL     1      16.118  56.720  33.395  1.00  0.00     0.208 A 
ATOM      3  C   UNL     1      16.181  58.122  33.367  1.00  0.00     0.238 A 
ATOM      4  O   UNL     1      17.252  58.671  32.995  1.00  0.00    -0.285 OA
ATOM      5  C   UNL     1      15.070  58.886  33.795  1.00  0.00     0.111 A 
ATOM      6  C   UNL     1      15.009  60.312  33.771  1.00  0.00     0.134 A 
ATOM      7  C   UNL     1      13.910  60.966  34.340  1.00  0.00     0.093 A 
ATOM      8  C   UNL     1      12.840  60.248  34.873  1.00  0.00     0.123 A 
ATOM      9  C   UNL     1      12.861  58.852  34.847  1.00  0.00     0.094 A 
ATOM     10  C   UNL     1      13.961  58.172  34.319  1.00  0.00     0.146 A 
ATOM     11  O   UNL     1      13.947  56.844  34.323  1.00  0.00    -0.452 OA
ENDROOT
BRANCH   1  12
ATOM     12  C   UNL     1      14.796  54.628  33.904  1.00  0.00     0.025 A 
ATOM     13  C   UNL     1      14.371  53.947  32.752  1.00  0.00     0.016 A 
ATOM     14  C   UNL     1      14.241  52.556  32.759  1.00  0.00     0.051 A 
ATOM     15  C   UNL     1      14.547  51.823  33.914  1.00  0.00     0.157 A 
ATOM     16  C   UNL     1      15.121  53.886  35.055  1.00  0.00     0.062 A 
ATOM     17  C   UNL     1      14.994  52.493  35.065  1.00  0.00     0.158 A 
BRANCH  15  18
ATOM     18  O   UNL     1      14.414  50.435  33.919  1.00  0.00    -0.504 OA
ATOM     19  H   UNL     1      13.668  49.972  33.411  1.00  0.00     0.293 HD
ENDBRANCH  15  18
BRANCH  17  20
ATOM     20  O   UNL     1      15.320  51.791  36.225  1.00  0.00    -0.504 OA
ATOM     21  H   UNL     1      15.702  52.250  37.043  1.00  0.00     0.293 HD
ENDBRANCH  17  20
ENDBRANCH   1  12
BRANCH   2  22
ATOM     22  O   UNL     1      17.212  55.946  32.999  1.00  0.00    -0.502 OA
ATOM     23  H   UNL     1      17.151  55.258  32.258  1.00  0.00     0.293 HD
ENDBRANCH   2  22
BRANCH   6  24
ATOM     24  O   UNL     1      15.982  61.125  33.181  1.00  0.00    -0.507 OA
ATOM     25  H   UNL     1      15.813  61.762  32.418  1.00  0.00     0.293 HD
ENDBRANCH   6  24
BRANCH   8  26
ATOM     26  O   UNL     1      11.755  60.932  35.416  1.00  0.00    -0.508 OA
ATOM     27  H   UNL     1      11.093  60.472  36.031  1.00  0.00     0.293 HD
ENDBRANCH   8  26
TORSDOF 6
ENDMDL
MODEL 5
REMARK VINA RESULT:    -4.973      5.013      7.002
REMARK INTER + INTRA:          -6.321
REMARK INTER:                  -5.998
REMARK INTRA:                  -0.323
REMARK UNBOUND:                -0.330
REMARK SMILES O=c1c(O)c(-c2ccc(O)c(O)c2)oc2cc(O)cc(O)c12
REMARK SMILES IDX 5 1 3 2 2 3 1 4 22 5 20 6 19 7 17 8 16 9 15 10 14 11 6 12
REMARK SMILES IDX 7 13 8 14 9 15 13 16 11 17 10 18 12 20 4 22 21 24 18 26
REMARK H PARENT 10 19 12 21 4 23 21 25 18 27
REMARK Flexibility Score: inf
ROOT
ATOM      1  C   UNL     1      14.129  50.535  33.372  1.00  0.00     0.180 A 
ATOM      2  C   UNL     1      13.243  51.280  32.575  1.00  0.00     0.208 A 
ATOM      3  C   UNL     1      12.809  52.535  33.031  1.00  0.00     0.238 A 
ATOM      4  O   UNL     1      12.059  53.221  32.287  1.00  0.00    -0.285 OA
ATOM      5  C   UNL     1      13.252  53.022  34.283  1.00  0.00     0.111 A 
ATOM      6  C   UNL     1      12.845  54.262  34.861  1.00  0.00     0.134 A 
ATOM      7  C   UNL     1      13.448  54.703  36.045  1.00  0.00     0.093 A 
ATOM      8  C   UNL     1      14.394  53.922  36.707  1.00  0.00     0.123 A 
ATOM      9  C   UNL     1      14.756  52.680  36.182  1.00  0.00     0.094 A 
ATOM     10  C   UNL     1      14.199  52.229  34.983  1.00  0.00     0.146 A 
ATOM     11  O   UNL     1      14.578  51.048  34.512  1.00  0.00    -0.452 OA
ENDROOT
BRANCH   1  12
ATOM     12  C   UNL     1      14.611  49.194  32.972  1.00  0.00     0.025 A 
ATOM     13  C   UNL     1      13.850  48.060  33.297  1.00  0.00     0.016 A 
ATOM     14  C   UNL     1      14.277  46.786  32.911  1.00  0.00     0.051 A 
ATOM     15  C   UNL     1      15.463  46.629  32.182  1.00  0.00     0.157 A 
ATOM     16  C   UNL     1      15.791  49.033  32.222  1.00  0.00     0.062 A 
ATOM     17  C   UNL     1      16.220  47.760  31.832  1.00  0.00     0.158 A 
BRANCH  15  18
ATOM     18  O   UNL     1      15.888  45.357  31.800  1.00  0.00    -0.504 OA
ATOM     19  H   UNL     1      15.786  44.558  32.415  1.00  0.00     0.293 HD
ENDBRANCH  15  18
BRANCH  17  20
ATOM     20  O   UNL     1      17.397  47.638  31.095  1.00  0.00    -0.504 OA
ATOM     21  H   UNL     1      17.779  48.407  30.558  1.00  0.00     0.293 HD
ENDBRANCH  17  20
ENDBRANCH   1  12
BRANCH   2  22
ATOM     22  O   UNL     1      12.835  50.790  31.331  1.00  0.00    -0.502 OA
ATOM     23  H   UNL     1      12.877  49.806  31.095  1.00  0.00     0.293 HD
ENDBRANCH   2  22
BRANCH   6  24
ATOM     24  O   UNL     1      11.841  55.078  34.330  1.00  0.00    -0.507 OA
ATOM     25  H   UNL     1      11.045  54.744  33.808  1.00  0.00     0.293 HD
ENDBRANCH   6  24
BRANCH   8  26
ATOM     26  O   UNL     1      14.961  54.385  37.891  1.00  0.00    -0.508 OA
ATOM     27  H   UNL     1      15.480  53.769  38.507  1.00  0.00     0.293 HD
ENDBRANCH   8  26
TORSDOF 6
ENDMDL
MODEL 6
REMARK VINA RESULT:    -4.938      2.501      6.401
REMARK INTER + INTRA:          -6.279
REMARK INTER:                  -5.946
REMARK INTRA:                  -0.333
REMARK UNBOUND:                -0.330
REMARK SMILES O=c1c(O)c(-c2ccc(O)c(O)c2)oc2cc(O)cc(O)c12
REMARK SMILES IDX 5 1 3 2 2 3 1 4 22 5 20 6 19 7 17 8 16 9 15 10 14 11 6 12
REMARK SMILES IDX 7 13 8 14 9 15 13 16 11 17 10 18 12 20 4 22 21 24 18 26
REMARK H PARENT 10 19 12 21 4 23 21 25 18 27
REMARK Flexibility Score: inf
ROOT
ATOM      1  C   UNL     1      15.280  55.753  33.576  1.00  0.00     0.180 A 
ATOM      2  C   UNL     1      14.900  54.816  34.552  1.00  0.00     0.208 A 
ATOM      3  C   UNL     1      14.510  53.530  34.147  1.00  0.00     0.238 A 
ATOM      4  O   UNL     1      14.223  52.679  35.030  1.00  0.00    -0.285 OA
ATOM      5  C   UNL     1      14.489  53.201  32.771  1.00  0.00     0.111 A 
ATOM      6  C   UNL     1      14.073  51.941  32.244  1.00  0.00     0.134 A 
ATOM      7  C   UNL     1      14.218  51.682  30.876  1.00  0.00     0.093 A 
ATOM      8  C   UNL     1      14.702  52.657  30.005  1.00  0.00     0.123 A 
ATOM      9  C   UNL     1      15.056  53.914  30.500  1.00  0.00     0.094 A 
ATOM     10  C   UNL     1      14.957  54.190  31.866  1.00  0.00     0.146 A 
ATOM     11  O   UNL     1      15.314  55.393  32.298  1.00  0.00    -0.452 OA
ENDROOT
BRANCH   1  12
ATOM     12  C   UNL     1      15.680  57.135  33.923  1.00  0.00     0.025 A 
ATOM     13  C   UNL     1      17.041  57.446  34.068  1.00  0.00     0.016 A 
ATOM     14  C   UNL     1      17.441  58.750  34.374  1.00  0.00     0.051 A 
ATOM     15  C   UNL     1      16.486  59.765  34.526  1.00  0.00     0.157 A 
ATOM     16  C   UNL     1      14.726  58.161  34.056  1.00  0.00     0.062 A 
ATOM     17  C   UNL     1      15.123  59.468  34.362  1.00  0.00     0.158 A 
BRANCH  15  18
ATOM     18  O   UNL     1      16.888  61.063  34.834  1.00  0.00    -0.504 OA
ATOM     19  H   UNL     1      17.865  61.333  34.823  1.00  0.00     0.293 HD
ENDBRANCH  15  18
BRANCH  17  20
ATOM     20  O   UNL     1      14.151  60.459  34.492  1.00  0.00    -0.504 OA
ATOM     21  H   UNL     1      13.316  60.473  33.919  1.00  0.00     0.293 HD
ENDBRANCH  17  20
ENDBRANCH   1  12
BRANCH   2  22
ATOM     22  O   UNL     1      14.949  55.155  35.908  1.00  0.00    -0.502 OA
ATOM     23  H   UNL     1      15.428  55.982  36.244  1.00  0.00     0.293 HD
ENDBRANCH   2  22
BRANCH   6  24
ATOM     24  O   UNL     1      13.491  50.928  33.013  1.00  0.00    -0.507 OA
ATOM     25  H   UNL     1      13.989  50.141  33.399  1.00  0.00     0.293 HD
ENDBRANCH   6  24
BRANCH   8  26
ATOM     26  O   UNL     1      14.817  52.371  28.647  1.00  0.00    -0.508 OA
ATOM     27  H   UNL     1      14.174  51.741  28.182  1.00  0.00     0.293 HD
ENDBRANCH   8  26
TORSDOF 6
ENDMDL
MODEL 7
REMARK VINA RESULT:    -4.893      6.763     10.214
REMARK INTER + INTRA:          -6.225
REMARK INTER:                  -5.941
REMARK INTRA:                  -0.284
REMARK UNBOUND:                -0.330
REMARK SMILES O=c1c(O)c(-c2ccc(O)c(O)c2)oc2cc(O)cc(O)c12
REMARK SMILES IDX 5 1 3 2 2 3 1 4 22 5 20 6 19 7 17 8 16 9 15 10 14 11 6 12
REMARK SMILES IDX 7 13 8 14 9 15 13 16 11 17 10 18 12 20 4 22 21 24 18 26
REMARK H PARENT 10 19 12 21 4 23 21 25 18 27
REMARK Flexibility Score: inf
ROOT
ATOM      1  C   UNL     1      13.886  48.804  33.143  1.00  0.00     0.180 A 
ATOM      2  C   UNL     1      14.306  48.243  31.924  1.00  0.00     0.208 A 
ATOM      3  C   UNL     1      14.407  46.847  31.817  1.00  0.00     0.238 A 
ATOM      4  O   UNL     1      14.731  46.349  30.707  1.00  0.00    -0.285 OA
ATOM      5  C   UNL     1      14.104  46.030  32.932  1.00  0.00     0.111 A 
ATOM      6  C   UNL     1      14.211  44.607  32.948  1.00  0.00     0.134 A 
ATOM      7  C   UNL     1      13.760  43.892  34.064  1.00  0.00     0.093 A 
ATOM      8  C   UNL     1      13.268  44.550  35.190  1.00  0.00     0.123 A 
ATOM      9  C   UNL     1      13.214  45.946  35.209  1.00  0.00     0.094 A 
ATOM     10  C   UNL     1      13.623  46.684  34.096  1.00  0.00     0.146 A 
ATOM     11  O   UNL     1      13.546  48.008  34.151  1.00  0.00    -0.452 OA
ENDROOT
BRANCH   1  12
ATOM     12  C   UNL     1      13.778  50.267  33.342  1.00  0.00     0.025 A 
ATOM     13  C   UNL     1      12.652  50.950  32.856  1.00  0.00     0.016 A 
ATOM     14  C   UNL     1      12.521  52.327  33.051  1.00  0.00     0.051 A 
ATOM     15  C   UNL     1      13.506  53.040  33.748  1.00  0.00     0.157 A 
ATOM     16  C   UNL     1      14.755  50.983  34.058  1.00  0.00     0.062 A 
ATOM     17  C   UNL     1      14.626  52.362  34.257  1.00  0.00     0.158 A 
BRANCH  15  18
ATOM     18  O   UNL     1      13.373  54.414  33.939  1.00  0.00    -0.504 OA
ATOM     19  H   UNL     1      12.748  54.971  33.368  1.00  0.00     0.293 HD
ENDBRANCH  15  18
BRANCH  17  20
ATOM     20  O   UNL     1      15.615  53.040  34.967  1.00  0.00    -0.504 OA
ATOM     21  H   UNL     1      16.601  52.913  34.772  1.00  0.00     0.293 HD
ENDBRANCH  17  20
ENDBRANCH   1  12
BRANCH   2  22
ATOM     22  O   UNL     1      14.578  49.067  30.829  1.00  0.00    -0.502 OA
ATOM     23  H   UNL     1      14.608  50.077  30.903  1.00  0.00     0.293 HD
ENDBRANCH   2  22
BRANCH   6  24
ATOM     24  O   UNL     1      14.774  43.855  31.911  1.00  0.00    -0.507 OA
ATOM     25  H   UNL     1      15.395  44.223  31.207  1.00  0.00     0.293 HD
ENDBRANCH   6  24
BRANCH   8  26
ATOM     26  O   UNL     1      12.843  43.809  36.289  1.00  0.00    -0.508 OA
ATOM     27  H   UNL     1      13.031  44.112  37.238  1.00  0.00     0.293 HD
ENDBRANCH   8  26
TORSDOF 6
ENDMDL
MODEL 8
REMARK VINA RESULT:    -4.766     11.388     12.394
REMARK INTER + INTRA:          -6.071
REMARK INTER:                  -6.056
REMARK INTRA:                  -0.015
REMARK UNBOUND:                -0.330
REMARK SMILES O=c1c(O)c(-c2ccc(O)c(O)c2)oc2cc(O)cc(O)c12
REMARK SMILES IDX 5 1 3 2 2 3 1 4 22 5 20 6 19 7 17 8 16 9 15 10 14 11 6 12
REMARK SMILES IDX 7 13 8 14 9 15 13 16 11 17 10 18 12 20 4 22 21 24 18 26
REMARK H PARENT 10 19 12 21 4 23 21 25 18 27
REMARK Flexibility Score: inf
ROOT
ATOM      1  C   UNL     1      26.270  53.972  31.594  1.00  0.00     0.180 A 
ATOM      2  C   UNL     1      25.246  53.653  30.686  1.00  0.00     0.208 A 
ATOM      3  C   UNL     1      24.478  54.690  30.134  1.00  0.00     0.238 A 
ATOM      4  O   UNL     1      23.599  54.402  29.280  1.00  0.00    -0.285 OA
ATOM      5  C   UNL     1      24.730  56.031  30.510  1.00  0.00     0.111 A 
ATOM      6  C   UNL     1      23.987  57.157  30.044  1.00  0.00     0.134 A 
ATOM      7  C   UNL     1      24.408  58.449  30.380  1.00  0.00     0.093 A 
ATOM      8  C   UNL     1      25.505  58.655  31.215  1.00  0.00     0.123 A 
ATOM      9  C   UNL     1      26.203  57.559  31.726  1.00  0.00     0.094 A 
ATOM     10  C   UNL     1      25.829  56.259  31.378  1.00  0.00     0.146 A 
ATOM     11  O   UNL     1      26.526  55.244  31.876  1.00  0.00    -0.452 OA
ENDROOT
BRANCH   1  12
ATOM     12  C   UNL     1      27.107  52.933  32.236  1.00  0.00     0.025 A 
ATOM     13  C   UNL     1      27.800  52.011  31.436  1.00  0.00     0.016 A 
ATOM     14  C   UNL     1      28.612  51.036  32.021  1.00  0.00     0.051 A 
ATOM     15  C   UNL     1      28.754  50.977  33.414  1.00  0.00     0.157 A 
ATOM     16  C   UNL     1      27.268  52.883  33.633  1.00  0.00     0.062 A 
ATOM     17  C   UNL     1      28.082  51.909  34.222  1.00  0.00     0.158 A 
BRANCH  15  18
ATOM     18  O   UNL     1      29.562  50.001  33.995  1.00  0.00    -0.504 OA
ATOM     19  H   UNL     1      29.210  49.073  34.201  1.00  0.00     0.293 HD
ENDBRANCH  15  18
BRANCH  17  20
ATOM     20  O   UNL     1      28.214  51.885  35.610  1.00  0.00    -0.504 OA
ATOM     21  H   UNL     1      27.566  52.366  36.221  1.00  0.00     0.293 HD
ENDBRANCH  17  20
ENDBRANCH   1  12
BRANCH   2  22
ATOM     22  O   UNL     1      25.028  52.323  30.312  1.00  0.00    -0.502 OA
ATOM     23  H   UNL     1      24.167  52.016  29.876  1.00  0.00     0.293 HD
ENDBRANCH   2  22
BRANCH   6  24
ATOM     24  O   UNL     1      22.821  57.060  29.278  1.00  0.00    -0.507 OA
ATOM     25  H   UNL     1      22.329  57.844  28.878  1.00  0.00     0.293 HD
ENDBRANCH   6  24
BRANCH   8  26
ATOM     26  O   UNL     1      25.886  59.954  31.542  1.00  0.00    -0.508 OA
ATOM     27  H   UNL     1      25.783  60.316  32.483  1.00  0.00     0.293 HD
ENDBRANCH   8  26
TORSDOF 6
ENDMDL
MODEL 9
REMARK VINA RESULT:    -4.729      3.360      6.905
REMARK INTER + INTRA:          -6.027
REMARK INTER:                  -5.725
REMARK INTRA:                  -0.302
REMARK UNBOUND:                -0.330
REMARK SMILES O=c1c(O)c(-c2ccc(O)c(O)c2)oc2cc(O)cc(O)c12
REMARK SMILES IDX 5 1 3 2 2 3 1 4 22 5 20 6 19 7 17 8 16 9 15 10 14 11 6 12
REMARK SMILES IDX 7 13 8 14 9 15 13 16 11 17 10 18 12 20 4 22 21 24 18 26
REMARK H PARENT 10 19 12 21 4 23 21 25 18 27
REMARK Flexibility Score: inf
ROOT
ATOM      1  C   UNL     1      14.793  54.567  32.311  1.00  0.00     0.180 A 
ATOM      2  C   UNL     1      14.372  54.580  30.970  1.00  0.00     0.208 A 
ATOM      3  C   UNL     1      13.924  53.385  30.385  1.00  0.00     0.238 A 
ATOM      4  O   UNL     1      13.497  53.415  29.201  1.00  0.00    -0.285 OA
ATOM      5  C   UNL     1      13.919  52.189  31.142  1.00  0.00     0.111 A 
ATOM      6  C   UNL     1      13.523  50.913  30.638  1.00  0.00     0.134 A 
ATOM      7  C   UNL     1      13.433  49.823  31.513  1.00  0.00     0.093 A 
ATOM      8  C   UNL     1      13.785  49.946  32.856  1.00  0.00     0.123 A 
ATOM      9  C   UNL     1      14.230  51.175  33.346  1.00  0.00     0.094 A 
ATOM     10  C   UNL     1      14.296  52.289  32.506  1.00  0.00     0.146 A 
ATOM     11  O   UNL     1      14.714  53.442  33.014  1.00  0.00    -0.452 OA
ENDROOT
BRANCH   1  12
ATOM     12  C   UNL     1      15.302  55.780  32.990  1.00  0.00     0.025 A 
ATOM     13  C   UNL     1      14.479  56.456  33.904  1.00  0.00     0.016 A 
ATOM     14  C   UNL     1      14.947  57.592  34.572  1.00  0.00     0.051 A 
ATOM     15  C   UNL     1      16.249  58.058  34.346  1.00  0.00     0.157 A 
ATOM     16  C   UNL     1      16.615  56.240  32.781  1.00  0.00     0.062 A 
ATOM     17  C   UNL     1      17.087  57.375  33.449  1.00  0.00     0.158 A 
BRANCH  15  18
ATOM     18  O   UNL     1      16.712  59.192  35.011  1.00  0.00    -0.504 OA
ATOM     19  H   UNL     1      17.593  59.191  35.513  1.00  0.00     0.293 HD
ENDBRANCH  15  18
BRANCH  17  20
ATOM     20  O   UNL     1      18.392  57.806  33.213  1.00  0.00    -0.504 OA
ATOM     21  H   UNL     1      18.913  57.523  32.393  1.00  0.00     0.293 HD
ENDBRANCH  17  20
ENDBRANCH   1  12
BRANCH   2  22
ATOM     22  O   UNL     1      14.365  55.777  30.248  1.00  0.00    -0.502 OA
ATOM     23  H   UNL     1      15.110  56.031  29.610  1.00  0.00     0.293 HD
ENDBRANCH   2  22
BRANCH   6  24
ATOM     24  O   UNL     1      13.238  50.659  29.293  1.00  0.00    -0.507 OA
ATOM     25  H   UNL     1      13.070  51.369  28.598  1.00  0.00     0.293 HD
ENDBRANCH   6  24
BRANCH   8  26
ATOM     26  O   UNL     1      13.698  48.837  33.694  1.00  0.00    -0.508 OA
ATOM     27  H   UNL     1      14.202  48.796  34.573  1.00  0.00     0.293 HD
ENDBRANCH   8  26
TORSDOF 6
ENDMDL
