MODEL 1
REMARK VINA RESULT:    -4.788      0.000      0.000
REMARK INTER + INTRA:          -6.285
REMARK INTER:                  -5.907
REMARK INTRA:                  -0.377
REMARK UNBOUND:                -0.377
REMARK SMILES Oc1cc(O)c2cc(O)c(-c3cc(O)c(O)c(O)c3)[o+]c2c1
REMARK SMILES IDX 10 1 20 2 21 3 22 4 2 5 3 6 4 7 6 8 7 9 8 10 11 11 12 12
REMARK SMILES IDX 13 13 19 14 15 15 17 16 14 17 16 19 18 21 9 23 1 25 5 27
REMARK H PARENT 14 18 16 20 18 22 9 24 1 26 5 28
REMARK Flexibility Score: inf
ROOT
ATOM      1  C   UNL     1       0.374   3.291  23.670  1.00  0.00     0.402 A 
ATOM      2  O   UNL     1       0.140   2.982  22.397  1.00  0.00    -0.202 OA
ATOM      3  C   UNL     1      -0.260   1.779  22.001  1.00  0.00     0.368 A 
ATOM      4  C   UNL     1      -0.482   1.550  20.640  1.00  0.00     0.162 A 
ATOM      5  C   UNL     1      -0.906   0.297  20.195  1.00  0.00     0.128 A 
ATOM      6  C   UNL     1      -1.111  -0.736  21.116  1.00  0.00     0.093 A 
ATOM      7  C   UNL     1      -0.895  -0.533  22.485  1.00  0.00     0.136 A 
ATOM      8  C   UNL     1      -0.461   0.739  22.940  1.00  0.00     0.125 A 
ATOM      9  C   UNL     1      -0.208   1.031  24.291  1.00  0.00     0.078 A 
ATOM     10  C   UNL     1       0.222   2.307  24.664  1.00  0.00     0.223 A 
ENDROOT
BRANCH   1  11
ATOM     11  C   UNL     1       0.808   4.672  23.987  1.00  0.00     0.091 A 
ATOM     12  C   UNL     1       2.169   5.011  24.070  1.00  0.00     0.068 A 
ATOM     13  C   UNL     1       2.559   6.318  24.393  1.00  0.00     0.162 A 
ATOM     14  C   UNL     1      -0.158   5.650  24.269  1.00  0.00     0.068 A 
ATOM     15  C   UNL     1       1.584   7.297  24.651  1.00  0.00     0.200 A 
ATOM     16  C   UNL     1       0.222   6.957  24.590  1.00  0.00     0.162 A 
BRANCH  13  17
ATOM     17  O   UNL     1       3.912   6.644  24.466  1.00  0.00    -0.504 OA
ATOM     18  H   UNL     1       4.510   6.274  25.196  1.00  0.00     0.293 HD
ENDBRANCH  13  17
BRANCH  15  19
ATOM     19  O   UNL     1       1.956   8.604  24.970  1.00  0.00    -0.502 OA
ATOM     20  H   UNL     1       2.354   8.847  25.869  1.00  0.00     0.293 HD
ENDBRANCH  15  19
BRANCH  16  21
ATOM     21  O   UNL     1      -0.769   7.904  24.849  1.00  0.00    -0.504 OA
ATOM     22  H   UNL     1      -1.755   7.682  24.790  1.00  0.00     0.293 HD
ENDBRANCH  16  21
ENDBRANCH   1  11
BRANCH  10  23
ATOM     23  O   UNL     1       0.523   2.583  25.998  1.00  0.00    -0.500 OA
ATOM     24  H   UNL     1       1.379   2.253  26.431  1.00  0.00     0.294 HD
ENDBRANCH  10  23
BRANCH   5  25
ATOM     25  O   UNL     1      -1.122   0.090  18.835  1.00  0.00    -0.507 OA
ATOM     26  H   UNL     1      -1.872  -0.507  18.503  1.00  0.00     0.293 HD
ENDBRANCH   5  25
BRANCH   7  27
ATOM     27  O   UNL     1      -1.125  -1.614  23.340  1.00  0.00    -0.507 OA
ATOM     28  H   UNL     1      -0.549  -1.844  24.137  1.00  0.00     0.293 HD
ENDBRANCH   7  27
TORSDOF 7
ENDMDL
MODEL 2
REMARK VINA RESULT:    -4.749      0.243      1.809
REMARK INTER + INTRA:          -6.237
REMARK INTER:                  -5.857
REMARK INTRA:                  -0.380
REMARK UNBOUND:                -0.377
REMARK SMILES Oc1cc(O)c2cc(O)c(-c3cc(O)c(O)c(O)c3)[o+]c2c1
REMARK SMILES IDX 10 1 20 2 21 3 22 4 2 5 3 6 4 7 6 8 7 9 8 10 11 11 12 12
REMARK SMILES IDX 13 13 19 14 15 15 17 16 14 17 16 19 18 21 9 23 1 25 5 27
REMARK H PARENT 14 18 16 20 18 22 9 24 1 26 5 28
REMARK Flexibility Score: inf
ROOT
ATOM      1  C   UNL     1       0.432   3.166  23.695  1.00  0.00     0.402 A 
ATOM      2  O   UNL     1       0.187   2.940  22.407  1.00  0.00    -0.202 OA
ATOM      3  C   UNL     1      -0.226   1.769  21.938  1.00  0.00     0.368 A 
ATOM      4  C   UNL     1      -0.460   1.628  20.567  1.00  0.00     0.162 A 
ATOM      5  C   UNL     1      -0.898   0.410  20.047  1.00  0.00     0.128 A 
ATOM      6  C   UNL     1      -1.106  -0.678  20.902  1.00  0.00     0.093 A 
ATOM      7  C   UNL     1      -0.879  -0.564  22.279  1.00  0.00     0.136 A 
ATOM      8  C   UNL     1      -0.431   0.672  22.811  1.00  0.00     0.125 A 
ATOM      9  C   UNL     1      -0.166   0.876  24.176  1.00  0.00     0.078 A 
ATOM     10  C   UNL     1       0.278   2.122  24.626  1.00  0.00     0.223 A 
ENDROOT
BRANCH   1  11
ATOM     11  C   UNL     1       0.880   4.520  24.097  1.00  0.00     0.091 A 
ATOM     12  C   UNL     1      -0.042   5.534  24.404  1.00  0.00     0.068 A 
ATOM     13  C   UNL     1       0.402   6.816  24.761  1.00  0.00     0.162 A 
ATOM     14  C   UNL     1       2.252   4.815  24.115  1.00  0.00     0.068 A 
ATOM     15  C   UNL     1       1.778   7.096  24.799  1.00  0.00     0.200 A 
ATOM     16  C   UNL     1       2.703   6.090  24.471  1.00  0.00     0.162 A 
BRANCH  13  17
ATOM     17  O   UNL     1      -0.522   7.813  25.070  1.00  0.00    -0.504 OA
ATOM     18  H   UNL     1      -1.344   7.621  25.631  1.00  0.00     0.293 HD
ENDBRANCH  13  17
BRANCH  15  19
ATOM     19  O   UNL     1       2.236   8.365  25.155  1.00  0.00    -0.502 OA
ATOM     20  H   UNL     1       1.754   8.943  25.833  1.00  0.00     0.293 HD
ENDBRANCH  15  19
BRANCH  16  21
ATOM     21  O   UNL     1       4.076   6.339  24.492  1.00  0.00    -0.504 OA
ATOM     22  H   UNL     1       4.736   5.685  24.895  1.00  0.00     0.293 HD
ENDBRANCH  16  21
ENDBRANCH   1  11
BRANCH  10  23
ATOM     23  O   UNL     1       0.590   2.310  25.972  1.00  0.00    -0.500 OA
ATOM     24  H   UNL     1       0.167   3.053  26.518  1.00  0.00     0.294 HD
ENDBRANCH  10  23
BRANCH   5  25
ATOM     25  O   UNL     1      -1.125   0.291  18.677  1.00  0.00    -0.507 OA
ATOM     26  H   UNL     1      -0.467  -0.186  18.071  1.00  0.00     0.293 HD
ENDBRANCH   5  25
BRANCH   7  27
ATOM     27  O   UNL     1      -1.113  -1.695  23.065  1.00  0.00    -0.507 OA
ATOM     28  H   UNL     1      -0.894  -2.641  22.784  1.00  0.00     0.293 HD
ENDBRANCH   7  27
TORSDOF 7
ENDMDL
MODEL 3
REMARK VINA RESULT:    -3.314      1.358      6.995
REMARK INTER + INTRA:          -4.467
REMARK INTER:                  -4.680
REMARK INTRA:                   0.214
REMARK UNBOUND:                -0.377
REMARK SMILES Oc1cc(O)c2cc(O)c(-c3cc(O)c(O)c(O)c3)[o+]c2c1
REMARK SMILES IDX 10 1 20 2 21 3 22 4 2 5 3 6 4 7 6 8 7 9 8 10 11 11 12 12
REMARK SMILES IDX 13 13 19 14 15 15 17 16 14 17 16 19 18 21 9 23 1 25 5 27
REMARK H PARENT 14 18 16 20 18 22 9 24 1 26 5 28
REMARK Flexibility Score: inf
ROOT
ATOM      1  C   UNL     1       0.788   3.041  23.771  1.00  0.00     0.402 A 
ATOM      2  O   UNL     1       0.644   4.270  23.282  1.00  0.00    -0.202 OA
ATOM      3  C   UNL     1       1.079   5.358  23.906  1.00  0.00     0.368 A 
ATOM      4  C   UNL     1       0.883   6.608  23.312  1.00  0.00     0.162 A 
ATOM      5  C   UNL     1       1.333   7.768  23.942  1.00  0.00     0.128 A 
ATOM      6  C   UNL     1       1.985   7.681  25.178  1.00  0.00     0.093 A 
ATOM      7  C   UNL     1       2.194   6.442  25.795  1.00  0.00     0.136 A 
ATOM      8  C   UNL     1       1.735   5.260  25.158  1.00  0.00     0.125 A 
ATOM      9  C   UNL     1       1.889   3.976  25.707  1.00  0.00     0.078 A 
ATOM     10  C   UNL     1       1.406   2.858  25.022  1.00  0.00     0.223 A 
ENDROOT
BRANCH   1  11
ATOM     11  C   UNL     1       0.268   1.905  22.976  1.00  0.00     0.091 A 
ATOM     12  C   UNL     1      -0.195   0.730  23.593  1.00  0.00     0.068 A 
ATOM     13  C   UNL     1      -0.663  -0.343  22.822  1.00  0.00     0.162 A 
ATOM     14  C   UNL     1       0.289   1.977  21.574  1.00  0.00     0.068 A 
ATOM     15  C   UNL     1      -0.659  -0.253  21.419  1.00  0.00     0.200 A 
ATOM     16  C   UNL     1      -0.178   0.912  20.797  1.00  0.00     0.162 A 
BRANCH  13  17
ATOM     17  O   UNL     1      -1.125  -1.501  23.445  1.00  0.00    -0.504 OA
ATOM     18  H   UNL     1      -0.592  -1.962  24.173  1.00  0.00     0.293 HD
ENDBRANCH  13  17
BRANCH  15  19
ATOM     19  O   UNL     1      -1.125  -1.310  20.637  1.00  0.00    -0.502 OA
ATOM     20  H   UNL     1      -0.500  -1.915  20.118  1.00  0.00     0.293 HD
ENDBRANCH  15  19
BRANCH  16  21
ATOM     21  O   UNL     1      -0.153   1.029  19.407  1.00  0.00    -0.504 OA
ATOM     22  H   UNL     1      -0.184   1.928  18.942  1.00  0.00     0.293 HD
ENDBRANCH  16  21
ENDBRANCH   1  11
BRANCH  10  23
ATOM     23  O   UNL     1       1.514   1.588  25.590  1.00  0.00    -0.500 OA
ATOM     24  H   UNL     1       0.909   0.825  25.306  1.00  0.00     0.294 HD
ENDBRANCH  10  23
BRANCH   5  25
ATOM     25  O   UNL     1       1.128   9.004  23.333  1.00  0.00    -0.507 OA
ATOM     26  H   UNL     1       0.345   9.162  22.708  1.00  0.00     0.293 HD
ENDBRANCH   5  25
BRANCH   7  27
ATOM     27  O   UNL     1       2.856   6.439  27.026  1.00  0.00    -0.507 OA
ATOM     28  H   UNL     1       2.756   7.157  27.729  1.00  0.00     0.293 HD
ENDBRANCH   7  27
TORSDOF 7
ENDMDL
MODEL 4
REMARK VINA RESULT:    -3.275      5.270      8.481
REMARK INTER + INTRA:          -4.418
REMARK INTER:                  -4.803
REMARK INTRA:                   0.384
REMARK UNBOUND:                -0.377
REMARK SMILES Oc1cc(O)c2cc(O)c(-c3cc(O)c(O)c(O)c3)[o+]c2c1
REMARK SMILES IDX 10 1 20 2 21 3 22 4 2 5 3 6 4 7 6 8 7 9 8 10 11 11 12 12
REMARK SMILES IDX 13 13 19 14 15 15 17 16 14 17 16 19 18 21 9 23 1 25 5 27
REMARK H PARENT 14 18 16 20 18 22 9 24 1 26 5 28
REMARK Flexibility Score: inf
ROOT
ATOM      1  C   UNL     1      -0.896   2.968  17.077  1.00  0.00     0.402 A 
ATOM      2  O   UNL     1      -0.902   4.296  17.007  1.00  0.00    -0.202 OA
ATOM      3  C   UNL     1      -0.878   4.966  15.860  1.00  0.00     0.368 A 
ATOM      4  C   UNL     1      -0.890   6.363  15.887  1.00  0.00     0.162 A 
ATOM      5  C   UNL     1      -0.869   7.092  14.698  1.00  0.00     0.128 A 
ATOM      6  C   UNL     1      -0.836   6.422  13.470  1.00  0.00     0.093 A 
ATOM      7  C   UNL     1      -0.823   5.022  13.415  1.00  0.00     0.136 A 
ATOM      8  C   UNL     1      -0.842   4.278  14.622  1.00  0.00     0.125 A 
ATOM      9  C   UNL     1      -0.818   2.874  14.665  1.00  0.00     0.078 A 
ATOM     10  C   UNL     1      -0.834   2.209  15.893  1.00  0.00     0.223 A 
ENDROOT
BRANCH   1  11
ATOM     11  C   UNL     1      -0.935   2.337  18.417  1.00  0.00     0.091 A 
ATOM     12  C   UNL     1      -0.995   0.941  18.567  1.00  0.00     0.068 A 
ATOM     13  C   UNL     1      -1.054   0.364  19.843  1.00  0.00     0.162 A 
ATOM     14  C   UNL     1      -0.971   3.149  19.561  1.00  0.00     0.068 A 
ATOM     15  C   UNL     1      -1.066   1.184  20.984  1.00  0.00     0.200 A 
ATOM     16  C   UNL     1      -1.027   2.581  20.838  1.00  0.00     0.162 A 
BRANCH  13  17
ATOM     17  O   UNL     1      -1.107  -1.022  19.980  1.00  0.00    -0.504 OA
ATOM     18  H   UNL     1      -0.729  -1.642  19.273  1.00  0.00     0.293 HD
ENDBRANCH  13  17
BRANCH  15  19
ATOM     19  O   UNL     1      -1.121   0.626  22.262  1.00  0.00    -0.502 OA
ATOM     20  H   UNL     1      -0.365   0.067  22.639  1.00  0.00     0.293 HD
ENDBRANCH  15  19
BRANCH  16  21
ATOM     21  O   UNL     1      -1.047   3.423  21.950  1.00  0.00    -0.504 OA
ATOM     22  H   UNL     1      -1.693   4.199  22.028  1.00  0.00     0.293 HD
ENDBRANCH  16  21
ENDBRANCH   1  11
BRANCH  10  23
ATOM     23  O   UNL     1      -0.760   0.816  15.938  1.00  0.00    -0.500 OA
ATOM     24  H   UNL     1      -1.213   0.282  16.672  1.00  0.00     0.294 HD
ENDBRANCH  10  23
BRANCH   5  25
ATOM     25  O   UNL     1      -0.881   8.485  14.747  1.00  0.00    -0.507 OA
ATOM     26  H   UNL     1      -0.279   8.997  15.382  1.00  0.00     0.293 HD
ENDBRANCH   5  25
BRANCH   7  27
ATOM     27  O   UNL     1      -0.793   4.429  12.151  1.00  0.00    -0.507 OA
ATOM     28  H   UNL     1      -0.122   4.654  11.430  1.00  0.00     0.293 HD
ENDBRANCH   7  27
TORSDOF 7
ENDMDL
MODEL 5
REMARK VINA RESULT:    -3.153      1.386      6.955
REMARK INTER + INTRA:          -4.267
REMARK INTER:                  -4.577
REMARK INTRA:                   0.310
REMARK UNBOUND:                -0.377
REMARK SMILES Oc1cc(O)c2cc(O)c(-c3cc(O)c(O)c(O)c3)[o+]c2c1
REMARK SMILES IDX 10 1 20 2 21 3 22 4 2 5 3 6 4 7 6 8 7 9 8 10 11 11 12 12
REMARK SMILES IDX 13 13 19 14 15 15 17 16 14 17 16 19 18 21 9 23 1 25 5 27
REMARK H PARENT 14 18 16 20 18 22 9 24 1 26 5 28
REMARK Flexibility Score: inf
ROOT
ATOM      1  C   UNL     1       0.680   2.962  23.740  1.00  0.00     0.402 A 
ATOM      2  O   UNL     1       0.605   4.168  23.183  1.00  0.00    -0.202 OA
ATOM      3  C   UNL     1       0.986   5.280  23.800  1.00  0.00     0.368 A 
ATOM      4  C   UNL     1       0.871   6.503  23.132  1.00  0.00     0.162 A 
ATOM      5  C   UNL     1       1.266   7.687  23.754  1.00  0.00     0.128 A 
ATOM      6  C   UNL     1       1.781   7.652  25.055  1.00  0.00     0.093 A 
ATOM      7  C   UNL     1       1.906   6.441  25.747  1.00  0.00     0.136 A 
ATOM      8  C   UNL     1       1.502   5.235  25.118  1.00  0.00     0.125 A 
ATOM      9  C   UNL     1       1.579   3.977  25.738  1.00  0.00     0.078 A 
ATOM     10  C   UNL     1       1.158   2.832  25.057  1.00  0.00     0.223 A 
ENDROOT
BRANCH   1  11
ATOM     11  C   UNL     1       0.233   1.794  22.945  1.00  0.00     0.091 A 
ATOM     12  C   UNL     1       0.212   1.829  21.541  1.00  0.00     0.068 A 
ATOM     13  C   UNL     1      -0.235   0.722  20.807  1.00  0.00     0.162 A 
ATOM     14  C   UNL     1      -0.235   0.648  23.606  1.00  0.00     0.068 A 
ATOM     15  C   UNL     1      -0.680  -0.430  21.477  1.00  0.00     0.200 A 
ATOM     16  C   UNL     1      -0.681  -0.462  22.882  1.00  0.00     0.162 A 
BRANCH  13  17
ATOM     17  O   UNL     1      -0.245   0.765  19.414  1.00  0.00    -0.504 OA
ATOM     18  H   UNL     1      -1.033   0.422  18.876  1.00  0.00     0.293 HD
ENDBRANCH  13  17
BRANCH  15  19
ATOM     19  O   UNL     1      -1.125  -1.543  20.762  1.00  0.00    -0.502 OA
ATOM     20  H   UNL     1      -0.558  -2.374  20.649  1.00  0.00     0.293 HD
ENDBRANCH  15  19
BRANCH  16  21
ATOM     21  O   UNL     1      -1.125  -1.587  23.577  1.00  0.00    -0.504 OA
ATOM     22  H   UNL     1      -2.010  -1.602  24.070  1.00  0.00     0.293 HD
ENDBRANCH  16  21
ENDBRANCH   1  11
BRANCH  10  23
ATOM     23  O   UNL     1       1.187   1.589  25.690  1.00  0.00    -0.500 OA
ATOM     24  H   UNL     1       1.144   1.505  26.700  1.00  0.00     0.294 HD
ENDBRANCH  10  23
BRANCH   5  25
ATOM     25  O   UNL     1       1.144   8.895  23.070  1.00  0.00    -0.507 OA
ATOM     26  H   UNL     1       0.895   8.924  22.088  1.00  0.00     0.293 HD
ENDBRANCH   5  25
BRANCH   7  27
ATOM     27  O   UNL     1       2.431   6.490  27.041  1.00  0.00    -0.507 OA
ATOM     28  H   UNL     1       2.006   6.054  27.846  1.00  0.00     0.293 HD
ENDBRANCH   7  27
TORSDOF 7
ENDMDL
MODEL 6
REMARK VINA RESULT:    -3.129      4.859      7.695
REMARK INTER + INTRA:          -4.238
REMARK INTER:                  -4.632
REMARK INTRA:                   0.394
REMARK UNBOUND:                -0.377
REMARK SMILES Oc1cc(O)c2cc(O)c(-c3cc(O)c(O)c(O)c3)[o+]c2c1
REMARK SMILES IDX 10 1 20 2 21 3 22 4 2 5 3 6 4 7 6 8 7 9 8 10 11 11 12 12
REMARK SMILES IDX 13 13 19 14 15 15 17 16 14 17 16 19 18 21 9 23 1 25 5 27
REMARK H PARENT 14 18 16 20 18 22 9 24 1 26 5 28
REMARK Flexibility Score: inf
ROOT
ATOM      1  C   UNL     1      -1.083   2.863  17.301  1.00  0.00     0.402 A 
ATOM      2  O   UNL     1      -1.108   3.302  18.557  1.00  0.00    -0.202 OA
ATOM      3  C   UNL     1      -1.091   2.494  19.612  1.00  0.00     0.368 A 
ATOM      4  C   UNL     1      -1.117   3.049  20.894  1.00  0.00     0.162 A 
ATOM      5  C   UNL     1      -1.097   2.226  22.021  1.00  0.00     0.128 A 
ATOM      6  C   UNL     1      -1.050   0.836  21.866  1.00  0.00     0.093 A 
ATOM      7  C   UNL     1      -1.023   0.254  20.592  1.00  0.00     0.136 A 
ATOM      8  C   UNL     1      -1.046   1.089  19.445  1.00  0.00     0.125 A 
ATOM      9  C   UNL     1      -1.035   0.595  18.130  1.00  0.00     0.078 A 
ATOM     10  C   UNL     1      -1.065   1.479  17.048  1.00  0.00     0.223 A 
ENDROOT
BRANCH   1  11
ATOM     11  C   UNL     1      -1.096   3.864  16.209  1.00  0.00     0.091 A 
ATOM     12  C   UNL     1      -1.067   3.475  14.860  1.00  0.00     0.068 A 
ATOM     13  C   UNL     1      -1.057   4.437  13.840  1.00  0.00     0.162 A 
ATOM     14  C   UNL     1      -1.079   5.231  16.526  1.00  0.00     0.068 A 
ATOM     15  C   UNL     1      -1.063   5.804  14.167  1.00  0.00     0.200 A 
ATOM     16  C   UNL     1      -1.071   6.198  15.516  1.00  0.00     0.162 A 
BRANCH  13  17
ATOM     17  O   UNL     1      -1.034   4.040  12.505  1.00  0.00    -0.504 OA
ATOM     18  H   UNL     1      -1.842   3.614  12.063  1.00  0.00     0.293 HD
ENDBRANCH  13  17
BRANCH  15  19
ATOM     19  O   UNL     1      -1.057   6.775  13.165  1.00  0.00    -0.502 OA
ATOM     20  H   UNL     1      -0.334   7.482  13.102  1.00  0.00     0.293 HD
ENDBRANCH  15  19
BRANCH  16  21
ATOM     21  O   UNL     1      -1.068   7.547  15.873  1.00  0.00    -0.504 OA
ATOM     22  H   UNL     1      -1.841   7.974  16.369  1.00  0.00     0.293 HD
ENDBRANCH  16  21
ENDBRANCH   1  11
BRANCH  10  23
ATOM     23  O   UNL     1      -1.104   0.988  15.743  1.00  0.00    -0.500 OA
ATOM     24  H   UNL     1      -0.675   1.489  14.973  1.00  0.00     0.294 HD
ENDBRANCH  10  23
BRANCH   5  25
ATOM     25  O   UNL     1      -1.123   2.800  23.290  1.00  0.00    -0.507 OA
ATOM     26  H   UNL     1      -1.775   2.484  24.000  1.00  0.00     0.293 HD
ENDBRANCH   5  25
BRANCH   7  27
ATOM     27  O   UNL     1      -0.973  -1.140  20.523  1.00  0.00    -0.507 OA
ATOM     28  H   UNL     1      -1.728  -1.753  20.798  1.00  0.00     0.293 HD
ENDBRANCH   7  27
TORSDOF 7
ENDMDL
MODEL 7
REMARK VINA RESULT:    -3.083      4.635      7.999
REMARK INTER + INTRA:          -4.181
REMARK INTER:                  -4.651
REMARK INTRA:                   0.470
REMARK UNBOUND:                -0.377
REMARK SMILES Oc1cc(O)c2cc(O)c(-c3cc(O)c(O)c(O)c3)[o+]c2c1
REMARK SMILES IDX 10 1 20 2 21 3 22 4 2 5 3 6 4 7 6 8 7 9 8 10 11 11 12 12
REMARK SMILES IDX 13 13 19 14 15 15 17 16 14 17 16 19 18 21 9 23 1 25 5 27
REMARK H PARENT 14 18 16 20 18 22 9 24 1 26 5 28
REMARK Flexibility Score: inf
ROOT
ATOM      1  C   UNL     1      -1.110   2.512  17.852  1.00  0.00     0.402 A 
ATOM      2  O   UNL     1      -1.109   3.838  17.733  1.00  0.00    -0.202 OA
ATOM      3  C   UNL     1      -1.105   4.465  16.563  1.00  0.00     0.368 A 
ATOM      4  C   UNL     1      -1.105   5.862  16.539  1.00  0.00     0.162 A 
ATOM      5  C   UNL     1      -1.105   6.548  15.324  1.00  0.00     0.128 A 
ATOM      6  C   UNL     1      -1.104   5.833  14.121  1.00  0.00     0.093 A 
ATOM      7  C   UNL     1      -1.103   4.433  14.117  1.00  0.00     0.136 A 
ATOM      8  C   UNL     1      -1.100   3.732  15.350  1.00  0.00     0.125 A 
ATOM      9  C   UNL     1      -1.087   2.331  15.443  1.00  0.00     0.078 A 
ATOM     10  C   UNL     1      -1.081   1.711  16.695  1.00  0.00     0.223 A 
ENDROOT
BRANCH   1  11
ATOM     11  C   UNL     1      -1.125   1.931  19.214  1.00  0.00     0.091 A 
ATOM     12  C   UNL     1      -1.097   2.746  20.358  1.00  0.00     0.068 A 
ATOM     13  C   UNL     1      -1.089   2.176  21.639  1.00  0.00     0.162 A 
ATOM     14  C   UNL     1      -1.108   0.536  19.369  1.00  0.00     0.068 A 
ATOM     15  C   UNL     1      -1.095   0.778  21.784  1.00  0.00     0.200 A 
ATOM     16  C   UNL     1      -1.102  -0.041  20.643  1.00  0.00     0.162 A 
BRANCH  13  17
ATOM     17  O   UNL     1      -1.068   2.994  22.767  1.00  0.00    -0.504 OA
ATOM     18  H   UNL     1      -1.504   3.909  22.768  1.00  0.00     0.293 HD
ENDBRANCH  13  17
BRANCH  15  19
ATOM     19  O   UNL     1      -1.092   0.194  23.052  1.00  0.00    -0.502 OA
ATOM     20  H   UNL     1      -0.279  -0.280  23.426  1.00  0.00     0.293 HD
ENDBRANCH  15  19
BRANCH  16  21
ATOM     21  O   UNL     1      -1.100  -1.432  20.753  1.00  0.00    -0.504 OA
ATOM     22  H   UNL     1      -1.924  -1.989  20.562  1.00  0.00     0.293 HD
ENDBRANCH  16  21
ENDBRANCH   1  11
BRANCH  10  23
ATOM     23  O   UNL     1      -1.016   0.320  16.789  1.00  0.00    -0.500 OA
ATOM     24  H   UNL     1      -1.363  -0.175  17.603  1.00  0.00     0.294 HD
ENDBRANCH  10  23
BRANCH   5  25
ATOM     25  O   UNL     1      -1.106   7.941  15.323  1.00  0.00    -0.507 OA
ATOM     26  H   UNL     1      -1.611   8.471  16.025  1.00  0.00     0.293 HD
ENDBRANCH   5  25
BRANCH   7  27
ATOM     27  O   UNL     1      -1.105   3.793  12.874  1.00  0.00    -0.507 OA
ATOM     28  H   UNL     1      -1.841   3.880  12.189  1.00  0.00     0.293 HD
ENDBRANCH   7  27
TORSDOF 7
ENDMDL
