MODEL 1
REMARK VINA RESULT:    -4.762      0.000      0.000
REMARK INTER + INTRA:          -5.725
REMARK INTER:                  -5.597
REMARK INTRA:                  -0.128
REMARK UNBOUND:                -0.128
REMARK SMILES O=C([O-])C=Cc1ccc(O)c(O)c1
REMARK SMILES IDX 6 1 13 2 7 3 11 4 8 5 9 6 5 7 4 8 2 9 1 10 3 11 12 12 10 14
REMARK H PARENT 12 13 10 15
REMARK Flexibility Score: inf
ROOT
ATOM      1  C   UNL     1      79.038  63.662   4.884  1.00  0.00    -0.022 A 
ATOM      2  C   UNL     1      80.321  63.907   4.367  1.00  0.00     0.058 A 
ATOM      3  C   UNL     1      77.952  64.415   4.396  1.00  0.00     0.012 A 
ATOM      4  C   UNL     1      80.528  64.898   3.400  1.00  0.00     0.157 A 
ATOM      5  C   UNL     1      78.156  65.404   3.429  1.00  0.00     0.051 A 
ATOM      6  C   UNL     1      79.441  65.652   2.930  1.00  0.00     0.157 A 
ENDROOT
BRANCH   1   7
ATOM      7  C   UNL     1      78.874  62.594   5.902  1.00  0.00     0.010 C 
ATOM      8  C   UNL     1      78.516  61.336   5.610  1.00  0.00     0.025 C 
BRANCH   8   9
ATOM      9  C   UNL     1      78.354  60.311   6.654  1.00  0.00     0.064 C 
ATOM     10  O   UNL     1      77.365  60.368   7.431  1.00  0.00    -0.545 OA
ATOM     11  O   UNL     1      79.273  59.278   6.795  1.00  0.00    -0.545 OA
ENDBRANCH   8   9
ENDBRANCH   1   7
BRANCH   4  12
ATOM     12  O   UNL     1      81.818  65.116   2.919  1.00  0.00    -0.504 OA
ATOM     13  H   UNL     1      82.346  64.393   2.445  1.00  0.00     0.293 HD
ENDBRANCH   4  12
BRANCH   6  14
ATOM     14  O   UNL     1      79.641  66.640   1.967  1.00  0.00    -0.504 OA
ATOM     15  H   UNL     1      79.983  67.561   2.216  1.00  0.00     0.293 HD
ENDBRANCH   6  14
TORSDOF 4
ENDMDL
MODEL 2
REMARK VINA RESULT:    -4.513      1.409      2.236
REMARK INTER + INTRA:          -5.432
REMARK INTER:                  -5.306
REMARK INTRA:                  -0.126
REMARK UNBOUND:                -0.128
REMARK SMILES O=C([O-])C=Cc1ccc(O)c(O)c1
REMARK SMILES IDX 6 1 13 2 7 3 11 4 8 5 9 6 5 7 4 8 2 9 1 10 3 11 12 12 10 14
REMARK H PARENT 12 13 10 15
REMARK Flexibility Score: inf
ROOT
ATOM      1  C   UNL     1      79.036  62.430   5.067  1.00  0.00    -0.022 A 
ATOM      2  C   UNL     1      78.204  63.555   5.191  1.00  0.00     0.058 A 
ATOM      3  C   UNL     1      80.291  62.577   4.444  1.00  0.00     0.012 A 
ATOM      4  C   UNL     1      78.599  64.799   4.684  1.00  0.00     0.157 A 
ATOM      5  C   UNL     1      80.687  63.818   3.938  1.00  0.00     0.051 A 
ATOM      6  C   UNL     1      79.845  64.931   4.051  1.00  0.00     0.157 A 
ENDROOT
BRANCH   1   7
ATOM      7  C   UNL     1      78.572  61.138   5.631  1.00  0.00     0.010 C 
ATOM      8  C   UNL     1      78.263  60.956   6.923  1.00  0.00     0.025 C 
BRANCH   8   9
ATOM      9  C   UNL     1      77.818  59.653   7.440  1.00  0.00     0.064 C 
ATOM     10  O   UNL     1      76.588  59.390   7.484  1.00  0.00    -0.545 OA
ATOM     11  O   UNL     1      78.734  58.703   7.877  1.00  0.00    -0.545 OA
ENDBRANCH   8   9
ENDBRANCH   1   7
BRANCH   4  12
ATOM     12  O   UNL     1      77.739  65.889   4.818  1.00  0.00    -0.504 OA
ATOM     13  H   UNL     1      77.540  66.516   4.048  1.00  0.00     0.293 HD
ENDBRANCH   4  12
BRANCH   6  14
ATOM     14  O   UNL     1      80.244  66.167   3.544  1.00  0.00    -0.504 OA
ATOM     15  H   UNL     1      81.133  66.285   3.074  1.00  0.00     0.293 HD
ENDBRANCH   6  14
TORSDOF 4
ENDMDL
MODEL 3
REMARK VINA RESULT:    -4.210      2.687      7.042
REMARK INTER + INTRA:          -5.076
REMARK INTER:                  -4.949
REMARK INTRA:                  -0.127
REMARK UNBOUND:                -0.128
REMARK SMILES O=C([O-])C=Cc1ccc(O)c(O)c1
REMARK SMILES IDX 6 1 13 2 7 3 11 4 8 5 9 6 5 7 4 8 2 9 1 10 3 11 12 12 10 14
REMARK H PARENT 12 13 10 15
REMARK Flexibility Score: inf
ROOT
ATOM      1  C   UNL     1      77.873  60.261   7.264  1.00  0.00    -0.022 A 
ATOM      2  C   UNL     1      78.567  60.188   8.483  1.00  0.00     0.058 A 
ATOM      3  C   UNL     1      76.606  59.652   7.164  1.00  0.00     0.012 A 
ATOM      4  C   UNL     1      78.025  59.501   9.577  1.00  0.00     0.157 A 
ATOM      5  C   UNL     1      76.064  58.967   8.255  1.00  0.00     0.051 A 
ATOM      6  C   UNL     1      76.769  58.885   9.462  1.00  0.00     0.157 A 
ENDROOT
BRANCH   1   7
ATOM      7  C   UNL     1      78.489  61.010   6.140  1.00  0.00     0.010 C 
ATOM      8  C   UNL     1      78.578  62.346   6.094  1.00  0.00     0.025 C 
BRANCH   8   9
ATOM      9  C   UNL     1      79.187  63.046   4.953  1.00  0.00     0.064 C 
ATOM     10  O   UNL     1      78.820  62.762   3.783  1.00  0.00    -0.545 OA
ATOM     11  O   UNL     1      80.160  64.022   5.144  1.00  0.00    -0.545 OA
ENDBRANCH   8   9
ENDBRANCH   1   7
BRANCH   4  12
ATOM     12  O   UNL     1      78.751  59.443  10.766  1.00  0.00    -0.504 OA
ATOM     13  H   UNL     1      79.763  59.479  10.782  1.00  0.00     0.293 HD
ENDBRANCH   4  12
BRANCH   6  14
ATOM     14  O   UNL     1      76.225  58.200  10.548  1.00  0.00    -0.504 OA
ATOM     15  H   UNL     1      76.813  57.727  11.224  1.00  0.00     0.293 HD
ENDBRANCH   6  14
TORSDOF 4
ENDMDL
MODEL 4
REMARK VINA RESULT:    -4.166      2.752      7.299
REMARK INTER + INTRA:          -5.024
REMARK INTER:                  -4.898
REMARK INTRA:                  -0.126
REMARK UNBOUND:                -0.128
REMARK SMILES O=C([O-])C=Cc1ccc(O)c(O)c1
REMARK SMILES IDX 6 1 13 2 7 3 11 4 8 5 9 6 5 7 4 8 2 9 1 10 3 11 12 12 10 14
REMARK H PARENT 12 13 10 15
REMARK Flexibility Score: inf
ROOT
ATOM      1  C   UNL     1      77.928  59.946   7.056  1.00  0.00    -0.022 A 
ATOM      2  C   UNL     1      76.528  59.878   7.151  1.00  0.00     0.058 A 
ATOM      3  C   UNL     1      78.708  59.152   7.920  1.00  0.00     0.012 A 
ATOM      4  C   UNL     1      75.913  59.056   8.103  1.00  0.00     0.157 A 
ATOM      5  C   UNL     1      78.096  58.331   8.870  1.00  0.00     0.051 A 
ATOM      6  C   UNL     1      76.700  58.281   8.969  1.00  0.00     0.157 A 
ENDROOT
BRANCH   1   7
ATOM      7  C   UNL     1      78.527  60.826   6.022  1.00  0.00     0.010 C 
ATOM      8  C   UNL     1      78.553  62.164   6.105  1.00  0.00     0.025 C 
BRANCH   8   9
ATOM      9  C   UNL     1      79.148  62.997   5.049  1.00  0.00     0.064 C 
ATOM     10  O   UNL     1      78.783  62.841   3.855  1.00  0.00    -0.545 OA
ATOM     11  O   UNL     1      80.107  63.959   5.348  1.00  0.00    -0.545 OA
ENDBRANCH   8   9
ENDBRANCH   1   7
BRANCH   4  12
ATOM     12  O   UNL     1      74.520  59.025   8.172  1.00  0.00    -0.504 OA
ATOM     13  H   UNL     1      73.980  58.252   7.803  1.00  0.00     0.293 HD
ENDBRANCH   4  12
BRANCH   6  14
ATOM     14  O   UNL     1      76.092  57.461   9.920  1.00  0.00    -0.504 OA
ATOM     15  H   UNL     1      76.151  57.665  10.910  1.00  0.00     0.293 HD
ENDBRANCH   6  14
TORSDOF 4
ENDMDL
MODEL 5
REMARK VINA RESULT:    -4.149      7.269     11.324
REMARK INTER + INTRA:          -5.004
REMARK INTER:                  -4.878
REMARK INTRA:                  -0.126
REMARK UNBOUND:                -0.128
REMARK SMILES O=C([O-])C=Cc1ccc(O)c(O)c1
REMARK SMILES IDX 6 1 13 2 7 3 11 4 8 5 9 6 5 7 4 8 2 9 1 10 3 11 12 12 10 14
REMARK H PARENT 12 13 10 15
REMARK Flexibility Score: inf
ROOT
ATOM      1  C   UNL     1      72.913  57.476  10.133  1.00  0.00    -0.022 A 
ATOM      2  C   UNL     1      71.708  57.381   9.419  1.00  0.00     0.058 A 
ATOM      3  C   UNL     1      72.880  57.391  11.539  1.00  0.00     0.012 A 
ATOM      4  C   UNL     1      70.487  57.229  10.088  1.00  0.00     0.157 A 
ATOM      5  C   UNL     1      71.663  57.238  12.209  1.00  0.00     0.051 A 
ATOM      6  C   UNL     1      70.464  57.160  11.490  1.00  0.00     0.157 A 
ENDROOT
BRANCH   1   7
ATOM      7  C   UNL     1      74.180  57.627   9.373  1.00  0.00     0.010 C 
ATOM      8  C   UNL     1      74.674  58.807   8.976  1.00  0.00     0.025 C 
BRANCH   8   9
ATOM      9  C   UNL     1      75.929  58.908   8.213  1.00  0.00     0.064 C 
ATOM     10  O   UNL     1      75.981  59.651   7.199  1.00  0.00    -0.545 OA
ATOM     11  O   UNL     1      77.061  58.198   8.597  1.00  0.00    -0.545 OA
ENDBRANCH   8   9
ENDBRANCH   1   7
BRANCH   4  12
ATOM     12  O   UNL     1      69.312  57.149   9.342  1.00  0.00    -0.504 OA
ATOM     13  H   UNL     1      69.077  57.832   8.631  1.00  0.00     0.293 HD
ENDBRANCH   4  12
BRANCH   6  14
ATOM     14  O   UNL     1      69.251  57.009  12.161  1.00  0.00    -0.504 OA
ATOM     15  H   UNL     1      68.365  57.172  11.697  1.00  0.00     0.293 HD
ENDBRANCH   6  14
TORSDOF 4
ENDMDL
MODEL 6
REMARK VINA RESULT:    -4.142      9.213     11.081
REMARK INTER + INTRA:          -4.996
REMARK INTER:                  -4.868
REMARK INTRA:                  -0.128
REMARK UNBOUND:                -0.128
REMARK SMILES O=C([O-])C=Cc1ccc(O)c(O)c1
REMARK SMILES IDX 6 1 13 2 7 3 11 4 8 5 9 6 5 7 4 8 2 9 1 10 3 11 12 12 10 14
REMARK H PARENT 12 13 10 15
REMARK Flexibility Score: inf
ROOT
ATOM      1  C   UNL     1      72.925  57.579  10.615  1.00  0.00    -0.022 A 
ATOM      2  C   UNL     1      72.597  57.646   9.252  1.00  0.00     0.058 A 
ATOM      3  C   UNL     1      71.917  57.250  11.543  1.00  0.00     0.012 A 
ATOM      4  C   UNL     1      71.285  57.416   8.817  1.00  0.00     0.157 A 
ATOM      5  C   UNL     1      70.608  57.020  11.112  1.00  0.00     0.051 A 
ATOM      6  C   UNL     1      70.285  57.105   9.752  1.00  0.00     0.157 A 
ENDROOT
BRANCH   1   7
ATOM      7  C   UNL     1      74.333  57.822  11.020  1.00  0.00     0.010 C 
ATOM      8  C   UNL     1      74.797  59.012  11.426  1.00  0.00     0.025 C 
BRANCH   8   9
ATOM      9  C   UNL     1      76.204  59.209  11.806  1.00  0.00     0.064 C 
ATOM     10  O   UNL     1      76.546  60.268  12.394  1.00  0.00    -0.545 OA
ATOM     11  O   UNL     1      77.165  58.241  11.531  1.00  0.00    -0.545 OA
ENDBRANCH   8   9
ENDBRANCH   1   7
BRANCH   4  12
ATOM     12  O   UNL     1      70.998  57.503   7.455  1.00  0.00    -0.504 OA
ATOM     13  H   UNL     1      71.634  57.937   6.798  1.00  0.00     0.293 HD
ENDBRANCH   4  12
BRANCH   6  14
ATOM     14  O   UNL     1      68.977  56.875   9.325  1.00  0.00    -0.504 OA
ATOM     15  H   UNL     1      68.427  57.605   8.890  1.00  0.00     0.293 HD
ENDBRANCH   6  14
TORSDOF 4
ENDMDL
MODEL 7
REMARK VINA RESULT:    -4.102      9.376     11.455
REMARK INTER + INTRA:          -4.950
REMARK INTER:                  -4.821
REMARK INTRA:                  -0.128
REMARK UNBOUND:                -0.128
REMARK SMILES O=C([O-])C=Cc1ccc(O)c(O)c1
REMARK SMILES IDX 6 1 13 2 7 3 11 4 8 5 9 6 5 7 4 8 2 9 1 10 3 11 12 12 10 14
REMARK H PARENT 12 13 10 15
REMARK Flexibility Score: inf
ROOT
ATOM      1  C   UNL     1      72.868  57.612  10.406  1.00  0.00    -0.022 A 
ATOM      2  C   UNL     1      71.873  57.482  11.389  1.00  0.00     0.058 A 
ATOM      3  C   UNL     1      72.499  57.525   9.050  1.00  0.00     0.012 A 
ATOM      4  C   UNL     1      70.540  57.246  11.034  1.00  0.00     0.157 A 
ATOM      5  C   UNL     1      71.168  57.290   8.693  1.00  0.00     0.051 A 
ATOM      6  C   UNL     1      70.185  57.146   9.680  1.00  0.00     0.157 A 
ENDROOT
BRANCH   1   7
ATOM      7  C   UNL     1      74.264  57.872  10.838  1.00  0.00     0.010 C 
ATOM      8  C   UNL     1      74.639  58.952  11.537  1.00  0.00     0.025 C 
BRANCH   8   9
ATOM      9  C   UNL     1      76.039  59.174  11.934  1.00  0.00     0.064 C 
ATOM     10  O   UNL     1      76.364  60.258  12.484  1.00  0.00    -0.545 OA
ATOM     11  O   UNL     1      77.010  58.202  11.715  1.00  0.00    -0.545 OA
ENDBRANCH   8   9
ENDBRANCH   1   7
BRANCH   4  12
ATOM     12  O   UNL     1      69.584  57.112  12.042  1.00  0.00    -0.504 OA
ATOM     13  H   UNL     1      68.992  56.294  12.117  1.00  0.00     0.293 HD
ENDBRANCH   4  12
BRANCH   6  14
ATOM     14  O   UNL     1      68.859  56.910   9.320  1.00  0.00    -0.504 OA
ATOM     15  H   UNL     1      68.265  57.652   8.969  1.00  0.00     0.293 HD
ENDBRANCH   6  14
TORSDOF 4
ENDMDL
MODEL 8
REMARK VINA RESULT:    -3.926      7.190     11.369
REMARK INTER + INTRA:          -4.742
REMARK INTER:                  -4.601
REMARK INTRA:                  -0.141
REMARK UNBOUND:                -0.128
REMARK SMILES O=C([O-])C=Cc1ccc(O)c(O)c1
REMARK SMILES IDX 6 1 13 2 7 3 11 4 8 5 9 6 5 7 4 8 2 9 1 10 3 11 12 12 10 14
REMARK H PARENT 12 13 10 15
REMARK Flexibility Score: inf
ROOT
ATOM      1  C   UNL     1      73.577  57.938  11.034  1.00  0.00    -0.022 A 
ATOM      2  C   UNL     1      73.670  57.924  12.435  1.00  0.00     0.058 A 
ATOM      3  C   UNL     1      72.347  57.613  10.430  1.00  0.00     0.012 A 
ATOM      4  C   UNL     1      72.568  57.568  13.224  1.00  0.00     0.157 A 
ATOM      5  C   UNL     1      71.246  57.259  11.215  1.00  0.00     0.051 A 
ATOM      6  C   UNL     1      71.351  57.231  12.611  1.00  0.00     0.157 A 
ENDROOT
BRANCH   1   7
ATOM      7  C   UNL     1      74.773  58.332  10.248  1.00  0.00     0.010 C 
ATOM      8  C   UNL     1      74.727  58.722   8.966  1.00  0.00     0.025 C 
BRANCH   8   9
ATOM      9  C   UNL     1      75.941  59.092   8.222  1.00  0.00     0.064 C 
ATOM     10  O   UNL     1      77.061  59.038   8.795  1.00  0.00    -0.545 OA
ATOM     11  O   UNL     1      75.874  59.496   6.893  1.00  0.00    -0.545 OA
ENDBRANCH   8   9
ENDBRANCH   1   7
BRANCH   4  12
ATOM     12  O   UNL     1      72.705  57.556  14.612  1.00  0.00    -0.504 OA
ATOM     13  H   UNL     1      71.915  57.689  15.231  1.00  0.00     0.293 HD
ENDBRANCH   4  12
BRANCH   6  14
ATOM     14  O   UNL     1      70.251  56.876  13.391  1.00  0.00    -0.504 OA
ATOM     15  H   UNL     1      69.353  57.332  13.279  1.00  0.00     0.293 HD
ENDBRANCH   6  14
TORSDOF 4
ENDMDL
MODEL 9
REMARK VINA RESULT:    -3.893      5.682      8.055
REMARK INTER + INTRA:          -4.703
REMARK INTER:                  -4.561
REMARK INTRA:                  -0.142
REMARK UNBOUND:                -0.128
REMARK SMILES O=C([O-])C=Cc1ccc(O)c(O)c1
REMARK SMILES IDX 6 1 13 2 7 3 11 4 8 5 9 6 5 7 4 8 2 9 1 10 3 11 12 12 10 14
REMARK H PARENT 12 13 10 15
REMARK Flexibility Score: inf
ROOT
ATOM      1  C   UNL     1      75.458  58.697   8.970  1.00  0.00    -0.022 A 
ATOM      2  C   UNL     1      76.007  59.290   7.821  1.00  0.00     0.058 A 
ATOM      3  C   UNL     1      76.270  58.546  10.112  1.00  0.00     0.012 A 
ATOM      4  C   UNL     1      77.345  59.702   7.796  1.00  0.00     0.157 A 
ATOM      5  C   UNL     1      77.605  58.958  10.089  1.00  0.00     0.051 A 
ATOM      6  C   UNL     1      78.149  59.533   8.934  1.00  0.00     0.157 A 
ENDROOT
BRANCH   1   7
ATOM      7  C   UNL     1      74.032  58.287   8.945  1.00  0.00     0.010 C 
ATOM      8  C   UNL     1      73.337  57.940  10.037  1.00  0.00     0.025 C 
BRANCH   8   9
ATOM      9  C   UNL     1      71.927  57.528   9.963  1.00  0.00     0.064 C 
ATOM     10  O   UNL     1      71.346  57.501   8.846  1.00  0.00    -0.545 OA
ATOM     11  O   UNL     1      71.224  57.163  11.106  1.00  0.00    -0.545 OA
ENDBRANCH   8   9
ENDBRANCH   1   7
BRANCH   4  12
ATOM     12  O   UNL     1      77.855  60.277   6.632  1.00  0.00    -0.504 OA
ATOM     13  H   UNL     1      78.645  60.910   6.645  1.00  0.00     0.293 HD
ENDBRANCH   4  12
BRANCH   6  14
ATOM     14  O   UNL     1      79.482  59.942   8.915  1.00  0.00    -0.504 OA
ATOM     15  H   UNL     1      79.875  60.503   9.662  1.00  0.00     0.293 HD
ENDBRANCH   6  14
TORSDOF 4
ENDMDL
