MODEL 1
REMARK VINA RESULT:    -5.814      0.000      0.000
REMARK INTER + INTRA:          -7.186
REMARK INTER:                  -7.003
REMARK INTRA:                  -0.183
REMARK UNBOUND:                -0.183
REMARK SMILES O=c1c(O)c(-c2ccc(O)c(O)c2)oc2cc(O)cc(O)c12
REMARK SMILES IDX 5 1 3 2 2 3 1 4 22 5 20 6 19 7 17 8 16 9 15 10 14 11 6 12
REMARK SMILES IDX 7 13 8 14 9 15 13 16 11 17 10 18 12 20 4 22 21 24 18 26
REMARK H PARENT 10 19 12 21 4 23 21 25 18 27
REMARK Flexibility Score: inf
ROOT
ATOM      1  C   UNL     1       5.887 -17.173  14.355  1.00  0.00     0.180 A 
ATOM      2  C   UNL     1       6.748 -16.064  14.403  1.00  0.00     0.208 A 
ATOM      3  C   UNL     1       6.201 -14.787  14.609  1.00  0.00     0.238 A 
ATOM      4  O   UNL     1       6.984 -13.807  14.726  1.00  0.00    -0.285 OA
ATOM      5  C   UNL     1       4.798 -14.628  14.708  1.00  0.00     0.111 A 
ATOM      6  C   UNL     1       4.131 -13.375  14.871  1.00  0.00     0.134 A 
ATOM      7  C   UNL     1       2.744 -13.351  15.063  1.00  0.00     0.093 A 
ATOM      8  C   UNL     1       1.992 -14.528  15.034  1.00  0.00     0.123 A 
ATOM      9  C   UNL     1       2.626 -15.749  14.820  1.00  0.00     0.094 A 
ATOM     10  C   UNL     1       4.013 -15.810  14.663  1.00  0.00     0.146 A 
ATOM     11  O   UNL     1       4.578 -16.998  14.484  1.00  0.00    -0.452 OA
ENDROOT
BRANCH   1  12
ATOM     12  C   UNL     1       6.390 -18.552  14.158  1.00  0.00     0.025 A 
ATOM     13  C   UNL     1       6.266 -19.528  15.162  1.00  0.00     0.016 A 
ATOM     14  C   UNL     1       6.726 -20.830  14.943  1.00  0.00     0.051 A 
ATOM     15  C   UNL     1       7.304 -21.178  13.715  1.00  0.00     0.157 A 
ATOM     16  C   UNL     1       6.949 -18.913  12.921  1.00  0.00     0.062 A 
ATOM     17  C   UNL     1       7.412 -20.214  12.699  1.00  0.00     0.158 A 
BRANCH  15  18
ATOM     18  O   UNL     1       7.763 -22.476  13.500  1.00  0.00    -0.504 OA
ATOM     19  H   UNL     1       7.377 -23.267  14.003  1.00  0.00     0.293 HD
ENDBRANCH  15  18
BRANCH  17  20
ATOM     20  O   UNL     1       7.975 -20.531  11.462  1.00  0.00    -0.504 OA
ATOM     21  H   UNL     1       7.848 -19.943  10.647  1.00  0.00     0.293 HD
ENDBRANCH  17  20
ENDBRANCH   1  12
BRANCH   2  22
ATOM     22  O   UNL     1       8.125 -16.232  14.228  1.00  0.00    -0.502 OA
ATOM     23  H   UNL     1       8.523 -17.071  13.824  1.00  0.00     0.293 HD
ENDBRANCH   2  22
BRANCH   6  24
ATOM     24  O   UNL     1       4.774 -12.134  14.827  1.00  0.00    -0.507 OA
ATOM     25  H   UNL     1       4.911 -11.584  13.994  1.00  0.00     0.293 HD
ENDBRANCH   6  24
BRANCH   8  26
ATOM     26  O   UNL     1       0.610 -14.492  15.209  1.00  0.00    -0.508 OA
ATOM     27  H   UNL     1       0.026 -15.285  14.972  1.00  0.00     0.293 HD
ENDBRANCH   8  26
TORSDOF 6
ENDMDL
MODEL 2
REMARK VINA RESULT:    -5.524      1.714      7.127
REMARK INTER + INTRA:          -6.836
REMARK INTER:                  -6.539
REMARK INTRA:                  -0.297
REMARK UNBOUND:                -0.183
REMARK SMILES O=c1c(O)c(-c2ccc(O)c(O)c2)oc2cc(O)cc(O)c12
REMARK SMILES IDX 5 1 3 2 2 3 1 4 22 5 20 6 19 7 17 8 16 9 15 10 14 11 6 12
REMARK SMILES IDX 7 13 8 14 9 15 13 16 11 17 10 18 12 20 4 22 21 24 18 26
REMARK H PARENT 10 19 12 21 4 23 21 25 18 27
REMARK Flexibility Score: inf
ROOT
ATOM      1  C   UNL     1       4.940 -17.191  15.525  1.00  0.00     0.180 A 
ATOM      2  C   UNL     1       5.041 -18.012  16.661  1.00  0.00     0.208 A 
ATOM      3  C   UNL     1       5.759 -19.215  16.569  1.00  0.00     0.238 A 
ATOM      4  O   UNL     1       5.909 -19.909  17.609  1.00  0.00    -0.285 OA
ATOM      5  C   UNL     1       6.318 -19.611  15.330  1.00  0.00     0.111 A 
ATOM      6  C   UNL     1       7.026 -20.831  15.110  1.00  0.00     0.134 A 
ATOM      7  C   UNL     1       7.627 -21.066  13.867  1.00  0.00     0.093 A 
ATOM      8  C   UNL     1       7.491 -20.156  12.816  1.00  0.00     0.123 A 
ATOM      9  C   UNL     1       6.754 -18.989  13.004  1.00  0.00     0.094 A 
ATOM     10  C   UNL     1       6.176 -18.707  14.243  1.00  0.00     0.146 A 
ATOM     11  O   UNL     1       5.502 -17.572  14.385  1.00  0.00    -0.452 OA
ENDROOT
BRANCH   1  12
ATOM     12  C   UNL     1       4.213 -15.901  15.547  1.00  0.00     0.025 A 
ATOM     13  C   UNL     1       4.785 -14.748  16.113  1.00  0.00     0.016 A 
ATOM     14  C   UNL     1       4.089 -13.536  16.100  1.00  0.00     0.051 A 
ATOM     15  C   UNL     1       2.820 -13.455  15.513  1.00  0.00     0.157 A 
ATOM     16  C   UNL     1       2.950 -15.809  14.940  1.00  0.00     0.062 A 
ATOM     17  C   UNL     1       2.250 -14.597  14.927  1.00  0.00     0.158 A 
BRANCH  15  18
ATOM     18  O   UNL     1       2.129 -12.245  15.504  1.00  0.00    -0.504 OA
ATOM     19  H   UNL     1       1.624 -11.915  16.319  1.00  0.00     0.293 HD
ENDBRANCH  15  18
BRANCH  17  20
ATOM     20  O   UNL     1       0.992 -14.548  14.327  1.00  0.00    -0.504 OA
ATOM     21  H   UNL     1       0.357 -15.337  14.345  1.00  0.00     0.293 HD
ENDBRANCH  17  20
ENDBRANCH   1  12
BRANCH   2  22
ATOM     22  O   UNL     1       4.418 -17.641  17.856  1.00  0.00    -0.502 OA
ATOM     23  H   UNL     1       4.631 -18.086  18.741  1.00  0.00     0.293 HD
ENDBRANCH   2  22
BRANCH   6  24
ATOM     24  O   UNL     1       7.148 -21.848  16.061  1.00  0.00    -0.507 OA
ATOM     25  H   UNL     1       6.809 -21.796  17.009  1.00  0.00     0.293 HD
ENDBRANCH   6  24
BRANCH   8  26
ATOM     26  O   UNL     1       8.077 -20.406  11.578  1.00  0.00    -0.508 OA
ATOM     27  H   UNL     1       7.603 -20.951  10.867  1.00  0.00     0.293 HD
ENDBRANCH   8  26
TORSDOF 6
ENDMDL
MODEL 3
REMARK VINA RESULT:    -5.443      2.316      7.167
REMARK INTER + INTRA:          -6.740
REMARK INTER:                  -6.525
REMARK INTRA:                  -0.215
REMARK UNBOUND:                -0.183
REMARK SMILES O=c1c(O)c(-c2ccc(O)c(O)c2)oc2cc(O)cc(O)c12
REMARK SMILES IDX 5 1 3 2 2 3 1 4 22 5 20 6 19 7 17 8 16 9 15 10 14 11 6 12
REMARK SMILES IDX 7 13 8 14 9 15 13 16 11 17 10 18 12 20 4 22 21 24 18 26
REMARK H PARENT 10 19 12 21 4 23 21 25 18 27
REMARK Flexibility Score: inf
ROOT
ATOM      1  C   UNL     1       4.988 -17.218  15.646  1.00  0.00     0.180 A 
ATOM      2  C   UNL     1       5.105 -18.091  14.552  1.00  0.00     0.208 A 
ATOM      3  C   UNL     1       5.807 -19.296  14.714  1.00  0.00     0.238 A 
ATOM      4  O   UNL     1       5.844 -20.108  13.752  1.00  0.00    -0.285 OA
ATOM      5  C   UNL     1       6.431 -19.588  15.952  1.00  0.00     0.111 A 
ATOM      6  C   UNL     1       7.207 -20.758  16.215  1.00  0.00     0.134 A 
ATOM      7  C   UNL     1       7.687 -20.990  17.510  1.00  0.00     0.093 A 
ATOM      8  C   UNL     1       7.475 -20.065  18.535  1.00  0.00     0.123 A 
ATOM      9  C   UNL     1       6.768 -18.894  18.273  1.00  0.00     0.094 A 
ATOM     10  C   UNL     1       6.242 -18.651  17.003  1.00  0.00     0.146 A 
ATOM     11  O   UNL     1       5.555 -17.533  16.804  1.00  0.00    -0.452 OA
ENDROOT
BRANCH   1  12
ATOM     12  C   UNL     1       4.250 -15.937  15.557  1.00  0.00     0.025 A 
ATOM     13  C   UNL     1       4.924 -14.703  15.541  1.00  0.00     0.016 A 
ATOM     14  C   UNL     1       4.207 -13.508  15.432  1.00  0.00     0.051 A 
ATOM     15  C   UNL     1       2.810 -13.529  15.325  1.00  0.00     0.157 A 
ATOM     16  C   UNL     1       2.852 -15.953  15.427  1.00  0.00     0.062 A 
ATOM     17  C   UNL     1       2.131 -14.759  15.319  1.00  0.00     0.158 A 
BRANCH  15  18
ATOM     18  O   UNL     1       2.098 -12.336  15.218  1.00  0.00    -0.504 OA
ATOM     19  H   UNL     1       2.097 -11.792  14.363  1.00  0.00     0.293 HD
ENDBRANCH  15  18
BRANCH  17  20
ATOM     20  O   UNL     1       0.742 -14.814  15.205  1.00  0.00    -0.504 OA
ATOM     21  H   UNL     1       0.145 -15.009  16.000  1.00  0.00     0.293 HD
ENDBRANCH  17  20
ENDBRANCH   1  12
BRANCH   2  22
ATOM     22  O   UNL     1       4.547 -17.751  13.316  1.00  0.00    -0.502 OA
ATOM     23  H   UNL     1       3.632 -18.074  13.026  1.00  0.00     0.293 HD
ENDBRANCH   2  22
BRANCH   6  24
ATOM     24  O   UNL     1       7.553 -21.703  15.245  1.00  0.00    -0.507 OA
ATOM     25  H   UNL     1       8.490 -21.882  14.922  1.00  0.00     0.293 HD
ENDBRANCH   6  24
BRANCH   8  26
ATOM     26  O   UNL     1       7.972 -20.296  19.816  1.00  0.00    -0.508 OA
ATOM     27  H   UNL     1       8.243 -19.533  20.425  1.00  0.00     0.293 HD
ENDBRANCH   8  26
TORSDOF 6
ENDMDL
MODEL 4
REMARK VINA RESULT:    -5.402      3.859      6.635
REMARK INTER + INTRA:          -6.690
REMARK INTER:                  -6.443
REMARK INTRA:                  -0.247
REMARK UNBOUND:                -0.183
REMARK SMILES O=c1c(O)c(-c2ccc(O)c(O)c2)oc2cc(O)cc(O)c12
REMARK SMILES IDX 5 1 3 2 2 3 1 4 22 5 20 6 19 7 17 8 16 9 15 10 14 11 6 12
REMARK SMILES IDX 7 13 8 14 9 15 13 16 11 17 10 18 12 20 4 22 21 24 18 26
REMARK H PARENT 10 19 12 21 4 23 21 25 18 27
REMARK Flexibility Score: inf
ROOT
ATOM      1  C   UNL     1       5.371 -11.962  14.327  1.00  0.00     0.180 A 
ATOM      2  C   UNL     1       5.140 -10.993  15.318  1.00  0.00     0.208 A 
ATOM      3  C   UNL     1       5.569  -9.675  15.094  1.00  0.00     0.238 A 
ATOM      4  O   UNL     1       5.292  -8.797  15.953  1.00  0.00    -0.285 OA
ATOM      5  C   UNL     1       6.273  -9.354  13.908  1.00  0.00     0.111 A 
ATOM      6  C   UNL     1       6.795  -8.061  13.598  1.00  0.00     0.134 A 
ATOM      7  C   UNL     1       7.382  -7.836  12.346  1.00  0.00     0.093 A 
ATOM      8  C   UNL     1       7.524  -8.872  11.420  1.00  0.00     0.123 A 
ATOM      9  C   UNL     1       7.069 -10.149  11.736  1.00  0.00     0.094 A 
ATOM     10  C   UNL     1       6.444 -10.397  12.960  1.00  0.00     0.146 A 
ATOM     11  O   UNL     1       6.005 -11.624  13.211  1.00  0.00    -0.452 OA
ENDROOT
BRANCH   1  12
ATOM     12  C   UNL     1       4.935 -13.368  14.483  1.00  0.00     0.025 A 
ATOM     13  C   UNL     1       5.852 -14.392  14.780  1.00  0.00     0.016 A 
ATOM     14  C   UNL     1       5.412 -15.708  14.946  1.00  0.00     0.051 A 
ATOM     15  C   UNL     1       4.051 -16.019  14.830  1.00  0.00     0.157 A 
ATOM     16  C   UNL     1       3.569 -13.682  14.390  1.00  0.00     0.062 A 
ATOM     17  C   UNL     1       3.126 -14.999  14.554  1.00  0.00     0.158 A 
BRANCH  15  18
ATOM     18  O   UNL     1       3.617 -17.333  14.994  1.00  0.00    -0.504 OA
ATOM     19  H   UNL     1       2.794 -17.684  14.518  1.00  0.00     0.293 HD
ENDBRANCH  15  18
BRANCH  17  20
ATOM     20  O   UNL     1       1.763 -15.274  14.441  1.00  0.00    -0.504 OA
ATOM     21  H   UNL     1       1.186 -14.851  13.724  1.00  0.00     0.293 HD
ENDBRANCH  17  20
ENDBRANCH   1  12
BRANCH   2  22
ATOM     22  O   UNL     1       4.510 -11.346  16.515  1.00  0.00    -0.502 OA
ATOM     23  H   UNL     1       3.857 -12.118  16.578  1.00  0.00     0.293 HD
ENDBRANCH   2  22
BRANCH   6  24
ATOM     24  O   UNL     1       6.785  -6.979  14.483  1.00  0.00    -0.507 OA
ATOM     25  H   UNL     1       6.804  -6.009  14.210  1.00  0.00     0.293 HD
ENDBRANCH   6  24
BRANCH   8  26
ATOM     26  O   UNL     1       8.125  -8.642  10.184  1.00  0.00    -0.508 OA
ATOM     27  H   UNL     1       7.657  -8.114   9.458  1.00  0.00     0.293 HD
ENDBRANCH   8  26
TORSDOF 6
ENDMDL
MODEL 5
REMARK VINA RESULT:    -5.364      3.707      7.398
REMARK INTER + INTRA:          -6.644
REMARK INTER:                  -6.321
REMARK INTRA:                  -0.323
REMARK UNBOUND:                -0.183
REMARK SMILES O=c1c(O)c(-c2ccc(O)c(O)c2)oc2cc(O)cc(O)c12
REMARK SMILES IDX 5 1 3 2 2 3 1 4 22 5 20 6 19 7 17 8 16 9 15 10 14 11 6 12
REMARK SMILES IDX 7 13 8 14 9 15 13 16 11 17 10 18 12 20 4 22 21 24 18 26
REMARK H PARENT 10 19 12 21 4 23 21 25 18 27
REMARK Flexibility Score: inf
ROOT
ATOM      1  C   UNL     1       5.837 -11.906  14.432  1.00  0.00     0.180 A 
ATOM      2  C   UNL     1       6.787 -12.788  14.973  1.00  0.00     0.208 A 
ATOM      3  C   UNL     1       6.368 -14.055  15.411  1.00  0.00     0.238 A 
ATOM      4  O   UNL     1       7.236 -14.868  15.824  1.00  0.00    -0.285 OA
ATOM      5  C   UNL     1       4.997 -14.403  15.354  1.00  0.00     0.111 A 
ATOM      6  C   UNL     1       4.453 -15.641  15.812  1.00  0.00     0.134 A 
ATOM      7  C   UNL     1       3.095 -15.917  15.608  1.00  0.00     0.093 A 
ATOM      8  C   UNL     1       2.249 -14.974  15.021  1.00  0.00     0.123 A 
ATOM      9  C   UNL     1       2.759 -13.740  14.622  1.00  0.00     0.094 A 
ATOM     10  C   UNL     1       4.116 -13.450  14.776  1.00  0.00     0.146 A 
ATOM     11  O   UNL     1       4.563 -12.272  14.361  1.00  0.00    -0.452 OA
ENDROOT
BRANCH   1  12
ATOM     12  C   UNL     1       6.204 -10.560  13.935  1.00  0.00     0.025 A 
ATOM     13  C   UNL     1       6.237  -9.446  14.793  1.00  0.00     0.016 A 
ATOM     14  C   UNL     1       6.610  -8.191  14.305  1.00  0.00     0.051 A 
ATOM     15  C   UNL     1       6.967  -8.031  12.960  1.00  0.00     0.157 A 
ATOM     16  C   UNL     1       6.584 -10.399  12.593  1.00  0.00     0.062 A 
ATOM     17  C   UNL     1       6.957  -9.143  12.101  1.00  0.00     0.158 A 
BRANCH  15  18
ATOM     18  O   UNL     1       7.336  -6.777  12.477  1.00  0.00    -0.504 OA
ATOM     19  H   UNL     1       7.835  -6.110  13.055  1.00  0.00     0.293 HD
ENDBRANCH  15  18
BRANCH  17  20
ATOM     20  O   UNL     1       7.314  -9.020  10.759  1.00  0.00    -0.504 OA
ATOM     21  H   UNL     1       7.498  -9.827  10.175  1.00  0.00     0.293 HD
ENDBRANCH  17  20
ENDBRANCH   1  12
BRANCH   2  22
ATOM     22  O   UNL     1       8.125 -12.398  15.090  1.00  0.00    -0.502 OA
ATOM     23  H   UNL     1       8.425 -11.440  14.958  1.00  0.00     0.293 HD
ENDBRANCH   2  22
BRANCH   6  24
ATOM     24  O   UNL     1       5.190 -16.617  16.490  1.00  0.00    -0.507 OA
ATOM     25  H   UNL     1       5.223 -16.725  17.491  1.00  0.00     0.293 HD
ENDBRANCH   6  24
BRANCH   8  26
ATOM     26  O   UNL     1       0.896 -15.249  14.838  1.00  0.00    -0.508 OA
ATOM     27  H   UNL     1       0.297 -14.633  14.301  1.00  0.00     0.293 HD
ENDBRANCH   8  26
TORSDOF 6
ENDMDL
MODEL 6
REMARK VINA RESULT:    -5.345      3.597      6.152
REMARK INTER + INTRA:          -6.622
REMARK INTER:                  -6.347
REMARK INTRA:                  -0.274
REMARK UNBOUND:                -0.183
REMARK SMILES O=c1c(O)c(-c2ccc(O)c(O)c2)oc2cc(O)cc(O)c12
REMARK SMILES IDX 5 1 3 2 2 3 1 4 22 5 20 6 19 7 17 8 16 9 15 10 14 11 6 12
REMARK SMILES IDX 7 13 8 14 9 15 13 16 11 17 10 18 12 20 4 22 21 24 18 26
REMARK H PARENT 10 19 12 21 4 23 21 25 18 27
REMARK Flexibility Score: inf
ROOT
ATOM      1  C   UNL     1       5.225 -12.312  14.504  1.00  0.00     0.180 A 
ATOM      2  C   UNL     1       4.844 -11.355  15.459  1.00  0.00     0.208 A 
ATOM      3  C   UNL     1       5.206 -10.014  15.260  1.00  0.00     0.238 A 
ATOM      4  O   UNL     1       4.797  -9.150  16.080  1.00  0.00    -0.285 OA
ATOM      5  C   UNL     1       5.993  -9.654  14.139  1.00  0.00     0.111 A 
ATOM      6  C   UNL     1       6.457  -8.332  13.862  1.00  0.00     0.134 A 
ATOM      7  C   UNL     1       7.139  -8.076  12.666  1.00  0.00     0.093 A 
ATOM      8  C   UNL     1       7.430  -9.106  11.768  1.00  0.00     0.123 A 
ATOM      9  C   UNL     1       7.031 -10.408  12.056  1.00  0.00     0.094 A 
ATOM     10  C   UNL     1       6.315 -10.689  13.222  1.00  0.00     0.146 A 
ATOM     11  O   UNL     1       5.935 -11.941  13.445  1.00  0.00    -0.452 OA
ENDROOT
BRANCH   1  12
ATOM     12  C   UNL     1       4.867 -13.743  14.636  1.00  0.00     0.025 A 
ATOM     13  C   UNL     1       3.559 -14.198  14.392  1.00  0.00     0.016 A 
ATOM     14  C   UNL     1       3.252 -15.556  14.499  1.00  0.00     0.051 A 
ATOM     15  C   UNL     1       4.247 -16.482  14.839  1.00  0.00     0.157 A 
ATOM     16  C   UNL     1       5.865 -14.678  14.955  1.00  0.00     0.062 A 
ATOM     17  C   UNL     1       5.561 -16.040  15.065  1.00  0.00     0.158 A 
BRANCH  15  18
ATOM     18  O   UNL     1       3.936 -17.836  14.947  1.00  0.00    -0.504 OA
ATOM     19  H   UNL     1       4.594 -18.503  15.334  1.00  0.00     0.293 HD
ENDBRANCH  15  18
BRANCH  17  20
ATOM     20  O   UNL     1       6.576 -16.936  15.397  1.00  0.00    -0.504 OA
ATOM     21  H   UNL     1       6.895 -17.059  16.350  1.00  0.00     0.293 HD
ENDBRANCH  17  20
ENDBRANCH   1  12
BRANCH   2  22
ATOM     22  O   UNL     1       4.132 -11.742  16.598  1.00  0.00    -0.502 OA
ATOM     23  H   UNL     1       3.519 -11.108  17.097  1.00  0.00     0.293 HD
ENDBRANCH   2  22
BRANCH   6  24
ATOM     24  O   UNL     1       6.298  -7.248  14.730  1.00  0.00    -0.507 OA
ATOM     25  H   UNL     1       6.007  -6.323  14.453  1.00  0.00     0.293 HD
ENDBRANCH   6  24
BRANCH   8  26
ATOM     26  O   UNL     1       8.125  -8.845  10.588  1.00  0.00    -0.508 OA
ATOM     27  H   UNL     1       9.104  -8.586  10.597  1.00  0.00     0.293 HD
ENDBRANCH   8  26
TORSDOF 6
ENDMDL
MODEL 7
REMARK VINA RESULT:    -5.215      6.557     10.250
REMARK INTER + INTRA:          -6.464
REMARK INTER:                  -6.253
REMARK INTRA:                  -0.212
REMARK UNBOUND:                -0.183
REMARK SMILES O=c1c(O)c(-c2ccc(O)c(O)c2)oc2cc(O)cc(O)c12
REMARK SMILES IDX 5 1 3 2 2 3 1 4 22 5 20 6 19 7 17 8 16 9 15 10 14 11 6 12
REMARK SMILES IDX 7 13 8 14 9 15 13 16 11 17 10 18 12 20 4 22 21 24 18 26
REMARK H PARENT 10 19 12 21 4 23 21 25 18 27
REMARK Flexibility Score: inf
ROOT
ATOM      1  C   UNL     1       2.240  -9.495  15.193  1.00  0.00     0.180 A 
ATOM      2  C   UNL     1       2.387 -10.126  16.439  1.00  0.00     0.208 A 
ATOM      3  C   UNL     1       3.602 -10.761  16.742  1.00  0.00     0.238 A 
ATOM      4  O   UNL     1       3.753 -11.259  17.889  1.00  0.00    -0.285 OA
ATOM      5  C   UNL     1       4.635 -10.806  15.775  1.00  0.00     0.111 A 
ATOM      6  C   UNL     1       5.891 -11.462  15.956  1.00  0.00     0.134 A 
ATOM      7  C   UNL     1       6.877 -11.349  14.969  1.00  0.00     0.093 A 
ATOM      8  C   UNL     1       6.631 -10.660  13.779  1.00  0.00     0.123 A 
ATOM      9  C   UNL     1       5.389 -10.065  13.569  1.00  0.00     0.094 A 
ATOM     10  C   UNL     1       4.398 -10.126  14.551  1.00  0.00     0.146 A 
ATOM     11  O   UNL     1       3.238  -9.525  14.318  1.00  0.00    -0.452 OA
ENDROOT
BRANCH   1  12
ATOM     12  C   UNL     1       0.996  -8.792  14.807  1.00  0.00     0.025 A 
ATOM     13  C   UNL     1       0.961  -7.395  14.653  1.00  0.00     0.016 A 
ATOM     14  C   UNL     1      -0.220  -6.757  14.264  1.00  0.00     0.051 A 
ATOM     15  C   UNL     1      -1.378  -7.503  14.012  1.00  0.00     0.157 A 
ATOM     16  C   UNL     1      -0.162  -9.538  14.531  1.00  0.00     0.062 A 
ATOM     17  C   UNL     1      -1.346  -8.902  14.143  1.00  0.00     0.158 A 
BRANCH  15  18
ATOM     18  O   UNL     1      -2.554  -6.863  13.627  1.00  0.00    -0.504 OA
ATOM     19  H   UNL     1      -2.556  -5.902  13.305  1.00  0.00     0.293 HD
ENDBRANCH  15  18
BRANCH  17  20
ATOM     20  O   UNL     1      -2.480  -9.675  13.892  1.00  0.00    -0.504 OA
ATOM     21  H   UNL     1      -2.418 -10.656  13.647  1.00  0.00     0.293 HD
ENDBRANCH  17  20
ENDBRANCH   1  12
BRANCH   2  22
ATOM     22  O   UNL     1       1.328 -10.136  17.353  1.00  0.00    -0.502 OA
ATOM     23  H   UNL     1       0.394 -10.434  17.099  1.00  0.00     0.293 HD
ENDBRANCH   2  22
BRANCH   6  24
ATOM     24  O   UNL     1       6.210 -12.249  17.067  1.00  0.00    -0.507 OA
ATOM     25  H   UNL     1       5.877 -13.188  17.224  1.00  0.00     0.293 HD
ENDBRANCH   6  24
BRANCH   8  26
ATOM     26  O   UNL     1       7.613 -10.569  12.794  1.00  0.00    -0.508 OA
ATOM     27  H   UNL     1       7.378 -10.364  11.831  1.00  0.00     0.293 HD
ENDBRANCH   8  26
TORSDOF 6
ENDMDL
MODEL 8
REMARK VINA RESULT:    -5.093      3.068      5.466
REMARK INTER + INTRA:          -6.317
REMARK INTER:                  -6.176
REMARK INTRA:                  -0.141
REMARK UNBOUND:                -0.183
REMARK SMILES O=c1c(O)c(-c2ccc(O)c(O)c2)oc2cc(O)cc(O)c12
REMARK SMILES IDX 5 1 3 2 2 3 1 4 22 5 20 6 19 7 17 8 16 9 15 10 14 11 6 12
REMARK SMILES IDX 7 13 8 14 9 15 13 16 11 17 10 18 12 20 4 22 21 24 18 26
REMARK H PARENT 10 19 12 21 4 23 21 25 18 27
REMARK Flexibility Score: inf
ROOT
ATOM      1  C   UNL     1       4.417 -13.249  15.269  1.00  0.00     0.180 A 
ATOM      2  C   UNL     1       3.348 -12.423  15.654  1.00  0.00     0.208 A 
ATOM      3  C   UNL     1       3.405 -11.052  15.355  1.00  0.00     0.238 A 
ATOM      4  O   UNL     1       2.411 -10.332  15.635  1.00  0.00    -0.285 OA
ATOM      5  C   UNL     1       4.554 -10.514  14.726  1.00  0.00     0.111 A 
ATOM      6  C   UNL     1       4.739  -9.132  14.417  1.00  0.00     0.134 A 
ATOM      7  C   UNL     1       5.873  -8.732  13.698  1.00  0.00     0.093 A 
ATOM      8  C   UNL     1       6.857  -9.652  13.333  1.00  0.00     0.123 A 
ATOM      9  C   UNL     1       6.712 -10.994  13.679  1.00  0.00     0.094 A 
ATOM     10  C   UNL     1       5.575 -11.431  14.362  1.00  0.00     0.146 A 
ATOM     11  O   UNL     1       5.467 -12.722  14.651  1.00  0.00    -0.452 OA
ENDROOT
BRANCH   1  12
ATOM     12  C   UNL     1       4.423 -14.706  15.535  1.00  0.00     0.025 A 
ATOM     13  C   UNL     1       4.388 -15.212  16.846  1.00  0.00     0.016 A 
ATOM     14  C   UNL     1       4.370 -16.591  17.070  1.00  0.00     0.051 A 
ATOM     15  C   UNL     1       4.375 -17.483  15.990  1.00  0.00     0.157 A 
ATOM     16  C   UNL     1       4.405 -15.604  14.456  1.00  0.00     0.062 A 
ATOM     17  C   UNL     1       4.389 -16.986  14.677  1.00  0.00     0.158 A 
BRANCH  15  18
ATOM     18  O   UNL     1       4.359 -18.858  16.218  1.00  0.00    -0.504 OA
ATOM     19  H   UNL     1       3.560 -19.318  16.640  1.00  0.00     0.293 HD
ENDBRANCH  15  18
BRANCH  17  20
ATOM     20  O   UNL     1       4.385 -17.847  13.580  1.00  0.00    -0.504 OA
ATOM     21  H   UNL     1       4.937 -17.664  12.750  1.00  0.00     0.293 HD
ENDBRANCH  17  20
ENDBRANCH   1  12
BRANCH   2  22
ATOM     22  O   UNL     1       2.255 -12.959  16.341  1.00  0.00    -0.502 OA
ATOM     23  H   UNL     1       1.736 -12.432  17.032  1.00  0.00     0.293 HD
ENDBRANCH   2  22
BRANCH   6  24
ATOM     24  O   UNL     1       3.863  -8.117  14.811  1.00  0.00    -0.507 OA
ATOM     25  H   UNL     1       3.853  -7.183  14.433  1.00  0.00     0.293 HD
ENDBRANCH   6  24
BRANCH   8  26
ATOM     26  O   UNL     1       7.990  -9.242  12.632  1.00  0.00    -0.508 OA
ATOM     27  H   UNL     1       8.793  -8.850  13.108  1.00  0.00     0.293 HD
ENDBRANCH   8  26
TORSDOF 6
ENDMDL
MODEL 9
REMARK VINA RESULT:    -5.074      2.436      4.223
REMARK INTER + INTRA:          -6.295
REMARK INTER:                  -6.264
REMARK INTRA:                  -0.030
REMARK UNBOUND:                -0.183
REMARK SMILES O=c1c(O)c(-c2ccc(O)c(O)c2)oc2cc(O)cc(O)c12
REMARK SMILES IDX 5 1 3 2 2 3 1 4 22 5 20 6 19 7 17 8 16 9 15 10 14 11 6 12
REMARK SMILES IDX 7 13 8 14 9 15 13 16 11 17 10 18 12 20 4 22 21 24 18 26
REMARK H PARENT 10 19 12 21 4 23 21 25 18 27
REMARK Flexibility Score: inf
ROOT
ATOM      1  C   UNL     1       4.612 -14.475  15.461  1.00  0.00     0.180 A 
ATOM      2  C   UNL     1       3.883 -14.654  16.648  1.00  0.00     0.208 A 
ATOM      3  C   UNL     1       3.180 -13.564  17.186  1.00  0.00     0.238 A 
ATOM      4  O   UNL     1       2.468 -13.750  18.208  1.00  0.00    -0.285 OA
ATOM      5  C   UNL     1       3.260 -12.296  16.562  1.00  0.00     0.111 A 
ATOM      6  C   UNL     1       2.626 -11.111  17.045  1.00  0.00     0.134 A 
ATOM      7  C   UNL     1       2.688  -9.936  16.285  1.00  0.00     0.093 A 
ATOM      8  C   UNL     1       3.415  -9.885  15.094  1.00  0.00     0.123 A 
ATOM      9  C   UNL     1       4.084 -11.021  14.644  1.00  0.00     0.094 A 
ATOM     10  C   UNL     1       4.009 -12.219  15.358  1.00  0.00     0.146 A 
ATOM     11  O   UNL     1       4.642 -13.282  14.880  1.00  0.00    -0.452 OA
ENDROOT
BRANCH   1  12
ATOM     12  C   UNL     1       5.366 -15.580  14.825  1.00  0.00     0.025 A 
ATOM     13  C   UNL     1       6.744 -15.475  14.569  1.00  0.00     0.016 A 
ATOM     14  C   UNL     1       7.438 -16.540  13.990  1.00  0.00     0.051 A 
ATOM     15  C   UNL     1       6.770 -17.729  13.669  1.00  0.00     0.157 A 
ATOM     16  C   UNL     1       4.705 -16.782  14.522  1.00  0.00     0.062 A 
ATOM     17  C   UNL     1       5.397 -17.850  13.940  1.00  0.00     0.158 A 
BRANCH  15  18
ATOM     18  O   UNL     1       7.465 -18.789  13.090  1.00  0.00    -0.504 OA
ATOM     19  H   UNL     1       8.387 -18.663  12.687  1.00  0.00     0.293 HD
ENDBRANCH  15  18
BRANCH  17  20
ATOM     20  O   UNL     1       4.704 -19.023  13.641  1.00  0.00    -0.504 OA
ATOM     21  H   UNL     1       4.111 -19.103  12.823  1.00  0.00     0.293 HD
ENDBRANCH  17  20
ENDBRANCH   1  12
BRANCH   2  22
ATOM     22  O   UNL     1       3.877 -15.895  17.292  1.00  0.00    -0.502 OA
ATOM     23  H   UNL     1       3.222 -16.630  17.050  1.00  0.00     0.293 HD
ENDBRANCH   2  22
BRANCH   6  24
ATOM     24  O   UNL     1       1.948 -11.027  18.265  1.00  0.00    -0.507 OA
ATOM     25  H   UNL     1       2.388 -11.034  19.172  1.00  0.00     0.293 HD
ENDBRANCH   6  24
BRANCH   8  26
ATOM     26  O   UNL     1       3.487  -8.707  14.354  1.00  0.00    -0.508 OA
ATOM     27  H   UNL     1       4.373  -8.259  14.156  1.00  0.00     0.293 HD
ENDBRANCH   8  26
TORSDOF 6
ENDMDL
