MODEL 1
REMARK VINA RESULT:    -9.900      0.000      0.000
REMARK INTER + INTRA:         -11.924
REMARK INTER:                 -11.636
REMARK INTRA:                  -0.288
REMARK UNBOUND:                -0.288
REMARK SMILES O=c1cc(-c2ccc(O)c(O)c2)oc2cc(O)cc(O)c12
REMARK SMILES IDX 4 1 3 2 2 3 1 4 21 5 19 6 18 7 16 8 15 9 14 10 13 11 5 12
REMARK SMILES IDX 6 13 7 14 8 15 12 16 10 17 9 18 11 20 20 22 17 24
REMARK H PARENT 9 19 11 21 20 23 17 25
REMARK Flexibility Score: inf
ROOT
ATOM      1  C   UNL     1     120.002 120.019 114.822  1.00  0.00     0.138 A 
ATOM      2  C   UNL     1     121.133 119.723 115.593  1.00  0.00     0.100 A 
ATOM      3  C   UNL     1     120.981 119.369 116.935  1.00  0.00     0.197 A 
ATOM      4  O   UNL     1     122.019 119.169 117.617  1.00  0.00    -0.289 OA
ATOM      5  C   UNL     1     119.685 119.280 117.496  1.00  0.00     0.107 A 
ATOM      6  C   UNL     1     119.407 118.889 118.840  1.00  0.00     0.134 A 
ATOM      7  C   UNL     1     118.092 118.951 119.318  1.00  0.00     0.093 A 
ATOM      8  C   UNL     1     117.040 119.330 118.486  1.00  0.00     0.123 A 
ATOM      9  C   UNL     1     117.293 119.662 117.155  1.00  0.00     0.094 A 
ATOM     10  C   UNL     1     118.598 119.644 116.657  1.00  0.00     0.146 A 
ATOM     11  O   UNL     1     118.799 119.982 115.388  1.00  0.00    -0.456 OA
ENDROOT
BRANCH   1  12
ATOM     12  C   UNL     1     120.106 120.400 113.391  1.00  0.00     0.021 A 
ATOM     13  C   UNL     1     119.152 121.266 112.835  1.00  0.00     0.016 A 
ATOM     14  C   UNL     1     119.224 121.634 111.491  1.00  0.00     0.051 A 
ATOM     15  C   UNL     1     120.243 121.140 110.669  1.00  0.00     0.157 A 
ATOM     16  C   UNL     1     121.124 119.891 112.562  1.00  0.00     0.062 A 
ATOM     17  C   UNL     1     121.202 120.253 111.211  1.00  0.00     0.158 A 
BRANCH  15  18
ATOM     18  O   UNL     1     120.263 121.551 109.335  1.00  0.00    -0.504 OA
ATOM     19  H   UNL     1     121.098 121.830 108.841  1.00  0.00     0.293 HD
ENDBRANCH  15  18
BRANCH  17  20
ATOM     20  O   UNL     1     122.238 119.707 110.449  1.00  0.00    -0.504 OA
ATOM     21  H   UNL     1     122.253 119.698 109.439  1.00  0.00     0.293 HD
ENDBRANCH  17  20
ENDBRANCH   1  12
BRANCH   6  22
ATOM     22  O   UNL     1     120.373 118.412 119.731  1.00  0.00    -0.507 OA
ATOM     23  H   UNL     1     121.180 118.933 120.039  1.00  0.00     0.293 HD
ENDBRANCH   6  22
BRANCH   8  24
ATOM     24  O   UNL     1     115.742 119.365 118.992  1.00  0.00    -0.508 OA
ATOM     25  H   UNL     1     114.986 119.804 118.480  1.00  0.00     0.293 HD
ENDBRANCH   8  24
TORSDOF 5
ENDMDL
MODEL 2
REMARK VINA RESULT:    -9.897      2.190      2.633
REMARK INTER + INTRA:         -11.921
REMARK INTER:                 -11.631
REMARK INTRA:                  -0.290
REMARK UNBOUND:                -0.288
REMARK SMILES O=c1cc(-c2ccc(O)c(O)c2)oc2cc(O)cc(O)c12
REMARK SMILES IDX 4 1 3 2 2 3 1 4 21 5 19 6 18 7 16 8 15 9 14 10 13 11 5 12
REMARK SMILES IDX 6 13 7 14 8 15 12 16 10 17 9 18 11 20 20 22 17 24
REMARK H PARENT 9 19 11 21 20 23 17 25
REMARK Flexibility Score: inf
ROOT
ATOM      1  C   UNL     1     120.012 119.084 114.723  1.00  0.00     0.138 A 
ATOM      2  C   UNL     1     119.697 117.949 115.483  1.00  0.00     0.100 A 
ATOM      3  C   UNL     1     119.331 118.095 116.822  1.00  0.00     0.197 A 
ATOM      4  O   UNL     1     119.114 117.054 117.495  1.00  0.00    -0.289 OA
ATOM      5  C   UNL     1     119.251 119.387 117.392  1.00  0.00     0.107 A 
ATOM      6  C   UNL     1     118.849 119.659 118.735  1.00  0.00     0.134 A 
ATOM      7  C   UNL     1     118.921 120.970 119.223  1.00  0.00     0.093 A 
ATOM      8  C   UNL     1     119.319 122.025 118.403  1.00  0.00     0.123 A 
ATOM      9  C   UNL     1     119.661 121.778 117.074  1.00  0.00     0.094 A 
ATOM     10  C   UNL     1     119.634 120.477 116.566  1.00  0.00     0.146 A 
ATOM     11  O   UNL     1     119.982 120.282 115.298  1.00  0.00    -0.456 OA
ENDROOT
BRANCH   1  12
ATOM     12  C   UNL     1     120.406 118.987 113.295  1.00  0.00     0.021 A 
ATOM     13  C   UNL     1     121.217 119.983 112.732  1.00  0.00     0.016 A 
ATOM     14  C   UNL     1     121.596 119.918 111.390  1.00  0.00     0.051 A 
ATOM     15  C   UNL     1     121.166 118.863 110.578  1.00  0.00     0.157 A 
ATOM     16  C   UNL     1     119.961 117.932 112.475  1.00  0.00     0.062 A 
ATOM     17  C   UNL     1     120.333 117.861 111.126  1.00  0.00     0.158 A 
BRANCH  15  18
ATOM     18  O   UNL     1     121.584 118.854 109.246  1.00  0.00    -0.504 OA
ATOM     19  H   UNL     1     121.656 118.019 108.682  1.00  0.00     0.293 HD
ENDBRANCH  15  18
BRANCH  17  20
ATOM     20  O   UNL     1     119.852 116.787 110.373  1.00  0.00    -0.504 OA
ATOM     21  H   UNL     1     119.595 115.892 110.765  1.00  0.00     0.293 HD
ENDBRANCH  17  20
ENDBRANCH   1  12
BRANCH   6  22
ATOM     22  O   UNL     1     118.355 118.692 119.614  1.00  0.00    -0.507 OA
ATOM     23  H   UNL     1     117.377 118.515 119.786  1.00  0.00     0.293 HD
ENDBRANCH   6  22
BRANCH   8  24
ATOM     24  O   UNL     1     119.362 123.318 118.920  1.00  0.00    -0.508 OA
ATOM     25  H   UNL     1     119.929 123.547 119.728  1.00  0.00     0.293 HD
ENDBRANCH   8  24
TORSDOF 5
ENDMDL
MODEL 3
REMARK VINA RESULT:    -9.895      2.363      3.752
REMARK INTER + INTRA:         -11.918
REMARK INTER:                 -11.629
REMARK INTRA:                  -0.289
REMARK UNBOUND:                -0.288
REMARK SMILES O=c1cc(-c2ccc(O)c(O)c2)oc2cc(O)cc(O)c12
REMARK SMILES IDX 4 1 3 2 2 3 1 4 21 5 19 6 18 7 16 8 15 9 14 10 13 11 5 12
REMARK SMILES IDX 6 13 7 14 8 15 12 16 10 17 9 18 11 20 20 22 17 24
REMARK H PARENT 9 19 11 21 20 23 17 25
REMARK Flexibility Score: inf
ROOT
ATOM      1  C   UNL     1     119.058 118.993 114.754  1.00  0.00     0.138 A 
ATOM      2  C   UNL     1     117.926 119.283 115.528  1.00  0.00     0.100 A 
ATOM      3  C   UNL     1     118.078 119.635 116.870  1.00  0.00     0.197 A 
ATOM      4  O   UNL     1     117.041 119.828 117.555  1.00  0.00    -0.289 OA
ATOM      5  C   UNL     1     119.375 119.728 117.430  1.00  0.00     0.107 A 
ATOM      6  C   UNL     1     119.653 120.118 118.774  1.00  0.00     0.134 A 
ATOM      7  C   UNL     1     120.969 120.061 119.250  1.00  0.00     0.093 A 
ATOM      8  C   UNL     1     122.022 119.688 118.416  1.00  0.00     0.123 A 
ATOM      9  C   UNL     1     121.768 119.358 117.084  1.00  0.00     0.094 A 
ATOM     10  C   UNL     1     120.462 119.371 116.589  1.00  0.00     0.146 A 
ATOM     11  O   UNL     1     120.261 119.035 115.319  1.00  0.00    -0.456 OA
ENDROOT
BRANCH   1  12
ATOM     12  C   UNL     1     118.954 118.615 113.322  1.00  0.00     0.021 A 
ATOM     13  C   UNL     1     119.924 117.774 112.758  1.00  0.00     0.016 A 
ATOM     14  C   UNL     1     119.851 117.409 111.412  1.00  0.00     0.051 A 
ATOM     15  C   UNL     1     118.816 117.881 110.599  1.00  0.00     0.157 A 
ATOM     16  C   UNL     1     117.919 119.103 112.502  1.00  0.00     0.062 A 
ATOM     17  C   UNL     1     117.840 118.744 111.150  1.00  0.00     0.158 A 
BRANCH  15  18
ATOM     18  O   UNL     1     118.798 117.475 109.263  1.00  0.00    -0.504 OA
ATOM     19  H   UNL     1     117.960 117.410 108.704  1.00  0.00     0.293 HD
ENDBRANCH  15  18
BRANCH  17  20
ATOM     20  O   UNL     1     116.788 119.269 110.397  1.00  0.00    -0.504 OA
ATOM     21  H   UNL     1     116.899 119.688 109.484  1.00  0.00     0.293 HD
ENDBRANCH  17  20
ENDBRANCH   1  12
BRANCH   6  22
ATOM     22  O   UNL     1     118.686 120.588 119.668  1.00  0.00    -0.507 OA
ATOM     23  H   UNL     1     118.763 120.552 120.672  1.00  0.00     0.293 HD
ENDBRANCH   6  22
BRANCH   8  24
ATOM     24  O   UNL     1     123.320 119.658 118.920  1.00  0.00    -0.508 OA
ATOM     25  H   UNL     1     124.098 119.327 118.361  1.00  0.00     0.293 HD
ENDBRANCH   8  24
TORSDOF 5
ENDMDL
MODEL 4
REMARK VINA RESULT:    -9.890      2.201      2.647
REMARK INTER + INTRA:         -11.913
REMARK INTER:                 -11.625
REMARK INTRA:                  -0.287
REMARK UNBOUND:                -0.288
REMARK SMILES O=c1cc(-c2ccc(O)c(O)c2)oc2cc(O)cc(O)c12
REMARK SMILES IDX 4 1 3 2 2 3 1 4 21 5 19 6 18 7 16 8 15 9 14 10 13 11 5 12
REMARK SMILES IDX 6 13 7 14 8 15 12 16 10 17 9 18 11 20 20 22 17 24
REMARK H PARENT 9 19 11 21 20 23 17 25
REMARK Flexibility Score: inf
ROOT
ATOM      1  C   UNL     1     118.989 120.020 114.801  1.00  0.00     0.138 A 
ATOM      2  C   UNL     1     119.267 121.153 115.576  1.00  0.00     0.100 A 
ATOM      3  C   UNL     1     119.612 121.002 116.921  1.00  0.00     0.197 A 
ATOM      4  O   UNL     1     119.796 122.041 117.606  1.00  0.00    -0.289 OA
ATOM      5  C   UNL     1     119.709 119.707 117.480  1.00  0.00     0.107 A 
ATOM      6  C   UNL     1     120.092 119.430 118.827  1.00  0.00     0.134 A 
ATOM      7  C   UNL     1     120.039 118.114 119.302  1.00  0.00     0.093 A 
ATOM      8  C   UNL     1     119.676 117.059 118.466  1.00  0.00     0.123 A 
ATOM      9  C   UNL     1     119.353 117.311 117.132  1.00  0.00     0.094 A 
ATOM     10  C   UNL     1     119.362 118.618 116.637  1.00  0.00     0.146 A 
ATOM     11  O   UNL     1     119.033 118.818 115.365  1.00  0.00    -0.456 OA
ENDROOT
BRANCH   1  12
ATOM     12  C   UNL     1     118.618 120.123 113.366  1.00  0.00     0.021 A 
ATOM     13  C   UNL     1     117.749 119.175 112.808  1.00  0.00     0.016 A 
ATOM     14  C   UNL     1     117.390 119.246 111.461  1.00  0.00     0.051 A 
ATOM     15  C   UNL     1     117.898 120.258 110.639  1.00  0.00     0.157 A 
ATOM     16  C   UNL     1     119.142 121.134 112.538  1.00  0.00     0.062 A 
ATOM     17  C   UNL     1     118.790 121.211 111.184  1.00  0.00     0.158 A 
BRANCH  15  18
ATOM     18  O   UNL     1     117.497 120.277 109.302  1.00  0.00    -0.504 OA
ATOM     19  H   UNL     1     118.050 120.664 108.551  1.00  0.00     0.293 HD
ENDBRANCH  15  18
BRANCH  17  20
ATOM     20  O   UNL     1     119.350 122.239 110.423  1.00  0.00    -0.504 OA
ATOM     21  H   UNL     1     118.961 122.576 109.554  1.00  0.00     0.293 HD
ENDBRANCH  17  20
ENDBRANCH   1  12
BRANCH   6  22
ATOM     22  O   UNL     1     120.551 120.399 119.724  1.00  0.00    -0.507 OA
ATOM     23  H   UNL     1     121.280 120.255 120.405  1.00  0.00     0.293 HD
ENDBRANCH   6  22
BRANCH   8  24
ATOM     24  O   UNL     1     119.650 115.760 118.969  1.00  0.00    -0.508 OA
ATOM     25  H   UNL     1     120.493 115.203 119.041  1.00  0.00     0.293 HD
ENDBRANCH   8  24
TORSDOF 5
ENDMDL
MODEL 5
REMARK VINA RESULT:    -9.608      2.605      2.910
REMARK INTER + INTRA:         -11.581
REMARK INTER:                 -11.301
REMARK INTRA:                  -0.280
REMARK UNBOUND:                -0.288
REMARK SMILES O=c1cc(-c2ccc(O)c(O)c2)oc2cc(O)cc(O)c12
REMARK SMILES IDX 4 1 3 2 2 3 1 4 21 5 19 6 18 7 16 8 15 9 14 10 13 11 5 12
REMARK SMILES IDX 6 13 7 14 8 15 12 16 10 17 9 18 11 20 20 22 17 24
REMARK H PARENT 9 19 11 21 20 23 17 25
REMARK Flexibility Score: inf
ROOT
ATOM      1  C   UNL     1     119.097 118.982 114.290  1.00  0.00     0.138 A 
ATOM      2  C   UNL     1     119.290 120.283 114.774  1.00  0.00     0.100 A 
ATOM      3  C   UNL     1     119.569 120.481 116.128  1.00  0.00     0.197 A 
ATOM      4  O   UNL     1     119.676 121.663 116.544  1.00  0.00    -0.289 OA
ATOM      5  C   UNL     1     119.687 119.367 116.992  1.00  0.00     0.107 A 
ATOM      6  C   UNL     1     120.010 119.446 118.380  1.00  0.00     0.134 A 
ATOM      7  C   UNL     1     119.983 118.284 119.161  1.00  0.00     0.093 A 
ATOM      8  C   UNL     1     119.707 117.041 118.595  1.00  0.00     0.123 A 
ATOM      9  C   UNL     1     119.444 116.944 117.228  1.00  0.00     0.094 A 
ATOM     10  C   UNL     1     119.428 118.089 116.428  1.00  0.00     0.146 A 
ATOM     11  O   UNL     1     119.158 117.957 115.134  1.00  0.00    -0.456 OA
ENDROOT
BRANCH   1  12
ATOM     12  C   UNL     1     118.798 118.714 112.860  1.00  0.00     0.021 A 
ATOM     13  C   UNL     1     117.672 119.304 112.267  1.00  0.00     0.016 A 
ATOM     14  C   UNL     1     117.367 119.062 110.926  1.00  0.00     0.051 A 
ATOM     15  C   UNL     1     118.172 118.221 110.151  1.00  0.00     0.157 A 
ATOM     16  C   UNL     1     119.602 117.856 112.085  1.00  0.00     0.062 A 
ATOM     17  C   UNL     1     119.300 117.605 110.740  1.00  0.00     0.158 A 
BRANCH  15  18
ATOM     18  O   UNL     1     117.815 118.025 108.816  1.00  0.00    -0.504 OA
ATOM     19  H   UNL     1     118.454 118.119 108.040  1.00  0.00     0.293 HD
ENDBRANCH  15  18
BRANCH  17  20
ATOM     20  O   UNL     1     120.141 116.741 110.034  1.00  0.00    -0.504 OA
ATOM     21  H   UNL     1     121.142 116.698 110.160  1.00  0.00     0.293 HD
ENDBRANCH  17  20
ENDBRANCH   1  12
BRANCH   6  22
ATOM     22  O   UNL     1     120.383 120.626 119.029  1.00  0.00    -0.507 OA
ATOM     23  H   UNL     1     119.843 121.086 119.745  1.00  0.00     0.293 HD
ENDBRANCH   6  22
BRANCH   8  24
ATOM     24  O   UNL     1     119.705 115.904 119.400  1.00  0.00    -0.508 OA
ATOM     25  H   UNL     1     119.122 115.103 119.185  1.00  0.00     0.293 HD
ENDBRANCH   8  24
TORSDOF 5
ENDMDL
MODEL 6
REMARK VINA RESULT:    -9.586      1.838      3.263
REMARK INTER + INTRA:         -11.555
REMARK INTER:                 -11.276
REMARK INTRA:                  -0.279
REMARK UNBOUND:                -0.288
REMARK SMILES O=c1cc(-c2ccc(O)c(O)c2)oc2cc(O)cc(O)c12
REMARK SMILES IDX 4 1 3 2 2 3 1 4 21 5 19 6 18 7 16 8 15 9 14 10 13 11 5 12
REMARK SMILES IDX 6 13 7 14 8 15 12 16 10 17 9 18 11 20 20 22 17 24
REMARK H PARENT 9 19 11 21 20 23 17 25
REMARK Flexibility Score: inf
ROOT
ATOM      1  C   UNL     1     119.965 119.044 114.480  1.00  0.00     0.138 A 
ATOM      2  C   UNL     1     118.659 119.229 114.952  1.00  0.00     0.100 A 
ATOM      3  C   UNL     1     118.444 119.484 116.308  1.00  0.00     0.197 A 
ATOM      4  O   UNL     1     117.256 119.584 116.712  1.00  0.00    -0.289 OA
ATOM      5  C   UNL     1     119.547 119.587 117.187  1.00  0.00     0.107 A 
ATOM      6  C   UNL     1     119.451 119.885 118.580  1.00  0.00     0.134 A 
ATOM      7  C   UNL     1     120.603 119.845 119.374  1.00  0.00     0.093 A 
ATOM      8  C   UNL     1     121.854 119.578 118.819  1.00  0.00     0.123 A 
ATOM      9  C   UNL     1     121.967 119.339 117.449  1.00  0.00     0.094 A 
ATOM     10  C   UNL     1     120.832 119.338 116.635  1.00  0.00     0.146 A 
ATOM     11  O   UNL     1     120.980 119.091 115.338  1.00  0.00    -0.456 OA
ENDROOT
BRANCH   1  12
ATOM     12  C   UNL     1     120.251 118.771 113.049  1.00  0.00     0.021 A 
ATOM     13  C   UNL     1     119.678 117.648 112.432  1.00  0.00     0.016 A 
ATOM     14  C   UNL     1     119.936 117.367 111.090  1.00  0.00     0.051 A 
ATOM     15  C   UNL     1     120.777 118.192 110.336  1.00  0.00     0.157 A 
ATOM     16  C   UNL     1     121.109 119.594 112.296  1.00  0.00     0.062 A 
ATOM     17  C   UNL     1     121.376 119.317 110.949  1.00  0.00     0.158 A 
BRANCH  15  18
ATOM     18  O   UNL     1     120.990 117.858 108.997  1.00  0.00    -0.504 OA
ATOM     19  H   UNL     1     120.602 117.040 108.550  1.00  0.00     0.293 HD
ENDBRANCH  15  18
BRANCH  17  20
ATOM     20  O   UNL     1     122.239 120.176 110.265  1.00  0.00    -0.504 OA
ATOM     21  H   UNL     1     122.888 119.876 109.552  1.00  0.00     0.293 HD
ENDBRANCH  17  20
ENDBRANCH   1  12
BRANCH   6  22
ATOM     22  O   UNL     1     118.263 120.247 119.221  1.00  0.00    -0.507 OA
ATOM     23  H   UNL     1     117.422 119.692 119.232  1.00  0.00     0.293 HD
ENDBRANCH   6  22
BRANCH   8  24
ATOM     24  O   UNL     1     122.981 119.562 119.638  1.00  0.00    -0.508 OA
ATOM     25  H   UNL     1     123.352 120.412 120.045  1.00  0.00     0.293 HD
ENDBRANCH   8  24
TORSDOF 5
ENDMDL
MODEL 7
REMARK VINA RESULT:    -9.571      1.578      1.944
REMARK INTER + INTRA:         -11.538
REMARK INTER:                 -11.258
REMARK INTRA:                  -0.280
REMARK UNBOUND:                -0.288
REMARK SMILES O=c1cc(-c2ccc(O)c(O)c2)oc2cc(O)cc(O)c12
REMARK SMILES IDX 4 1 3 2 2 3 1 4 21 5 19 6 18 7 16 8 15 9 14 10 13 11 5 12
REMARK SMILES IDX 6 13 7 14 8 15 12 16 10 17 9 18 11 20 20 22 17 24
REMARK H PARENT 9 19 11 21 20 23 17 25
REMARK Flexibility Score: inf
ROOT
ATOM      1  C   UNL     1     118.934 119.917 114.248  1.00  0.00     0.138 A 
ATOM      2  C   UNL     1     120.237 119.734 114.730  1.00  0.00     0.100 A 
ATOM      3  C   UNL     1     120.441 119.463 116.084  1.00  0.00     0.197 A 
ATOM      4  O   UNL     1     121.625 119.365 116.498  1.00  0.00    -0.289 OA
ATOM      5  C   UNL     1     119.330 119.344 116.952  1.00  0.00     0.107 A 
ATOM      6  C   UNL     1     119.415 119.029 118.342  1.00  0.00     0.134 A 
ATOM      7  C   UNL     1     118.256 119.053 119.126  1.00  0.00     0.093 A 
ATOM      8  C   UNL     1     117.009 119.319 118.562  1.00  0.00     0.123 A 
ATOM      9  C   UNL     1     116.907 119.574 117.194  1.00  0.00     0.094 A 
ATOM     10  C   UNL     1     118.050 119.592 116.391  1.00  0.00     0.146 A 
ATOM     11  O   UNL     1     117.912 119.854 115.095  1.00  0.00    -0.456 OA
ENDROOT
BRANCH   1  12
ATOM     12  C   UNL     1     118.660 120.207 112.818  1.00  0.00     0.021 A 
ATOM     13  C   UNL     1     119.234 121.339 112.220  1.00  0.00     0.016 A 
ATOM     14  C   UNL     1     118.987 121.635 110.878  1.00  0.00     0.051 A 
ATOM     15  C   UNL     1     118.156 120.816 110.107  1.00  0.00     0.157 A 
ATOM     16  C   UNL     1     117.812 119.389 112.047  1.00  0.00     0.062 A 
ATOM     17  C   UNL     1     117.556 119.681 110.701  1.00  0.00     0.158 A 
BRANCH  15  18
ATOM     18  O   UNL     1     117.953 121.165 108.771  1.00  0.00    -0.504 OA
ATOM     19  H   UNL     1     117.225 121.789 108.454  1.00  0.00     0.293 HD
ENDBRANCH  15  18
BRANCH  17  20
ATOM     20  O   UNL     1     116.702 118.827 110.000  1.00  0.00    -0.504 OA
ATOM     21  H   UNL     1     115.908 118.358 110.412  1.00  0.00     0.293 HD
ENDBRANCH  17  20
ENDBRANCH   1  12
BRANCH   6  22
ATOM     22  O   UNL     1     120.600 118.665 118.990  1.00  0.00    -0.507 OA
ATOM     23  H   UNL     1     120.751 118.714 119.985  1.00  0.00     0.293 HD
ENDBRANCH   6  22
BRANCH   8  24
ATOM     24  O   UNL     1     115.875 119.319 119.371  1.00  0.00    -0.508 OA
ATOM     25  H   UNL     1     115.456 120.182 119.697  1.00  0.00     0.293 HD
ENDBRANCH   8  24
TORSDOF 5
ENDMDL
MODEL 8
REMARK VINA RESULT:    -9.441      2.144      2.618
REMARK INTER + INTRA:         -11.385
REMARK INTER:                 -11.090
REMARK INTRA:                  -0.295
REMARK UNBOUND:                -0.288
REMARK SMILES O=c1cc(-c2ccc(O)c(O)c2)oc2cc(O)cc(O)c12
REMARK SMILES IDX 4 1 3 2 2 3 1 4 21 5 19 6 18 7 16 8 15 9 14 10 13 11 5 12
REMARK SMILES IDX 6 13 7 14 8 15 12 16 10 17 9 18 11 20 20 22 17 24
REMARK H PARENT 9 19 11 21 20 23 17 25
REMARK Flexibility Score: inf
ROOT
ATOM      1  C   UNL     1     118.937 119.783 114.383  1.00  0.00     0.138 A 
ATOM      2  C   UNL     1     119.328 118.534 114.883  1.00  0.00     0.100 A 
ATOM      3  C   UNL     1     119.668 118.405 116.230  1.00  0.00     0.197 A 
ATOM      4  O   UNL     1     120.074 117.285 116.636  1.00  0.00    -0.289 OA
ATOM      5  C   UNL     1     119.585 119.528 117.087  1.00  0.00     0.107 A 
ATOM      6  C   UNL     1     119.867 119.505 118.486  1.00  0.00     0.134 A 
ATOM      7  C   UNL     1     119.864 120.704 119.209  1.00  0.00     0.093 A 
ATOM      8  C   UNL     1     119.531 121.913 118.600  1.00  0.00     0.123 A 
ATOM      9  C   UNL     1     119.200 121.939 117.245  1.00  0.00     0.094 A 
ATOM     10  C   UNL     1     119.227 120.765 116.488  1.00  0.00     0.146 A 
ATOM     11  O   UNL     1     118.920 120.834 115.197  1.00  0.00    -0.456 OA
ENDROOT
BRANCH   1  12
ATOM     12  C   UNL     1     118.564 119.976 112.959  1.00  0.00     0.021 A 
ATOM     13  C   UNL     1     117.762 119.019 112.319  1.00  0.00     0.016 A 
ATOM     14  C   UNL     1     117.403 119.175 110.979  1.00  0.00     0.051 A 
ATOM     15  C   UNL     1     117.841 120.283 110.246  1.00  0.00     0.157 A 
ATOM     16  C   UNL     1     119.018 121.085 112.219  1.00  0.00     0.062 A 
ATOM     17  C   UNL     1     118.665 121.247 110.873  1.00  0.00     0.158 A 
BRANCH  15  18
ATOM     18  O   UNL     1     117.442 120.382 108.912  1.00  0.00    -0.504 OA
ATOM     19  H   UNL     1     117.028 121.208 108.506  1.00  0.00     0.293 HD
ENDBRANCH  15  18
BRANCH  17  20
ATOM     20  O   UNL     1     119.154 122.370 110.201  1.00  0.00    -0.504 OA
ATOM     21  H   UNL     1     119.299 122.413 109.203  1.00  0.00     0.293 HD
ENDBRANCH  17  20
ENDBRANCH   1  12
BRANCH   6  22
ATOM     22  O   UNL     1     120.130 118.340 119.211  1.00  0.00    -0.507 OA
ATOM     23  H   UNL     1     119.753 117.429 118.996  1.00  0.00     0.293 HD
ENDBRANCH   6  22
BRANCH   8  24
ATOM     24  O   UNL     1     119.523 123.084 119.355  1.00  0.00    -0.508 OA
ATOM     25  H   UNL     1     119.284 123.979 118.943  1.00  0.00     0.293 HD
ENDBRANCH   8  24
TORSDOF 5
ENDMDL
MODEL 9
REMARK VINA RESULT:    -9.284      2.203      2.646
REMARK INTER + INTRA:         -11.200
REMARK INTER:                 -10.913
REMARK INTRA:                  -0.287
REMARK UNBOUND:                -0.288
REMARK SMILES O=c1cc(-c2ccc(O)c(O)c2)oc2cc(O)cc(O)c12
REMARK SMILES IDX 4 1 3 2 2 3 1 4 21 5 19 6 18 7 16 8 15 9 14 10 13 11 5 12
REMARK SMILES IDX 6 13 7 14 8 15 12 16 10 17 9 18 11 20 20 22 17 24
REMARK H PARENT 9 19 11 21 20 23 17 25
REMARK Flexibility Score: inf
ROOT
ATOM      1  C   UNL     1     119.144 118.997 115.401  1.00  0.00     0.138 A 
ATOM      2  C   UNL     1     119.299 117.617 115.588  1.00  0.00     0.100 A 
ATOM      3  C   UNL     1     119.483 117.111 116.876  1.00  0.00     0.197 A 
ATOM      4  O   UNL     1     119.681 115.875 117.006  1.00  0.00    -0.289 OA
ATOM      5  C   UNL     1     119.477 117.990 117.985  1.00  0.00     0.107 A 
ATOM      6  C   UNL     1     119.612 117.583 119.346  1.00  0.00     0.134 A 
ATOM      7  C   UNL     1     119.710 118.554 120.350  1.00  0.00     0.093 A 
ATOM      8  C   UNL     1     119.615 119.913 120.050  1.00  0.00     0.123 A 
ATOM      9  C   UNL     1     119.427 120.320 118.729  1.00  0.00     0.094 A 
ATOM     10  C   UNL     1     119.361 119.377 117.701  1.00  0.00     0.146 A 
ATOM     11  O   UNL     1     119.197 119.807 116.454  1.00  0.00    -0.456 OA
ENDROOT
BRANCH   1  12
ATOM     12  C   UNL     1     118.945 119.588 114.054  1.00  0.00     0.021 A 
ATOM     13  C   UNL     1     119.441 120.872 113.783  1.00  0.00     0.016 A 
ATOM     14  C   UNL     1     119.262 121.452 112.526  1.00  0.00     0.051 A 
ATOM     15  C   UNL     1     118.576 120.770 111.516  1.00  0.00     0.157 A 
ATOM     16  C   UNL     1     118.242 118.906 113.043  1.00  0.00     0.062 A 
ATOM     17  C   UNL     1     118.055 119.482 111.780  1.00  0.00     0.158 A 
BRANCH  15  18
ATOM     18  O   UNL     1     118.435 121.404 110.280  1.00  0.00    -0.504 OA
ATOM     19  H   UNL     1     118.728 122.352 110.095  1.00  0.00     0.293 HD
ENDBRANCH  15  18
BRANCH  17  20
ATOM     20  O   UNL     1     117.346 118.747 110.827  1.00  0.00    -0.504 OA
ATOM     21  H   UNL     1     117.278 119.002 109.852  1.00  0.00     0.293 HD
ENDBRANCH  17  20
ENDBRANCH   1  12
BRANCH   6  22
ATOM     22  O   UNL     1     119.632 116.249 119.764  1.00  0.00    -0.507 OA
ATOM     23  H   UNL     1     119.635 115.452 119.147  1.00  0.00     0.293 HD
ENDBRANCH   6  22
BRANCH   8  24
ATOM     24  O   UNL     1     119.700 120.850 121.077  1.00  0.00    -0.508 OA
ATOM     25  H   UNL     1     119.540 121.837 120.909  1.00  0.00     0.293 HD
ENDBRANCH   8  24
TORSDOF 5
ENDMDL
