MODEL 1
REMARK VINA RESULT:    -6.068      0.000      0.000
REMARK INTER + INTRA:         -10.265
REMARK INTER:                  -8.374
REMARK INTRA:                  -1.891
REMARK UNBOUND:                -1.891
REMARK SMILES CC[C@H](CC[C@@H](C)[C@H]1CC[C@H]2[C@H]3CC=C4C[C@H](O)CC[C@@]4(C)[C@H]3CC[C@]12C)C(C)C
REMARK SMILES IDX 5 1 4 2 3 3 2 4 1 5 28 6 29 7 30 8 6 9 7 10 8 11 9 12 26 13
REMARK SMILES IDX 10 14 11 15 25 16 27 17 12 18 24 19 23 20 13 21 21 22 14 23
REMARK SMILES IDX 15 24 20 25 22 26 16 27 19 28 17 29 18 30
REMARK H PARENT 18 31
REMARK Flexibility Score: inf
ROOT
ATOM      1  C   UNL     1      13.935 -22.968 -37.856  1.00  0.00     0.004 C 
ENDROOT
BRANCH   1   2
ATOM      2  C   UNL     1      14.766 -21.665 -37.940  1.00  0.00     0.004 C 
BRANCH   2   3
ATOM      3  C   UNL     1      14.203 -20.673 -38.994  1.00  0.00    -0.009 C 
BRANCH   3   4
ATOM      4  C   UNL     1      13.751 -19.329 -38.342  1.00  0.00     0.000 C 
ATOM      5  C   UNL     1      12.529 -18.734 -39.044  1.00  0.00     0.004 C 
ENDBRANCH   3   4
BRANCH   3   6
ATOM      6  C   UNL     1      15.202 -20.481 -40.179  1.00  0.00    -0.014 C 
ATOM      7  C   UNL     1      16.519 -21.242 -39.948  1.00  0.00     0.007 C 
ATOM      8  C   UNL     1      14.611 -20.828 -41.559  1.00  0.00     0.007 C 
ENDBRANCH   3   6
ENDBRANCH   2   3
ENDBRANCH   1   2
BRANCH   1   9
ATOM      9  C   UNL     1      12.954 -23.222 -39.043  1.00  0.00    -0.011 C 
ATOM     10  C   UNL     1      13.545 -24.204 -40.073  1.00  0.00     0.008 C 
BRANCH   9  11
ATOM     11  C   UNL     1      11.476 -23.615 -38.673  1.00  0.00    -0.002 C 
ATOM     12  C   UNL     1      11.267 -24.728 -37.617  1.00  0.00     0.005 C 
ATOM     13  C   UNL     1      10.529 -22.474 -38.206  1.00  0.00    -0.026 C 
ATOM     14  C   UNL     1       9.866 -24.503 -37.014  1.00  0.00     0.005 C 
ATOM     15  C   UNL     1       9.311 -23.309 -37.783  1.00  0.00    -0.001 C 
ATOM     16  C   UNL     1      10.061 -21.527 -39.328  1.00  0.00     0.007 C 
ATOM     17  C   UNL     1      11.182 -21.655 -37.056  1.00  0.00     0.012 C 
ATOM     18  C   UNL     1       8.102 -22.521 -37.232  1.00  0.00     0.000 C 
ATOM     19  C   UNL     1       8.874 -20.643 -38.874  1.00  0.00     0.005 C 
ATOM     20  C   UNL     1       7.659 -21.427 -38.264  1.00  0.00     0.003 C 
ATOM     21  C   UNL     1       8.241 -22.023 -35.765  1.00  0.00     0.031 C 
ATOM     22  C   UNL     1       6.537 -20.496 -37.653  1.00  0.00    -0.008 C 
ATOM     23  C   UNL     1       7.843 -20.590 -35.525  1.00  0.00    -0.027 C 
ATOM     24  C   UNL     1       7.035 -19.886 -36.343  1.00  0.00    -0.065 C 
ATOM     25  C   UNL     1       6.131 -19.370 -38.663  1.00  0.00     0.014 C 
ATOM     26  C   UNL     1       5.270 -21.340 -37.342  1.00  0.00     0.016 C 
ATOM     27  C   UNL     1       6.378 -18.632 -35.790  1.00  0.00     0.063 C 
ATOM     28  C   UNL     1       5.288 -18.251 -38.040  1.00  0.00     0.033 C 
ATOM     29  C   UNL     1       6.061 -17.603 -36.882  1.00  0.00     0.118 C 
BRANCH  29  30
ATOM     30  O   UNL     1       5.348 -16.519 -36.345  1.00  0.00    -0.393 OA
ATOM     31  H   UNL     1       5.528 -16.492 -35.366  1.00  0.00     0.210 HD
ENDBRANCH  29  30
ENDBRANCH   9  11
ENDBRANCH   1   9
TORSDOF 7
ENDMDL
MODEL 2
REMARK VINA RESULT:    -6.011      2.735      7.784
REMARK INTER + INTRA:         -10.187
REMARK INTER:                  -8.364
REMARK INTRA:                  -1.823
REMARK UNBOUND:                -1.891
REMARK SMILES CC[C@H](CC[C@@H](C)[C@H]1CC[C@H]2[C@H]3CC=C4C[C@H](O)CC[C@@]4(C)[C@H]3CC[C@]12C)C(C)C
REMARK SMILES IDX 5 1 4 2 3 3 2 4 1 5 28 6 29 7 30 8 6 9 7 10 8 11 9 12 26 13
REMARK SMILES IDX 10 14 11 15 25 16 27 17 12 18 24 19 23 20 13 21 21 22 14 23
REMARK SMILES IDX 15 24 20 25 22 26 16 27 19 28 17 29 18 30
REMARK H PARENT 18 31
REMARK Flexibility Score: inf
ROOT
ATOM      1  C   UNL     1       6.723 -22.089 -36.744  1.00  0.00     0.004 C 
ENDROOT
BRANCH   1   2
ATOM      2  C   UNL     1       6.125 -20.987 -37.651  1.00  0.00     0.004 C 
BRANCH   2   3
ATOM      3  C   UNL     1       6.707 -19.582 -37.335  1.00  0.00    -0.009 C 
BRANCH   3   4
ATOM      4  C   UNL     1       7.508 -19.002 -38.543  1.00  0.00     0.000 C 
ATOM      5  C   UNL     1       8.835 -18.382 -38.104  1.00  0.00     0.004 C 
ENDBRANCH   3   4
BRANCH   3   6
ATOM      6  C   UNL     1       5.598 -18.618 -36.806  1.00  0.00    -0.014 C 
ATOM      7  C   UNL     1       6.020 -17.921 -35.501  1.00  0.00     0.007 C 
ATOM      8  C   UNL     1       5.120 -17.584 -37.843  1.00  0.00     0.007 C 
ENDBRANCH   3   6
ENDBRANCH   2   3
ENDBRANCH   1   2
BRANCH   1   9
ATOM      9  C   UNL     1       8.187 -21.846 -36.262  1.00  0.00    -0.011 C 
ATOM     10  C   UNL     1       8.246 -21.514 -34.758  1.00  0.00     0.008 C 
BRANCH   9  11
ATOM     11  C   UNL     1       9.252 -22.942 -36.639  1.00  0.00    -0.002 C 
ATOM     12  C   UNL     1       8.735 -24.279 -37.223  1.00  0.00     0.005 C 
ATOM     13  C   UNL     1      10.391 -22.524 -37.610  1.00  0.00    -0.026 C 
ATOM     14  C   UNL     1       9.900 -24.881 -38.036  1.00  0.00     0.005 C 
ATOM     15  C   UNL     1      11.046 -23.895 -37.840  1.00  0.00    -0.001 C 
ATOM     16  C   UNL     1      11.464 -21.609 -36.988  1.00  0.00     0.007 C 
ATOM     17  C   UNL     1       9.807 -21.865 -38.892  1.00  0.00     0.012 C 
ATOM     18  C   UNL     1      12.264 -23.919 -38.790  1.00  0.00     0.000 C 
ATOM     19  C   UNL     1      12.724 -21.514 -37.882  1.00  0.00     0.005 C 
ATOM     20  C   UNL     1      13.345 -22.893 -38.302  1.00  0.00     0.003 C 
ATOM     21  C   UNL     1      11.930 -23.850 -40.308  1.00  0.00     0.031 C 
ATOM     22  C   UNL     1      14.523 -22.774 -39.350  1.00  0.00    -0.008 C 
ATOM     23  C   UNL     1      12.753 -22.876 -41.110  1.00  0.00    -0.027 C 
ATOM     24  C   UNL     1      13.954 -22.405 -40.720  1.00  0.00    -0.065 C 
ATOM     25  C   UNL     1      15.577 -21.711 -38.889  1.00  0.00     0.014 C 
ATOM     26  C   UNL     1      15.247 -24.142 -39.479  1.00  0.00     0.016 C 
ATOM     27  C   UNL     1      14.856 -21.788 -41.777  1.00  0.00     0.063 C 
ATOM     28  C   UNL     1      16.574 -21.310 -39.984  1.00  0.00     0.033 C 
ATOM     29  C   UNL     1      15.817 -20.745 -41.193  1.00  0.00     0.118 C 
BRANCH  29  30
ATOM     30  O   UNL     1      16.709 -20.292 -42.180  1.00  0.00    -0.393 OA
ATOM     31  H   UNL     1      16.910 -19.335 -41.991  1.00  0.00     0.210 HD
ENDBRANCH  29  30
ENDBRANCH   9  11
ENDBRANCH   1   9
TORSDOF 7
ENDMDL
MODEL 3
REMARK VINA RESULT:    -5.851      2.771      8.119
REMARK INTER + INTRA:          -9.966
REMARK INTER:                  -9.393
REMARK INTRA:                  -0.573
REMARK UNBOUND:                -1.891
REMARK SMILES CC[C@H](CC[C@@H](C)[C@H]1CC[C@H]2[C@H]3CC=C4C[C@H](O)CC[C@@]4(C)[C@H]3CC[C@]12C)C(C)C
REMARK SMILES IDX 5 1 4 2 3 3 2 4 1 5 28 6 29 7 30 8 6 9 7 10 8 11 9 12 26 13
REMARK SMILES IDX 10 14 11 15 25 16 27 17 12 18 24 19 23 20 13 21 21 22 14 23
REMARK SMILES IDX 15 24 20 25 22 26 16 27 19 28 17 29 18 30
REMARK H PARENT 18 31
REMARK Flexibility Score: inf
ROOT
ATOM      1  C   UNL     1       6.953 -18.512 -37.245  1.00  0.00     0.004 C 
ENDROOT
BRANCH   1   2
ATOM      2  C   UNL     1       6.477 -17.217 -36.544  1.00  0.00     0.004 C 
BRANCH   2   3
ATOM      3  C   UNL     1       5.148 -17.420 -35.767  1.00  0.00    -0.009 C 
BRANCH   3   4
ATOM      4  C   UNL     1       5.313 -17.109 -34.246  1.00  0.00     0.000 C 
ATOM      5  C   UNL     1       5.313 -15.605 -33.966  1.00  0.00     0.004 C 
ENDBRANCH   3   4
BRANCH   3   6
ATOM      6  C   UNL     1       3.976 -16.634 -36.437  1.00  0.00    -0.014 C 
ATOM      7  C   UNL     1       4.474 -15.720 -37.570  1.00  0.00     0.007 C 
ATOM      8  C   UNL     1       2.823 -17.528 -36.929  1.00  0.00     0.007 C 
ENDBRANCH   3   6
ENDBRANCH   2   3
ENDBRANCH   1   2
BRANCH   1   9
ATOM      9  C   UNL     1       6.789 -19.826 -36.420  1.00  0.00    -0.011 C 
ATOM     10  C   UNL     1       5.827 -20.816 -37.105  1.00  0.00     0.008 C 
BRANCH   9  11
ATOM     11  C   UNL     1       8.109 -20.549 -35.962  1.00  0.00    -0.002 C 
ATOM     12  C   UNL     1       7.973 -21.915 -35.246  1.00  0.00     0.005 C 
ATOM     13  C   UNL     1       9.198 -20.800 -37.042  1.00  0.00    -0.026 C 
ATOM     14  C   UNL     1       9.311 -22.653 -35.452  1.00  0.00     0.005 C 
ATOM     15  C   UNL     1      10.173 -21.663 -36.228  1.00  0.00    -0.001 C 
ATOM     16  C   UNL     1       9.968 -19.540 -37.483  1.00  0.00     0.007 C 
ATOM     17  C   UNL     1       8.586 -21.512 -38.283  1.00  0.00     0.012 C 
ATOM     18  C   UNL     1      11.439 -22.146 -36.969  1.00  0.00     0.000 C 
ATOM     19  C   UNL     1      11.243 -19.900 -38.285  1.00  0.00     0.005 C 
ATOM     20  C   UNL     1      12.204 -20.922 -37.581  1.00  0.00     0.003 C 
ATOM     21  C   UNL     1      11.229 -23.343 -37.941  1.00  0.00     0.031 C 
ATOM     22  C   UNL     1      13.405 -21.403 -38.488  1.00  0.00    -0.008 C 
ATOM     23  C   UNL     1      11.866 -23.196 -39.298  1.00  0.00    -0.027 C 
ATOM     24  C   UNL     1      12.885 -22.354 -39.565  1.00  0.00    -0.065 C 
ATOM     25  C   UNL     1      14.137 -20.182 -39.142  1.00  0.00     0.014 C 
ATOM     26  C   UNL     1      14.439 -22.172 -37.621  1.00  0.00     0.016 C 
ATOM     27  C   UNL     1      13.703 -22.601 -40.822  1.00  0.00     0.063 C 
ATOM     28  C   UNL     1      15.102 -20.568 -40.270  1.00  0.00     0.033 C 
ATOM     29  C   UNL     1      14.340 -21.319 -41.371  1.00  0.00     0.118 C 
BRANCH  29  30
ATOM     30  O   UNL     1      15.181 -21.612 -42.456  1.00  0.00    -0.393 OA
ATOM     31  H   UNL     1      15.129 -20.851 -43.096  1.00  0.00     0.210 HD
ENDBRANCH  29  30
ENDBRANCH   9  11
ENDBRANCH   1   9
TORSDOF 7
ENDMDL
MODEL 4
REMARK VINA RESULT:    -5.688      2.681      7.741
REMARK INTER + INTRA:          -9.740
REMARK INTER:                  -7.822
REMARK INTRA:                  -1.918
REMARK UNBOUND:                -1.891
REMARK SMILES CC[C@H](CC[C@@H](C)[C@H]1CC[C@H]2[C@H]3CC=C4C[C@H](O)CC[C@@]4(C)[C@H]3CC[C@]12C)C(C)C
REMARK SMILES IDX 5 1 4 2 3 3 2 4 1 5 28 6 29 7 30 8 6 9 7 10 8 11 9 12 26 13
REMARK SMILES IDX 10 14 11 15 25 16 27 17 12 18 24 19 23 20 13 21 21 22 14 23
REMARK SMILES IDX 15 24 20 25 22 26 16 27 19 28 17 29 18 30
REMARK H PARENT 18 31
REMARK Flexibility Score: inf
ROOT
ATOM      1  C   UNL     1       5.702 -20.737 -37.120  1.00  0.00     0.004 C 
ENDROOT
BRANCH   1   2
ATOM      2  C   UNL     1       4.983 -20.414 -38.451  1.00  0.00     0.004 C 
BRANCH   2   3
ATOM      3  C   UNL     1       5.784 -19.412 -39.326  1.00  0.00    -0.009 C 
BRANCH   3   4
ATOM      4  C   UNL     1       6.169 -20.027 -40.708  1.00  0.00     0.000 C 
ATOM      5  C   UNL     1       7.430 -19.385 -41.289  1.00  0.00     0.004 C 
ENDBRANCH   3   4
BRANCH   3   6
ATOM      6  C   UNL     1       5.040 -18.043 -39.443  1.00  0.00    -0.014 C 
ATOM      7  C   UNL     1       3.686 -18.063 -38.712  1.00  0.00     0.007 C 
ATOM      8  C   UNL     1       5.880 -16.833 -38.996  1.00  0.00     0.007 C 
ENDBRANCH   3   6
ENDBRANCH   2   3
ENDBRANCH   1   2
BRANCH   1   9
ATOM      9  C   UNL     1       6.851 -19.762 -36.717  1.00  0.00    -0.011 C 
ATOM     10  C   UNL     1       6.358 -18.660 -35.761  1.00  0.00     0.008 C 
BRANCH   9  11
ATOM     11  C   UNL     1       8.184 -20.411 -36.189  1.00  0.00    -0.002 C 
ATOM     12  C   UNL     1       8.077 -21.742 -35.404  1.00  0.00     0.005 C 
ATOM     13  C   UNL     1       9.308 -20.680 -37.229  1.00  0.00    -0.026 C 
ATOM     14  C   UNL     1       9.445 -22.441 -35.539  1.00  0.00     0.005 C 
ATOM     15  C   UNL     1      10.291 -21.463 -36.346  1.00  0.00    -0.001 C 
ATOM     16  C   UNL     1      10.045 -19.418 -37.719  1.00  0.00     0.007 C 
ATOM     17  C   UNL     1       8.754 -21.478 -38.443  1.00  0.00     0.012 C 
ATOM     18  C   UNL     1      11.592 -21.939 -37.029  1.00  0.00     0.000 C 
ATOM     19  C   UNL     1      11.352 -19.774 -38.469  1.00  0.00     0.005 C 
ATOM     20  C   UNL     1      12.329 -20.721 -37.688  1.00  0.00     0.003 C 
ATOM     21  C   UNL     1      11.449 -23.192 -37.940  1.00  0.00     0.031 C 
ATOM     22  C   UNL     1      13.570 -21.206 -38.539  1.00  0.00    -0.008 C 
ATOM     23  C   UNL     1      12.115 -23.094 -39.288  1.00  0.00    -0.027 C 
ATOM     24  C   UNL     1      13.111 -22.232 -39.575  1.00  0.00    -0.065 C 
ATOM     25  C   UNL     1      14.275 -19.996 -39.240  1.00  0.00     0.014 C 
ATOM     26  C   UNL     1      14.607 -21.891 -37.607  1.00  0.00     0.016 C 
ATOM     27  C   UNL     1      13.969 -22.516 -40.797  1.00  0.00     0.063 C 
ATOM     28  C   UNL     1      15.282 -20.406 -40.323  1.00  0.00     0.033 C 
ATOM     29  C   UNL     1      14.575 -21.242 -41.399  1.00  0.00     0.118 C 
BRANCH  29  30
ATOM     30  O   UNL     1      15.454 -21.562 -42.447  1.00  0.00    -0.393 OA
ATOM     31  H   UNL     1      15.079 -21.177 -43.285  1.00  0.00     0.210 HD
ENDBRANCH  29  30
ENDBRANCH   9  11
ENDBRANCH   1   9
TORSDOF 7
ENDMDL
MODEL 5
REMARK VINA RESULT:    -5.679      4.160      9.969
REMARK INTER + INTRA:          -9.727
REMARK INTER:                  -8.295
REMARK INTRA:                  -1.432
REMARK UNBOUND:                -1.891
REMARK SMILES CC[C@H](CC[C@@H](C)[C@H]1CC[C@H]2[C@H]3CC=C4C[C@H](O)CC[C@@]4(C)[C@H]3CC[C@]12C)C(C)C
REMARK SMILES IDX 5 1 4 2 3 3 2 4 1 5 28 6 29 7 30 8 6 9 7 10 8 11 9 12 26 13
REMARK SMILES IDX 10 14 11 15 25 16 27 17 12 18 24 19 23 20 13 21 21 22 14 23
REMARK SMILES IDX 15 24 20 25 22 26 16 27 19 28 17 29 18 30
REMARK H PARENT 18 31
REMARK Flexibility Score: inf
ROOT
ATOM      1  C   UNL     1       2.105 -13.737 -37.185  1.00  0.00     0.004 C 
ENDROOT
BRANCH   1   2
ATOM      2  C   UNL     1       2.693 -12.973 -38.395  1.00  0.00     0.004 C 
BRANCH   2   3
ATOM      3  C   UNL     1       1.701 -12.900 -39.587  1.00  0.00    -0.009 C 
BRANCH   3   4
ATOM      4  C   UNL     1       1.285 -11.429 -39.907  1.00  0.00     0.000 C 
ATOM      5  C   UNL     1       2.342 -10.423 -39.448  1.00  0.00     0.004 C 
ENDBRANCH   3   4
BRANCH   3   6
ATOM      6  C   UNL     1       2.251 -13.672 -40.828  1.00  0.00    -0.014 C 
ATOM      7  C   UNL     1       2.156 -12.832 -42.113  1.00  0.00     0.007 C 
ATOM      8  C   UNL     1       3.679 -14.220 -40.642  1.00  0.00     0.007 C 
ENDBRANCH   3   6
ENDBRANCH   2   3
ENDBRANCH   1   2
BRANCH   1   9
ATOM      9  C   UNL     1       3.099 -14.668 -36.425  1.00  0.00    -0.011 C 
ATOM     10  C   UNL     1       2.956 -14.533 -34.897  1.00  0.00     0.008 C 
BRANCH   9  11
ATOM     11  C   UNL     1       3.130 -16.181 -36.856  1.00  0.00    -0.002 C 
ATOM     12  C   UNL     1       2.471 -16.560 -38.205  1.00  0.00     0.005 C 
ATOM     13  C   UNL     1       4.516 -16.881 -36.908  1.00  0.00    -0.026 C 
ATOM     14  C   UNL     1       3.135 -17.875 -38.663  1.00  0.00     0.005 C 
ATOM     15  C   UNL     1       4.104 -18.220 -37.538  1.00  0.00    -0.001 C 
ATOM     16  C   UNL     1       5.128 -17.199 -35.529  1.00  0.00     0.007 C 
ATOM     17  C   UNL     1       5.520 -16.050 -37.757  1.00  0.00     0.012 C 
ATOM     18  C   UNL     1       5.238 -19.241 -37.773  1.00  0.00     0.000 C 
ATOM     19  C   UNL     1       6.316 -18.184 -35.643  1.00  0.00     0.005 C 
ATOM     20  C   UNL     1       6.011 -19.505 -36.434  1.00  0.00     0.003 C 
ATOM     21  C   UNL     1       6.141 -18.965 -39.010  1.00  0.00     0.031 C 
ATOM     22  C   UNL     1       7.281 -20.412 -36.684  1.00  0.00    -0.008 C 
ATOM     23  C   UNL     1       7.624 -19.079 -38.769  1.00  0.00    -0.027 C 
ATOM     24  C   UNL     1       8.171 -19.766 -37.746  1.00  0.00    -0.065 C 
ATOM     25  C   UNL     1       8.082 -20.632 -35.357  1.00  0.00     0.014 C 
ATOM     26  C   UNL     1       6.833 -21.804 -37.210  1.00  0.00     0.016 C 
ATOM     27  C   UNL     1       9.635 -20.158 -37.852  1.00  0.00     0.063 C 
ATOM     28  C   UNL     1       9.479 -21.229 -35.566  1.00  0.00     0.033 C 
ATOM     29  C   UNL     1      10.303 -20.312 -36.481  1.00  0.00     0.118 C 
BRANCH  29  30
ATOM     30  O   UNL     1      11.616 -20.791 -36.624  1.00  0.00    -0.393 OA
ATOM     31  H   UNL     1      11.658 -21.317 -37.468  1.00  0.00     0.210 HD
ENDBRANCH  29  30
ENDBRANCH   9  11
ENDBRANCH   1   9
TORSDOF 7
ENDMDL
MODEL 6
REMARK VINA RESULT:    -5.670      3.228      8.834
REMARK INTER + INTRA:          -9.715
REMARK INTER:                  -8.096
REMARK INTRA:                  -1.620
REMARK UNBOUND:                -1.891
REMARK SMILES CC[C@H](CC[C@@H](C)[C@H]1CC[C@H]2[C@H]3CC=C4C[C@H](O)CC[C@@]4(C)[C@H]3CC[C@]12C)C(C)C
REMARK SMILES IDX 5 1 4 2 3 3 2 4 1 5 28 6 29 7 30 8 6 9 7 10 8 11 9 12 26 13
REMARK SMILES IDX 10 14 11 15 25 16 27 17 12 18 24 19 23 20 13 21 21 22 14 23
REMARK SMILES IDX 15 24 20 25 22 26 16 27 19 28 17 29 18 30
REMARK H PARENT 18 31
REMARK Flexibility Score: inf
ROOT
ATOM      1  C   UNL     1       5.851 -15.828 -36.696  1.00  0.00     0.004 C 
ENDROOT
BRANCH   1   2
ATOM      2  C   UNL     1       5.040 -14.639 -36.128  1.00  0.00     0.004 C 
BRANCH   2   3
ATOM      3  C   UNL     1       3.736 -14.377 -36.930  1.00  0.00    -0.009 C 
BRANCH   3   4
ATOM      4  C   UNL     1       3.692 -15.205 -38.252  1.00  0.00     0.000 C 
ATOM      5  C   UNL     1       3.350 -14.335 -39.462  1.00  0.00     0.004 C 
ENDBRANCH   3   4
BRANCH   3   6
ATOM      6  C   UNL     1       2.473 -14.572 -36.032  1.00  0.00    -0.014 C 
ATOM      7  C   UNL     1       1.916 -16.002 -36.132  1.00  0.00     0.007 C 
ATOM      8  C   UNL     1       2.682 -14.173 -34.560  1.00  0.00     0.007 C 
ENDBRANCH   3   6
ENDBRANCH   2   3
ENDBRANCH   1   2
BRANCH   1   9
ATOM      9  C   UNL     1       5.992 -17.063 -35.753  1.00  0.00    -0.011 C 
ATOM     10  C   UNL     1       5.240 -16.856 -34.424  1.00  0.00     0.008 C 
BRANCH   9  11
ATOM     11  C   UNL     1       5.666 -18.473 -36.372  1.00  0.00    -0.002 C 
ATOM     12  C   UNL     1       4.734 -18.521 -37.607  1.00  0.00     0.005 C 
ATOM     13  C   UNL     1       6.869 -19.369 -36.776  1.00  0.00    -0.026 C 
ATOM     14  C   UNL     1       5.055 -19.834 -38.348  1.00  0.00     0.005 C 
ATOM     15  C   UNL     1       6.115 -20.506 -37.482  1.00  0.00    -0.001 C 
ATOM     16  C   UNL     1       7.630 -19.997 -35.592  1.00  0.00     0.007 C 
ATOM     17  C   UNL     1       7.856 -18.586 -37.688  1.00  0.00     0.012 C 
ATOM     18  C   UNL     1       6.983 -21.646 -38.059  1.00  0.00     0.000 C 
ATOM     19  C   UNL     1       8.578 -21.130 -36.056  1.00  0.00     0.005 C 
ATOM     20  C   UNL     1       7.903 -22.241 -36.937  1.00  0.00     0.003 C 
ATOM     21  C   UNL     1       7.704 -21.326 -39.399  1.00  0.00     0.031 C 
ATOM     22  C   UNL     1       8.922 -23.289 -37.539  1.00  0.00    -0.008 C 
ATOM     23  C   UNL     1       9.159 -21.714 -39.463  1.00  0.00    -0.027 C 
ATOM     24  C   UNL     1       9.729 -22.634 -38.659  1.00  0.00    -0.065 C 
ATOM     25  C   UNL     1       9.876 -23.844 -36.428  1.00  0.00     0.014 C 
ATOM     26  C   UNL     1       8.141 -24.489 -38.142  1.00  0.00     0.016 C 
ATOM     27  C   UNL     1      11.056 -23.235 -39.093  1.00  0.00     0.063 C 
ATOM     28  C   UNL     1      11.083 -24.617 -36.975  1.00  0.00     0.033 C 
ATOM     29  C   UNL     1      11.901 -23.711 -37.906  1.00  0.00     0.118 C 
BRANCH  29  30
ATOM     30  O   UNL     1      13.059 -24.366 -38.357  1.00  0.00    -0.393 OA
ATOM     31  H   UNL     1      12.772 -25.158 -38.888  1.00  0.00     0.210 HD
ENDBRANCH  29  30
ENDBRANCH   9  11
ENDBRANCH   1   9
TORSDOF 7
ENDMDL
MODEL 7
REMARK VINA RESULT:    -5.641      1.907      3.533
REMARK INTER + INTRA:          -9.676
REMARK INTER:                  -8.634
REMARK INTRA:                  -1.042
REMARK UNBOUND:                -1.891
REMARK SMILES CC[C@H](CC[C@@H](C)[C@H]1CC[C@H]2[C@H]3CC=C4C[C@H](O)CC[C@@]4(C)[C@H]3CC[C@]12C)C(C)C
REMARK SMILES IDX 5 1 4 2 3 3 2 4 1 5 28 6 29 7 30 8 6 9 7 10 8 11 9 12 26 13
REMARK SMILES IDX 10 14 11 15 25 16 27 17 12 18 24 19 23 20 13 21 21 22 14 23
REMARK SMILES IDX 15 24 20 25 22 26 16 27 19 28 17 29 18 30
REMARK H PARENT 18 31
REMARK Flexibility Score: inf
ROOT
ATOM      1  C   UNL     1      16.101 -22.278 -40.114  1.00  0.00     0.004 C 
ENDROOT
BRANCH   1   2
ATOM      2  C   UNL     1      16.350 -20.874 -40.714  1.00  0.00     0.004 C 
BRANCH   2   3
ATOM      3  C   UNL     1      16.840 -20.939 -42.186  1.00  0.00    -0.009 C 
BRANCH   3   4
ATOM      4  C   UNL     1      15.858 -20.210 -43.157  1.00  0.00     0.000 C 
ATOM      5  C   UNL     1      14.548 -19.830 -42.466  1.00  0.00     0.004 C 
ENDBRANCH   3   4
BRANCH   3   6
ATOM      6  C   UNL     1      18.316 -20.446 -42.313  1.00  0.00    -0.014 C 
ATOM      7  C   UNL     1      18.469 -19.368 -43.400  1.00  0.00     0.007 C 
ATOM      8  C   UNL     1      18.933 -19.968 -40.985  1.00  0.00     0.007 C 
ENDBRANCH   3   6
ENDBRANCH   2   3
ENDBRANCH   1   2
BRANCH   1   9
ATOM      9  C   UNL     1      14.607 -22.649 -39.859  1.00  0.00    -0.011 C 
ATOM     10  C   UNL     1      14.354 -24.158 -40.038  1.00  0.00     0.008 C 
BRANCH   9  11
ATOM     11  C   UNL     1      13.961 -22.123 -38.524  1.00  0.00    -0.002 C 
ATOM     12  C   UNL     1      14.627 -20.910 -37.829  1.00  0.00     0.005 C 
ATOM     13  C   UNL     1      12.452 -21.752 -38.560  1.00  0.00    -0.026 C 
ATOM     14  C   UNL     1      13.535 -20.245 -36.967  1.00  0.00     0.005 C 
ATOM     15  C   UNL     1      12.309 -21.130 -37.162  1.00  0.00    -0.001 C 
ATOM     16  C   UNL     1      11.494 -22.957 -38.619  1.00  0.00     0.007 C 
ATOM     17  C   UNL     1      12.154 -20.776 -39.734  1.00  0.00     0.012 C 
ATOM     18  C   UNL     1      10.904 -20.608 -36.788  1.00  0.00     0.000 C 
ATOM     19  C   UNL     1      10.035 -22.545 -38.308  1.00  0.00     0.005 C 
ATOM     20  C   UNL     1       9.841 -21.747 -36.971  1.00  0.00     0.003 C 
ATOM     21  C   UNL     1      10.512 -19.238 -37.411  1.00  0.00     0.031 C 
ATOM     22  C   UNL     1       8.377 -21.191 -36.761  1.00  0.00    -0.008 C 
ATOM     23  C   UNL     1       9.135 -19.171 -38.020  1.00  0.00    -0.027 C 
ATOM     24  C   UNL     1       8.133 -20.018 -37.710  1.00  0.00    -0.065 C 
ATOM     25  C   UNL     1       7.312 -22.316 -36.995  1.00  0.00     0.014 C 
ATOM     26  C   UNL     1       8.217 -20.676 -35.304  1.00  0.00     0.016 C 
ATOM     27  C   UNL     1       6.713 -19.598 -38.052  1.00  0.00     0.063 C 
ATOM     28  C   UNL     1       5.875 -21.794 -37.120  1.00  0.00     0.033 C 
ATOM     29  C   UNL     1       5.785 -20.796 -38.282  1.00  0.00     0.118 C 
BRANCH  29  30
ATOM     30  O   UNL     1       4.462 -20.364 -38.474  1.00  0.00    -0.393 OA
ATOM     31  H   UNL     1       4.146 -20.730 -39.345  1.00  0.00     0.210 HD
ENDBRANCH  29  30
ENDBRANCH   9  11
ENDBRANCH   1   9
TORSDOF 7
ENDMDL
MODEL 8
REMARK VINA RESULT:    -5.583      2.766      7.949
REMARK INTER + INTRA:          -9.596
REMARK INTER:                  -7.856
REMARK INTRA:                  -1.740
REMARK UNBOUND:                -1.891
REMARK SMILES CC[C@H](CC[C@@H](C)[C@H]1CC[C@H]2[C@H]3CC=C4C[C@H](O)CC[C@@]4(C)[C@H]3CC[C@]12C)C(C)C
REMARK SMILES IDX 5 1 4 2 3 3 2 4 1 5 28 6 29 7 30 8 6 9 7 10 8 11 9 12 26 13
REMARK SMILES IDX 10 14 11 15 25 16 27 17 12 18 24 19 23 20 13 21 21 22 14 23
REMARK SMILES IDX 15 24 20 25 22 26 16 27 19 28 17 29 18 30
REMARK H PARENT 18 31
REMARK Flexibility Score: inf
ROOT
ATOM      1  C   UNL     1       5.604 -21.197 -37.072  1.00  0.00     0.004 C 
ENDROOT
BRANCH   1   2
ATOM      2  C   UNL     1       5.279 -21.701 -38.498  1.00  0.00     0.004 C 
BRANCH   2   3
ATOM      3  C   UNL     1       4.180 -20.849 -39.189  1.00  0.00    -0.009 C 
BRANCH   3   4
ATOM      4  C   UNL     1       3.208 -20.203 -38.152  1.00  0.00     0.000 C 
ATOM      5  C   UNL     1       2.006 -21.102 -37.857  1.00  0.00     0.004 C 
ENDBRANCH   3   4
BRANCH   3   6
ATOM      6  C   UNL     1       4.806 -19.815 -40.179  1.00  0.00    -0.014 C 
ATOM      7  C   UNL     1       4.775 -18.387 -39.611  1.00  0.00     0.007 C 
ATOM      8  C   UNL     1       6.225 -20.181 -40.652  1.00  0.00     0.007 C 
ENDBRANCH   3   6
ENDBRANCH   2   3
ENDBRANCH   1   2
BRANCH   1   9
ATOM      9  C   UNL     1       6.785 -20.182 -36.966  1.00  0.00    -0.011 C 
ATOM     10  C   UNL     1       6.356 -18.876 -36.271  1.00  0.00     0.008 C 
BRANCH   9  11
ATOM     11  C   UNL     1       8.136 -20.722 -36.366  1.00  0.00    -0.002 C 
ATOM     12  C   UNL     1       8.088 -22.033 -35.544  1.00  0.00     0.005 C 
ATOM     13  C   UNL     1       9.317 -20.941 -37.352  1.00  0.00    -0.026 C 
ATOM     14  C   UNL     1       9.505 -22.639 -35.603  1.00  0.00     0.005 C 
ATOM     15  C   UNL     1      10.314 -21.628 -36.407  1.00  0.00    -0.001 C 
ATOM     16  C   UNL     1       9.986 -19.646 -37.852  1.00  0.00     0.007 C 
ATOM     17  C   UNL     1       8.869 -21.811 -38.561  1.00  0.00     0.012 C 
ATOM     18  C   UNL     1      11.672 -22.033 -37.024  1.00  0.00     0.000 C 
ATOM     19  C   UNL     1      11.343 -19.932 -38.540  1.00  0.00     0.005 C 
ATOM     20  C   UNL     1      12.350 -20.787 -37.692  1.00  0.00     0.003 C 
ATOM     21  C   UNL     1      11.652 -23.318 -37.900  1.00  0.00     0.031 C 
ATOM     22  C   UNL     1      13.655 -21.208 -38.478  1.00  0.00    -0.008 C 
ATOM     23  C   UNL     1      12.365 -23.214 -39.223  1.00  0.00    -0.027 C 
ATOM     24  C   UNL     1      13.310 -22.293 -39.499  1.00  0.00    -0.065 C 
ATOM     25  C   UNL     1      14.304 -19.973 -39.190  1.00  0.00     0.014 C 
ATOM     26  C   UNL     1      14.697 -21.792 -37.486  1.00  0.00     0.016 C 
ATOM     27  C   UNL     1      14.235 -22.551 -40.677  1.00  0.00     0.063 C 
ATOM     28  C   UNL     1      15.380 -20.343 -40.218  1.00  0.00     0.033 C 
ATOM     29  C   UNL     1      14.776 -21.257 -41.294  1.00  0.00     0.118 C 
BRANCH  29  30
ATOM     30  O   UNL     1      15.717 -21.545 -42.297  1.00  0.00    -0.393 OA
ATOM     31  H   UNL     1      16.517 -21.943 -41.857  1.00  0.00     0.210 HD
ENDBRANCH  29  30
ENDBRANCH   9  11
ENDBRANCH   1   9
TORSDOF 7
ENDMDL
MODEL 9
REMARK VINA RESULT:    -5.532      1.737      3.650
REMARK INTER + INTRA:          -9.525
REMARK INTER:                  -7.741
REMARK INTRA:                  -1.785
REMARK UNBOUND:                -1.891
REMARK SMILES CC[C@H](CC[C@@H](C)[C@H]1CC[C@H]2[C@H]3CC=C4C[C@H](O)CC[C@@]4(C)[C@H]3CC[C@]12C)C(C)C
REMARK SMILES IDX 5 1 4 2 3 3 2 4 1 5 28 6 29 7 30 8 6 9 7 10 8 11 9 12 26 13
REMARK SMILES IDX 10 14 11 15 25 16 27 17 12 18 24 19 23 20 13 21 21 22 14 23
REMARK SMILES IDX 15 24 20 25 22 26 16 27 19 28 17 29 18 30
REMARK H PARENT 18 31
REMARK Flexibility Score: inf
ROOT
ATOM      1  C   UNL     1      11.172 -24.302 -37.375  1.00  0.00     0.004 C 
ENDROOT
BRANCH   1   2
ATOM      2  C   UNL     1      12.039 -23.591 -38.442  1.00  0.00     0.004 C 
BRANCH   2   3
ATOM      3  C   UNL     1      13.093 -22.642 -37.810  1.00  0.00    -0.009 C 
BRANCH   3   4
ATOM      4  C   UNL     1      14.534 -22.950 -38.326  1.00  0.00     0.000 C 
ATOM      5  C   UNL     1      14.592 -24.259 -39.113  1.00  0.00     0.004 C 
ENDBRANCH   3   4
BRANCH   3   6
ATOM      6  C   UNL     1      12.679 -21.145 -37.981  1.00  0.00    -0.014 C 
ATOM      7  C   UNL     1      13.582 -20.205 -37.164  1.00  0.00     0.007 C 
ATOM      8  C   UNL     1      12.599 -20.682 -39.447  1.00  0.00     0.007 C 
ENDBRANCH   3   6
ENDBRANCH   2   3
ENDBRANCH   1   2
BRANCH   1   9
ATOM      9  C   UNL     1       9.634 -24.062 -37.484  1.00  0.00    -0.011 C 
ATOM     10  C   UNL     1       8.836 -25.363 -37.273  1.00  0.00     0.008 C 
BRANCH   9  11
ATOM     11  C   UNL     1       9.034 -22.887 -36.626  1.00  0.00    -0.002 C 
ATOM     12  C   UNL     1      10.006 -22.076 -35.733  1.00  0.00     0.005 C 
ATOM     13  C   UNL     1       8.219 -21.798 -37.377  1.00  0.00    -0.026 C 
ATOM     14  C   UNL     1       9.347 -20.700 -35.506  1.00  0.00     0.005 C 
ATOM     15  C   UNL     1       8.008 -20.799 -36.230  1.00  0.00    -0.001 C 
ATOM     16  C   UNL     1       6.822 -22.250 -37.846  1.00  0.00     0.007 C 
ATOM     17  C   UNL     1       9.030 -21.238 -38.581  1.00  0.00     0.012 C 
ATOM     18  C   UNL     1       7.215 -19.520 -36.576  1.00  0.00     0.000 C 
ATOM     19  C   UNL     1       5.944 -21.048 -38.270  1.00  0.00     0.005 C 
ATOM     20  C   UNL     1       5.829 -19.901 -37.205  1.00  0.00     0.003 C 
ATOM     21  C   UNL     1       8.009 -18.428 -37.349  1.00  0.00     0.031 C 
ATOM     22  C   UNL     1       5.072 -18.615 -37.725  1.00  0.00    -0.008 C 
ATOM     23  C   UNL     1       7.301 -17.827 -38.535  1.00  0.00    -0.027 C 
ATOM     24  C   UNL     1       5.964 -17.859 -38.710  1.00  0.00    -0.065 C 
ATOM     25  C   UNL     1       3.713 -18.999 -38.400  1.00  0.00     0.014 C 
ATOM     26  C   UNL     1       4.764 -17.671 -36.530  1.00  0.00     0.016 C 
ATOM     27  C   UNL     1       5.350 -16.874 -39.691  1.00  0.00     0.063 C 
ATOM     28  C   UNL     1       3.073 -17.859 -39.202  1.00  0.00     0.033 C 
ATOM     29  C   UNL     1       4.039 -17.389 -40.298  1.00  0.00     0.118 C 
BRANCH  29  30
ATOM     30  O   UNL     1       3.447 -16.401 -41.102  1.00  0.00    -0.393 OA
ATOM     31  H   UNL     1       4.033 -16.264 -41.895  1.00  0.00     0.210 HD
ENDBRANCH  29  30
ENDBRANCH   9  11
ENDBRANCH   1   9
TORSDOF 7
ENDMDL
