MODEL 1
REMARK VINA RESULT:    -6.332      0.000      0.000
REMARK INTER + INTRA:         -11.036
REMARK INTER:                  -9.293
REMARK INTRA:                  -1.743
REMARK UNBOUND:                -1.743
REMARK SMILES O=c1c(O[C@H]2O[C@H](CO)[C@H](O)[C@@H](O)[C@H]2O)c(-c2ccc(O)c(O)c2)oc2cc(O)cc(O)c12
REMARK SMILES IDX 4 1 3 2 16 3 25 4 2 5 26 6 1 7 33 8 27 9 31 10 28 11 30 12
REMARK SMILES IDX 17 13 18 14 19 15 20 16 24 17 22 18 21 19 23 21 32 23 29 25
REMARK SMILES IDX 5 27 14 28 6 29 12 30 7 31 10 32 15 33 13 35 8 37 9 38 11 40
REMARK H PARENT 21 20 23 22 32 24 29 26 15 34 13 36 9 39 11 41
REMARK Flexibility Score: inf
ROOT
ATOM      1  O   UNL     1      -2.281  14.655   4.157  1.00  0.00    -0.454 OA
ENDROOT
BRANCH   1   2
ATOM      2  C   UNL     1      -0.944  14.314   3.884  1.00  0.00     0.214 A 
ATOM      3  C   UNL     1      -0.513  14.346   2.542  1.00  0.00     0.180 A 
ATOM      4  O   UNL     1       0.759  14.104   2.241  1.00  0.00    -0.452 OA
ATOM      5  C   UNL     1      -0.006  13.963   4.879  1.00  0.00     0.239 A 
ATOM      6  C   UNL     1       1.676  13.791   3.148  1.00  0.00     0.146 A 
ATOM      7  O   UNL     1      -0.362  13.879   6.085  1.00  0.00    -0.285 OA
ATOM      8  C   UNL     1       1.330  13.695   4.516  1.00  0.00     0.111 A 
ATOM      9  C   UNL     1       2.990  13.552   2.730  1.00  0.00     0.094 A 
ATOM     10  C   UNL     1       2.334  13.340   5.452  1.00  0.00     0.134 A 
ATOM     11  C   UNL     1       3.972  13.200   3.656  1.00  0.00     0.123 A 
ATOM     12  C   UNL     1       3.643  13.091   5.012  1.00  0.00     0.093 A 
BRANCH   3  13
ATOM     13  C   UNL     1      -1.439  14.681   1.438  1.00  0.00     0.025 A 
ATOM     14  C   UNL     1      -2.221  13.693   0.817  1.00  0.00     0.016 A 
ATOM     15  C   UNL     1      -3.091  14.032  -0.219  1.00  0.00     0.051 A 
ATOM     16  C   UNL     1      -3.187  15.354  -0.668  1.00  0.00     0.157 A 
ATOM     17  C   UNL     1      -1.517  16.003   0.977  1.00  0.00     0.062 A 
ATOM     18  C   UNL     1      -2.390  16.353  -0.061  1.00  0.00     0.158 A 
BRANCH  16  19
ATOM     19  O   UNL     1      -4.076  15.624  -1.710  1.00  0.00    -0.504 OA
ATOM     20  H   UNL     1      -5.029  15.926  -1.573  1.00  0.00     0.293 HD
ENDBRANCH  16  19
BRANCH  18  21
ATOM     21  O   UNL     1      -2.435  17.692  -0.450  1.00  0.00    -0.504 OA
ATOM     22  H   UNL     1      -3.123  18.353  -0.121  1.00  0.00     0.293 HD
ENDBRANCH  18  21
ENDBRANCH   3  13
BRANCH  10  23
ATOM     23  O   UNL     1       2.042  13.233   6.813  1.00  0.00    -0.507 OA
ATOM     24  H   UNL     1       1.630  12.394   7.206  1.00  0.00     0.293 HD
ENDBRANCH  10  23
BRANCH  11  25
ATOM     25  O   UNL     1       5.274  12.961   3.219  1.00  0.00    -0.508 OA
ATOM     26  H   UNL     1       6.052  13.531   3.531  1.00  0.00     0.293 HD
ENDBRANCH  11  25
ENDBRANCH   1   2
BRANCH   1  27
ATOM     27  C   UNL     1      -2.804  15.959   4.430  1.00  0.00     0.339 C 
ATOM     28  C   UNL     1      -3.294  16.042   5.888  1.00  0.00     0.214 C 
ATOM     29  O   UNL     1      -3.841  16.306   3.522  1.00  0.00    -0.332 OA
ATOM     30  C   UNL     1      -4.549  15.172   6.095  1.00  0.00     0.180 C 
ATOM     31  C   UNL     1      -4.938  15.410   3.613  1.00  0.00     0.179 C 
ATOM     32  C   UNL     1      -5.597  15.491   5.010  1.00  0.00     0.177 C 
BRANCH  28  33
ATOM     33  O   UNL     1      -2.267  15.634   6.755  1.00  0.00    -0.384 OA
ATOM     34  H   UNL     1      -1.435  15.592   6.213  1.00  0.00     0.211 HD
ENDBRANCH  28  33
BRANCH  30  35
ATOM     35  O   UNL     1      -4.200  13.812   6.049  1.00  0.00    -0.387 OA
ATOM     36  H   UNL     1      -4.881  13.358   5.484  1.00  0.00     0.211 HD
ENDBRANCH  30  35
BRANCH  31  37
ATOM     37  C   UNL     1      -5.937  15.749   2.501  1.00  0.00     0.191 C 
BRANCH  37  38
ATOM     38  O   UNL     1      -6.082  17.141   2.389  1.00  0.00    -0.394 OA
ATOM     39  H   UNL     1      -6.737  17.308   1.662  1.00  0.00     0.210 HD
ENDBRANCH  37  38
ENDBRANCH  31  37
BRANCH  32  40
ATOM     40  O   UNL     1      -6.125  16.778   5.215  1.00  0.00    -0.387 OA
ATOM     41  H   UNL     1      -6.986  16.662   5.692  1.00  0.00     0.211 HD
ENDBRANCH  32  40
ENDBRANCH   1  27
TORSDOF 12
ENDMDL
MODEL 2
REMARK VINA RESULT:    -5.948      2.373      7.779
REMARK INTER + INTRA:         -10.473
REMARK INTER:                  -9.792
REMARK INTRA:                  -0.681
REMARK UNBOUND:                -1.743
REMARK SMILES O=c1c(O[C@H]2O[C@H](CO)[C@H](O)[C@@H](O)[C@H]2O)c(-c2ccc(O)c(O)c2)oc2cc(O)cc(O)c12
REMARK SMILES IDX 4 1 3 2 16 3 25 4 2 5 26 6 1 7 33 8 27 9 31 10 28 11 30 12
REMARK SMILES IDX 17 13 18 14 19 15 20 16 24 17 22 18 21 19 23 21 32 23 29 25
REMARK SMILES IDX 5 27 14 28 6 29 12 30 7 31 10 32 15 33 13 35 8 37 9 38 11 40
REMARK H PARENT 21 20 23 22 32 24 29 26 15 34 13 36 9 39 11 41
REMARK Flexibility Score: inf
ROOT
ATOM      1  O   UNL     1      -0.101  14.914   0.942  1.00  0.00    -0.454 OA
ENDROOT
BRANCH   1   2
ATOM      2  C   UNL     1      -1.106  14.919   1.926  1.00  0.00     0.214 A 
ATOM      3  C   UNL     1      -0.777  14.443   3.211  1.00  0.00     0.180 A 
ATOM      4  O   UNL     1      -1.671  14.495   4.194  1.00  0.00    -0.452 OA
ATOM      5  C   UNL     1      -2.418  15.393   1.704  1.00  0.00     0.239 A 
ATOM      6  C   UNL     1      -2.906  14.951   4.032  1.00  0.00     0.146 A 
ATOM      7  O   UNL     1      -2.765  15.785   0.558  1.00  0.00    -0.285 OA
ATOM      8  C   UNL     1      -3.342  15.413   2.769  1.00  0.00     0.111 A 
ATOM      9  C   UNL     1      -3.774  14.963   5.130  1.00  0.00     0.094 A 
ATOM     10  C   UNL     1      -4.675  15.876   2.632  1.00  0.00     0.134 A 
ATOM     11  C   UNL     1      -5.086  15.417   4.988  1.00  0.00     0.123 A 
ATOM     12  C   UNL     1      -5.534  15.868   3.742  1.00  0.00     0.093 A 
BRANCH   3  13
ATOM     13  C   UNL     1       0.568  13.908   3.520  1.00  0.00     0.025 A 
ATOM     14  C   UNL     1       1.385  13.365   2.514  1.00  0.00     0.016 A 
ATOM     15  C   UNL     1       2.651  12.872   2.826  1.00  0.00     0.051 A 
ATOM     16  C   UNL     1       3.121  12.891   4.144  1.00  0.00     0.157 A 
ATOM     17  C   UNL     1       1.026  13.911   4.844  1.00  0.00     0.062 A 
ATOM     18  C   UNL     1       2.297  13.419   5.167  1.00  0.00     0.158 A 
BRANCH  16  19
ATOM     19  O   UNL     1       4.396  12.379   4.388  1.00  0.00    -0.504 OA
ATOM     20  H   UNL     1       4.713  11.477   4.064  1.00  0.00     0.293 HD
ENDBRANCH  16  19
BRANCH  18  21
ATOM     21  O   UNL     1       2.699  13.478   6.502  1.00  0.00    -0.504 OA
ATOM     22  H   UNL     1       2.109  13.796   7.256  1.00  0.00     0.293 HD
ENDBRANCH  18  21
ENDBRANCH   3  13
BRANCH  10  23
ATOM     23  O   UNL     1      -5.151  16.343   1.406  1.00  0.00    -0.507 OA
ATOM     24  H   UNL     1      -6.133  16.285   1.158  1.00  0.00     0.293 HD
ENDBRANCH  10  23
BRANCH  11  25
ATOM     25  O   UNL     1      -5.936  15.416   6.093  1.00  0.00    -0.508 OA
ATOM     26  H   UNL     1      -6.526  16.211   6.309  1.00  0.00     0.293 HD
ENDBRANCH  11  25
ENDBRANCH   1   2
BRANCH   1  27
ATOM     27  C   UNL     1       0.258  15.988   0.067  1.00  0.00     0.339 C 
ATOM     28  C   UNL     1       0.366  15.481  -1.384  1.00  0.00     0.214 C 
ATOM     29  O   UNL     1       1.465  16.617   0.479  1.00  0.00    -0.332 OA
ATOM     30  C   UNL     1       1.580  14.547  -1.548  1.00  0.00     0.180 C 
ATOM     31  C   UNL     1       2.557  15.710   0.467  1.00  0.00     0.179 C 
ATOM     32  C   UNL     1       2.843  15.217  -0.971  1.00  0.00     0.177 C 
BRANCH  28  33
ATOM     33  O   UNL     1      -0.818  14.811  -1.738  1.00  0.00    -0.384 OA
ATOM     34  H   UNL     1      -1.374  14.760  -0.917  1.00  0.00     0.211 HD
ENDBRANCH  28  33
BRANCH  30  35
ATOM     35  O   UNL     1       1.337  13.326  -0.897  1.00  0.00    -0.387 OA
ATOM     36  H   UNL     1       1.694  12.609  -1.485  1.00  0.00     0.211 HD
ENDBRANCH  30  35
BRANCH  31  37
ATOM     37  C   UNL     1       3.778  16.412   1.073  1.00  0.00     0.191 C 
BRANCH  37  38
ATOM     38  O   UNL     1       4.001  17.639   0.428  1.00  0.00    -0.394 OA
ATOM     39  H   UNL     1       4.382  17.433  -0.465  1.00  0.00     0.210 HD
ENDBRANCH  37  38
ENDBRANCH  31  37
BRANCH  32  40
ATOM     40  O   UNL     1       3.225  16.301  -1.781  1.00  0.00    -0.387 OA
ATOM     41  H   UNL     1       4.204  16.228  -1.916  1.00  0.00     0.211 HD
ENDBRANCH  32  40
ENDBRANCH   1  27
TORSDOF 12
ENDMDL
MODEL 3
REMARK VINA RESULT:    -5.650      2.788      6.099
REMARK INTER + INTRA:         -10.035
REMARK INTER:                  -8.618
REMARK INTRA:                  -1.417
REMARK UNBOUND:                -1.743
REMARK SMILES O=c1c(O[C@H]2O[C@H](CO)[C@H](O)[C@@H](O)[C@H]2O)c(-c2ccc(O)c(O)c2)oc2cc(O)cc(O)c12
REMARK SMILES IDX 4 1 3 2 16 3 25 4 2 5 26 6 1 7 33 8 27 9 31 10 28 11 30 12
REMARK SMILES IDX 17 13 18 14 19 15 20 16 24 17 22 18 21 19 23 21 32 23 29 25
REMARK SMILES IDX 5 27 14 28 6 29 12 30 7 31 10 32 15 33 13 35 8 37 9 38 11 40
REMARK H PARENT 21 20 23 22 32 24 29 26 15 34 13 36 9 39 11 41
REMARK Flexibility Score: inf
ROOT
ATOM      1  O   UNL     1       1.133  14.777   0.467  1.00  0.00    -0.454 OA
ENDROOT
BRANCH   1   2
ATOM      2  C   UNL     1       0.773  14.330   1.751  1.00  0.00     0.214 A 
ATOM      3  C   UNL     1      -0.584  14.036   1.994  1.00  0.00     0.180 A 
ATOM      4  O   UNL     1      -0.962  13.541   3.169  1.00  0.00    -0.452 OA
ATOM      5  C   UNL     1       1.697  14.140   2.802  1.00  0.00     0.239 A 
ATOM      6  C   UNL     1      -0.123  13.329   4.175  1.00  0.00     0.146 A 
ATOM      7  O   UNL     1       2.912  14.433   2.640  1.00  0.00    -0.285 OA
ATOM      8  C   UNL     1       1.252  13.631   4.040  1.00  0.00     0.111 A 
ATOM      9  C   UNL     1      -0.619  12.805   5.374  1.00  0.00     0.094 A 
ATOM     10  C   UNL     1       2.113  13.407   5.144  1.00  0.00     0.134 A 
ATOM     11  C   UNL     1       0.233  12.590   6.457  1.00  0.00     0.123 A 
ATOM     12  C   UNL     1       1.594  12.894   6.341  1.00  0.00     0.093 A 
BRANCH   3  13
ATOM     13  C   UNL     1      -1.618  14.230   0.954  1.00  0.00     0.025 A 
ATOM     14  C   UNL     1      -1.785  13.305  -0.090  1.00  0.00     0.016 A 
ATOM     15  C   UNL     1      -2.770  13.505  -1.057  1.00  0.00     0.051 A 
ATOM     16  C   UNL     1      -3.594  14.635  -1.014  1.00  0.00     0.157 A 
ATOM     17  C   UNL     1      -2.428  15.373   0.989  1.00  0.00     0.062 A 
ATOM     18  C   UNL     1      -3.421  15.582   0.024  1.00  0.00     0.158 A 
BRANCH  16  19
ATOM     19  O   UNL     1      -4.558  14.775  -2.014  1.00  0.00    -0.504 OA
ATOM     20  H   UNL     1      -4.754  14.072  -2.711  1.00  0.00     0.293 HD
ENDBRANCH  16  19
BRANCH  18  21
ATOM     21  O   UNL     1      -4.209  16.728   0.136  1.00  0.00    -0.504 OA
ATOM     22  H   UNL     1      -3.995  17.502   0.746  1.00  0.00     0.293 HD
ENDBRANCH  18  21
ENDBRANCH   3  13
BRANCH  10  23
ATOM     23  O   UNL     1       3.478  13.688   5.058  1.00  0.00    -0.507 OA
ATOM     24  H   UNL     1       3.868  14.551   5.423  1.00  0.00     0.293 HD
ENDBRANCH  10  23
BRANCH  11  25
ATOM     25  O   UNL     1      -0.283  12.073   7.645  1.00  0.00    -0.508 OA
ATOM     26  H   UNL     1       0.262  12.062   8.499  1.00  0.00     0.293 HD
ENDBRANCH  11  25
ENDBRANCH   1   2
BRANCH   1  27
ATOM     27  C   UNL     1       1.055  16.114  -0.037  1.00  0.00     0.339 C 
ATOM     28  C   UNL     1       1.186  16.114  -1.572  1.00  0.00     0.214 C 
ATOM     29  O   UNL     1       2.036  16.954   0.559  1.00  0.00    -0.332 OA
ATOM     30  C   UNL     1       2.612  15.719  -2.000  1.00  0.00     0.180 C 
ATOM     31  C   UNL     1       3.352  16.500   0.284  1.00  0.00     0.179 C 
ATOM     32  C   UNL     1       3.648  16.568  -1.233  1.00  0.00     0.177 C 
BRANCH  28  33
ATOM     33  O   UNL     1       0.246  15.229  -2.125  1.00  0.00    -0.384 OA
ATOM     34  H   UNL     1       0.275  14.402  -1.575  1.00  0.00     0.211 HD
ENDBRANCH  28  33
BRANCH  30  35
ATOM     35  O   UNL     1       2.825  14.353  -1.753  1.00  0.00    -0.387 OA
ATOM     36  H   UNL     1       3.603  14.077  -2.306  1.00  0.00     0.211 HD
ENDBRANCH  30  35
BRANCH  31  37
ATOM     37  C   UNL     1       4.340  17.354   1.086  1.00  0.00     0.191 C 
BRANCH  37  38
ATOM     38  O   UNL     1       4.429  16.880   2.405  1.00  0.00    -0.394 OA
ATOM     39  H   UNL     1       5.393  16.763   2.607  1.00  0.00     0.210 HD
ENDBRANCH  37  38
ENDBRANCH  31  37
BRANCH  32  40
ATOM     40  O   UNL     1       3.595  17.902  -1.672  1.00  0.00    -0.387 OA
ATOM     41  H   UNL     1       4.524  18.245  -1.661  1.00  0.00     0.211 HD
ENDBRANCH  32  40
ENDBRANCH   1  27
TORSDOF 12
ENDMDL
MODEL 4
REMARK VINA RESULT:    -5.382      1.815      5.093
REMARK INTER + INTRA:          -9.641
REMARK INTER:                  -8.608
REMARK INTRA:                  -1.033
REMARK UNBOUND:                -1.743
REMARK SMILES O=c1c(O[C@H]2O[C@H](CO)[C@H](O)[C@@H](O)[C@H]2O)c(-c2ccc(O)c(O)c2)oc2cc(O)cc(O)c12
REMARK SMILES IDX 4 1 3 2 16 3 25 4 2 5 26 6 1 7 33 8 27 9 31 10 28 11 30 12
REMARK SMILES IDX 17 13 18 14 19 15 20 16 24 17 22 18 21 19 23 21 32 23 29 25
REMARK SMILES IDX 5 27 14 28 6 29 12 30 7 31 10 32 15 33 13 35 8 37 9 38 11 40
REMARK H PARENT 21 20 23 22 32 24 29 26 15 34 13 36 9 39 11 41
REMARK Flexibility Score: inf
ROOT
ATOM      1  O   UNL     1      -2.334  14.921   3.952  1.00  0.00    -0.454 OA
ENDROOT
BRANCH   1   2
ATOM      2  C   UNL     1      -1.373  14.769   2.936  1.00  0.00     0.214 A 
ATOM      3  C   UNL     1      -0.234  13.987   3.214  1.00  0.00     0.180 A 
ATOM      4  O   UNL     1       0.666  13.754   2.264  1.00  0.00    -0.452 OA
ATOM      5  C   UNL     1      -1.498  15.336   1.650  1.00  0.00     0.239 A 
ATOM      6  C   UNL     1       0.577  14.251   1.037  1.00  0.00     0.146 A 
ATOM      7  O   UNL     1      -2.479  16.078   1.375  1.00  0.00    -0.285 OA
ATOM      8  C   UNL     1      -0.511  15.079   0.675  1.00  0.00     0.111 A 
ATOM      9  C   UNL     1       1.577  13.948   0.107  1.00  0.00     0.094 A 
ATOM     10  C   UNL     1      -0.561  15.607  -0.640  1.00  0.00     0.134 A 
ATOM     11  C   UNL     1       1.523  14.472  -1.185  1.00  0.00     0.123 A 
ATOM     12  C   UNL     1       0.459  15.302  -1.554  1.00  0.00     0.093 A 
BRANCH   3  13
ATOM     13  C   UNL     1      -0.017  13.377   4.545  1.00  0.00     0.025 A 
ATOM     14  C   UNL     1      -0.912  12.429   5.067  1.00  0.00     0.016 A 
ATOM     15  C   UNL     1      -0.685  11.862   6.320  1.00  0.00     0.051 A 
ATOM     16  C   UNL     1       0.424  12.240   7.085  1.00  0.00     0.157 A 
ATOM     17  C   UNL     1       1.085  13.773   5.316  1.00  0.00     0.062 A 
ATOM     18  C   UNL     1       1.322  13.208   6.575  1.00  0.00     0.158 A 
BRANCH  16  19
ATOM     19  O   UNL     1       0.590  11.636   8.333  1.00  0.00    -0.504 OA
ATOM     20  H   UNL     1       1.489  11.440   8.749  1.00  0.00     0.293 HD
ENDBRANCH  16  19
BRANCH  18  21
ATOM     21  O   UNL     1       2.452  13.629   7.276  1.00  0.00    -0.504 OA
ATOM     22  H   UNL     1       2.985  13.038   7.896  1.00  0.00     0.293 HD
ENDBRANCH  18  21
ENDBRANCH   3  13
BRANCH  10  23
ATOM     23  O   UNL     1      -1.615  16.428  -1.045  1.00  0.00    -0.507 OA
ATOM     24  H   UNL     1      -1.464  17.230  -1.647  1.00  0.00     0.293 HD
ENDBRANCH  10  23
BRANCH  11  25
ATOM     25  O   UNL     1       2.533  14.163  -2.094  1.00  0.00    -0.508 OA
ATOM     26  H   UNL     1       2.386  13.498  -2.845  1.00  0.00     0.293 HD
ENDBRANCH  11  25
ENDBRANCH   1   2
BRANCH   1  27
ATOM     27  C   UNL     1      -2.824  16.148   4.503  1.00  0.00     0.339 C 
ATOM     28  C   UNL     1      -3.175  15.962   5.991  1.00  0.00     0.214 C 
ATOM     29  O   UNL     1      -3.940  16.639   3.773  1.00  0.00    -0.332 OA
ATOM     30  C   UNL     1      -4.408  15.052   6.154  1.00  0.00     0.180 C 
ATOM     31  C   UNL     1      -5.027  15.726   3.802  1.00  0.00     0.179 C 
ATOM     32  C   UNL     1      -5.552  15.547   5.246  1.00  0.00     0.177 C 
BRANCH  28  33
ATOM     33  O   UNL     1      -2.072  15.418   6.672  1.00  0.00    -0.384 OA
ATOM     34  H   UNL     1      -2.225  15.582   7.640  1.00  0.00     0.211 HD
ENDBRANCH  28  33
BRANCH  30  35
ATOM     35  O   UNL     1      -4.070  13.727   5.832  1.00  0.00    -0.387 OA
ATOM     36  H   UNL     1      -3.865  13.709   4.860  1.00  0.00     0.211 HD
ENDBRANCH  30  35
BRANCH  31  37
ATOM     37  C   UNL     1      -6.125  16.246   2.867  1.00  0.00     0.191 C 
BRANCH  37  38
ATOM     38  O   UNL     1      -5.627  16.376   1.561  1.00  0.00    -0.394 OA
ATOM     39  H   UNL     1      -6.127  15.734   0.994  1.00  0.00     0.210 HD
ENDBRANCH  37  38
ENDBRANCH  31  37
BRANCH  32  40
ATOM     40  O   UNL     1      -6.054  16.769   5.728  1.00  0.00    -0.387 OA
ATOM     41  H   UNL     1      -5.360  17.148   6.326  1.00  0.00     0.211 HD
ENDBRANCH  32  40
ENDBRANCH   1  27
TORSDOF 12
ENDMDL
MODEL 5
REMARK VINA RESULT:    -5.381      2.594      7.062
REMARK INTER + INTRA:          -9.640
REMARK INTER:                  -8.375
REMARK INTRA:                  -1.265
REMARK UNBOUND:                -1.743
REMARK SMILES O=c1c(O[C@H]2O[C@H](CO)[C@H](O)[C@@H](O)[C@H]2O)c(-c2ccc(O)c(O)c2)oc2cc(O)cc(O)c12
REMARK SMILES IDX 4 1 3 2 16 3 25 4 2 5 26 6 1 7 33 8 27 9 31 10 28 11 30 12
REMARK SMILES IDX 17 13 18 14 19 15 20 16 24 17 22 18 21 19 23 21 32 23 29 25
REMARK SMILES IDX 5 27 14 28 6 29 12 30 7 31 10 32 15 33 13 35 8 37 9 38 11 40
REMARK H PARENT 21 20 23 22 32 24 29 26 15 34 13 36 9 39 11 41
REMARK Flexibility Score: inf
ROOT
ATOM      1  O   UNL     1       0.965  14.633   2.836  1.00  0.00    -0.454 OA
ENDROOT
BRANCH   1   2
ATOM      2  C   UNL     1      -0.264  14.974   2.243  1.00  0.00     0.214 A 
ATOM      3  C   UNL     1      -0.261  15.361   0.888  1.00  0.00     0.180 A 
ATOM      4  O   UNL     1      -1.405  15.622   0.263  1.00  0.00    -0.452 OA
ATOM      5  C   UNL     1      -1.500  14.931   2.924  1.00  0.00     0.239 A 
ATOM      6  C   UNL     1      -2.588  15.574   0.860  1.00  0.00     0.146 A 
ATOM      7  O   UNL     1      -1.542  14.634   4.148  1.00  0.00    -0.285 OA
ATOM      8  C   UNL     1      -2.690  15.234   2.229  1.00  0.00     0.111 A 
ATOM      9  C   UNL     1      -3.737  15.868   0.116  1.00  0.00     0.094 A 
ATOM     10  C   UNL     1      -3.972  15.211   2.836  1.00  0.00     0.134 A 
ATOM     11  C   UNL     1      -4.995  15.846   0.719  1.00  0.00     0.123 A 
ATOM     12  C   UNL     1      -5.109  15.522   2.075  1.00  0.00     0.093 A 
BRANCH   3  13
ATOM     13  C   UNL     1       0.995  15.455   0.111  1.00  0.00     0.025 A 
ATOM     14  C   UNL     1       1.242  14.606  -0.981  1.00  0.00     0.016 A 
ATOM     15  C   UNL     1       2.429  14.715  -1.704  1.00  0.00     0.051 A 
ATOM     16  C   UNL     1       3.401  15.656  -1.343  1.00  0.00     0.157 A 
ATOM     17  C   UNL     1       1.974  16.384   0.487  1.00  0.00     0.062 A 
ATOM     18  C   UNL     1       3.169  16.503  -0.233  1.00  0.00     0.158 A 
BRANCH  16  19
ATOM     19  O   UNL     1       4.568  15.711  -2.107  1.00  0.00    -0.504 OA
ATOM     20  H   UNL     1       5.359  15.098  -1.972  1.00  0.00     0.293 HD
ENDBRANCH  16  19
BRANCH  18  21
ATOM     21  O   UNL     1       4.087  17.468   0.182  1.00  0.00    -0.504 OA
ATOM     22  H   UNL     1       3.829  18.365   0.566  1.00  0.00     0.293 HD
ENDBRANCH  18  21
ENDBRANCH   3  13
BRANCH  10  23
ATOM     23  O   UNL     1      -4.123  14.881   4.183  1.00  0.00    -0.507 OA
ATOM     24  H   UNL     1      -4.212  13.918   4.489  1.00  0.00     0.293 HD
ENDBRANCH  10  23
BRANCH  11  25
ATOM     25  O   UNL     1      -6.125  16.147  -0.039  1.00  0.00    -0.508 OA
ATOM     26  H   UNL     1      -6.426  17.104  -0.185  1.00  0.00     0.293 HD
ENDBRANCH  11  25
ENDBRANCH   1   2
BRANCH   1  27
ATOM     27  C   UNL     1       1.709  13.424   2.651  1.00  0.00     0.339 C 
ATOM     28  C   UNL     1       1.514  12.487   3.857  1.00  0.00     0.214 C 
ATOM     29  O   UNL     1       3.089  13.690   2.429  1.00  0.00    -0.332 OA
ATOM     30  C   UNL     1       2.193  13.062   5.114  1.00  0.00     0.180 C 
ATOM     31  C   UNL     1       3.678  14.356   3.536  1.00  0.00     0.179 C 
ATOM     32  C   UNL     1       3.649  13.456   4.794  1.00  0.00     0.177 C 
BRANCH  28  33
ATOM     33  O   UNL     1       0.141  12.295   4.087  1.00  0.00    -0.384 OA
ATOM     34  H   UNL     1      -0.223  11.845   3.280  1.00  0.00     0.211 HD
ENDBRANCH  28  33
BRANCH  30  35
ATOM     35  O   UNL     1       1.478  14.180   5.575  1.00  0.00    -0.387 OA
ATOM     36  H   UNL     1       1.629  14.911   4.919  1.00  0.00     0.211 HD
ENDBRANCH  30  35
BRANCH  31  37
ATOM     37  C   UNL     1       5.111  14.749   3.160  1.00  0.00     0.191 C 
BRANCH  37  38
ATOM     38  O   UNL     1       5.640  15.625   4.121  1.00  0.00    -0.394 OA
ATOM     39  H   UNL     1       4.975  15.688   4.855  1.00  0.00     0.210 HD
ENDBRANCH  37  38
ENDBRANCH  31  37
BRANCH  32  40
ATOM     40  O   UNL     1       4.422  12.302   4.574  1.00  0.00    -0.387 OA
ATOM     41  H   UNL     1       4.540  12.218   3.594  1.00  0.00     0.211 HD
ENDBRANCH  32  40
ENDBRANCH   1  27
TORSDOF 12
ENDMDL
MODEL 6
REMARK VINA RESULT:    -5.188      2.517      4.987
REMARK INTER + INTRA:          -9.357
REMARK INTER:                  -8.283
REMARK INTRA:                  -1.074
REMARK UNBOUND:                -1.743
REMARK SMILES O=c1c(O[C@H]2O[C@H](CO)[C@H](O)[C@@H](O)[C@H]2O)c(-c2ccc(O)c(O)c2)oc2cc(O)cc(O)c12
REMARK SMILES IDX 4 1 3 2 16 3 25 4 2 5 26 6 1 7 33 8 27 9 31 10 28 11 30 12
REMARK SMILES IDX 17 13 18 14 19 15 20 16 24 17 22 18 21 19 23 21 32 23 29 25
REMARK SMILES IDX 5 27 14 28 6 29 12 30 7 31 10 32 15 33 13 35 8 37 9 38 11 40
REMARK H PARENT 21 20 23 22 32 24 29 26 15 34 13 36 9 39 11 41
REMARK Flexibility Score: inf
ROOT
ATOM      1  O   UNL     1      -1.176  15.395   1.141  1.00  0.00    -0.454 OA
ENDROOT
BRANCH   1   2
ATOM      2  C   UNL     1      -0.589  14.831   2.288  1.00  0.00     0.214 A 
ATOM      3  C   UNL     1       0.814  14.697   2.315  1.00  0.00     0.180 A 
ATOM      4  O   UNL     1       1.422  14.238   3.405  1.00  0.00    -0.452 OA
ATOM      5  C   UNL     1      -1.323  14.412   3.419  1.00  0.00     0.239 A 
ATOM      6  C   UNL     1       0.771  13.853   4.495  1.00  0.00     0.146 A 
ATOM      7  O   UNL     1      -2.582  14.473   3.417  1.00  0.00    -0.285 OA
ATOM      8  C   UNL     1      -0.641  13.912   4.548  1.00  0.00     0.111 A 
ATOM      9  C   UNL     1       1.502  13.382   5.591  1.00  0.00     0.094 A 
ATOM     10  C   UNL     1      -1.301  13.474   5.723  1.00  0.00     0.134 A 
ATOM     11  C   UNL     1       0.846  12.949   6.744  1.00  0.00     0.123 A 
ATOM     12  C   UNL     1      -0.550  12.993   6.807  1.00  0.00     0.093 A 
BRANCH   3  13
ATOM     13  C   UNL     1       1.654  15.091   1.162  1.00  0.00     0.025 A 
ATOM     14  C   UNL     1       1.644  14.353  -0.033  1.00  0.00     0.016 A 
ATOM     15  C   UNL     1       2.439  14.745  -1.109  1.00  0.00     0.051 A 
ATOM     16  C   UNL     1       3.272  15.865  -1.011  1.00  0.00     0.157 A 
ATOM     17  C   UNL     1       2.501  16.202   1.271  1.00  0.00     0.062 A 
ATOM     18  C   UNL     1       3.302  16.605   0.195  1.00  0.00     0.158 A 
BRANCH  16  19
ATOM     19  O   UNL     1       4.043  16.202  -2.125  1.00  0.00    -0.504 OA
ATOM     20  H   UNL     1       4.583  15.536  -2.658  1.00  0.00     0.293 HD
ENDBRANCH  16  19
BRANCH  18  21
ATOM     21  O   UNL     1       4.101  17.736   0.365  1.00  0.00    -0.504 OA
ATOM     22  H   UNL     1       3.781  18.681   0.214  1.00  0.00     0.293 HD
ENDBRANCH  18  21
ENDBRANCH   3  13
BRANCH  10  23
ATOM     23  O   UNL     1      -2.693  13.514   5.824  1.00  0.00    -0.507 OA
ATOM     24  H   UNL     1      -3.213  12.796   6.317  1.00  0.00     0.293 HD
ENDBRANCH  10  23
BRANCH  11  25
ATOM     25  O   UNL     1       1.593  12.478   7.823  1.00  0.00    -0.508 OA
ATOM     26  H   UNL     1       1.442  11.554   8.210  1.00  0.00     0.293 HD
ENDBRANCH  11  25
ENDBRANCH   1   2
BRANCH   1  27
ATOM     27  C   UNL     1      -1.589  14.710  -0.046  1.00  0.00     0.339 C 
ATOM     28  C   UNL     1      -1.757  15.708  -1.207  1.00  0.00     0.214 C 
ATOM     29  O   UNL     1      -2.785  13.970   0.168  1.00  0.00    -0.332 OA
ATOM     30  C   UNL     1      -2.965  16.633  -0.965  1.00  0.00     0.180 C 
ATOM     31  C   UNL     1      -3.864  14.815   0.537  1.00  0.00     0.179 C 
ATOM     32  C   UNL     1      -4.209  15.795  -0.609  1.00  0.00     0.177 C 
BRANCH  28  33
ATOM     33  O   UNL     1      -0.582  16.465  -1.351  1.00  0.00    -0.384 OA
ATOM     34  H   UNL     1      -0.641  17.211  -0.698  1.00  0.00     0.211 HD
ENDBRANCH  28  33
BRANCH  30  35
ATOM     35  O   UNL     1      -2.675  17.536   0.072  1.00  0.00    -0.387 OA
ATOM     36  H   UNL     1      -1.760  17.886  -0.097  1.00  0.00     0.211 HD
ENDBRANCH  30  35
BRANCH  31  37
ATOM     37  C   UNL     1      -5.066  13.938   0.906  1.00  0.00     0.191 C 
BRANCH  37  38
ATOM     38  O   UNL     1      -5.057  12.760   0.142  1.00  0.00    -0.394 OA
ATOM     39  H   UNL     1      -5.848  12.795  -0.456  1.00  0.00     0.210 HD
ENDBRANCH  37  38
ENDBRANCH  31  37
BRANCH  32  40
ATOM     40  O   UNL     1      -4.643  15.076  -1.738  1.00  0.00    -0.387 OA
ATOM     41  H   UNL     1      -4.723  15.729  -2.479  1.00  0.00     0.211 HD
ENDBRANCH  32  40
ENDBRANCH   1  27
TORSDOF 12
ENDMDL
MODEL 7
REMARK VINA RESULT:    -4.963      1.958      4.905
REMARK INTER + INTRA:          -9.028
REMARK INTER:                  -7.822
REMARK INTRA:                  -1.206
REMARK UNBOUND:                -1.743
REMARK SMILES O=c1c(O[C@H]2O[C@H](CO)[C@H](O)[C@@H](O)[C@H]2O)c(-c2ccc(O)c(O)c2)oc2cc(O)cc(O)c12
REMARK SMILES IDX 4 1 3 2 16 3 25 4 2 5 26 6 1 7 33 8 27 9 31 10 28 11 30 12
REMARK SMILES IDX 17 13 18 14 19 15 20 16 24 17 22 18 21 19 23 21 32 23 29 25
REMARK SMILES IDX 5 27 14 28 6 29 12 30 7 31 10 32 15 33 13 35 8 37 9 38 11 40
REMARK H PARENT 21 20 23 22 32 24 29 26 15 34 13 36 9 39 11 41
REMARK Flexibility Score: inf
ROOT
ATOM      1  O   UNL     1      -1.042  14.057   0.670  1.00  0.00    -0.454 OA
ENDROOT
BRANCH   1   2
ATOM      2  C   UNL     1      -0.353  14.022   1.896  1.00  0.00     0.214 A 
ATOM      3  C   UNL     1      -0.992  14.563   3.030  1.00  0.00     0.180 A 
ATOM      4  O   UNL     1      -0.413  14.487   4.225  1.00  0.00    -0.452 OA
ATOM      5  C   UNL     1       0.931  13.457   2.057  1.00  0.00     0.239 A 
ATOM      6  C   UNL     1       0.782  13.946   4.422  1.00  0.00     0.146 A 
ATOM      7  O   UNL     1       1.554  13.003   1.060  1.00  0.00    -0.285 OA
ATOM      8  C   UNL     1       1.518  13.413   3.339  1.00  0.00     0.111 A 
ATOM      9  C   UNL     1       1.308  13.915   5.719  1.00  0.00     0.094 A 
ATOM     10  C   UNL     1       2.800  12.860   3.587  1.00  0.00     0.134 A 
ATOM     11  C   UNL     1       2.571  13.373   5.957  1.00  0.00     0.123 A 
ATOM     12  C   UNL     1       3.314  12.851   4.893  1.00  0.00     0.093 A 
BRANCH   3  13
ATOM     13  C   UNL     1      -2.327  15.194   2.942  1.00  0.00     0.025 A 
ATOM     14  C   UNL     1      -2.618  16.149   1.953  1.00  0.00     0.016 A 
ATOM     15  C   UNL     1      -3.885  16.727   1.884  1.00  0.00     0.051 A 
ATOM     16  C   UNL     1      -4.879  16.381   2.807  1.00  0.00     0.157 A 
ATOM     17  C   UNL     1      -3.314  14.860   3.879  1.00  0.00     0.062 A 
ATOM     18  C   UNL     1      -4.590  15.434   3.817  1.00  0.00     0.158 A 
BRANCH  16  19
ATOM     19  O   UNL     1      -6.125  16.999   2.683  1.00  0.00    -0.504 OA
ATOM     20  H   UNL     1      -6.264  17.999   2.716  1.00  0.00     0.293 HD
ENDBRANCH  16  19
BRANCH  18  21
ATOM     21  O   UNL     1      -5.531  15.035   4.767  1.00  0.00    -0.504 OA
ATOM     22  H   UNL     1      -5.378  15.072   5.764  1.00  0.00     0.293 HD
ENDBRANCH  18  21
ENDBRANCH   3  13
BRANCH  10  23
ATOM     23  O   UNL     1       3.564  12.321   2.551  1.00  0.00    -0.507 OA
ATOM     24  H   UNL     1       4.461  12.714   2.289  1.00  0.00     0.293 HD
ENDBRANCH  10  23
BRANCH  11  25
ATOM     25  O   UNL     1       3.078  13.357   7.255  1.00  0.00    -0.508 OA
ATOM     26  H   UNL     1       4.074  13.307   7.435  1.00  0.00     0.293 HD
ENDBRANCH  11  25
ENDBRANCH   1   2
BRANCH   1  27
ATOM     27  C   UNL     1      -1.542  12.942  -0.074  1.00  0.00     0.339 C 
ATOM     28  C   UNL     1      -1.458  13.228  -1.586  1.00  0.00     0.214 C 
ATOM     29  O   UNL     1      -2.871  12.612   0.310  1.00  0.00    -0.332 OA
ATOM     30  C   UNL     1      -2.459  14.326  -1.992  1.00  0.00     0.180 C 
ATOM     31  C   UNL     1      -3.767  13.686   0.069  1.00  0.00     0.179 C 
ATOM     32  C   UNL     1      -3.861  13.991  -1.444  1.00  0.00     0.177 C 
BRANCH  28  33
ATOM     33  O   UNL     1      -0.148  13.611  -1.921  1.00  0.00    -0.384 OA
ATOM     34  H   UNL     1      -0.201  14.069  -2.801  1.00  0.00     0.211 HD
ENDBRANCH  28  33
BRANCH  30  35
ATOM     35  O   UNL     1      -2.029  15.570  -1.500  1.00  0.00    -0.387 OA
ATOM     36  H   UNL     1      -2.371  16.262  -2.126  1.00  0.00     0.211 HD
ENDBRANCH  30  35
BRANCH  31  37
ATOM     37  C   UNL     1      -5.136  13.317   0.653  1.00  0.00     0.191 C 
BRANCH  37  38
ATOM     38  O   UNL     1      -5.317  11.926   0.621  1.00  0.00    -0.394 OA
ATOM     39  H   UNL     1      -5.954  11.699   1.348  1.00  0.00     0.210 HD
ENDBRANCH  37  38
ENDBRANCH  31  37
BRANCH  32  40
ATOM     40  O   UNL     1      -4.390  12.881  -2.125  1.00  0.00    -0.387 OA
ATOM     41  H   UNL     1      -4.893  13.233  -2.902  1.00  0.00     0.211 HD
ENDBRANCH  32  40
ENDBRANCH   1  27
TORSDOF 12
ENDMDL
MODEL 8
REMARK VINA RESULT:    -4.909      2.599      5.082
REMARK INTER + INTRA:          -8.947
REMARK INTER:                  -8.480
REMARK INTRA:                  -0.467
REMARK UNBOUND:                -1.743
REMARK SMILES O=c1c(O[C@H]2O[C@H](CO)[C@H](O)[C@@H](O)[C@H]2O)c(-c2ccc(O)c(O)c2)oc2cc(O)cc(O)c12
REMARK SMILES IDX 4 1 3 2 16 3 25 4 2 5 26 6 1 7 33 8 27 9 31 10 28 11 30 12
REMARK SMILES IDX 17 13 18 14 19 15 20 16 24 17 22 18 21 19 23 21 32 23 29 25
REMARK SMILES IDX 5 27 14 28 6 29 12 30 7 31 10 32 15 33 13 35 8 37 9 38 11 40
REMARK H PARENT 21 20 23 22 32 24 29 26 15 34 13 36 9 39 11 41
REMARK Flexibility Score: inf
ROOT
ATOM      1  O   UNL     1      -0.875  14.969   1.127  1.00  0.00    -0.454 OA
ENDROOT
BRANCH   1   2
ATOM      2  C   UNL     1      -0.194  14.586   2.297  1.00  0.00     0.214 A 
ATOM      3  C   UNL     1       1.203  14.768   2.340  1.00  0.00     0.180 A 
ATOM      4  O   UNL     1       1.880  14.491   3.450  1.00  0.00    -0.452 OA
ATOM      5  C   UNL     1      -0.835  14.051   3.436  1.00  0.00     0.239 A 
ATOM      6  C   UNL     1       1.314  14.006   4.548  1.00  0.00     0.146 A 
ATOM      7  O   UNL     1      -2.076  13.832   3.422  1.00  0.00    -0.285 OA
ATOM      8  C   UNL     1      -0.077  13.752   4.587  1.00  0.00     0.111 A 
ATOM      9  C   UNL     1       2.114  13.744   5.666  1.00  0.00     0.094 A 
ATOM     10  C   UNL     1      -0.642  13.216   5.772  1.00  0.00     0.134 A 
ATOM     11  C   UNL     1       1.552  13.214   6.828  1.00  0.00     0.123 A 
ATOM     12  C   UNL     1       0.180  12.949   6.878  1.00  0.00     0.093 A 
BRANCH   3  13
ATOM     13  C   UNL     1       1.952  15.301   1.181  1.00  0.00     0.025 A 
ATOM     14  C   UNL     1       1.805  14.745  -0.100  1.00  0.00     0.016 A 
ATOM     15  C   UNL     1       2.516  15.267  -1.180  1.00  0.00     0.051 A 
ATOM     16  C   UNL     1       3.401  16.336  -1.003  1.00  0.00     0.157 A 
ATOM     17  C   UNL     1       2.852  16.360   1.367  1.00  0.00     0.062 A 
ATOM     18  C   UNL     1       3.570  16.892   0.288  1.00  0.00     0.158 A 
BRANCH  16  19
ATOM     19  O   UNL     1       4.084  16.809  -2.125  1.00  0.00    -0.504 OA
ATOM     20  H   UNL     1       4.737  17.578  -2.104  1.00  0.00     0.293 HD
ENDBRANCH  16  19
BRANCH  18  21
ATOM     21  O   UNL     1       4.428  17.963   0.541  1.00  0.00    -0.504 OA
ATOM     22  H   UNL     1       4.270  18.656   1.257  1.00  0.00     0.293 HD
ENDBRANCH  18  21
ENDBRANCH   3  13
BRANCH  10  23
ATOM     23  O   UNL     1      -2.009  12.950   5.860  1.00  0.00    -0.507 OA
ATOM     24  H   UNL     1      -2.563  12.730   5.039  1.00  0.00     0.293 HD
ENDBRANCH  10  23
BRANCH  11  25
ATOM     25  O   UNL     1       2.368  12.956   7.929  1.00  0.00    -0.508 OA
ATOM     26  H   UNL     1       3.363  13.147   7.908  1.00  0.00     0.293 HD
ENDBRANCH  11  25
ENDBRANCH   1   2
BRANCH   1  27
ATOM     27  C   UNL     1      -2.290  15.075   0.944  1.00  0.00     0.339 C 
ATOM     28  C   UNL     1      -2.803  13.919   0.064  1.00  0.00     0.214 C 
ATOM     29  O   UNL     1      -2.652  16.335   0.394  1.00  0.00    -0.332 OA
ATOM     30  C   UNL     1      -2.306  14.072  -1.386  1.00  0.00     0.180 C 
ATOM     31  C   UNL     1      -2.069  16.534  -0.885  1.00  0.00     0.179 C 
ATOM     32  C   UNL     1      -2.604  15.496  -1.898  1.00  0.00     0.177 C 
BRANCH  28  33
ATOM     33  O   UNL     1      -2.376  12.693   0.602  1.00  0.00    -0.384 OA
ATOM     34  H   UNL     1      -2.029  12.886   1.512  1.00  0.00     0.211 HD
ENDBRANCH  28  33
BRANCH  30  35
ATOM     35  O   UNL     1      -0.926  13.812  -1.448  1.00  0.00    -0.387 OA
ATOM     36  H   UNL     1      -0.583  13.849  -0.516  1.00  0.00     0.211 HD
ENDBRANCH  30  35
BRANCH  31  37
ATOM     37  C   UNL     1      -2.370  17.967  -1.339  1.00  0.00     0.191 C 
BRANCH  37  38
ATOM     38  O   UNL     1      -3.757  18.177  -1.391  1.00  0.00    -0.394 OA
ATOM     39  H   UNL     1      -4.003  18.255  -2.349  1.00  0.00     0.210 HD
ENDBRANCH  37  38
ENDBRANCH  31  37
BRANCH  32  40
ATOM     40  O   UNL     1      -3.990  15.664  -2.070  1.00  0.00    -0.387 OA
ATOM     41  H   UNL     1      -4.188  15.461  -3.019  1.00  0.00     0.211 HD
ENDBRANCH  32  40
ENDBRANCH   1  27
TORSDOF 12
ENDMDL
MODEL 9
REMARK VINA RESULT:    -4.837      1.977      5.088
REMARK INTER + INTRA:          -8.842
REMARK INTER:                  -8.484
REMARK INTRA:                  -0.358
REMARK UNBOUND:                -1.743
REMARK SMILES O=c1c(O[C@H]2O[C@H](CO)[C@H](O)[C@@H](O)[C@H]2O)c(-c2ccc(O)c(O)c2)oc2cc(O)cc(O)c12
REMARK SMILES IDX 4 1 3 2 16 3 25 4 2 5 26 6 1 7 33 8 27 9 31 10 28 11 30 12
REMARK SMILES IDX 17 13 18 14 19 15 20 16 24 17 22 18 21 19 23 21 32 23 29 25
REMARK SMILES IDX 5 27 14 28 6 29 12 30 7 31 10 32 15 33 13 35 8 37 9 38 11 40
REMARK H PARENT 21 20 23 22 32 24 29 26 15 34 13 36 9 39 11 41
REMARK Flexibility Score: inf
ROOT
ATOM      1  O   UNL     1      -2.620  14.535   1.251  1.00  0.00    -0.454 OA
ENDROOT
BRANCH   1   2
ATOM      2  C   UNL     1      -1.441  14.337   1.992  1.00  0.00     0.214 A 
ATOM      3  C   UNL     1      -1.468  14.627   3.370  1.00  0.00     0.180 A 
ATOM      4  O   UNL     1      -0.401  14.387   4.126  1.00  0.00    -0.452 OA
ATOM      5  C   UNL     1      -0.240  13.844   1.435  1.00  0.00     0.239 A 
ATOM      6  C   UNL     1       0.739  13.906   3.647  1.00  0.00     0.146 A 
ATOM      7  O   UNL     1      -0.161  13.614   0.199  1.00  0.00    -0.285 OA
ATOM      8  C   UNL     1       0.876  13.621   2.269  1.00  0.00     0.111 A 
ATOM      9  C   UNL     1       1.807  13.689   4.525  1.00  0.00     0.094 A 
ATOM     10  C   UNL     1       2.116  13.126   1.792  1.00  0.00     0.134 A 
ATOM     11  C   UNL     1       3.026  13.204   4.049  1.00  0.00     0.123 A 
ATOM     12  C   UNL     1       3.178  12.927   2.686  1.00  0.00     0.093 A 
BRANCH   3  13
ATOM     13  C   UNL     1      -2.679  15.169   4.026  1.00  0.00     0.025 A 
ATOM     14  C   UNL     1      -3.264  16.372   3.597  1.00  0.00     0.016 A 
ATOM     15  C   UNL     1      -4.409  16.861   4.225  1.00  0.00     0.051 A 
ATOM     16  C   UNL     1      -4.981  16.175   5.301  1.00  0.00     0.157 A 
ATOM     17  C   UNL     1      -3.238  14.489   5.116  1.00  0.00     0.062 A 
ATOM     18  C   UNL     1      -4.389  14.971   5.752  1.00  0.00     0.158 A 
BRANCH  16  19
ATOM     19  O   UNL     1      -6.125  16.721   5.887  1.00  0.00    -0.504 OA
ATOM     20  H   UNL     1      -6.107  17.420   6.615  1.00  0.00     0.293 HD
ENDBRANCH  16  19
BRANCH  18  21
ATOM     21  O   UNL     1      -4.906  14.229   6.814  1.00  0.00    -0.504 OA
ATOM     22  H   UNL     1      -4.695  14.409   7.785  1.00  0.00     0.293 HD
ENDBRANCH  18  21
ENDBRANCH   3  13
BRANCH  10  23
ATOM     23  O   UNL     1       2.299  12.828   0.440  1.00  0.00    -0.507 OA
ATOM     24  H   UNL     1       3.221  12.810   0.019  1.00  0.00     0.293 HD
ENDBRANCH  10  23
BRANCH  11  25
ATOM     25  O   UNL     1       4.078  13.000   4.940  1.00  0.00    -0.508 OA
ATOM     26  H   UNL     1       3.914  12.799   5.919  1.00  0.00     0.293 HD
ENDBRANCH  11  25
ENDBRANCH   1   2
BRANCH   1  27
ATOM     27  C   UNL     1      -2.750  14.580  -0.174  1.00  0.00     0.339 C 
ATOM     28  C   UNL     1      -3.925  15.493  -0.573  1.00  0.00     0.214 C 
ATOM     29  O   UNL     1      -2.904  13.278  -0.725  1.00  0.00    -0.332 OA
ATOM     30  C   UNL     1      -5.271  14.860  -0.174  1.00  0.00     0.180 C 
ATOM     31  C   UNL     1      -4.074  12.639  -0.238  1.00  0.00     0.179 C 
ATOM     32  C   UNL     1      -5.342  13.405  -0.682  1.00  0.00     0.177 C 
BRANCH  28  33
ATOM     33  O   UNL     1      -3.774  16.749   0.037  1.00  0.00    -0.384 OA
ATOM     34  H   UNL     1      -2.921  17.130  -0.300  1.00  0.00     0.211 HD
ENDBRANCH  28  33
BRANCH  30  35
ATOM     35  O   UNL     1      -5.420  14.895   1.223  1.00  0.00    -0.387 OA
ATOM     36  H   UNL     1      -5.103  15.787   1.525  1.00  0.00     0.211 HD
ENDBRANCH  30  35
BRANCH  31  37
ATOM     37  C   UNL     1      -4.086  11.193  -0.746  1.00  0.00     0.191 C 
BRANCH  37  38
ATOM     38  O   UNL     1      -4.245  10.303   0.328  1.00  0.00    -0.394 OA
ATOM     39  H   UNL     1      -4.863  10.735   0.974  1.00  0.00     0.210 HD
ENDBRANCH  37  38
ENDBRANCH  31  37
BRANCH  32  40
ATOM     40  O   UNL     1      -5.443  13.391  -2.084  1.00  0.00    -0.387 OA
ATOM     41  H   UNL     1      -4.768  12.745  -2.414  1.00  0.00     0.211 HD
ENDBRANCH  32  40
ENDBRANCH   1  27
TORSDOF 12
ENDMDL
