MODEL 1
REMARK VINA RESULT:    -4.074      0.000      0.000
REMARK INTER + INTRA:          -8.874
REMARK INTER:                  -6.933
REMARK INTRA:                  -1.942
REMARK UNBOUND:                -1.942
REMARK SMILES CCCCCCCCCCCCCC(=O)[O-]
REMARK SMILES IDX 8 1 9 2 10 3 11 4 12 5 13 6 14 7 15 8 16 9 7 10 6 11 5 12
REMARK SMILES IDX 4 13 3 14 2 15 1 16
REMARK H PARENT
REMARK Flexibility Score: inf
ROOT
ATOM      1  C   UNL     1      13.511 -22.890  21.925  1.00  0.00     0.000 C 
ENDROOT
BRANCH   1   2
ATOM      2  C   UNL     1      14.634 -22.930  20.878  1.00  0.00     0.000 C 
BRANCH   2   3
ATOM      3  C   UNL     1      14.239 -22.244  19.561  1.00  0.00     0.000 C 
BRANCH   3   4
ATOM      4  C   UNL     1      15.199 -21.105  19.177  1.00  0.00     0.000 C 
BRANCH   4   5
ATOM      5  C   UNL     1      14.766 -19.743  19.752  1.00  0.00     0.006 C 
BRANCH   5   6
ATOM      6  C   UNL     1      15.827 -19.065  20.633  1.00  0.00     0.053 C 
BRANCH   6   7
ATOM      7  C   UNL     1      16.769 -18.221  19.830  1.00  0.00     0.041 C 
ATOM      8  O   UNL     1      17.843 -18.711  19.392  1.00  0.00    -0.550 OA
ATOM      9  O   UNL     1      16.443 -16.903  19.534  1.00  0.00    -0.550 OA
ENDBRANCH   6   7
ENDBRANCH   5   6
ENDBRANCH   4   5
ENDBRANCH   3   4
ENDBRANCH   2   3
ENDBRANCH   1   2
BRANCH   1  10
ATOM     10  C   UNL     1      12.331 -22.045  21.433  1.00  0.00     0.000 C 
BRANCH  10  11
ATOM     11  C   UNL     1      11.858 -21.072  22.524  1.00  0.00    -0.000 C 
BRANCH  11  12
ATOM     12  C   UNL     1      12.885 -19.965  22.819  1.00  0.00    -0.000 C 
BRANCH  12  13
ATOM     13  C   UNL     1      13.496 -20.086  24.225  1.00  0.00    -0.000 C 
BRANCH  13  14
ATOM     14  C   UNL     1      15.022 -19.898  24.223  1.00  0.00    -0.000 C 
BRANCH  14  15
ATOM     15  C   UNL     1      15.783 -21.226  24.348  1.00  0.00    -0.003 C 
ATOM     16  C   UNL     1      16.954 -21.282  23.371  1.00  0.00     0.004 C 
ENDBRANCH  14  15
ENDBRANCH  13  14
ENDBRANCH  12  13
ENDBRANCH  11  12
ENDBRANCH  10  11
ENDBRANCH   1  10
TORSDOF 12
ENDMDL
MODEL 2
REMARK VINA RESULT:    -4.065      2.578      4.150
REMARK INTER + INTRA:          -8.858
REMARK INTER:                  -7.346
REMARK INTRA:                  -1.512
REMARK UNBOUND:                -1.942
REMARK SMILES CCCCCCCCCCCCCC(=O)[O-]
REMARK SMILES IDX 8 1 9 2 10 3 11 4 12 5 13 6 14 7 15 8 16 9 7 10 6 11 5 12
REMARK SMILES IDX 4 13 3 14 2 15 1 16
REMARK H PARENT
REMARK Flexibility Score: inf
ROOT
ATOM      1  C   UNL     1      14.243 -18.442  20.399  1.00  0.00     0.000 C 
ENDROOT
BRANCH   1   2
ATOM      2  C   UNL     1      14.717 -19.359  19.261  1.00  0.00     0.000 C 
BRANCH   2   3
ATOM      3  C   UNL     1      15.702 -20.436  19.741  1.00  0.00     0.000 C 
BRANCH   3   4
ATOM      4  C   UNL     1      16.279 -20.130  21.134  1.00  0.00     0.000 C 
BRANCH   4   5
ATOM      5  C   UNL     1      16.434 -21.391  22.004  1.00  0.00     0.006 C 
BRANCH   5   6
ATOM      6  C   UNL     1      17.013 -21.125  23.403  1.00  0.00     0.053 C 
BRANCH   6   7
ATOM      7  C   UNL     1      15.947 -21.089  24.455  1.00  0.00     0.041 C 
ATOM      8  O   UNL     1      16.098 -21.725  25.531  1.00  0.00    -0.550 OA
ATOM      9  O   UNL     1      14.803 -20.325  24.262  1.00  0.00    -0.550 OA
ENDBRANCH   6   7
ENDBRANCH   5   6
ENDBRANCH   4   5
ENDBRANCH   3   4
ENDBRANCH   2   3
ENDBRANCH   1   2
BRANCH   1  10
ATOM     10  C   UNL     1      12.720 -18.514  20.563  1.00  0.00     0.000 C 
BRANCH  10  11
ATOM     11  C   UNL     1      12.341 -19.263  21.850  1.00  0.00    -0.000 C 
BRANCH  11  12
ATOM     12  C   UNL     1      11.102 -20.156  21.675  1.00  0.00    -0.000 C 
BRANCH  12  13
ATOM     13  C   UNL     1      11.421 -21.650  21.852  1.00  0.00    -0.000 C 
BRANCH  13  14
ATOM     14  C   UNL     1      12.927 -21.946  21.754  1.00  0.00    -0.000 C 
BRANCH  14  15
ATOM     15  C   UNL     1      13.264 -23.412  22.065  1.00  0.00    -0.003 C 
ATOM     16  C   UNL     1      14.234 -23.983  21.034  1.00  0.00     0.004 C 
ENDBRANCH  14  15
ENDBRANCH  13  14
ENDBRANCH  12  13
ENDBRANCH  11  12
ENDBRANCH  10  11
ENDBRANCH   1  10
TORSDOF 12
ENDMDL
MODEL 3
REMARK VINA RESULT:    -3.888      1.340      3.469
REMARK INTER + INTRA:          -8.557
REMARK INTER:                  -6.846
REMARK INTRA:                  -1.710
REMARK UNBOUND:                -1.942
REMARK SMILES CCCCCCCCCCCCCC(=O)[O-]
REMARK SMILES IDX 8 1 9 2 10 3 11 4 12 5 13 6 14 7 15 8 16 9 7 10 6 11 5 12
REMARK SMILES IDX 4 13 3 14 2 15 1 16
REMARK H PARENT
REMARK Flexibility Score: inf
ROOT
ATOM      1  C   UNL     1      16.406 -21.150  23.146  1.00  0.00     0.000 C 
ENDROOT
BRANCH   1   2
ATOM      2  C   UNL     1      16.286 -22.012  21.880  1.00  0.00     0.000 C 
BRANCH   2   3
ATOM      3  C   UNL     1      14.848 -22.491  21.626  1.00  0.00     0.000 C 
BRANCH   3   4
ATOM      4  C   UNL     1      14.331 -22.094  20.232  1.00  0.00     0.000 C 
BRANCH   4   5
ATOM      5  C   UNL     1      15.221 -21.042  19.545  1.00  0.00     0.006 C 
BRANCH   5   6
ATOM      6  C   UNL     1      14.660 -19.612  19.594  1.00  0.00     0.053 C 
BRANCH   6   7
ATOM      7  C   UNL     1      15.613 -18.657  20.244  1.00  0.00     0.041 C 
ATOM      8  O   UNL     1      15.187 -17.591  20.761  1.00  0.00    -0.550 OA
ATOM      9  O   UNL     1      16.967 -18.961  20.312  1.00  0.00    -0.550 OA
ENDBRANCH   6   7
ENDBRANCH   5   6
ENDBRANCH   4   5
ENDBRANCH   3   4
ENDBRANCH   2   3
ENDBRANCH   1   2
BRANCH   1  10
ATOM     10  C   UNL     1      15.155 -21.284  24.022  1.00  0.00     0.000 C 
BRANCH  10  11
ATOM     11  C   UNL     1      14.456 -19.926  24.193  1.00  0.00    -0.000 C 
BRANCH  11  12
ATOM     12  C   UNL     1      12.947 -19.994  23.906  1.00  0.00    -0.000 C 
BRANCH  12  13
ATOM     13  C   UNL     1      12.599 -19.562  22.471  1.00  0.00    -0.000 C 
BRANCH  13  14
ATOM     14  C   UNL     1      11.529 -20.460  21.829  1.00  0.00    -0.000 C 
BRANCH  14  15
ATOM     15  C   UNL     1      10.190 -19.734  21.628  1.00  0.00    -0.003 C 
ATOM     16  C   UNL     1      10.279 -18.281  22.084  1.00  0.00     0.004 C 
ENDBRANCH  14  15
ENDBRANCH  13  14
ENDBRANCH  12  13
ENDBRANCH  11  12
ENDBRANCH  10  11
ENDBRANCH   1  10
TORSDOF 12
ENDMDL
MODEL 4
REMARK VINA RESULT:    -3.829      2.887      4.167
REMARK INTER + INTRA:          -8.457
REMARK INTER:                  -6.804
REMARK INTRA:                  -1.654
REMARK UNBOUND:                -1.942
REMARK SMILES CCCCCCCCCCCCCC(=O)[O-]
REMARK SMILES IDX 8 1 9 2 10 3 11 4 12 5 13 6 14 7 15 8 16 9 7 10 6 11 5 12
REMARK SMILES IDX 4 13 3 14 2 15 1 16
REMARK H PARENT
REMARK Flexibility Score: inf
ROOT
ATOM      1  C   UNL     1      13.144 -22.415  21.812  1.00  0.00     0.000 C 
ENDROOT
BRANCH   1   2
ATOM      2  C   UNL     1      13.552 -21.923  20.415  1.00  0.00     0.000 C 
BRANCH   2   3
ATOM      3  C   UNL     1      15.044 -21.563  20.329  1.00  0.00     0.000 C 
BRANCH   3   4
ATOM      4  C   UNL     1      15.845 -22.065  21.543  1.00  0.00     0.000 C 
BRANCH   4   5
ATOM      5  C   UNL     1      16.608 -20.937  22.260  1.00  0.00     0.006 C 
BRANCH   5   6
ATOM      6  C   UNL     1      17.020 -21.272  23.703  1.00  0.00     0.053 C 
BRANCH   6   7
ATOM      7  C   UNL     1      15.882 -21.109  24.663  1.00  0.00     0.041 C 
ATOM      8  O   UNL     1      15.813 -21.833  25.691  1.00  0.00    -0.550 OA
ATOM      9  O   UNL     1      14.918 -20.134  24.443  1.00  0.00    -0.550 OA
ENDBRANCH   6   7
ENDBRANCH   5   6
ENDBRANCH   4   5
ENDBRANCH   3   4
ENDBRANCH   2   3
ENDBRANCH   1   2
BRANCH   1  10
ATOM     10  C   UNL     1      12.271 -21.377  22.527  1.00  0.00     0.000 C 
BRANCH  10  11
ATOM     11  C   UNL     1      11.233 -20.777  21.566  1.00  0.00    -0.000 C 
BRANCH  11  12
ATOM     12  C   UNL     1      10.995 -19.277  21.811  1.00  0.00    -0.000 C 
BRANCH  12  13
ATOM     13  C   UNL     1      10.966 -18.463  20.506  1.00  0.00    -0.000 C 
BRANCH  13  14
ATOM     14  C   UNL     1      12.337 -18.412  19.813  1.00  0.00    -0.000 C 
BRANCH  14  15
ATOM     15  C   UNL     1      13.299 -17.414  20.474  1.00  0.00    -0.003 C 
ATOM     16  C   UNL     1      14.478 -18.134  21.122  1.00  0.00     0.004 C 
ENDBRANCH  14  15
ENDBRANCH  13  14
ENDBRANCH  12  13
ENDBRANCH  11  12
ENDBRANCH  10  11
ENDBRANCH   1  10
TORSDOF 12
ENDMDL
MODEL 5
REMARK VINA RESULT:    -3.777      1.041      3.285
REMARK INTER + INTRA:          -8.368
REMARK INTER:                  -6.329
REMARK INTRA:                  -2.039
REMARK UNBOUND:                -1.942
REMARK SMILES CCCCCCCCCCCCCC(=O)[O-]
REMARK SMILES IDX 8 1 9 2 10 3 11 4 12 5 13 6 14 7 15 8 16 9 7 10 6 11 5 12
REMARK SMILES IDX 4 13 3 14 2 15 1 16
REMARK H PARENT
REMARK Flexibility Score: inf
ROOT
ATOM      1  C   UNL     1      13.223 -20.017  24.125  1.00  0.00     0.000 C 
ENDROOT
BRANCH   1   2
ATOM      2  C   UNL     1      12.587 -20.230  22.743  1.00  0.00     0.000 C 
BRANCH   2   3
ATOM      3  C   UNL     1      12.806 -19.035  21.802  1.00  0.00     0.000 C 
BRANCH   3   4
ATOM      4  C   UNL     1      12.935 -19.459  20.329  1.00  0.00     0.000 C 
BRANCH   4   5
ATOM      5  C   UNL     1      14.305 -19.098  19.724  1.00  0.00     0.006 C 
BRANCH   5   6
ATOM      6  C   UNL     1      15.124 -18.106  20.565  1.00  0.00     0.053 C 
BRANCH   6   7
ATOM      7  C   UNL     1      16.474 -17.847  19.970  1.00  0.00     0.041 C 
ATOM      8  O   UNL     1      17.240 -18.808  19.695  1.00  0.00    -0.550 OA
ATOM      9  O   UNL     1      16.872 -16.547  19.686  1.00  0.00    -0.550 OA
ENDBRANCH   6   7
ENDBRANCH   5   6
ENDBRANCH   4   5
ENDBRANCH   3   4
ENDBRANCH   2   3
ENDBRANCH   1   2
BRANCH   1  10
ATOM     10  C   UNL     1      14.723 -19.725  24.001  1.00  0.00     0.000 C 
BRANCH  10  11
ATOM     11  C   UNL     1      15.557 -20.884  24.569  1.00  0.00    -0.000 C 
BRANCH  11  12
ATOM     12  C   UNL     1      16.712 -21.295  23.641  1.00  0.00    -0.000 C 
BRANCH  12  13
ATOM     13  C   UNL     1      16.330 -21.217  22.153  1.00  0.00    -0.000 C 
BRANCH  13  14
ATOM     14  C   UNL     1      15.989 -22.594  21.559  1.00  0.00    -0.000 C 
BRANCH  14  15
ATOM     15  C   UNL     1      14.571 -22.651  20.971  1.00  0.00    -0.003 C 
ATOM     16  C   UNL     1      13.669 -23.557  21.804  1.00  0.00     0.004 C 
ENDBRANCH  14  15
ENDBRANCH  13  14
ENDBRANCH  12  13
ENDBRANCH  11  12
ENDBRANCH  10  11
ENDBRANCH   1  10
TORSDOF 12
ENDMDL
MODEL 6
REMARK VINA RESULT:    -3.710      2.686      4.723
REMARK INTER + INTRA:          -8.254
REMARK INTER:                  -6.368
REMARK INTRA:                  -1.886
REMARK UNBOUND:                -1.942
REMARK SMILES CCCCCCCCCCCCCC(=O)[O-]
REMARK SMILES IDX 8 1 9 2 10 3 11 4 12 5 13 6 14 7 15 8 16 9 7 10 6 11 5 12
REMARK SMILES IDX 4 13 3 14 2 15 1 16
REMARK H PARENT
REMARK Flexibility Score: inf
ROOT
ATOM      1  C   UNL     1      15.244 -20.994  19.314  1.00  0.00     0.000 C 
ENDROOT
BRANCH   1   2
ATOM      2  C   UNL     1      13.838 -21.378  19.799  1.00  0.00     0.000 C 
BRANCH   2   3
ATOM      3  C   UNL     1      13.861 -22.498  20.852  1.00  0.00     0.000 C 
BRANCH   3   4
ATOM      4  C   UNL     1      13.298 -22.044  22.209  1.00  0.00     0.000 C 
BRANCH   4   5
ATOM      5  C   UNL     1      13.598 -20.565  22.514  1.00  0.00     0.006 C 
BRANCH   5   6
ATOM      6  C   UNL     1      14.215 -20.318  23.900  1.00  0.00     0.053 C 
BRANCH   6   7
ATOM      7  C   UNL     1      15.551 -20.981  24.046  1.00  0.00     0.041 C 
ATOM      8  O   UNL     1      15.863 -21.546  25.127  1.00  0.00    -0.550 OA
ATOM      9  O   UNL     1      16.437 -21.006  22.976  1.00  0.00    -0.550 OA
ENDBRANCH   6   7
ENDBRANCH   5   6
ENDBRANCH   4   5
ENDBRANCH   3   4
ENDBRANCH   2   3
ENDBRANCH   1   2
BRANCH   1  10
ATOM     10  C   UNL     1      15.450 -19.476  19.375  1.00  0.00     0.000 C 
BRANCH  10  11
ATOM     11  C   UNL     1      14.114 -18.733  19.218  1.00  0.00    -0.000 C 
BRANCH  11  12
ATOM     12  C   UNL     1      13.939 -17.603  20.247  1.00  0.00    -0.000 C 
BRANCH  12  13
ATOM     13  C   UNL     1      12.474 -17.420  20.679  1.00  0.00    -0.000 C 
BRANCH  13  14
ATOM     14  C   UNL     1      11.556 -18.527  20.133  1.00  0.00    -0.000 C 
BRANCH  14  15
ATOM     15  C   UNL     1      10.520 -19.000  21.164  1.00  0.00    -0.003 C 
ATOM     16  C   UNL     1      10.683 -18.256  22.486  1.00  0.00     0.004 C 
ENDBRANCH  14  15
ENDBRANCH  13  14
ENDBRANCH  12  13
ENDBRANCH  11  12
ENDBRANCH  10  11
ENDBRANCH   1  10
TORSDOF 12
ENDMDL
MODEL 7
REMARK VINA RESULT:    -3.562      3.028      4.503
REMARK INTER + INTRA:          -8.002
REMARK INTER:                  -6.024
REMARK INTRA:                  -1.978
REMARK UNBOUND:                -1.942
REMARK SMILES CCCCCCCCCCCCCC(=O)[O-]
REMARK SMILES IDX 8 1 9 2 10 3 11 4 12 5 13 6 14 7 15 8 16 9 7 10 6 11 5 12
REMARK SMILES IDX 4 13 3 14 2 15 1 16
REMARK H PARENT
REMARK Flexibility Score: inf
ROOT
ATOM      1  C   UNL     1      16.129 -20.095  19.924  1.00  0.00     0.000 C 
ENDROOT
BRANCH   1   2
ATOM      2  C   UNL     1      15.804 -18.661  20.368  1.00  0.00     0.000 C 
BRANCH   2   3
ATOM      3  C   UNL     1      14.511 -18.125  19.733  1.00  0.00     0.000 C 
BRANCH   3   4
ATOM      4  C   UNL     1      13.580 -17.458  20.761  1.00  0.00     0.000 C 
BRANCH   4   5
ATOM      5  C   UNL     1      12.098 -17.810  20.538  1.00  0.00     0.006 C 
BRANCH   5   6
ATOM      6  C   UNL     1      11.801 -19.317  20.528  1.00  0.00     0.053 C 
BRANCH   6   7
ATOM      7  C   UNL     1      10.770 -19.694  21.548  1.00  0.00     0.041 C 
ATOM      8  O   UNL     1      10.177 -18.800  22.208  1.00  0.00    -0.550 OA
ATOM      9  O   UNL     1      10.438 -21.028  21.743  1.00  0.00    -0.550 OA
ENDBRANCH   6   7
ENDBRANCH   5   6
ENDBRANCH   4   5
ENDBRANCH   3   4
ENDBRANCH   2   3
ENDBRANCH   1   2
BRANCH   1  10
ATOM     10  C   UNL     1      15.003 -20.670  19.056  1.00  0.00     0.000 C 
BRANCH  10  11
ATOM     11  C   UNL     1      14.334 -21.868  19.747  1.00  0.00    -0.000 C 
BRANCH  11  12
ATOM     12  C   UNL     1      14.894 -22.131  21.155  1.00  0.00    -0.000 C 
BRANCH  12  13
ATOM     13  C   UNL     1      13.801 -22.112  22.238  1.00  0.00    -0.000 C 
BRANCH  13  14
ATOM     14  C   UNL     1      13.905 -20.885  23.158  1.00  0.00    -0.000 C 
BRANCH  14  15
ATOM     15  C   UNL     1      15.358 -20.519  23.497  1.00  0.00    -0.003 C 
ATOM     16  C   UNL     1      15.814 -21.212  24.777  1.00  0.00     0.004 C 
ENDBRANCH  14  15
ENDBRANCH  13  14
ENDBRANCH  12  13
ENDBRANCH  11  12
ENDBRANCH  10  11
ENDBRANCH   1  10
TORSDOF 12
ENDMDL
MODEL 8
REMARK VINA RESULT:    -3.549      1.441      2.740
REMARK INTER + INTRA:          -7.980
REMARK INTER:                  -6.449
REMARK INTRA:                  -1.531
REMARK UNBOUND:                -1.942
REMARK SMILES CCCCCCCCCCCCCC(=O)[O-]
REMARK SMILES IDX 8 1 9 2 10 3 11 4 12 5 13 6 14 7 15 8 16 9 7 10 6 11 5 12
REMARK SMILES IDX 4 13 3 14 2 15 1 16
REMARK H PARENT
REMARK Flexibility Score: inf
ROOT
ATOM      1  C   UNL     1      12.770 -20.524  22.981  1.00  0.00     0.000 C 
ENDROOT
BRANCH   1   2
ATOM      2  C   UNL     1      12.478 -19.240  22.190  1.00  0.00     0.000 C 
BRANCH   2   3
ATOM      3  C   UNL     1      11.992 -19.526  20.760  1.00  0.00     0.000 C 
BRANCH   3   4
ATOM      4  C   UNL     1      12.233 -18.343  19.806  1.00  0.00     0.000 C 
BRANCH   4   5
ATOM      5  C   UNL     1      13.556 -17.609  20.091  1.00  0.00     0.006 C 
BRANCH   5   6
ATOM      6  C   UNL     1      14.769 -18.178  19.338  1.00  0.00     0.053 C 
BRANCH   6   7
ATOM      7  C   UNL     1      16.065 -17.738  19.945  1.00  0.00     0.041 C 
ATOM      8  O   UNL     1      17.040 -18.533  20.004  1.00  0.00    -0.550 OA
ATOM      9  O   UNL     1      16.209 -16.438  20.413  1.00  0.00    -0.550 OA
ENDBRANCH   6   7
ENDBRANCH   5   6
ENDBRANCH   4   5
ENDBRANCH   3   4
ENDBRANCH   2   3
ENDBRANCH   1   2
BRANCH   1  10
ATOM     10  C   UNL     1      12.314 -21.764  22.204  1.00  0.00     0.000 C 
BRANCH  10  11
ATOM     11  C   UNL     1      13.488 -22.727  21.970  1.00  0.00    -0.000 C 
BRANCH  11  12
ATOM     12  C   UNL     1      14.339 -22.341  20.748  1.00  0.00    -0.000 C 
BRANCH  12  13
ATOM     13  C   UNL     1      15.549 -21.469  21.124  1.00  0.00    -0.000 C 
BRANCH  13  14
ATOM     14  C   UNL     1      16.416 -22.106  22.222  1.00  0.00    -0.000 C 
BRANCH  14  15
ATOM     15  C   UNL     1      16.813 -21.107  23.319  1.00  0.00    -0.003 C 
ATOM     16  C   UNL     1      15.919 -21.258  24.547  1.00  0.00     0.004 C 
ENDBRANCH  14  15
ENDBRANCH  13  14
ENDBRANCH  12  13
ENDBRANCH  11  12
ENDBRANCH  10  11
ENDBRANCH   1  10
TORSDOF 12
ENDMDL
MODEL 9
REMARK VINA RESULT:    -3.495      2.904      4.300
REMARK INTER + INTRA:          -7.889
REMARK INTER:                  -6.422
REMARK INTRA:                  -1.466
REMARK UNBOUND:                -1.942
REMARK SMILES CCCCCCCCCCCCCC(=O)[O-]
REMARK SMILES IDX 8 1 9 2 10 3 11 4 12 5 13 6 14 7 15 8 16 9 7 10 6 11 5 12
REMARK SMILES IDX 4 13 3 14 2 15 1 16
REMARK H PARENT
REMARK Flexibility Score: inf
ROOT
ATOM      1  C   UNL     1      12.196 -20.054  21.961  1.00  0.00     0.000 C 
ENDROOT
BRANCH   1   2
ATOM      2  C   UNL     1      11.746 -21.519  21.866  1.00  0.00     0.000 C 
BRANCH   2   3
ATOM      3  C   UNL     1      12.928 -22.501  21.847  1.00  0.00     0.000 C 
BRANCH   3   4
ATOM      4  C   UNL     1      14.169 -21.917  21.151  1.00  0.00     0.000 C 
BRANCH   4   5
ATOM      5  C   UNL     1      15.470 -22.185  21.930  1.00  0.00     0.006 C 
BRANCH   5   6
ATOM      6  C   UNL     1      15.973 -20.986  22.750  1.00  0.00     0.053 C 
BRANCH   6   7
ATOM      7  C   UNL     1      15.526 -21.056  24.178  1.00  0.00     0.041 C 
ATOM      8  O   UNL     1      16.287 -21.539  25.057  1.00  0.00    -0.550 OA
ATOM      9  O   UNL     1      14.284 -20.553  24.545  1.00  0.00    -0.550 OA
ENDBRANCH   6   7
ENDBRANCH   5   6
ENDBRANCH   4   5
ENDBRANCH   3   4
ENDBRANCH   2   3
ENDBRANCH   1   2
BRANCH   1  10
ATOM     10  C   UNL     1      11.000 -19.102  21.847  1.00  0.00     0.000 C 
BRANCH  10  11
ATOM     11  C   UNL     1      10.958 -18.435  20.463  1.00  0.00    -0.000 C 
BRANCH  11  12
ATOM     12  C   UNL     1      12.355 -18.263  19.844  1.00  0.00    -0.000 C 
BRANCH  12  13
ATOM     13  C   UNL     1      13.098 -17.034  20.397  1.00  0.00    -0.000 C 
BRANCH  13  14
ATOM     14  C   UNL     1      14.614 -17.103  20.150  1.00  0.00    -0.000 C 
BRANCH  14  15
ATOM     15  C   UNL     1      15.117 -18.539  19.943  1.00  0.00    -0.003 C 
ATOM     16  C   UNL     1      16.637 -18.610  20.052  1.00  0.00     0.004 C 
ENDBRANCH  14  15
ENDBRANCH  13  14
ENDBRANCH  12  13
ENDBRANCH  11  12
ENDBRANCH  10  11
ENDBRANCH   1  10
TORSDOF 12
ENDMDL
