MODEL 1
REMARK VINA RESULT:    -7.621      0.000      0.000
REMARK INTER + INTRA:         -12.585
REMARK INTER:                 -11.185
REMARK INTRA:                  -1.400
REMARK UNBOUND:                -1.400
REMARK SMILES O=c1c(O[C@H]2O[C@H](CO)[C@H](O)[C@H](O)[C@H]2O)c(-c2ccc(O)c(O)c2)oc2cc(O)cc(O)c12
REMARK SMILES IDX 4 1 3 2 16 3 25 4 2 5 26 6 1 7 33 8 27 9 31 10 28 11 30 12
REMARK SMILES IDX 17 13 18 14 19 15 20 16 24 17 22 18 21 19 23 21 32 23 29 25
REMARK SMILES IDX 5 27 14 28 6 29 12 30 7 31 10 32 15 33 13 35 8 37 9 38 11 40
REMARK H PARENT 21 20 23 22 32 24 29 26 15 34 13 36 9 39 11 41
REMARK Flexibility Score: inf
ROOT
ATOM      1  O   UNL     1     -37.899   5.794  81.511  1.00  0.00    -0.454 OA
ENDROOT
BRANCH   1   2
ATOM      2  C   UNL     1     -38.479   5.087  80.438  1.00  0.00     0.214 A 
ATOM      3  C   UNL     1     -37.892   4.991  79.160  1.00  0.00     0.180 A 
ATOM      4  O   UNL     1     -38.557   4.409  78.173  1.00  0.00    -0.452 OA
ATOM      5  C   UNL     1     -39.697   4.430  80.664  1.00  0.00     0.239 A 
ATOM      6  C   UNL     1     -39.745   3.837  78.324  1.00  0.00     0.146 A 
ATOM      7  O   UNL     1     -40.164   4.436  81.832  1.00  0.00    -0.285 OA
ATOM      8  C   UNL     1     -40.379   3.798  79.594  1.00  0.00     0.111 A 
ATOM      9  C   UNL     1     -40.344   3.249  77.207  1.00  0.00     0.094 A 
ATOM     10  C   UNL     1     -41.643   3.136  79.698  1.00  0.00     0.134 A 
ATOM     11  C   UNL     1     -41.578   2.619  77.316  1.00  0.00     0.123 A 
ATOM     12  C   UNL     1     -42.225   2.574  78.553  1.00  0.00     0.093 A 
BRANCH   3  13
ATOM     13  C   UNL     1     -36.528   5.460  78.864  1.00  0.00     0.025 A 
ATOM     14  C   UNL     1     -36.281   6.807  78.565  1.00  0.00     0.016 A 
ATOM     15  C   UNL     1     -34.981   7.239  78.297  1.00  0.00     0.051 A 
ATOM     16  C   UNL     1     -33.907   6.342  78.339  1.00  0.00     0.157 A 
ATOM     17  C   UNL     1     -35.452   4.565  78.945  1.00  0.00     0.062 A 
ATOM     18  C   UNL     1     -34.145   4.987  78.672  1.00  0.00     0.158 A 
BRANCH  16  19
ATOM     19  O   UNL     1     -32.633   6.833  78.047  1.00  0.00    -0.504 OA
ATOM     20  H   UNL     1     -31.891   6.909  78.724  1.00  0.00     0.293 HD
ENDBRANCH  16  19
BRANCH  18  21
ATOM     21  O   UNL     1     -33.126   4.036  78.745  1.00  0.00    -0.504 OA
ATOM     22  H   UNL     1     -32.814   3.606  79.604  1.00  0.00     0.293 HD
ENDBRANCH  18  21
ENDBRANCH   3  13
BRANCH  10  23
ATOM     23  O   UNL     1     -42.375   2.995  80.883  1.00  0.00    -0.507 OA
ATOM     24  H   UNL     1     -43.267   2.538  80.984  1.00  0.00     0.293 HD
ENDBRANCH  10  23
BRANCH  11  25
ATOM     25  O   UNL     1     -42.160   2.046  76.188  1.00  0.00    -0.508 OA
ATOM     26  H   UNL     1     -42.867   1.323  76.265  1.00  0.00     0.293 HD
ENDBRANCH  11  25
ENDBRANCH   1   2
BRANCH   1  27
ATOM     27  C   UNL     1     -36.967   5.268  82.475  1.00  0.00     0.339 C 
ATOM     28  C   UNL     1     -35.862   6.298  82.877  1.00  0.00     0.214 C 
ATOM     29  O   UNL     1     -36.460   4.030  82.003  1.00  0.00    -0.332 OA
ATOM     30  C   UNL     1     -34.525   5.907  82.236  1.00  0.00     0.180 C 
ATOM     31  C   UNL     1     -35.354   3.529  82.738  1.00  0.00     0.179 C 
ATOM     32  C   UNL     1     -34.124   4.495  82.701  1.00  0.00     0.177 C 
BRANCH  28  33
ATOM     33  O   UNL     1     -36.206   7.609  82.518  1.00  0.00    -0.384 OA
ATOM     34  H   UNL     1     -37.078   7.556  82.046  1.00  0.00     0.211 HD
ENDBRANCH  28  33
BRANCH  30  35
ATOM     35  O   UNL     1     -33.521   6.826  82.585  1.00  0.00    -0.387 OA
ATOM     36  H   UNL     1     -33.480   7.500  81.858  1.00  0.00     0.211 HD
ENDBRANCH  30  35
BRANCH  31  37
ATOM     37  C   UNL     1     -35.780   2.990  84.125  1.00  0.00     0.191 C 
BRANCH  37  38
ATOM     38  O   UNL     1     -36.856   2.097  84.029  1.00  0.00    -0.394 OA
ATOM     39  H   UNL     1     -36.675   1.365  84.676  1.00  0.00     0.210 HD
ENDBRANCH  37  38
ENDBRANCH  31  37
BRANCH  32  40
ATOM     40  O   UNL     1     -33.482   4.562  83.951  1.00  0.00    -0.387 OA
ATOM     41  H   UNL     1     -33.965   5.243  84.486  1.00  0.00     0.211 HD
ENDBRANCH  32  40
ENDBRANCH   1  27
TORSDOF 12
ENDMDL
MODEL 2
REMARK VINA RESULT:    -7.086      2.041      6.936
REMARK INTER + INTRA:         -11.799
REMARK INTER:                 -10.486
REMARK INTRA:                  -1.313
REMARK UNBOUND:                -1.400
REMARK SMILES O=c1c(O[C@H]2O[C@H](CO)[C@H](O)[C@H](O)[C@H]2O)c(-c2ccc(O)c(O)c2)oc2cc(O)cc(O)c12
REMARK SMILES IDX 4 1 3 2 16 3 25 4 2 5 26 6 1 7 33 8 27 9 31 10 28 11 30 12
REMARK SMILES IDX 17 13 18 14 19 15 20 16 24 17 22 18 21 19 23 21 32 23 29 25
REMARK SMILES IDX 5 27 14 28 6 29 12 30 7 31 10 32 15 33 13 35 8 37 9 38 11 40
REMARK H PARENT 21 20 23 22 32 24 29 26 15 34 13 36 9 39 11 41
REMARK Flexibility Score: inf
ROOT
ATOM      1  O   UNL     1     -36.905   3.668  79.775  1.00  0.00    -0.454 OA
ENDROOT
BRANCH   1   2
ATOM      2  C   UNL     1     -36.225   4.754  80.364  1.00  0.00     0.214 A 
ATOM      3  C   UNL     1     -36.215   6.055  79.820  1.00  0.00     0.180 A 
ATOM      4  O   UNL     1     -35.455   6.991  80.368  1.00  0.00    -0.452 OA
ATOM      5  C   UNL     1     -35.537   4.528  81.565  1.00  0.00     0.239 A 
ATOM      6  C   UNL     1     -34.731   6.802  81.464  1.00  0.00     0.146 A 
ATOM      7  O   UNL     1     -35.633   3.392  82.097  1.00  0.00    -0.285 OA
ATOM      8  C   UNL     1     -34.747   5.554  82.141  1.00  0.00     0.111 A 
ATOM      9  C   UNL     1     -33.975   7.870  81.951  1.00  0.00     0.094 A 
ATOM     10  C   UNL     1     -33.971   5.424  83.337  1.00  0.00     0.134 A 
ATOM     11  C   UNL     1     -33.215   7.730  83.107  1.00  0.00     0.123 A 
ATOM     12  C   UNL     1     -33.208   6.510  83.787  1.00  0.00     0.093 A 
BRANCH   3  13
ATOM     13  C   UNL     1     -37.062   6.457  78.685  1.00  0.00     0.025 A 
ATOM     14  C   UNL     1     -36.648   6.235  77.364  1.00  0.00     0.016 A 
ATOM     15  C   UNL     1     -37.467   6.613  76.299  1.00  0.00     0.051 A 
ATOM     16  C   UNL     1     -38.715   7.203  76.532  1.00  0.00     0.157 A 
ATOM     17  C   UNL     1     -38.327   7.013  78.925  1.00  0.00     0.062 A 
ATOM     18  C   UNL     1     -39.153   7.402  77.863  1.00  0.00     0.158 A 
BRANCH  16  19
ATOM     19  O   UNL     1     -39.480   7.572  75.424  1.00  0.00    -0.504 OA
ATOM     20  H   UNL     1     -40.117   6.952  74.949  1.00  0.00     0.293 HD
ENDBRANCH  16  19
BRANCH  18  21
ATOM     21  O   UNL     1     -40.388   7.973  78.175  1.00  0.00    -0.504 OA
ATOM     22  H   UNL     1     -41.160   8.040  77.527  1.00  0.00     0.293 HD
ENDBRANCH  18  21
ENDBRANCH   3  13
BRANCH  10  23
ATOM     23  O   UNL     1     -33.906   4.269  84.125  1.00  0.00    -0.507 OA
ATOM     24  H   UNL     1     -33.337   3.457  83.949  1.00  0.00     0.293 HD
ENDBRANCH  10  23
BRANCH  11  25
ATOM     25  O   UNL     1     -32.462   8.807  83.569  1.00  0.00    -0.508 OA
ATOM     26  H   UNL     1     -32.826   9.753  83.555  1.00  0.00     0.293 HD
ENDBRANCH  11  25
ENDBRANCH   1   2
BRANCH   1  27
ATOM     27  C   UNL     1     -38.279   3.301  79.998  1.00  0.00     0.339 C 
ATOM     28  C   UNL     1     -38.933   2.612  78.756  1.00  0.00     0.214 C 
ATOM     29  O   UNL     1     -38.991   4.432  80.473  1.00  0.00    -0.332 OA
ATOM     30  C   UNL     1     -39.908   3.579  78.075  1.00  0.00     0.180 C 
ATOM     31  C   UNL     1     -40.401   4.272  80.498  1.00  0.00     0.179 C 
ATOM     32  C   UNL     1     -40.997   4.003  79.077  1.00  0.00     0.177 C 
BRANCH  28  33
ATOM     33  O   UNL     1     -37.974   2.162  77.836  1.00  0.00    -0.384 OA
ATOM     34  H   UNL     1     -37.638   1.293  78.178  1.00  0.00     0.211 HD
ENDBRANCH  28  33
BRANCH  30  35
ATOM     35  O   UNL     1     -40.502   2.976  76.953  1.00  0.00    -0.387 OA
ATOM     36  H   UNL     1     -39.790   2.872  76.269  1.00  0.00     0.211 HD
ENDBRANCH  30  35
BRANCH  31  37
ATOM     37  C   UNL     1     -40.855   3.328  81.637  1.00  0.00     0.191 C 
BRANCH  37  38
ATOM     38  O   UNL     1     -42.237   3.396  81.851  1.00  0.00    -0.394 OA
ATOM     39  H   UNL     1     -42.644   2.667  81.312  1.00  0.00     0.210 HD
ENDBRANCH  37  38
ENDBRANCH  31  37
BRANCH  32  40
ATOM     40  O   UNL     1     -42.018   3.037  79.118  1.00  0.00    -0.387 OA
ATOM     41  H   UNL     1     -41.854   2.413  78.364  1.00  0.00     0.211 HD
ENDBRANCH  32  40
ENDBRANCH   1  27
TORSDOF 12
ENDMDL
MODEL 3
REMARK VINA RESULT:    -6.852      2.009      6.489
REMARK INTER + INTRA:         -11.456
REMARK INTER:                 -10.037
REMARK INTRA:                  -1.419
REMARK UNBOUND:                -1.400
REMARK SMILES O=c1c(O[C@H]2O[C@H](CO)[C@H](O)[C@H](O)[C@H]2O)c(-c2ccc(O)c(O)c2)oc2cc(O)cc(O)c12
REMARK SMILES IDX 4 1 3 2 16 3 25 4 2 5 26 6 1 7 33 8 27 9 31 10 28 11 30 12
REMARK SMILES IDX 17 13 18 14 19 15 20 16 24 17 22 18 21 19 23 21 32 23 29 25
REMARK SMILES IDX 5 27 14 28 6 29 12 30 7 31 10 32 15 33 13 35 8 37 9 38 11 40
REMARK H PARENT 21 20 23 22 32 24 29 26 15 34 13 36 9 39 11 41
REMARK Flexibility Score: inf
ROOT
ATOM      1  O   UNL     1     -36.607   3.916  81.129  1.00  0.00    -0.454 OA
ENDROOT
BRANCH   1   2
ATOM      2  C   UNL     1     -36.273   4.808  80.089  1.00  0.00     0.214 A 
ATOM      3  C   UNL     1     -36.899   4.800  78.825  1.00  0.00     0.180 A 
ATOM      4  O   UNL     1     -36.446   5.590  77.863  1.00  0.00    -0.452 OA
ATOM      5  C   UNL     1     -35.277   5.764  80.334  1.00  0.00     0.239 A 
ATOM      6  C   UNL     1     -35.459   6.459  78.030  1.00  0.00     0.146 A 
ATOM      7  O   UNL     1     -34.795   5.830  81.495  1.00  0.00    -0.285 OA
ATOM      8  C   UNL     1     -34.826   6.611  79.292  1.00  0.00     0.111 A 
ATOM      9  C   UNL     1     -35.075   7.244  76.939  1.00  0.00     0.094 A 
ATOM     10  C   UNL     1     -33.789   7.590  79.415  1.00  0.00     0.134 A 
ATOM     11  C   UNL     1     -34.059   8.184  77.066  1.00  0.00     0.123 A 
ATOM     12  C   UNL     1     -33.416   8.346  78.296  1.00  0.00     0.093 A 
BRANCH   3  13
ATOM     13  C   UNL     1     -38.089   3.987  78.523  1.00  0.00     0.025 A 
ATOM     14  C   UNL     1     -37.963   2.645  78.137  1.00  0.00     0.016 A 
ATOM     15  C   UNL     1     -39.101   1.884  77.863  1.00  0.00     0.051 A 
ATOM     16  C   UNL     1     -40.379   2.441  77.984  1.00  0.00     0.157 A 
ATOM     17  C   UNL     1     -39.367   4.539  78.682  1.00  0.00     0.062 A 
ATOM     18  C   UNL     1     -40.514   3.787  78.403  1.00  0.00     0.158 A 
BRANCH  16  19
ATOM     19  O   UNL     1     -41.475   1.633  77.681  1.00  0.00    -0.504 OA
ATOM     20  H   UNL     1     -42.422   1.972  77.612  1.00  0.00     0.293 HD
ENDBRANCH  16  19
BRANCH  18  21
ATOM     21  O   UNL     1     -41.754   4.408  78.558  1.00  0.00    -0.504 OA
ATOM     22  H   UNL     1     -42.608   4.082  78.130  1.00  0.00     0.293 HD
ENDBRANCH  18  21
ENDBRANCH   3  13
BRANCH  10  23
ATOM     23  O   UNL     1     -33.093   7.870  80.597  1.00  0.00    -0.507 OA
ATOM     24  H   UNL     1     -32.885   7.219  81.336  1.00  0.00     0.293 HD
ENDBRANCH  10  23
BRANCH  11  25
ATOM     25  O   UNL     1     -33.688   8.949  75.963  1.00  0.00    -0.508 OA
ATOM     26  H   UNL     1     -34.365   9.233  75.264  1.00  0.00     0.293 HD
ENDBRANCH  11  25
ENDBRANCH   1   2
BRANCH   1  27
ATOM     27  C   UNL     1     -37.541   4.163  82.198  1.00  0.00     0.339 C 
ATOM     28  C   UNL     1     -38.378   2.899  82.578  1.00  0.00     0.214 C 
ATOM     29  O   UNL     1     -38.325   5.301  81.875  1.00  0.00    -0.332 OA
ATOM     30  C   UNL     1     -39.815   3.050  82.067  1.00  0.00     0.180 C 
ATOM     31  C   UNL     1     -39.443   5.505  82.726  1.00  0.00     0.179 C 
ATOM     32  C   UNL     1     -40.451   4.310  82.685  1.00  0.00     0.177 C 
BRANCH  28  33
ATOM     33  O   UNL     1     -37.808   1.719  82.079  1.00  0.00    -0.384 OA
ATOM     34  H   UNL     1     -38.354   0.968  82.430  1.00  0.00     0.211 HD
ENDBRANCH  28  33
BRANCH  30  35
ATOM     35  O   UNL     1     -40.581   1.919  82.399  1.00  0.00    -0.387 OA
ATOM     36  H   UNL     1     -40.494   1.280  81.644  1.00  0.00     0.211 HD
ENDBRANCH  30  35
BRANCH  31  37
ATOM     37  C   UNL     1     -39.018   6.015  84.124  1.00  0.00     0.191 C 
BRANCH  37  38
ATOM     38  O   UNL     1     -38.231   7.171  84.040  1.00  0.00    -0.394 OA
ATOM     39  H   UNL     1     -37.943   7.386  84.966  1.00  0.00     0.210 HD
ENDBRANCH  37  38
ENDBRANCH  31  37
BRANCH  32  40
ATOM     40  O   UNL     1     -40.959   4.016  83.963  1.00  0.00    -0.387 OA
ATOM     41  H   UNL     1     -41.765   4.581  84.089  1.00  0.00     0.211 HD
ENDBRANCH  32  40
ENDBRANCH   1  27
TORSDOF 12
ENDMDL
MODEL 4
REMARK VINA RESULT:    -6.563      2.695      5.114
REMARK INTER + INTRA:         -11.033
REMARK INTER:                  -9.864
REMARK INTRA:                  -1.169
REMARK UNBOUND:                -1.400
REMARK SMILES O=c1c(O[C@H]2O[C@H](CO)[C@H](O)[C@H](O)[C@H]2O)c(-c2ccc(O)c(O)c2)oc2cc(O)cc(O)c12
REMARK SMILES IDX 4 1 3 2 16 3 25 4 2 5 26 6 1 7 33 8 27 9 31 10 28 11 30 12
REMARK SMILES IDX 17 13 18 14 19 15 20 16 24 17 22 18 21 19 23 21 32 23 29 25
REMARK SMILES IDX 5 27 14 28 6 29 12 30 7 31 10 32 15 33 13 35 8 37 9 38 11 40
REMARK H PARENT 21 20 23 22 32 24 29 26 15 34 13 36 9 39 11 41
REMARK Flexibility Score: inf
ROOT
ATOM      1  O   UNL     1     -37.299   7.139  80.676  1.00  0.00    -0.454 OA
ENDROOT
BRANCH   1   2
ATOM      2  C   UNL     1     -38.201   6.081  80.909  1.00  0.00     0.214 A 
ATOM      3  C   UNL     1     -39.396   5.902  80.182  1.00  0.00     0.180 A 
ATOM      4  O   UNL     1     -40.248   4.953  80.541  1.00  0.00    -0.452 OA
ATOM      5  C   UNL     1     -37.880   5.147  81.905  1.00  0.00     0.239 A 
ATOM      6  C   UNL     1     -40.018   4.092  81.524  1.00  0.00     0.146 A 
ATOM      7  O   UNL     1     -36.766   5.256  82.479  1.00  0.00    -0.285 OA
ATOM      8  C   UNL     1     -38.801   4.129  82.256  1.00  0.00     0.111 A 
ATOM      9  C   UNL     1     -40.991   3.129  81.804  1.00  0.00     0.094 A 
ATOM     10  C   UNL     1     -38.599   3.152  83.282  1.00  0.00     0.134 A 
ATOM     11  C   UNL     1     -40.790   2.192  82.810  1.00  0.00     0.123 A 
ATOM     12  C   UNL     1     -39.605   2.213  83.549  1.00  0.00     0.093 A 
BRANCH   3  13
ATOM     13  C   UNL     1     -39.735   6.690  78.986  1.00  0.00     0.025 A 
ATOM     14  C   UNL     1     -40.722   7.685  79.036  1.00  0.00     0.016 A 
ATOM     15  C   UNL     1     -41.025   8.431  77.896  1.00  0.00     0.051 A 
ATOM     16  C   UNL     1     -40.341   8.210  76.695  1.00  0.00     0.157 A 
ATOM     17  C   UNL     1     -39.021   6.490  77.796  1.00  0.00     0.062 A 
ATOM     18  C   UNL     1     -39.322   7.228  76.645  1.00  0.00     0.158 A 
BRANCH  16  19
ATOM     19  O   UNL     1     -40.701   8.979  75.587  1.00  0.00    -0.504 OA
ATOM     20  H   UNL     1     -40.188   9.787  75.273  1.00  0.00     0.293 HD
ENDBRANCH  16  19
BRANCH  18  21
ATOM     21  O   UNL     1     -38.589   6.959  75.488  1.00  0.00    -0.504 OA
ATOM     22  H   UNL     1     -38.939   6.419  74.710  1.00  0.00     0.293 HD
ENDBRANCH  18  21
ENDBRANCH   3  13
BRANCH  10  23
ATOM     23  O   UNL     1     -37.446   3.047  84.067  1.00  0.00    -0.507 OA
ATOM     24  H   UNL     1     -37.409   2.824  85.049  1.00  0.00     0.293 HD
ENDBRANCH  10  23
BRANCH  11  25
ATOM     25  O   UNL     1     -41.778   1.247  83.077  1.00  0.00    -0.508 OA
ATOM     26  H   UNL     1     -41.578   0.409  83.612  1.00  0.00     0.293 HD
ENDBRANCH  11  25
ENDBRANCH   1   2
BRANCH   1  27
ATOM     27  C   UNL     1     -36.049   7.054  79.966  1.00  0.00     0.339 C 
ATOM     28  C   UNL     1     -35.657   8.394  79.262  1.00  0.00     0.214 C 
ATOM     29  O   UNL     1     -36.084   5.933  79.098  1.00  0.00    -0.332 OA
ATOM     30  C   UNL     1     -35.859   8.268  77.749  1.00  0.00     0.180 C 
ATOM     31  C   UNL     1     -35.015   5.878  78.165  1.00  0.00     0.179 C 
ATOM     32  C   UNL     1     -34.992   7.115  77.208  1.00  0.00     0.177 C 
BRANCH  28  33
ATOM     33  O   UNL     1     -36.386   9.484  79.760  1.00  0.00    -0.384 OA
ATOM     34  H   UNL     1     -37.076   9.112  80.368  1.00  0.00     0.211 HD
ENDBRANCH  28  33
BRANCH  30  35
ATOM     35  O   UNL     1     -35.514   9.466  77.101  1.00  0.00    -0.387 OA
ATOM     36  H   UNL     1     -36.198   9.624  76.400  1.00  0.00     0.211 HD
ENDBRANCH  30  35
BRANCH  31  37
ATOM     37  C   UNL     1     -33.678   5.493  78.843  1.00  0.00     0.191 C 
BRANCH  37  38
ATOM     38  O   UNL     1     -33.505   4.104  78.905  1.00  0.00    -0.394 OA
ATOM     39  H   UNL     1     -33.770   3.826  79.821  1.00  0.00     0.210 HD
ENDBRANCH  37  38
ENDBRANCH  31  37
BRANCH  32  40
ATOM     40  O   UNL     1     -33.681   7.566  76.974  1.00  0.00    -0.387 OA
ATOM     41  H   UNL     1     -33.714   8.557  76.965  1.00  0.00     0.211 HD
ENDBRANCH  32  40
ENDBRANCH   1  27
TORSDOF 12
ENDMDL
MODEL 5
REMARK VINA RESULT:    -6.498      2.786      5.029
REMARK INTER + INTRA:         -10.936
REMARK INTER:                  -9.994
REMARK INTRA:                  -0.943
REMARK UNBOUND:                -1.400
REMARK SMILES O=c1c(O[C@H]2O[C@H](CO)[C@H](O)[C@H](O)[C@H]2O)c(-c2ccc(O)c(O)c2)oc2cc(O)cc(O)c12
REMARK SMILES IDX 4 1 3 2 16 3 25 4 2 5 26 6 1 7 33 8 27 9 31 10 28 11 30 12
REMARK SMILES IDX 17 13 18 14 19 15 20 16 24 17 22 18 21 19 23 21 32 23 29 25
REMARK SMILES IDX 5 27 14 28 6 29 12 30 7 31 10 32 15 33 13 35 8 37 9 38 11 40
REMARK H PARENT 21 20 23 22 32 24 29 26 15 34 13 36 9 39 11 41
REMARK Flexibility Score: inf
ROOT
ATOM      1  O   UNL     1     -37.005   5.580  78.954  1.00  0.00    -0.454 OA
ENDROOT
BRANCH   1   2
ATOM      2  C   UNL     1     -38.110   5.039  79.643  1.00  0.00     0.214 A 
ATOM      3  C   UNL     1     -39.429   5.515  79.496  1.00  0.00     0.180 A 
ATOM      4  O   UNL     1     -40.392   5.033  80.268  1.00  0.00    -0.452 OA
ATOM      5  C   UNL     1     -37.884   3.957  80.506  1.00  0.00     0.239 A 
ATOM      6  C   UNL     1     -40.209   4.058  81.149  1.00  0.00     0.146 A 
ATOM      7  O   UNL     1     -36.723   3.473  80.555  1.00  0.00    -0.285 OA
ATOM      8  C   UNL     1     -38.937   3.447  81.305  1.00  0.00     0.111 A 
ATOM      9  C   UNL     1     -41.306   3.629  81.900  1.00  0.00     0.094 A 
ATOM     10  C   UNL     1     -38.812   2.378  82.249  1.00  0.00     0.134 A 
ATOM     11  C   UNL     1     -41.171   2.597  82.822  1.00  0.00     0.123 A 
ATOM     12  C   UNL     1     -39.929   1.986  83.000  1.00  0.00     0.093 A 
BRANCH   3  13
ATOM     13  C   UNL     1     -39.819   6.501  78.474  1.00  0.00     0.025 A 
ATOM     14  C   UNL     1     -40.812   7.455  78.737  1.00  0.00     0.016 A 
ATOM     15  C   UNL     1     -41.163   8.389  77.761  1.00  0.00     0.051 A 
ATOM     16  C   UNL     1     -40.522   8.398  76.517  1.00  0.00     0.157 A 
ATOM     17  C   UNL     1     -39.147   6.529  77.244  1.00  0.00     0.062 A 
ATOM     18  C   UNL     1     -39.496   7.458  76.256  1.00  0.00     0.158 A 
BRANCH  16  19
ATOM     19  O   UNL     1     -40.929   9.348  75.579  1.00  0.00    -0.504 OA
ATOM     20  H   UNL     1     -40.293   9.901  75.026  1.00  0.00     0.293 HD
ENDBRANCH  16  19
BRANCH  18  21
ATOM     21  O   UNL     1     -38.804   7.412  75.045  1.00  0.00    -0.504 OA
ATOM     22  H   UNL     1     -38.705   6.580  74.481  1.00  0.00     0.293 HD
ENDBRANCH  18  21
ENDBRANCH   3  13
BRANCH  10  23
ATOM     23  O   UNL     1     -37.634   1.664  82.495  1.00  0.00    -0.507 OA
ATOM     24  H   UNL     1     -36.731   1.841  82.085  1.00  0.00     0.293 HD
ENDBRANCH  10  23
BRANCH  11  25
ATOM     25  O   UNL     1     -42.277   2.192  83.566  1.00  0.00    -0.508 OA
ATOM     26  H   UNL     1     -43.089   2.789  83.677  1.00  0.00     0.293 HD
ENDBRANCH  11  25
ENDBRANCH   1   2
BRANCH   1  27
ATOM     27  C   UNL     1     -36.250   6.745  79.334  1.00  0.00     0.339 C 
ATOM     28  C   UNL     1     -35.068   7.050  78.358  1.00  0.00     0.214 C 
ATOM     29  O   UNL     1     -35.861   6.623  80.693  1.00  0.00    -0.332 OA
ATOM     30  C   UNL     1     -33.735   6.684  79.020  1.00  0.00     0.180 C 
ATOM     31  C   UNL     1     -34.908   7.584  81.120  1.00  0.00     0.179 C 
ATOM     32  C   UNL     1     -33.567   7.494  80.320  1.00  0.00     0.177 C 
BRANCH  28  33
ATOM     33  O   UNL     1     -35.205   6.372  77.137  1.00  0.00    -0.384 OA
ATOM     34  H   UNL     1     -35.424   7.058  76.454  1.00  0.00     0.211 HD
ENDBRANCH  28  33
BRANCH  30  35
ATOM     35  O   UNL     1     -32.662   6.949  78.153  1.00  0.00    -0.387 OA
ATOM     36  H   UNL     1     -32.105   6.128  78.122  1.00  0.00     0.211 HD
ENDBRANCH  30  35
BRANCH  31  37
ATOM     37  C   UNL     1     -35.536   8.990  81.277  1.00  0.00     0.191 C 
BRANCH  37  38
ATOM     38  O   UNL     1     -34.795   9.798  82.149  1.00  0.00    -0.394 OA
ATOM     39  H   UNL     1     -34.637  10.656  81.675  1.00  0.00     0.210 HD
ENDBRANCH  37  38
ENDBRANCH  31  37
BRANCH  32  40
ATOM     40  O   UNL     1     -33.049   8.769  80.030  1.00  0.00    -0.387 OA
ATOM     41  H   UNL     1     -32.093   8.646  79.799  1.00  0.00     0.211 HD
ENDBRANCH  32  40
ENDBRANCH   1  27
TORSDOF 12
ENDMDL
MODEL 6
REMARK VINA RESULT:    -6.414      1.664      2.786
REMARK INTER + INTRA:         -10.814
REMARK INTER:                  -9.546
REMARK INTRA:                  -1.268
REMARK UNBOUND:                -1.400
REMARK SMILES O=c1c(O[C@H]2O[C@H](CO)[C@H](O)[C@H](O)[C@H]2O)c(-c2ccc(O)c(O)c2)oc2cc(O)cc(O)c12
REMARK SMILES IDX 4 1 3 2 16 3 25 4 2 5 26 6 1 7 33 8 27 9 31 10 28 11 30 12
REMARK SMILES IDX 17 13 18 14 19 15 20 16 24 17 22 18 21 19 23 21 32 23 29 25
REMARK SMILES IDX 5 27 14 28 6 29 12 30 7 31 10 32 15 33 13 35 8 37 9 38 11 40
REMARK H PARENT 21 20 23 22 32 24 29 26 15 34 13 36 9 39 11 41
REMARK Flexibility Score: inf
ROOT
ATOM      1  O   UNL     1     -37.493   5.475  81.752  1.00  0.00    -0.454 OA
ENDROOT
BRANCH   1   2
ATOM      2  C   UNL     1     -38.143   4.869  80.658  1.00  0.00     0.214 A 
ATOM      3  C   UNL     1     -37.630   4.878  79.344  1.00  0.00     0.180 A 
ATOM      4  O   UNL     1     -38.358   4.390  78.351  1.00  0.00    -0.452 OA
ATOM      5  C   UNL     1     -39.356   4.206  80.895  1.00  0.00     0.239 A 
ATOM      6  C   UNL     1     -39.543   3.819  78.520  1.00  0.00     0.146 A 
ATOM      7  O   UNL     1     -39.757   4.115  82.085  1.00  0.00    -0.285 OA
ATOM      8  C   UNL     1     -40.105   3.676  79.816  1.00  0.00     0.111 A 
ATOM      9  C   UNL     1     -40.212   3.335  77.393  1.00  0.00     0.094 A 
ATOM     10  C   UNL     1     -41.372   3.019  79.935  1.00  0.00     0.134 A 
ATOM     11  C   UNL     1     -41.448   2.709  77.518  1.00  0.00     0.123 A 
ATOM     12  C   UNL     1     -42.025   2.564  78.781  1.00  0.00     0.093 A 
BRANCH   3  13
ATOM     13  C   UNL     1     -36.278   5.358  79.013  1.00  0.00     0.025 A 
ATOM     14  C   UNL     1     -36.048   6.708  78.716  1.00  0.00     0.016 A 
ATOM     15  C   UNL     1     -34.759   7.150  78.414  1.00  0.00     0.051 A 
ATOM     16  C   UNL     1     -33.679   6.260  78.418  1.00  0.00     0.157 A 
ATOM     17  C   UNL     1     -35.195   4.469  79.056  1.00  0.00     0.062 A 
ATOM     18  C   UNL     1     -33.899   4.901  78.748  1.00  0.00     0.158 A 
BRANCH  16  19
ATOM     19  O   UNL     1     -32.417   6.761  78.093  1.00  0.00    -0.504 OA
ATOM     20  H   UNL     1     -32.239   7.371  77.311  1.00  0.00     0.293 HD
ENDBRANCH  16  19
BRANCH  18  21
ATOM     21  O   UNL     1     -32.872   3.957  78.785  1.00  0.00    -0.504 OA
ATOM     22  H   UNL     1     -31.906   4.178  78.980  1.00  0.00     0.293 HD
ENDBRANCH  18  21
ENDBRANCH   3  13
BRANCH  10  23
ATOM     23  O   UNL     1     -42.038   2.783  81.143  1.00  0.00    -0.507 OA
ATOM     24  H   UNL     1     -42.200   3.453  81.877  1.00  0.00     0.293 HD
ENDBRANCH  10  23
BRANCH  11  25
ATOM     25  O   UNL     1     -42.100   2.242  76.379  1.00  0.00    -0.508 OA
ATOM     26  H   UNL     1     -43.107   2.128  76.355  1.00  0.00     0.293 HD
ENDBRANCH  11  25
ENDBRANCH   1   2
BRANCH   1  27
ATOM     27  C   UNL     1     -37.320   6.888  81.966  1.00  0.00     0.339 C 
ATOM     28  C   UNL     1     -35.846   7.275  82.311  1.00  0.00     0.214 C 
ATOM     29  O   UNL     1     -38.273   7.334  82.918  1.00  0.00    -0.332 OA
ATOM     30  C   UNL     1     -35.731   7.626  83.798  1.00  0.00     0.180 C 
ATOM     31  C   UNL     1     -38.052   8.651  83.399  1.00  0.00     0.179 C 
ATOM     32  C   UNL     1     -36.674   8.799  84.125  1.00  0.00     0.177 C 
BRANCH  28  33
ATOM     33  O   UNL     1     -34.941   6.254  81.982  1.00  0.00    -0.384 OA
ATOM     34  H   UNL     1     -34.338   6.622  81.285  1.00  0.00     0.211 HD
ENDBRANCH  28  33
BRANCH  30  35
ATOM     35  O   UNL     1     -34.409   7.973  84.125  1.00  0.00    -0.387 OA
ATOM     36  H   UNL     1     -34.324   7.893  85.111  1.00  0.00     0.211 HD
ENDBRANCH  30  35
BRANCH  31  37
ATOM     37  C   UNL     1     -38.401   9.720  82.336  1.00  0.00     0.191 C 
BRANCH  37  38
ATOM     38  O   UNL     1     -39.554   9.380  81.615  1.00  0.00    -0.394 OA
ATOM     39  H   UNL     1     -39.795   8.454  81.884  1.00  0.00     0.210 HD
ENDBRANCH  37  38
ENDBRANCH  31  37
BRANCH  32  40
ATOM     40  O   UNL     1     -36.051  10.021  83.811  1.00  0.00    -0.387 OA
ATOM     41  H   UNL     1     -35.314  10.144  84.462  1.00  0.00     0.211 HD
ENDBRANCH  32  40
ENDBRANCH   1  27
TORSDOF 12
ENDMDL
MODEL 7
REMARK VINA RESULT:    -6.226      2.044      5.581
REMARK INTER + INTRA:         -10.538
REMARK INTER:                  -9.636
REMARK INTRA:                  -0.902
REMARK UNBOUND:                -1.400
REMARK SMILES O=c1c(O[C@H]2O[C@H](CO)[C@H](O)[C@H](O)[C@H]2O)c(-c2ccc(O)c(O)c2)oc2cc(O)cc(O)c12
REMARK SMILES IDX 4 1 3 2 16 3 25 4 2 5 26 6 1 7 33 8 27 9 31 10 28 11 30 12
REMARK SMILES IDX 17 13 18 14 19 15 20 16 24 17 22 18 21 19 23 21 32 23 29 25
REMARK SMILES IDX 5 27 14 28 6 29 12 30 7 31 10 32 15 33 13 35 8 37 9 38 11 40
REMARK H PARENT 21 20 23 22 32 24 29 26 15 34 13 36 9 39 11 41
REMARK Flexibility Score: inf
ROOT
ATOM      1  O   UNL     1     -38.727   6.052  81.204  1.00  0.00    -0.454 OA
ENDROOT
BRANCH   1   2
ATOM      2  C   UNL     1     -37.925   6.470  80.122  1.00  0.00     0.214 A 
ATOM      3  C   UNL     1     -37.871   5.794  78.886  1.00  0.00     0.180 A 
ATOM      4  O   UNL     1     -37.004   6.181  77.962  1.00  0.00    -0.452 OA
ATOM      5  C   UNL     1     -37.154   7.631  80.282  1.00  0.00     0.239 A 
ATOM      6  C   UNL     1     -36.204   7.231  78.099  1.00  0.00     0.146 A 
ATOM      7  O   UNL     1     -37.284   8.284  81.350  1.00  0.00    -0.285 OA
ATOM      8  C   UNL     1     -36.248   8.034  79.269  1.00  0.00     0.111 A 
ATOM      9  C   UNL     1     -35.336   7.544  77.050  1.00  0.00     0.094 A 
ATOM     10  C   UNL     1     -35.384   9.172  79.341  1.00  0.00     0.134 A 
ATOM     11  C   UNL     1     -34.492   8.646  77.135  1.00  0.00     0.123 A 
ATOM     12  C   UNL     1     -34.512   9.446  78.279  1.00  0.00     0.093 A 
BRANCH   3  13
ATOM     13  C   UNL     1     -38.782   4.693  78.531  1.00  0.00     0.025 A 
ATOM     14  C   UNL     1     -40.171   4.887  78.514  1.00  0.00     0.016 A 
ATOM     15  C   UNL     1     -41.021   3.837  78.166  1.00  0.00     0.051 A 
ATOM     16  C   UNL     1     -40.504   2.585  77.815  1.00  0.00     0.157 A 
ATOM     17  C   UNL     1     -38.256   3.453  78.145  1.00  0.00     0.062 A 
ATOM     18  C   UNL     1     -39.101   2.391  77.800  1.00  0.00     0.158 A 
BRANCH  16  19
ATOM     19  O   UNL     1     -41.407   1.571  77.491  1.00  0.00    -0.504 OA
ATOM     20  H   UNL     1     -42.164   1.681  76.834  1.00  0.00     0.293 HD
ENDBRANCH  16  19
BRANCH  18  21
ATOM     21  O   UNL     1     -38.510   1.176  77.450  1.00  0.00    -0.504 OA
ATOM     22  H   UNL     1     -38.880   0.272  77.708  1.00  0.00     0.293 HD
ENDBRANCH  18  21
ENDBRANCH   3  13
BRANCH  10  23
ATOM     23  O   UNL     1     -35.333  10.068  80.415  1.00  0.00    -0.507 OA
ATOM     24  H   UNL     1     -35.973  10.108  81.192  1.00  0.00     0.293 HD
ENDBRANCH  10  23
BRANCH  11  25
ATOM     25  O   UNL     1     -33.629   8.933  76.080  1.00  0.00    -0.508 OA
ATOM     26  H   UNL     1     -32.696   8.539  76.035  1.00  0.00     0.293 HD
ENDBRANCH  11  25
ENDBRANCH   1   2
BRANCH   1  27
ATOM     27  C   UNL     1     -38.483   4.919  82.058  1.00  0.00     0.339 C 
ATOM     28  C   UNL     1     -37.532   5.251  83.253  1.00  0.00     0.214 C 
ATOM     29  O   UNL     1     -38.056   3.823  81.265  1.00  0.00    -0.332 OA
ATOM     30  C   UNL     1     -36.152   4.630  83.011  1.00  0.00     0.180 C 
ATOM     31  C   UNL     1     -37.549   2.723  82.006  1.00  0.00     0.179 C 
ATOM     32  C   UNL     1     -36.294   3.104  82.858  1.00  0.00     0.177 C 
BRANCH  28  33
ATOM     33  O   UNL     1     -37.411   6.633  83.463  1.00  0.00    -0.384 OA
ATOM     34  H   UNL     1     -37.248   7.043  82.575  1.00  0.00     0.211 HD
ENDBRANCH  28  33
BRANCH  30  35
ATOM     35  O   UNL     1     -35.282   4.922  84.075  1.00  0.00    -0.387 OA
ATOM     36  H   UNL     1     -34.367   4.682  83.776  1.00  0.00     0.211 HD
ENDBRANCH  30  35
BRANCH  31  37
ATOM     37  C   UNL     1     -38.676   1.946  82.728  1.00  0.00     0.191 C 
BRANCH  37  38
ATOM     38  O   UNL     1     -38.436   0.566  82.734  1.00  0.00    -0.394 OA
ATOM     39  H   UNL     1     -37.884   0.370  81.932  1.00  0.00     0.210 HD
ENDBRANCH  37  38
ENDBRANCH  31  37
BRANCH  32  40
ATOM     40  O   UNL     1     -36.323   2.493  84.125  1.00  0.00    -0.387 OA
ATOM     41  H   UNL     1     -36.274   3.221  84.796  1.00  0.00     0.211 HD
ENDBRANCH  32  40
ENDBRANCH   1  27
TORSDOF 12
ENDMDL
MODEL 8
REMARK VINA RESULT:    -6.099      2.988      7.350
REMARK INTER + INTRA:         -10.351
REMARK INTER:                  -9.332
REMARK INTRA:                  -1.019
REMARK UNBOUND:                -1.400
REMARK SMILES O=c1c(O[C@H]2O[C@H](CO)[C@H](O)[C@H](O)[C@H]2O)c(-c2ccc(O)c(O)c2)oc2cc(O)cc(O)c12
REMARK SMILES IDX 4 1 3 2 16 3 25 4 2 5 26 6 1 7 33 8 27 9 31 10 28 11 30 12
REMARK SMILES IDX 17 13 18 14 19 15 20 16 24 17 22 18 21 19 23 21 32 23 29 25
REMARK SMILES IDX 5 27 14 28 6 29 12 30 7 31 10 32 15 33 13 35 8 37 9 38 11 40
REMARK H PARENT 21 20 23 22 32 24 29 26 15 34 13 36 9 39 11 41
REMARK Flexibility Score: inf
ROOT
ATOM      1  O   UNL     1     -38.326   4.942  77.572  1.00  0.00    -0.454 OA
ENDROOT
BRANCH   1   2
ATOM      2  C   UNL     1     -37.458   6.022  77.836  1.00  0.00     0.214 A 
ATOM      3  C   UNL     1     -37.861   7.373  77.798  1.00  0.00     0.180 A 
ATOM      4  O   UNL     1     -36.959   8.332  77.941  1.00  0.00    -0.452 OA
ATOM      5  C   UNL     1     -36.128   5.732  78.173  1.00  0.00     0.239 A 
ATOM      6  C   UNL     1     -35.676   8.103  78.189  1.00  0.00     0.146 A 
ATOM      7  O   UNL     1     -35.802   4.524  78.303  1.00  0.00    -0.285 OA
ATOM      8  C   UNL     1     -35.188   6.779  78.340  1.00  0.00     0.111 A 
ATOM      9  C   UNL     1     -34.822   9.200  78.328  1.00  0.00     0.094 A 
ATOM     10  C   UNL     1     -33.800   6.600  78.641  1.00  0.00     0.134 A 
ATOM     11  C   UNL     1     -33.473   9.016  78.608  1.00  0.00     0.123 A 
ATOM     12  C   UNL     1     -32.967   7.722  78.753  1.00  0.00     0.093 A 
BRANCH   3  13
ATOM     13  C   UNL     1     -39.267   7.788  77.660  1.00  0.00     0.025 A 
ATOM     14  C   UNL     1     -40.207   7.483  78.655  1.00  0.00     0.016 A 
ATOM     15  C   UNL     1     -41.534   7.893  78.515  1.00  0.00     0.051 A 
ATOM     16  C   UNL     1     -41.942   8.625  77.394  1.00  0.00     0.157 A 
ATOM     17  C   UNL     1     -39.661   8.553  76.553  1.00  0.00     0.062 A 
ATOM     18  C   UNL     1     -40.991   8.964  76.401  1.00  0.00     0.158 A 
BRANCH  16  19
ATOM     19  O   UNL     1     -43.285   8.992  77.307  1.00  0.00    -0.504 OA
ATOM     20  H   UNL     1     -43.918   8.648  76.601  1.00  0.00     0.293 HD
ENDBRANCH  16  19
BRANCH  18  21
ATOM     21  O   UNL     1     -41.319   9.701  75.262  1.00  0.00    -0.504 OA
ATOM     22  H   UNL     1     -42.260   9.963  75.009  1.00  0.00     0.293 HD
ENDBRANCH  18  21
ENDBRANCH   3  13
BRANCH  10  23
ATOM     23  O   UNL     1     -33.180   5.361  78.842  1.00  0.00    -0.507 OA
ATOM     24  H   UNL     1     -32.863   4.729  78.125  1.00  0.00     0.293 HD
ENDBRANCH  10  23
BRANCH  11  25
ATOM     25  O   UNL     1     -32.639  10.124  78.734  1.00  0.00    -0.508 OA
ATOM     26  H   UNL     1     -32.060  10.441  77.964  1.00  0.00     0.293 HD
ENDBRANCH  11  25
ENDBRANCH   1   2
BRANCH   1  27
ATOM     27  C   UNL     1     -38.807   3.981  78.529  1.00  0.00     0.339 C 
ATOM     28  C   UNL     1     -40.095   3.236  78.048  1.00  0.00     0.214 C 
ATOM     29  O   UNL     1     -38.942   4.612  79.793  1.00  0.00    -0.332 OA
ATOM     30  C   UNL     1     -41.315   3.749  78.820  1.00  0.00     0.180 C 
ATOM     31  C   UNL     1     -39.638   3.843  80.762  1.00  0.00     0.179 C 
ATOM     32  C   UNL     1     -41.106   3.519  80.328  1.00  0.00     0.177 C 
BRANCH  28  33
ATOM     33  O   UNL     1     -40.300   3.375  76.667  1.00  0.00    -0.384 OA
ATOM     34  H   UNL     1     -39.453   3.724  76.287  1.00  0.00     0.211 HD
ENDBRANCH  28  33
BRANCH  30  35
ATOM     35  O   UNL     1     -42.483   3.091  78.396  1.00  0.00    -0.387 OA
ATOM     36  H   UNL     1     -42.557   3.235  77.417  1.00  0.00     0.211 HD
ENDBRANCH  30  35
BRANCH  31  37
ATOM     37  C   UNL     1     -38.785   2.661  81.282  1.00  0.00     0.191 C 
BRANCH  37  38
ATOM     38  O   UNL     1     -37.539   3.088  81.759  1.00  0.00    -0.394 OA
ATOM     39  H   UNL     1     -37.711   3.880  82.335  1.00  0.00     0.210 HD
ENDBRANCH  37  38
ENDBRANCH  31  37
BRANCH  32  40
ATOM     40  O   UNL     1     -41.469   2.204  80.670  1.00  0.00    -0.387 OA
ATOM     41  H   UNL     1     -40.647   1.652  80.607  1.00  0.00     0.211 HD
ENDBRANCH  32  40
ENDBRANCH   1  27
TORSDOF 12
ENDMDL
MODEL 9
REMARK VINA RESULT:    -6.074      2.738      5.568
REMARK INTER + INTRA:         -10.315
REMARK INTER:                  -9.182
REMARK INTRA:                  -1.133
REMARK UNBOUND:                -1.400
REMARK SMILES O=c1c(O[C@H]2O[C@H](CO)[C@H](O)[C@H](O)[C@H]2O)c(-c2ccc(O)c(O)c2)oc2cc(O)cc(O)c12
REMARK SMILES IDX 4 1 3 2 16 3 25 4 2 5 26 6 1 7 33 8 27 9 31 10 28 11 30 12
REMARK SMILES IDX 17 13 18 14 19 15 20 16 24 17 22 18 21 19 23 21 32 23 29 25
REMARK SMILES IDX 5 27 14 28 6 29 12 30 7 31 10 32 15 33 13 35 8 37 9 38 11 40
REMARK H PARENT 21 20 23 22 32 24 29 26 15 34 13 36 9 39 11 41
REMARK Flexibility Score: inf
ROOT
ATOM      1  O   UNL     1     -36.624   6.569  80.606  1.00  0.00    -0.454 OA
ENDROOT
BRANCH   1   2
ATOM      2  C   UNL     1     -37.695   5.698  80.897  1.00  0.00     0.214 A 
ATOM      3  C   UNL     1     -39.008   5.893  80.424  1.00  0.00     0.180 A 
ATOM      4  O   UNL     1     -39.982   5.098  80.840  1.00  0.00    -0.452 OA
ATOM      5  C   UNL     1     -37.431   4.569  81.686  1.00  0.00     0.239 A 
ATOM      6  C   UNL     1     -39.790   4.060  81.644  1.00  0.00     0.146 A 
ATOM      7  O   UNL     1     -36.238   4.348  82.021  1.00  0.00    -0.285 OA
ATOM      8  C   UNL     1     -38.489   3.723  82.101  1.00  0.00     0.111 A 
ATOM      9  C   UNL     1     -40.897   3.289  82.007  1.00  0.00     0.094 A 
ATOM     10  C   UNL     1     -38.343   2.571  82.939  1.00  0.00     0.134 A 
ATOM     11  C   UNL     1     -40.747   2.180  82.831  1.00  0.00     0.123 A 
ATOM     12  C   UNL     1     -39.478   1.833  83.300  1.00  0.00     0.093 A 
BRANCH   3  13
ATOM     13  C   UNL     1     -39.360   6.919  79.427  1.00  0.00     0.025 A 
ATOM     14  C   UNL     1     -39.752   8.204  79.827  1.00  0.00     0.016 A 
ATOM     15  C   UNL     1     -40.072   9.169  78.870  1.00  0.00     0.051 A 
ATOM     16  C   UNL     1     -39.992   8.875  77.504  1.00  0.00     0.157 A 
ATOM     17  C   UNL     1     -39.241   6.630  78.061  1.00  0.00     0.062 A 
ATOM     18  C   UNL     1     -39.566   7.588  77.093  1.00  0.00     0.158 A 
BRANCH  16  19
ATOM     19  O   UNL     1     -40.339   9.878  76.598  1.00  0.00    -0.504 OA
ATOM     20  H   UNL     1     -40.888  10.688  76.839  1.00  0.00     0.293 HD
ENDBRANCH  16  19
BRANCH  18  21
ATOM     21  O   UNL     1     -39.449   7.224  75.751  1.00  0.00    -0.504 OA
ATOM     22  H   UNL     1     -38.724   6.622  75.389  1.00  0.00     0.293 HD
ENDBRANCH  18  21
ENDBRANCH   3  13
BRANCH  10  23
ATOM     23  O   UNL     1     -37.126   2.102  83.445  1.00  0.00    -0.507 OA
ATOM     24  H   UNL     1     -36.675   2.403  84.293  1.00  0.00     0.293 HD
ENDBRANCH  10  23
BRANCH  11  25
ATOM     25  O   UNL     1     -41.867   1.431  83.187  1.00  0.00    -0.508 OA
ATOM     26  H   UNL     1     -42.133   0.599  82.673  1.00  0.00     0.293 HD
ENDBRANCH  11  25
ENDBRANCH   1   2
BRANCH   1  27
ATOM     27  C   UNL     1     -36.249   7.052  79.302  1.00  0.00     0.339 C 
ATOM     28  C   UNL     1     -35.035   6.277  78.693  1.00  0.00     0.214 C 
ATOM     29  O   UNL     1     -36.066   8.458  79.364  1.00  0.00    -0.332 OA
ATOM     30  C   UNL     1     -33.778   7.152  78.741  1.00  0.00     0.180 C 
ATOM     31  C   UNL     1     -35.458   9.022  78.212  1.00  0.00     0.179 C 
ATOM     32  C   UNL     1     -34.025   8.451  77.951  1.00  0.00     0.177 C 
BRANCH  28  33
ATOM     33  O   UNL     1     -34.803   5.059  79.349  1.00  0.00    -0.384 OA
ATOM     34  H   UNL     1     -34.581   4.395  78.647  1.00  0.00     0.211 HD
ENDBRANCH  28  33
BRANCH  30  35
ATOM     35  O   UNL     1     -32.677   6.468  78.199  1.00  0.00    -0.387 OA
ATOM     36  H   UNL     1     -32.045   7.156  77.863  1.00  0.00     0.211 HD
ENDBRANCH  30  35
BRANCH  31  37
ATOM     37  C   UNL     1     -36.428   9.056  77.006  1.00  0.00     0.191 C 
BRANCH  37  38
ATOM     38  O   UNL     1     -36.151  10.125  76.144  1.00  0.00    -0.394 OA
ATOM     39  H   UNL     1     -36.737  10.876  76.426  1.00  0.00     0.210 HD
ENDBRANCH  37  38
ENDBRANCH  31  37
BRANCH  32  40
ATOM     40  O   UNL     1     -33.795   8.234  76.580  1.00  0.00    -0.387 OA
ATOM     41  H   UNL     1     -33.944   9.101  76.122  1.00  0.00     0.211 HD
ENDBRANCH  32  40
ENDBRANCH   1  27
TORSDOF 12
ENDMDL
