MODEL 1
REMARK VINA RESULT:    -4.856      0.000      0.000
REMARK INTER + INTRA:          -9.828
REMARK INTER:                  -8.830
REMARK INTRA:                  -0.998
REMARK UNBOUND:                -0.998
REMARK SMILES CCCCCCCCCCCCCCCC(=O)[O-]
REMARK SMILES IDX 9 1 10 2 11 3 12 4 13 5 14 6 15 7 16 8 17 9 18 10 8 11 7 12
REMARK SMILES IDX 6 13 5 14 4 15 3 16 2 17 1 18
REMARK H PARENT
REMARK Flexibility Score: inf
ROOT
ATOM      1  C   UNL     1      36.682 -11.484  29.087  1.00  0.00     0.000 C 
ENDROOT
BRANCH   1   2
ATOM      2  C   UNL     1      37.376 -11.459  27.711  1.00  0.00     0.000 C 
BRANCH   2   3
ATOM      3  C   UNL     1      36.452 -11.123  26.526  1.00  0.00     0.000 C 
BRANCH   3   4
ATOM      4  C   UNL     1      36.417  -9.619  26.205  1.00  0.00     0.000 C 
BRANCH   4   5
ATOM      5  C   UNL     1      36.597  -9.342  24.698  1.00  0.00     0.000 C 
BRANCH   5   6
ATOM      6  C   UNL     1      38.014  -8.872  24.324  1.00  0.00     0.006 C 
BRANCH   6   7
ATOM      7  C   UNL     1      39.004  -8.974  25.490  1.00  0.00     0.053 C 
BRANCH   7   8
ATOM      8  C   UNL     1      40.316  -9.514  25.016  1.00  0.00     0.041 C 
ATOM      9  O   UNL     1      41.065 -10.143  25.808  1.00  0.00    -0.550 OA
ATOM     10  O   UNL     1      40.689  -9.365  23.686  1.00  0.00    -0.550 OA
ENDBRANCH   7   8
ENDBRANCH   6   7
ENDBRANCH   5   6
ENDBRANCH   4   5
ENDBRANCH   3   4
ENDBRANCH   2   3
ENDBRANCH   1   2
BRANCH   1  11
ATOM     11  C   UNL     1      37.396 -12.321  30.167  1.00  0.00     0.000 C 
BRANCH  11  12
ATOM     12  C   UNL     1      38.781 -12.863  29.769  1.00  0.00    -0.000 C 
BRANCH  12  13
ATOM     13  C   UNL     1      39.913 -12.316  30.654  1.00  0.00    -0.000 C 
BRANCH  13  14
ATOM     14  C   UNL     1      41.290 -12.369  29.966  1.00  0.00    -0.000 C 
BRANCH  14  15
ATOM     15  C   UNL     1      41.254 -12.398  28.426  1.00  0.00    -0.000 C 
BRANCH  15  16
ATOM     16  C   UNL     1      42.227 -13.394  27.767  1.00  0.00    -0.000 C 
BRANCH  16  17
ATOM     17  C   UNL     1      43.271 -12.727  26.846  1.00  0.00    -0.003 C 
ATOM     18  C   UNL     1      43.573 -13.557  25.599  1.00  0.00     0.004 C 
ENDBRANCH  16  17
ENDBRANCH  15  16
ENDBRANCH  14  15
ENDBRANCH  13  14
ENDBRANCH  12  13
ENDBRANCH  11  12
ENDBRANCH   1  11
TORSDOF 14
ENDMDL
MODEL 2
REMARK VINA RESULT:    -4.720      2.488      6.240
REMARK INTER + INTRA:          -9.580
REMARK INTER:                  -7.997
REMARK INTRA:                  -1.583
REMARK UNBOUND:                -0.998
REMARK SMILES CCCCCCCCCCCCCCCC(=O)[O-]
REMARK SMILES IDX 9 1 10 2 11 3 12 4 13 5 14 6 15 7 16 8 17 9 18 10 8 11 7 12
REMARK SMILES IDX 6 13 5 14 4 15 3 16 2 17 1 18
REMARK H PARENT
REMARK Flexibility Score: inf
ROOT
ATOM      1  C   UNL     1      39.089 -13.037  27.805  1.00  0.00     0.000 C 
ENDROOT
BRANCH   1   2
ATOM      2  C   UNL     1      40.361 -13.370  27.001  1.00  0.00     0.000 C 
BRANCH   2   3
ATOM      3  C   UNL     1      41.470 -12.305  27.075  1.00  0.00     0.000 C 
BRANCH   3   4
ATOM      4  C   UNL     1      42.830 -12.889  27.498  1.00  0.00     0.000 C 
BRANCH   4   5
ATOM      5  C   UNL     1      42.680 -14.011  28.549  1.00  0.00     0.000 C 
BRANCH   5   6
ATOM      6  C   UNL     1      42.650 -13.496  29.998  1.00  0.00     0.006 C 
BRANCH   6   7
ATOM      7  C   UNL     1      41.291 -13.699  30.676  1.00  0.00     0.053 C 
BRANCH   7   8
ATOM      8  C   UNL     1      40.688 -12.380  31.044  1.00  0.00     0.041 C 
ATOM      9  O   UNL     1      41.405 -11.348  31.096  1.00  0.00    -0.550 OA
ATOM     10  O   UNL     1      39.322 -12.283  31.281  1.00  0.00    -0.550 OA
ENDBRANCH   7   8
ENDBRANCH   6   7
ENDBRANCH   5   6
ENDBRANCH   4   5
ENDBRANCH   3   4
ENDBRANCH   2   3
ENDBRANCH   1   2
BRANCH   1  11
ATOM     11  C   UNL     1      38.542 -11.609  27.608  1.00  0.00     0.000 C 
BRANCH  11  12
ATOM     12  C   UNL     1      37.022 -11.456  27.804  1.00  0.00    -0.000 C 
BRANCH  12  13
ATOM     13  C   UNL     1      36.282 -11.123  26.498  1.00  0.00    -0.000 C 
BRANCH  13  14
ATOM     14  C   UNL     1      36.340  -9.626  26.142  1.00  0.00    -0.000 C 
BRANCH  14  15
ATOM     15  C   UNL     1      36.631  -9.315  24.661  1.00  0.00    -0.000 C 
BRANCH  15  16
ATOM     16  C   UNL     1      38.073  -8.866  24.357  1.00  0.00    -0.000 C 
BRANCH  16  17
ATOM     17  C   UNL     1      39.011  -8.914  25.582  1.00  0.00    -0.003 C 
ATOM     18  C   UNL     1      40.427  -9.363  25.223  1.00  0.00     0.004 C 
ENDBRANCH  16  17
ENDBRANCH  15  16
ENDBRANCH  14  15
ENDBRANCH  13  14
ENDBRANCH  12  13
ENDBRANCH  11  12
ENDBRANCH   1  11
TORSDOF 14
ENDMDL
MODEL 3
REMARK VINA RESULT:    -4.716      1.566      2.434
REMARK INTER + INTRA:          -9.573
REMARK INTER:                  -7.703
REMARK INTRA:                  -1.870
REMARK UNBOUND:                -0.998
REMARK SMILES CCCCCCCCCCCCCCCC(=O)[O-]
REMARK SMILES IDX 9 1 10 2 11 3 12 4 13 5 14 6 15 7 16 8 17 9 18 10 8 11 7 12
REMARK SMILES IDX 6 13 5 14 4 15 3 16 2 17 1 18
REMARK H PARENT
REMARK Flexibility Score: inf
ROOT
ATOM      1  C   UNL     1      38.221 -13.148  31.520  1.00  0.00     0.000 C 
ENDROOT
BRANCH   1   2
ATOM      2  C   UNL     1      37.877 -13.065  30.020  1.00  0.00     0.000 C 
BRANCH   2   3
ATOM      3  C   UNL     1      37.015 -11.854  29.620  1.00  0.00     0.000 C 
BRANCH   3   4
ATOM      4  C   UNL     1      37.029 -11.586  28.105  1.00  0.00     0.000 C 
BRANCH   4   5
ATOM      5  C   UNL     1      38.411 -11.868  27.477  1.00  0.00     0.000 C 
BRANCH   5   6
ATOM      6  C   UNL     1      39.388 -10.685  27.585  1.00  0.00     0.006 C 
BRANCH   6   7
ATOM      7  C   UNL     1      40.468 -10.701  26.498  1.00  0.00     0.053 C 
BRANCH   7   8
ATOM      8  C   UNL     1      40.205  -9.635  25.482  1.00  0.00     0.041 C 
ATOM      9  O   UNL     1      39.224  -8.859  25.619  1.00  0.00    -0.550 OA
ATOM     10  O   UNL     1      41.072  -9.467  24.410  1.00  0.00    -0.550 OA
ENDBRANCH   7   8
ENDBRANCH   6   7
ENDBRANCH   5   6
ENDBRANCH   4   5
ENDBRANCH   3   4
ENDBRANCH   2   3
ENDBRANCH   1   2
BRANCH   1  11
ATOM     11  C   UNL     1      38.847 -11.874  32.122  1.00  0.00     0.000 C 
BRANCH  11  12
ATOM     12  C   UNL     1      40.292 -11.581  31.678  1.00  0.00    -0.000 C 
BRANCH  12  13
ATOM     13  C   UNL     1      41.274 -12.698  32.067  1.00  0.00    -0.000 C 
BRANCH  13  14
ATOM     14  C   UNL     1      41.961 -13.343  30.848  1.00  0.00    -0.000 C 
BRANCH  14  15
ATOM     15  C   UNL     1      41.642 -12.686  29.492  1.00  0.00    -0.000 C 
BRANCH  15  16
ATOM     16  C   UNL     1      41.864 -13.584  28.260  1.00  0.00    -0.000 C 
BRANCH  16  17
ATOM     17  C   UNL     1      43.302 -13.532  27.703  1.00  0.00    -0.003 C 
ATOM     18  C   UNL     1      43.360 -13.010  26.267  1.00  0.00     0.004 C 
ENDBRANCH  16  17
ENDBRANCH  15  16
ENDBRANCH  14  15
ENDBRANCH  13  14
ENDBRANCH  12  13
ENDBRANCH  11  12
ENDBRANCH   1  11
TORSDOF 14
ENDMDL
MODEL 4
REMARK VINA RESULT:    -4.699     12.596     14.901
REMARK INTER + INTRA:          -9.542
REMARK INTER:                  -8.717
REMARK INTRA:                  -0.825
REMARK UNBOUND:                -0.998
REMARK SMILES CCCCCCCCCCCCCCCC(=O)[O-]
REMARK SMILES IDX 9 1 10 2 11 3 12 4 13 5 14 6 15 7 16 8 17 9 18 10 8 11 7 12
REMARK SMILES IDX 6 13 5 14 4 15 3 16 2 17 1 18
REMARK H PARENT
REMARK Flexibility Score: inf
ROOT
ATOM      1  C   UNL     1      44.831   1.511  23.827  1.00  0.00     0.000 C 
ENDROOT
BRANCH   1   2
ATOM      2  C   UNL     1      44.687   0.027  24.217  1.00  0.00     0.000 C 
BRANCH   2   3
ATOM      3  C   UNL     1      43.370  -0.634  23.772  1.00  0.00     0.000 C 
BRANCH   3   4
ATOM      4  C   UNL     1      42.656   0.150  22.657  1.00  0.00     0.000 C 
BRANCH   4   5
ATOM      5  C   UNL     1      42.759  -0.558  21.289  1.00  0.00     0.000 C 
BRANCH   5   6
ATOM      6  C   UNL     1      41.448  -0.537  20.485  1.00  0.00     0.006 C 
BRANCH   6   7
ATOM      7  C   UNL     1      41.668  -0.701  18.978  1.00  0.00     0.053 C 
BRANCH   7   8
ATOM      8  C   UNL     1      41.883   0.632  18.332  1.00  0.00     0.041 C 
ATOM      9  O   UNL     1      41.488   1.682  18.902  1.00  0.00    -0.550 OA
ATOM     10  O   UNL     1      42.563   0.717  17.124  1.00  0.00    -0.550 OA
ENDBRANCH   7   8
ENDBRANCH   6   7
ENDBRANCH   5   6
ENDBRANCH   4   5
ENDBRANCH   3   4
ENDBRANCH   2   3
ENDBRANCH   1   2
BRANCH   1  11
ATOM     11  C   UNL     1      45.879   1.805  22.736  1.00  0.00     0.000 C 
BRANCH  11  12
ATOM     12  C   UNL     1      46.592   0.567  22.161  1.00  0.00    -0.000 C 
BRANCH  12  13
ATOM     13  C   UNL     1      47.643   0.924  21.097  1.00  0.00    -0.000 C 
BRANCH  13  14
ATOM     14  C   UNL     1      48.849  -0.034  21.100  1.00  0.00    -0.000 C 
BRANCH  14  15
ATOM     15  C   UNL     1      49.878   0.203  19.979  1.00  0.00    -0.000 C 
BRANCH  15  16
ATOM     16  C   UNL     1      50.726  -1.025  19.596  1.00  0.00    -0.000 C 
BRANCH  16  17
ATOM     17  C   UNL     1      52.073  -1.110  20.345  1.00  0.00    -0.003 C 
ATOM     18  C   UNL     1      53.037   0.010  19.953  1.00  0.00     0.004 C 
ENDBRANCH  16  17
ENDBRANCH  15  16
ENDBRANCH  14  15
ENDBRANCH  13  14
ENDBRANCH  12  13
ENDBRANCH  11  12
ENDBRANCH   1  11
TORSDOF 14
ENDMDL
MODEL 5
REMARK VINA RESULT:    -4.672     12.364     14.927
REMARK INTER + INTRA:          -9.493
REMARK INTER:                  -7.694
REMARK INTRA:                  -1.799
REMARK UNBOUND:                -0.998
REMARK SMILES CCCCCCCCCCCCCCCC(=O)[O-]
REMARK SMILES IDX 9 1 10 2 11 3 12 4 13 5 14 6 15 7 16 8 17 9 18 10 8 11 7 12
REMARK SMILES IDX 6 13 5 14 4 15 3 16 2 17 1 18
REMARK H PARENT
REMARK Flexibility Score: inf
ROOT
ATOM      1  C   UNL     1      43.859  -0.494  24.215  1.00  0.00     0.000 C 
ENDROOT
BRANCH   1   2
ATOM      2  C   UNL     1      45.218   0.231  24.225  1.00  0.00     0.000 C 
BRANCH   2   3
ATOM      3  C   UNL     1      45.942   0.267  22.867  1.00  0.00     0.000 C 
BRANCH   3   4
ATOM      4  C   UNL     1      46.314   1.694  22.428  1.00  0.00     0.000 C 
BRANCH   4   5
ATOM      5  C   UNL     1      46.893   1.731  20.997  1.00  0.00     0.000 C 
BRANCH   5   6
ATOM      6  C   UNL     1      48.430   1.752  20.956  1.00  0.00     0.006 C 
BRANCH   6   7
ATOM      7  C   UNL     1      49.028   0.502  20.300  1.00  0.00     0.053 C 
BRANCH   7   8
ATOM      8  C   UNL     1      49.933  -0.208  21.256  1.00  0.00     0.041 C 
ATOM      9  O   UNL     1      49.521  -0.524  22.403  1.00  0.00    -0.550 OA
ATOM     10  O   UNL     1      51.216  -0.567  20.861  1.00  0.00    -0.550 OA
ENDBRANCH   7   8
ENDBRANCH   6   7
ENDBRANCH   5   6
ENDBRANCH   4   5
ENDBRANCH   3   4
ENDBRANCH   2   3
ENDBRANCH   1   2
BRANCH   1  11
ATOM     11  C   UNL     1      42.640   0.388  24.552  1.00  0.00     0.000 C 
BRANCH  11  12
ATOM     12  C   UNL     1      42.716   1.836  24.034  1.00  0.00    -0.000 C 
BRANCH  12  13
ATOM     13  C   UNL     1      41.843   2.071  22.790  1.00  0.00    -0.000 C 
BRANCH  13  14
ATOM     14  C   UNL     1      42.669   2.243  21.502  1.00  0.00    -0.000 C 
BRANCH  14  15
ATOM     15  C   UNL     1      43.025   0.934  20.772  1.00  0.00    -0.000 C 
BRANCH  15  16
ATOM     16  C   UNL     1      42.046  -0.233  21.004  1.00  0.00    -0.000 C 
BRANCH  16  17
ATOM     17  C   UNL     1      41.524  -0.875  19.702  1.00  0.00    -0.003 C 
ATOM     18  C   UNL     1      40.464  -1.946  19.957  1.00  0.00     0.004 C 
ENDBRANCH  16  17
ENDBRANCH  15  16
ENDBRANCH  14  15
ENDBRANCH  13  14
ENDBRANCH  12  13
ENDBRANCH  11  12
ENDBRANCH   1  11
TORSDOF 14
ENDMDL
MODEL 6
REMARK VINA RESULT:    -4.653      1.764      4.742
REMARK INTER + INTRA:          -9.459
REMARK INTER:                  -7.763
REMARK INTRA:                  -1.696
REMARK UNBOUND:                -0.998
REMARK SMILES CCCCCCCCCCCCCCCC(=O)[O-]
REMARK SMILES IDX 9 1 10 2 11 3 12 4 13 5 14 6 15 7 16 8 17 9 18 10 8 11 7 12
REMARK SMILES IDX 6 13 5 14 4 15 3 16 2 17 1 18
REMARK H PARENT
REMARK Flexibility Score: inf
ROOT
ATOM      1  C   UNL     1      37.049  -9.205  25.679  1.00  0.00     0.000 C 
ENDROOT
BRANCH   1   2
ATOM      2  C   UNL     1      38.462  -9.513  25.147  1.00  0.00     0.000 C 
BRANCH   2   3
ATOM      3  C   UNL     1      39.600  -9.271  26.156  1.00  0.00     0.000 C 
BRANCH   3   4
ATOM      4  C   UNL     1      40.689 -10.356  26.098  1.00  0.00     0.000 C 
BRANCH   4   5
ATOM      5  C   UNL     1      40.629 -11.306  27.313  1.00  0.00     0.000 C 
BRANCH   5   6
ATOM      6  C   UNL     1      40.824 -12.787  26.946  1.00  0.00     0.006 C 
BRANCH   6   7
ATOM      7  C   UNL     1      41.917 -13.469  27.776  1.00  0.00     0.053 C 
BRANCH   7   8
ATOM      8  C   UNL     1      43.258 -13.262  27.148  1.00  0.00     0.041 C 
ATOM      9  O   UNL     1      44.308 -13.467  27.812  1.00  0.00    -0.550 OA
ATOM     10  O   UNL     1      43.350 -12.890  25.813  1.00  0.00    -0.550 OA
ENDBRANCH   7   8
ENDBRANCH   6   7
ENDBRANCH   5   6
ENDBRANCH   4   5
ENDBRANCH   3   4
ENDBRANCH   2   3
ENDBRANCH   1   2
BRANCH   1  11
ATOM     11  C   UNL     1      36.248 -10.430  26.164  1.00  0.00     0.000 C 
BRANCH  11  12
ATOM     12  C   UNL     1      37.054 -11.463  26.972  1.00  0.00    -0.000 C 
BRANCH  12  13
ATOM     13  C   UNL     1      36.773 -11.391  28.482  1.00  0.00    -0.000 C 
BRANCH  13  14
ATOM     14  C   UNL     1      37.766 -12.221  29.317  1.00  0.00    -0.000 C 
BRANCH  14  15
ATOM     15  C   UNL     1      37.534 -12.184  30.839  1.00  0.00    -0.000 C 
BRANCH  15  16
ATOM     16  C   UNL     1      38.807 -12.308  31.699  1.00  0.00    -0.000 C 
BRANCH  16  17
ATOM     17  C   UNL     1      40.081 -12.614  30.884  1.00  0.00    -0.003 C 
ATOM     18  C   UNL     1      41.161 -11.545  31.055  1.00  0.00     0.004 C 
ENDBRANCH  16  17
ENDBRANCH  15  16
ENDBRANCH  14  15
ENDBRANCH  13  14
ENDBRANCH  12  13
ENDBRANCH  11  12
ENDBRANCH   1  11
TORSDOF 14
ENDMDL
MODEL 7
REMARK VINA RESULT:    -4.591     12.447     15.164
REMARK INTER + INTRA:          -9.346
REMARK INTER:                  -7.275
REMARK INTRA:                  -2.071
REMARK UNBOUND:                -0.998
REMARK SMILES CCCCCCCCCCCCCCCC(=O)[O-]
REMARK SMILES IDX 9 1 10 2 11 3 12 4 13 5 14 6 15 7 16 8 17 9 18 10 8 11 7 12
REMARK SMILES IDX 6 13 5 14 4 15 3 16 2 17 1 18
REMARK H PARENT
REMARK Flexibility Score: inf
ROOT
ATOM      1  C   UNL     1      42.923   2.364  19.478  1.00  0.00     0.000 C 
ENDROOT
BRANCH   1   2
ATOM      2  C   UNL     1      42.424   3.126  20.721  1.00  0.00     0.000 C 
BRANCH   2   3
ATOM      3  C   UNL     1      43.443   3.227  21.870  1.00  0.00     0.000 C 
BRANCH   3   4
ATOM      4  C   UNL     1      44.832   2.689  21.485  1.00  0.00     0.000 C 
BRANCH   4   5
ATOM      5  C   UNL     1      45.595   2.123  22.701  1.00  0.00     0.000 C 
BRANCH   5   6
ATOM      6  C   UNL     1      46.353   0.819  22.400  1.00  0.00     0.006 C 
BRANCH   6   7
ATOM      7  C   UNL     1      47.266   0.928  21.174  1.00  0.00     0.053 C 
BRANCH   7   8
ATOM      8  C   UNL     1      48.700   0.783  21.575  1.00  0.00     0.041 C 
ATOM      9  O   UNL     1      49.120  -0.307  22.043  1.00  0.00    -0.550 OA
ATOM     10  O   UNL     1      49.585   1.838  21.385  1.00  0.00    -0.550 OA
ENDBRANCH   7   8
ENDBRANCH   6   7
ENDBRANCH   5   6
ENDBRANCH   4   5
ENDBRANCH   3   4
ENDBRANCH   2   3
ENDBRANCH   1   2
BRANCH   1  11
ATOM     11  C   UNL     1      41.818   1.746  18.598  1.00  0.00     0.000 C 
BRANCH  11  12
ATOM     12  C   UNL     1      41.859   0.211  18.476  1.00  0.00    -0.000 C 
BRANCH  12  13
ATOM     13  C   UNL     1      41.169  -0.500  19.650  1.00  0.00    -0.000 C 
BRANCH  13  14
ATOM     14  C   UNL     1      42.124  -1.408  20.447  1.00  0.00    -0.000 C 
BRANCH  14  15
ATOM     15  C   UNL     1      43.126  -0.669  21.355  1.00  0.00    -0.000 C 
BRANCH  15  16
ATOM     16  C   UNL     1      42.558  -0.193  22.706  1.00  0.00    -0.000 C 
BRANCH  16  17
ATOM     17  C   UNL     1      43.333  -0.726  23.930  1.00  0.00    -0.003 C 
ATOM     18  C   UNL     1      43.199   0.180  25.153  1.00  0.00     0.004 C 
ENDBRANCH  16  17
ENDBRANCH  15  16
ENDBRANCH  14  15
ENDBRANCH  13  14
ENDBRANCH  12  13
ENDBRANCH  11  12
ENDBRANCH   1  11
TORSDOF 14
ENDMDL
MODEL 8
REMARK VINA RESULT:    -4.586     12.444     14.930
REMARK INTER + INTRA:          -9.338
REMARK INTER:                  -8.003
REMARK INTRA:                  -1.335
REMARK UNBOUND:                -0.998
REMARK SMILES CCCCCCCCCCCCCCCC(=O)[O-]
REMARK SMILES IDX 9 1 10 2 11 3 12 4 13 5 14 6 15 7 16 8 17 9 18 10 8 11 7 12
REMARK SMILES IDX 6 13 5 14 4 15 3 16 2 17 1 18
REMARK H PARENT
REMARK Flexibility Score: inf
ROOT
ATOM      1  C   UNL     1      44.988   2.909  21.855  1.00  0.00     0.000 C 
ENDROOT
BRANCH   1   2
ATOM      2  C   UNL     1      43.585   3.201  22.422  1.00  0.00     0.000 C 
BRANCH   2   3
ATOM      3  C   UNL     1      42.422   2.598  21.614  1.00  0.00     0.000 C 
BRANCH   3   4
ATOM      4  C   UNL     1      42.832   1.341  20.827  1.00  0.00     0.000 C 
BRANCH   4   5
ATOM      5  C   UNL     1      42.284   0.049  21.468  1.00  0.00     0.000 C 
BRANCH   5   6
ATOM      6  C   UNL     1      43.282  -0.638  22.416  1.00  0.00     0.006 C 
BRANCH   6   7
ATOM      7  C   UNL     1      42.982  -0.371  23.895  1.00  0.00     0.053 C 
BRANCH   7   8
ATOM      8  C   UNL     1      43.874  -1.197  24.767  1.00  0.00     0.041 C 
ATOM      9  O   UNL     1      45.055  -0.828  24.996  1.00  0.00    -0.550 OA
ATOM     10  O   UNL     1      43.384  -2.350  25.368  1.00  0.00    -0.550 OA
ENDBRANCH   7   8
ENDBRANCH   6   7
ENDBRANCH   5   6
ENDBRANCH   4   5
ENDBRANCH   3   4
ENDBRANCH   2   3
ENDBRANCH   1   2
BRANCH   1  11
ATOM     11  C   UNL     1      45.914   2.093  22.779  1.00  0.00     0.000 C 
BRANCH  11  12
ATOM     12  C   UNL     1      46.498   0.811  22.157  1.00  0.00    -0.000 C 
BRANCH  12  13
ATOM     13  C   UNL     1      47.535   1.101  21.058  1.00  0.00    -0.000 C 
BRANCH  13  14
ATOM     14  C   UNL     1      48.986   0.927  21.543  1.00  0.00    -0.000 C 
BRANCH  14  15
ATOM     15  C   UNL     1      49.988   0.471  20.465  1.00  0.00    -0.000 C 
BRANCH  15  16
ATOM     16  C   UNL     1      50.778  -0.808  20.803  1.00  0.00    -0.000 C 
BRANCH  16  17
ATOM     17  C   UNL     1      52.038  -1.009  19.936  1.00  0.00    -0.003 C 
ATOM     18  C   UNL     1      51.720  -1.082  18.442  1.00  0.00     0.004 C 
ENDBRANCH  16  17
ENDBRANCH  15  16
ENDBRANCH  14  15
ENDBRANCH  13  14
ENDBRANCH  12  13
ENDBRANCH  11  12
ENDBRANCH   1  11
TORSDOF 14
ENDMDL
MODEL 9
REMARK VINA RESULT:    -4.563     13.102     15.959
REMARK INTER + INTRA:          -9.294
REMARK INTER:                  -8.429
REMARK INTRA:                  -0.865
REMARK UNBOUND:                -0.998
REMARK SMILES CCCCCCCCCCCCCCCC(=O)[O-]
REMARK SMILES IDX 9 1 10 2 11 3 12 4 13 5 14 6 15 7 16 8 17 9 18 10 8 11 7 12
REMARK SMILES IDX 6 13 5 14 4 15 3 16 2 17 1 18
REMARK H PARENT
REMARK Flexibility Score: inf
ROOT
ATOM      1  C   UNL     1      45.956   1.903  22.963  1.00  0.00     0.000 C 
ENDROOT
BRANCH   1   2
ATOM      2  C   UNL     1      46.801   1.931  21.675  1.00  0.00     0.000 C 
BRANCH   2   3
ATOM      3  C   UNL     1      47.367   0.566  21.242  1.00  0.00     0.000 C 
BRANCH   3   4
ATOM      4  C   UNL     1      48.848   0.389  21.620  1.00  0.00     0.000 C 
BRANCH   4   5
ATOM      5  C   UNL     1      49.660  -0.284  20.493  1.00  0.00     0.000 C 
BRANCH   5   6
ATOM      6  C   UNL     1      51.052  -0.763  20.938  1.00  0.00     0.006 C 
BRANCH   6   7
ATOM      7  C   UNL     1      51.998  -1.029  19.762  1.00  0.00     0.053 C 
BRANCH   7   8
ATOM      8  C   UNL     1      52.229   0.227  18.982  1.00  0.00     0.041 C 
ATOM      9  O   UNL     1      52.933   1.152  19.465  1.00  0.00    -0.550 OA
ATOM     10  O   UNL     1      51.708   0.356  17.701  1.00  0.00    -0.550 OA
ENDBRANCH   7   8
ENDBRANCH   6   7
ENDBRANCH   5   6
ENDBRANCH   4   5
ENDBRANCH   3   4
ENDBRANCH   2   3
ENDBRANCH   1   2
BRANCH   1  11
ATOM     11  C   UNL     1      45.648   0.497  23.516  1.00  0.00     0.000 C 
BRANCH  11  12
ATOM     12  C   UNL     1      44.298   0.361  24.246  1.00  0.00    -0.000 C 
BRANCH  12  13
ATOM     13  C   UNL     1      43.316  -0.569  23.515  1.00  0.00    -0.000 C 
BRANCH  13  14
ATOM     14  C   UNL     1      43.547  -0.608  21.993  1.00  0.00    -0.000 C 
BRANCH  14  15
ATOM     15  C   UNL     1      42.443   0.050  21.144  1.00  0.00    -0.000 C 
BRANCH  15  16
ATOM     16  C   UNL     1      41.457  -0.929  20.479  1.00  0.00    -0.000 C 
BRANCH  16  17
ATOM     17  C   UNL     1      41.393  -0.800  18.942  1.00  0.00    -0.003 C 
ATOM     18  C   UNL     1      41.718   0.612  18.455  1.00  0.00     0.004 C 
ENDBRANCH  16  17
ENDBRANCH  15  16
ENDBRANCH  14  15
ENDBRANCH  13  14
ENDBRANCH  12  13
ENDBRANCH  11  12
ENDBRANCH   1  11
TORSDOF 14
ENDMDL
