MODEL 1
REMARK VINA RESULT:    -6.764      0.000      0.000
REMARK INTER + INTRA:         -10.130
REMARK INTER:                  -8.939
REMARK INTRA:                  -1.191
REMARK UNBOUND:                -1.191
REMARK SMILES CC[C@H](C=C[C@@H](C)[C@H]1CC[C@H]2[C@@H]3CC=C4C[C@H](O)CC[C@]4(C)[C@H]3CC[C@]12C)C(C)C
REMARK SMILES IDX 6 1 7 2 5 3 4 4 3 5 2 6 1 7 28 8 29 9 30 10 8 11 9 12 26 13
REMARK SMILES IDX 10 14 11 15 25 16 27 17 12 18 24 19 23 20 13 21 21 22 14 23
REMARK SMILES IDX 15 24 20 25 22 26 16 27 19 28 17 29 18 30
REMARK H PARENT 18 31
REMARK Flexibility Score: inf
ROOT
ATOM      1  C   UNL     1      43.240  42.815   7.386  1.00  0.00     0.012 C 
ATOM      2  C   UNL     1      44.363  42.073   6.626  1.00  0.00     0.012 C 
ENDROOT
BRANCH   1   3
ATOM      3  C   UNL     1      41.918  42.726   6.647  1.00  0.00    -0.028 C 
ATOM      4  C   UNL     1      41.888  42.472   5.331  1.00  0.00    -0.027 C 
BRANCH   4   5
ATOM      5  C   UNL     1      41.229  41.229   4.743  1.00  0.00     0.014 C 
BRANCH   5   6
ATOM      6  C   UNL     1      41.177  40.124   5.833  1.00  0.00     0.004 C 
ATOM      7  C   UNL     1      42.267  39.048   5.653  1.00  0.00     0.004 C 
ENDBRANCH   5   6
BRANCH   5   8
ATOM      8  C   UNL     1      39.824  41.605   4.162  1.00  0.00    -0.011 C 
ATOM      9  C   UNL     1      39.846  43.020   3.549  1.00  0.00     0.008 C 
ATOM     10  C   UNL     1      39.283  40.612   3.102  1.00  0.00     0.008 C 
ENDBRANCH   5   8
ENDBRANCH   4   5
ENDBRANCH   1   3
BRANCH   1  11
ATOM     11  C   UNL     1      43.740  44.253   7.731  1.00  0.00     0.002 C 
ATOM     12  C   UNL     1      42.922  45.452   7.164  1.00  0.00     0.005 C 
ATOM     13  C   UNL     1      44.029  44.646   9.208  1.00  0.00    -0.026 C 
ATOM     14  C   UNL     1      43.258  46.662   8.064  1.00  0.00     0.005 C 
ATOM     15  C   UNL     1      44.386  46.137   8.969  1.00  0.00    -0.001 C 
ATOM     16  C   UNL     1      45.245  43.925   9.843  1.00  0.00     0.007 C 
ATOM     17  C   UNL     1      42.782  44.462  10.116  1.00  0.00     0.012 C 
ATOM     18  C   UNL     1      44.816  46.896  10.251  1.00  0.00     0.000 C 
ATOM     19  C   UNL     1      45.749  44.661  11.119  1.00  0.00     0.005 C 
ATOM     20  C   UNL     1      46.062  46.160  10.822  1.00  0.00     0.003 C 
ATOM     21  C   UNL     1      45.103  48.411   9.982  1.00  0.00     0.031 C 
ATOM     22  C   UNL     1      46.713  46.988  11.987  1.00  0.00    -0.008 C 
ATOM     23  C   UNL     1      46.464  48.905  10.417  1.00  0.00    -0.027 C 
ATOM     24  C   UNL     1      47.238  48.264  11.324  1.00  0.00    -0.065 C 
ATOM     25  C   UNL     1      47.885  46.180  12.624  1.00  0.00     0.014 C 
ATOM     26  C   UNL     1      45.704  47.374  13.106  1.00  0.00     0.016 C 
ATOM     27  C   UNL     1      48.727  48.519  11.266  1.00  0.00     0.063 C 
ATOM     28  C   UNL     1      48.953  47.035  13.357  1.00  0.00     0.033 C 
ATOM     29  C   UNL     1      49.430  48.326  12.605  1.00  0.00     0.118 C 
BRANCH  29  30
ATOM     30  O   UNL     1      50.832  48.271  12.367  1.00  0.00    -0.393 OA
ATOM     31  H   UNL     1      51.294  48.553  13.198  1.00  0.00     0.210 HD
ENDBRANCH  29  30
ENDBRANCH   1  11
TORSDOF 6
ENDMDL
MODEL 2
REMARK VINA RESULT:    -6.684      5.593      8.497
REMARK INTER + INTRA:         -10.023
REMARK INTER:                  -8.835
REMARK INTRA:                  -1.188
REMARK UNBOUND:                -1.191
REMARK SMILES CC[C@H](C=C[C@@H](C)[C@H]1CC[C@H]2[C@@H]3CC=C4C[C@H](O)CC[C@]4(C)[C@H]3CC[C@]12C)C(C)C
REMARK SMILES IDX 6 1 7 2 5 3 4 4 3 5 2 6 1 7 28 8 29 9 30 10 8 11 9 12 26 13
REMARK SMILES IDX 10 14 11 15 25 16 27 17 12 18 24 19 23 20 13 21 21 22 14 23
REMARK SMILES IDX 15 24 20 25 22 26 16 27 19 28 17 29 18 30
REMARK H PARENT 18 31
REMARK Flexibility Score: inf
ROOT
ATOM      1  C   UNL     1      43.540  42.177   7.811  1.00  0.00     0.012 C 
ATOM      2  C   UNL     1      44.124  42.130   6.381  1.00  0.00     0.012 C 
ENDROOT
BRANCH   1   3
ATOM      3  C   UNL     1      43.031  43.564   8.156  1.00  0.00    -0.028 C 
ATOM      4  C   UNL     1      43.480  44.640   7.494  1.00  0.00    -0.027 C 
BRANCH   4   5
ATOM      5  C   UNL     1      42.571  45.536   6.660  1.00  0.00     0.014 C 
BRANCH   5   6
ATOM      6  C   UNL     1      41.321  44.722   6.229  1.00  0.00     0.004 C 
ATOM      7  C   UNL     1      41.435  44.153   4.800  1.00  0.00     0.004 C 
ENDBRANCH   5   6
BRANCH   5   8
ATOM      8  C   UNL     1      42.229  46.833   7.468  1.00  0.00    -0.011 C 
ATOM      9  C   UNL     1      43.433  47.280   8.322  1.00  0.00     0.008 C 
ATOM     10  C   UNL     1      41.767  48.028   6.595  1.00  0.00     0.008 C 
ENDBRANCH   5   8
ENDBRANCH   4   5
ENDBRANCH   1   3
BRANCH   1  11
ATOM     11  C   UNL     1      44.585  41.562   8.794  1.00  0.00     0.002 C 
ATOM     12  C   UNL     1      45.152  42.490   9.910  1.00  0.00     0.005 C 
ATOM     13  C   UNL     1      44.278  40.223   9.523  1.00  0.00    -0.026 C 
ATOM     14  C   UNL     1      45.681  41.552  11.018  1.00  0.00     0.005 C 
ATOM     15  C   UNL     1      45.561  40.151  10.393  1.00  0.00    -0.001 C 
ATOM     16  C   UNL     1      44.218  38.981   8.598  1.00  0.00     0.007 C 
ATOM     17  C   UNL     1      42.979  40.304  10.371  1.00  0.00     0.012 C 
ATOM     18  C   UNL     1      45.668  38.867  11.256  1.00  0.00     0.000 C 
ATOM     19  C   UNL     1      44.355  37.656   9.403  1.00  0.00     0.005 C 
ATOM     20  C   UNL     1      45.646  37.657  10.278  1.00  0.00     0.003 C 
ATOM     21  C   UNL     1      46.940  38.862  12.166  1.00  0.00     0.031 C 
ATOM     22  C   UNL     1      45.985  36.323  11.035  1.00  0.00    -0.008 C 
ATOM     23  C   UNL     1      47.842  37.657  12.022  1.00  0.00    -0.027 C 
ATOM     24  C   UNL     1      47.439  36.481  11.489  1.00  0.00    -0.065 C 
ATOM     25  C   UNL     1      45.842  35.109  10.067  1.00  0.00     0.014 C 
ATOM     26  C   UNL     1      45.087  36.078  12.281  1.00  0.00     0.016 C 
ATOM     27  C   UNL     1      48.507  35.583  10.903  1.00  0.00     0.063 C 
ATOM     28  C   UNL     1      46.657  33.850  10.464  1.00  0.00     0.033 C 
ATOM     29  C   UNL     1      48.135  34.105  10.919  1.00  0.00     0.118 C 
BRANCH  29  30
ATOM     30  O   UNL     1      49.042  33.411  10.069  1.00  0.00    -0.393 OA
ATOM     31  H   UNL     1      49.906  33.326  10.550  1.00  0.00     0.210 HD
ENDBRANCH  29  30
ENDBRANCH   1  11
TORSDOF 6
ENDMDL
MODEL 3
REMARK VINA RESULT:    -6.499      0.484      1.648
REMARK INTER + INTRA:          -9.780
REMARK INTER:                  -8.709
REMARK INTRA:                  -1.071
REMARK UNBOUND:                -1.191
REMARK SMILES CC[C@H](C=C[C@@H](C)[C@H]1CC[C@H]2[C@@H]3CC=C4C[C@H](O)CC[C@]4(C)[C@H]3CC[C@]12C)C(C)C
REMARK SMILES IDX 6 1 7 2 5 3 4 4 3 5 2 6 1 7 28 8 29 9 30 10 8 11 9 12 26 13
REMARK SMILES IDX 10 14 11 15 25 16 27 17 12 18 24 19 23 20 13 21 21 22 14 23
REMARK SMILES IDX 15 24 20 25 22 26 16 27 19 28 17 29 18 30
REMARK H PARENT 18 31
REMARK Flexibility Score: inf
ROOT
ATOM      1  C   UNL     1      43.278  42.756   7.322  1.00  0.00     0.012 C 
ATOM      2  C   UNL     1      44.445  42.015   6.631  1.00  0.00     0.012 C 
ENDROOT
BRANCH   1   3
ATOM      3  C   UNL     1      41.997  42.647   6.516  1.00  0.00    -0.028 C 
ATOM      4  C   UNL     1      41.935  41.853   5.437  1.00  0.00    -0.027 C 
BRANCH   4   5
ATOM      5  C   UNL     1      40.992  40.659   5.341  1.00  0.00     0.014 C 
BRANCH   5   6
ATOM      6  C   UNL     1      40.083  40.836   4.095  1.00  0.00     0.004 C 
ATOM      7  C   UNL     1      39.929  42.309   3.665  1.00  0.00     0.004 C 
ENDBRANCH   5   6
BRANCH   5   8
ATOM      8  C   UNL     1      41.825  39.333   5.329  1.00  0.00    -0.011 C 
ATOM      9  C   UNL     1      42.355  39.005   6.740  1.00  0.00     0.008 C 
ATOM     10  C   UNL     1      41.058  38.101   4.786  1.00  0.00     0.008 C 
ENDBRANCH   5   8
ENDBRANCH   4   5
ENDBRANCH   1   3
BRANCH   1  11
ATOM     11  C   UNL     1      43.748  44.202   7.676  1.00  0.00     0.002 C 
ATOM     12  C   UNL     1      42.906  45.387   7.114  1.00  0.00     0.005 C 
ATOM     13  C   UNL     1      44.027  44.594   9.154  1.00  0.00    -0.026 C 
ATOM     14  C   UNL     1      43.216  46.600   8.020  1.00  0.00     0.005 C 
ATOM     15  C   UNL     1      44.353  46.093   8.924  1.00  0.00    -0.001 C 
ATOM     16  C   UNL     1      45.257  43.895   9.788  1.00  0.00     0.007 C 
ATOM     17  C   UNL     1      42.783  44.380  10.060  1.00  0.00     0.012 C 
ATOM     18  C   UNL     1      44.765  46.855  10.210  1.00  0.00     0.000 C 
ATOM     19  C   UNL     1      45.743  44.635  11.069  1.00  0.00     0.005 C 
ATOM     20  C   UNL     1      46.025  46.141  10.780  1.00  0.00     0.003 C 
ATOM     21  C   UNL     1      45.021  48.376   9.949  1.00  0.00     0.031 C 
ATOM     22  C   UNL     1      46.658  46.976  11.949  1.00  0.00    -0.008 C 
ATOM     23  C   UNL     1      46.371  48.896  10.389  1.00  0.00    -0.027 C 
ATOM     24  C   UNL     1      47.157  48.266  11.293  1.00  0.00    -0.065 C 
ATOM     25  C   UNL     1      47.845  46.190  12.584  1.00  0.00     0.014 C 
ATOM     26  C   UNL     1      45.640  47.335  13.069  1.00  0.00     0.016 C 
ATOM     27  C   UNL     1      48.641  48.553  11.239  1.00  0.00     0.063 C 
ATOM     28  C   UNL     1      48.894  47.063  13.322  1.00  0.00     0.033 C 
ATOM     29  C   UNL     1      49.346  48.367  12.578  1.00  0.00     0.118 C 
BRANCH  29  30
ATOM     30  O   UNL     1      50.749  48.342  12.341  1.00  0.00    -0.393 OA
ATOM     31  H   UNL     1      51.029  47.393  12.269  1.00  0.00     0.210 HD
ENDBRANCH  29  30
ENDBRANCH   1  11
TORSDOF 6
ENDMDL
MODEL 4
REMARK VINA RESULT:    -6.481      5.348      8.608
REMARK INTER + INTRA:          -9.755
REMARK INTER:                  -8.105
REMARK INTRA:                  -1.651
REMARK UNBOUND:                -1.191
REMARK SMILES CC[C@H](C=C[C@@H](C)[C@H]1CC[C@H]2[C@@H]3CC=C4C[C@H](O)CC[C@]4(C)[C@H]3CC[C@]12C)C(C)C
REMARK SMILES IDX 6 1 7 2 5 3 4 4 3 5 2 6 1 7 28 8 29 9 30 10 8 11 9 12 26 13
REMARK SMILES IDX 10 14 11 15 25 16 27 17 12 18 24 19 23 20 13 21 21 22 14 23
REMARK SMILES IDX 15 24 20 25 22 26 16 27 19 28 17 29 18 30
REMARK H PARENT 18 31
REMARK Flexibility Score: inf
ROOT
ATOM      1  C   UNL     1      44.004  42.954   8.017  1.00  0.00     0.012 C 
ATOM      2  C   UNL     1      44.295  42.366   6.618  1.00  0.00     0.012 C 
ENDROOT
BRANCH   1   3
ATOM      3  C   UNL     1      44.054  44.471   8.003  1.00  0.00    -0.028 C 
ATOM      4  C   UNL     1      42.980  45.193   8.354  1.00  0.00    -0.027 C 
BRANCH   4   5
ATOM      5  C   UNL     1      42.975  46.138   9.550  1.00  0.00     0.014 C 
BRANCH   5   6
ATOM      6  C   UNL     1      42.658  45.323  10.833  1.00  0.00     0.004 C 
ATOM      7  C   UNL     1      41.514  44.308  10.636  1.00  0.00     0.004 C 
ENDBRANCH   5   6
BRANCH   5   8
ATOM      8  C   UNL     1      44.336  46.910   9.614  1.00  0.00    -0.011 C 
ATOM      9  C   UNL     1      44.111  48.430   9.484  1.00  0.00     0.008 C 
ATOM     10  C   UNL     1      45.166  46.637  10.895  1.00  0.00     0.008 C 
ENDBRANCH   5   8
ENDBRANCH   4   5
ENDBRANCH   1   3
BRANCH   1  11
ATOM     11  C   UNL     1      44.926  42.244   9.056  1.00  0.00     0.002 C 
ATOM     12  C   UNL     1      45.427  43.090  10.266  1.00  0.00     0.005 C 
ATOM     13  C   UNL     1      44.497  40.888   9.685  1.00  0.00    -0.026 C 
ATOM     14  C   UNL     1      45.812  42.076  11.366  1.00  0.00     0.005 C 
ATOM     15  C   UNL     1      45.690  40.714  10.661  1.00  0.00    -0.001 C 
ATOM     16  C   UNL     1      44.469  39.696   8.695  1.00  0.00     0.007 C 
ATOM     17  C   UNL     1      43.130  40.990  10.416  1.00  0.00     0.012 C 
ATOM     18  C   UNL     1      45.662  39.386  11.462  1.00  0.00     0.000 C 
ATOM     19  C   UNL     1      44.475  38.329   9.439  1.00  0.00     0.005 C 
ATOM     20  C   UNL     1      45.679  38.226  10.425  1.00  0.00     0.003 C 
ATOM     21  C   UNL     1      46.844  39.278  12.482  1.00  0.00     0.031 C 
ATOM     22  C   UNL     1      45.890  36.844  11.139  1.00  0.00    -0.008 C 
ATOM     23  C   UNL     1      47.703  38.040  12.357  1.00  0.00    -0.027 C 
ATOM     24  C   UNL     1      47.301  36.911  11.729  1.00  0.00    -0.065 C 
ATOM     25  C   UNL     1      45.784  35.686  10.100  1.00  0.00     0.014 C 
ATOM     26  C   UNL     1      44.871  36.582  12.285  1.00  0.00     0.016 C 
ATOM     27  C   UNL     1      48.378  35.993  11.196  1.00  0.00     0.063 C 
ATOM     28  C   UNL     1      46.504  34.372  10.502  1.00  0.00     0.033 C 
ATOM     29  C   UNL     1      47.944  34.535  11.101  1.00  0.00     0.118 C 
BRANCH  29  30
ATOM     30  O   UNL     1      48.895  33.840  10.301  1.00  0.00    -0.393 OA
ATOM     31  H   UNL     1      48.425  33.090   9.852  1.00  0.00     0.210 HD
ENDBRANCH  29  30
ENDBRANCH   1  11
TORSDOF 6
ENDMDL
MODEL 5
REMARK VINA RESULT:    -6.386      5.271      7.653
REMARK INTER + INTRA:          -9.630
REMARK INTER:                  -8.460
REMARK INTRA:                  -1.169
REMARK UNBOUND:                -1.191
REMARK SMILES CC[C@H](C=C[C@@H](C)[C@H]1CC[C@H]2[C@@H]3CC=C4C[C@H](O)CC[C@]4(C)[C@H]3CC[C@]12C)C(C)C
REMARK SMILES IDX 6 1 7 2 5 3 4 4 3 5 2 6 1 7 28 8 29 9 30 10 8 11 9 12 26 13
REMARK SMILES IDX 10 14 11 15 25 16 27 17 12 18 24 19 23 20 13 21 21 22 14 23
REMARK SMILES IDX 15 24 20 25 22 26 16 27 19 28 17 29 18 30
REMARK H PARENT 18 31
REMARK Flexibility Score: inf
ROOT
ATOM      1  C   UNL     1      44.417  43.469   8.432  1.00  0.00     0.012 C 
ATOM      2  C   UNL     1      44.722  44.979   8.554  1.00  0.00     0.012 C 
ENDROOT
BRANCH   1   3
ATOM      3  C   UNL     1      42.923  43.204   8.413  1.00  0.00    -0.028 C 
ATOM      4  C   UNL     1      42.219  43.346   7.281  1.00  0.00    -0.027 C 
BRANCH   4   5
ATOM      5  C   UNL     1      41.484  42.188   6.615  1.00  0.00     0.014 C 
BRANCH   5   6
ATOM      6  C   UNL     1      41.459  42.426   5.080  1.00  0.00     0.004 C 
ATOM      7  C   UNL     1      41.628  43.910   4.697  1.00  0.00     0.004 C 
ENDBRANCH   5   6
BRANCH   5   8
ATOM      8  C   UNL     1      42.152  40.834   7.031  1.00  0.00    -0.011 C 
ATOM      9  C   UNL     1      41.157  39.949   7.810  1.00  0.00     0.008 C 
ATOM     10  C   UNL     1      42.727  40.014   5.848  1.00  0.00     0.008 C 
ENDBRANCH   5   8
ENDBRANCH   4   5
ENDBRANCH   1   3
BRANCH   1  11
ATOM     11  C   UNL     1      45.239  42.707   9.518  1.00  0.00     0.002 C 
ATOM     12  C   UNL     1      45.591  43.480  10.824  1.00  0.00     0.005 C 
ATOM     13  C   UNL     1      44.773  41.308  10.011  1.00  0.00    -0.026 C 
ATOM     14  C   UNL     1      45.878  42.404  11.894  1.00  0.00     0.005 C 
ATOM     15  C   UNL     1      45.860  41.088  11.097  1.00  0.00    -0.001 C 
ATOM     16  C   UNL     1      44.875  40.181   8.952  1.00  0.00     0.007 C 
ATOM     17  C   UNL     1      43.335  41.343  10.597  1.00  0.00     0.012 C 
ATOM     18  C   UNL     1      45.775  39.712  11.806  1.00  0.00     0.000 C 
ATOM     19  C   UNL     1      44.831  38.769   9.606  1.00  0.00     0.005 C 
ATOM     20  C   UNL     1      45.926  38.621  10.707  1.00  0.00     0.003 C 
ATOM     21  C   UNL     1      46.844  39.555  12.938  1.00  0.00     0.031 C 
ATOM     22  C   UNL     1      46.088  37.198  11.352  1.00  0.00    -0.008 C 
ATOM     23  C   UNL     1      47.737  38.340  12.829  1.00  0.00    -0.027 C 
ATOM     24  C   UNL     1      47.427  37.248  12.093  1.00  0.00    -0.065 C 
ATOM     25  C   UNL     1      46.118  36.108  10.238  1.00  0.00     0.014 C 
ATOM     26  C   UNL     1      44.959  36.850  12.364  1.00  0.00     0.016 C 
ATOM     27  C   UNL     1      48.574  36.381  11.622  1.00  0.00     0.063 C 
ATOM     28  C   UNL     1      46.818  34.781  10.633  1.00  0.00     0.033 C 
ATOM     29  C   UNL     1      48.183  34.926  11.391  1.00  0.00     0.118 C 
BRANCH  29  30
ATOM     30  O   UNL     1      49.227  34.297  10.657  1.00  0.00    -0.393 OA
ATOM     31  H   UNL     1      49.227  34.678   9.740  1.00  0.00     0.210 HD
ENDBRANCH  29  30
ENDBRANCH   1  11
TORSDOF 6
ENDMDL
MODEL 6
REMARK VINA RESULT:    -6.355      3.066      9.769
REMARK INTER + INTRA:          -9.589
REMARK INTER:                  -8.892
REMARK INTRA:                  -0.697
REMARK UNBOUND:                -1.191
REMARK SMILES CC[C@H](C=C[C@@H](C)[C@H]1CC[C@H]2[C@@H]3CC=C4C[C@H](O)CC[C@]4(C)[C@H]3CC[C@]12C)C(C)C
REMARK SMILES IDX 6 1 7 2 5 3 4 4 3 5 2 6 1 7 28 8 29 9 30 10 8 11 9 12 26 13
REMARK SMILES IDX 10 14 11 15 25 16 27 17 12 18 24 19 23 20 13 21 21 22 14 23
REMARK SMILES IDX 15 24 20 25 22 26 16 27 19 28 17 29 18 30
REMARK H PARENT 18 31
REMARK Flexibility Score: inf
ROOT
ATOM      1  C   UNL     1      48.501  47.792  12.585  1.00  0.00     0.012 C 
ATOM      2  C   UNL     1      48.731  48.682  11.342  1.00  0.00     0.012 C 
ENDROOT
BRANCH   1   3
ATOM      3  C   UNL     1      49.805  47.484  13.296  1.00  0.00    -0.028 C 
ATOM      4  C   UNL     1      50.793  46.837  12.660  1.00  0.00    -0.027 C 
BRANCH   4   5
ATOM      5  C   UNL     1      52.162  47.460  12.410  1.00  0.00     0.014 C 
BRANCH   5   6
ATOM      6  C   UNL     1      52.747  47.948  13.764  1.00  0.00     0.004 C 
ATOM      7  C   UNL     1      52.842  49.484  13.861  1.00  0.00     0.004 C 
ENDBRANCH   5   6
BRANCH   5   8
ATOM      8  C   UNL     1      53.077  46.430  11.665  1.00  0.00    -0.011 C 
ATOM      9  C   UNL     1      53.642  45.386  12.649  1.00  0.00     0.008 C 
ATOM     10  C   UNL     1      52.383  45.687  10.495  1.00  0.00     0.008 C 
ENDBRANCH   5   8
ENDBRANCH   4   5
ENDBRANCH   1   3
BRANCH   1  11
ATOM     11  C   UNL     1      47.639  46.562  12.163  1.00  0.00     0.002 C 
ATOM     12  C   UNL     1      47.543  45.375  13.168  1.00  0.00     0.005 C 
ATOM     13  C   UNL     1      46.180  46.764  11.663  1.00  0.00    -0.026 C 
ATOM     14  C   UNL     1      46.261  44.599  12.792  1.00  0.00     0.005 C 
ATOM     15  C   UNL     1      45.803  45.270  11.485  1.00  0.00    -0.001 C 
ATOM     16  C   UNL     1      46.057  47.488  10.298  1.00  0.00     0.007 C 
ATOM     17  C   UNL     1      45.296  47.487  12.718  1.00  0.00     0.012 C 
ATOM     18  C   UNL     1      44.380  45.041  10.913  1.00  0.00     0.000 C 
ATOM     19  C   UNL     1      44.658  47.268   9.653  1.00  0.00     0.005 C 
ATOM     20  C   UNL     1      44.325  45.749   9.528  1.00  0.00     0.003 C 
ATOM     21  C   UNL     1      44.012  43.524  10.810  1.00  0.00     0.031 C 
ATOM     22  C   UNL     1      43.004  45.378   8.765  1.00  0.00    -0.008 C 
ATOM     23  C   UNL     1      43.570  43.050   9.444  1.00  0.00    -0.027 C 
ATOM     24  C   UNL     1      43.119  43.879   8.475  1.00  0.00    -0.065 C 
ATOM     25  C   UNL     1      42.911  46.187   7.436  1.00  0.00     0.014 C 
ATOM     26  C   UNL     1      41.717  45.637   9.599  1.00  0.00     0.016 C 
ATOM     27  C   UNL     1      43.236  43.401   7.045  1.00  0.00     0.063 C 
ATOM     28  C   UNL     1      42.015  45.553   6.339  1.00  0.00     0.033 C 
ATOM     29  C   UNL     1      42.198  44.013   6.111  1.00  0.00     0.118 C 
BRANCH  29  30
ATOM     30  O   UNL     1      42.599  43.754   4.771  1.00  0.00    -0.393 OA
ATOM     31  H   UNL     1      43.039  44.572   4.421  1.00  0.00     0.210 HD
ENDBRANCH  29  30
ENDBRANCH   1  11
TORSDOF 6
ENDMDL
MODEL 7
REMARK VINA RESULT:    -6.247      1.525      2.706
REMARK INTER + INTRA:          -9.447
REMARK INTER:                  -8.237
REMARK INTRA:                  -1.209
REMARK UNBOUND:                -1.191
REMARK SMILES CC[C@H](C=C[C@@H](C)[C@H]1CC[C@H]2[C@@H]3CC=C4C[C@H](O)CC[C@]4(C)[C@H]3CC[C@]12C)C(C)C
REMARK SMILES IDX 6 1 7 2 5 3 4 4 3 5 2 6 1 7 28 8 29 9 30 10 8 11 9 12 26 13
REMARK SMILES IDX 10 14 11 15 25 16 27 17 12 18 24 19 23 20 13 21 21 22 14 23
REMARK SMILES IDX 15 24 20 25 22 26 16 27 19 28 17 29 18 30
REMARK H PARENT 18 31
REMARK Flexibility Score: inf
ROOT
ATOM      1  C   UNL     1      42.640  43.641   6.409  1.00  0.00     0.012 C 
ATOM      2  C   UNL     1      41.826  43.892   5.119  1.00  0.00     0.012 C 
ENDROOT
BRANCH   1   3
ATOM      3  C   UNL     1      41.882  42.754   7.379  1.00  0.00    -0.028 C 
ATOM      4  C   UNL     1      41.812  41.430   7.181  1.00  0.00    -0.027 C 
BRANCH   4   5
ATOM      5  C   UNL     1      42.387  40.415   8.163  1.00  0.00     0.014 C 
BRANCH   5   6
ATOM      6  C   UNL     1      42.864  39.166   7.373  1.00  0.00     0.004 C 
ATOM      7  C   UNL     1      42.590  39.270   5.859  1.00  0.00     0.004 C 
ENDBRANCH   5   6
BRANCH   5   8
ATOM      8  C   UNL     1      43.515  41.091   9.013  1.00  0.00    -0.011 C 
ATOM      9  C   UNL     1      43.175  41.036  10.517  1.00  0.00     0.008 C 
ATOM     10  C   UNL     1      44.926  40.485   8.800  1.00  0.00     0.008 C 
ENDBRANCH   5   8
ENDBRANCH   4   5
ENDBRANCH   1   3
BRANCH   1  11
ATOM     11  C   UNL     1      43.124  45.016   6.966  1.00  0.00     0.002 C 
ATOM     12  C   UNL     1      42.248  46.266   6.650  1.00  0.00     0.005 C 
ATOM     13  C   UNL     1      43.484  45.167   8.471  1.00  0.00    -0.026 C 
ATOM     14  C   UNL     1      42.604  47.320   7.722  1.00  0.00     0.005 C 
ATOM     15  C   UNL     1      43.792  46.687   8.469  1.00  0.00    -0.001 C 
ATOM     16  C   UNL     1      44.749  44.390   8.915  1.00  0.00     0.007 C 
ATOM     17  C   UNL     1      42.293  44.794   9.396  1.00  0.00     0.012 C 
ATOM     18  C   UNL     1      44.273  47.236   9.837  1.00  0.00     0.000 C 
ATOM     19  C   UNL     1      45.304  44.918  10.270  1.00  0.00     0.005 C 
ATOM     20  C   UNL     1      45.565  46.455  10.214  1.00  0.00     0.003 C 
ATOM     21  C   UNL     1      44.509  48.783   9.812  1.00  0.00     0.031 C 
ATOM     22  C   UNL     1      46.259  47.098  11.467  1.00  0.00    -0.008 C 
ATOM     23  C   UNL     1      45.880  49.241  10.257  1.00  0.00    -0.027 C 
ATOM     24  C   UNL     1      46.717  48.483  11.002  1.00  0.00    -0.065 C 
ATOM     25  C   UNL     1      47.482  46.234  11.901  1.00  0.00     0.014 C 
ATOM     26  C   UNL     1      45.304  47.259  12.684  1.00  0.00     0.016 C 
ATOM     27  C   UNL     1      48.195  48.792  10.915  1.00  0.00     0.063 C 
ATOM     28  C   UNL     1      48.568  46.989  12.712  1.00  0.00     0.033 C 
ATOM     29  C   UNL     1      48.974  48.402  12.166  1.00  0.00     0.118 C 
BRANCH  29  30
ATOM     30  O   UNL     1      50.361  48.432  11.852  1.00  0.00    -0.393 OA
ATOM     31  H   UNL     1      50.604  49.370  11.637  1.00  0.00     0.210 HD
ENDBRANCH  29  30
ENDBRANCH   1  11
TORSDOF 6
ENDMDL
MODEL 8
REMARK VINA RESULT:    -6.100      2.895      4.465
REMARK INTER + INTRA:          -9.252
REMARK INTER:                  -8.133
REMARK INTRA:                  -1.118
REMARK UNBOUND:                -1.191
REMARK SMILES CC[C@H](C=C[C@@H](C)[C@H]1CC[C@H]2[C@@H]3CC=C4C[C@H](O)CC[C@]4(C)[C@H]3CC[C@]12C)C(C)C
REMARK SMILES IDX 6 1 7 2 5 3 4 4 3 5 2 6 1 7 28 8 29 9 30 10 8 11 9 12 26 13
REMARK SMILES IDX 10 14 11 15 25 16 27 17 12 18 24 19 23 20 13 21 21 22 14 23
REMARK SMILES IDX 15 24 20 25 22 26 16 27 19 28 17 29 18 30
REMARK H PARENT 18 31
REMARK Flexibility Score: inf
ROOT
ATOM      1  C   UNL     1      44.132  40.902   7.387  1.00  0.00     0.012 C 
ATOM      2  C   UNL     1      43.155  40.759   6.198  1.00  0.00     0.012 C 
ENDROOT
BRANCH   1   3
ATOM      3  C   UNL     1      43.686  40.069   8.574  1.00  0.00    -0.028 C 
ATOM      4  C   UNL     1      44.462  39.082   9.045  1.00  0.00    -0.027 C 
BRANCH   4   5
ATOM      5  C   UNL     1      45.038  39.085  10.457  1.00  0.00     0.014 C 
BRANCH   5   6
ATOM      6  C   UNL     1      43.890  39.362  11.467  1.00  0.00     0.004 C 
ATOM      7  C   UNL     1      44.345  40.194  12.683  1.00  0.00     0.004 C 
ENDBRANCH   5   6
BRANCH   5   8
ATOM      8  C   UNL     1      45.794  37.739  10.718  1.00  0.00    -0.011 C 
ATOM      9  C   UNL     1      47.087  37.984  11.522  1.00  0.00     0.008 C 
ATOM     10  C   UNL     1      44.951  36.662  11.447  1.00  0.00     0.008 C 
ENDBRANCH   5   8
ENDBRANCH   4   5
ENDBRANCH   1   3
BRANCH   1  11
ATOM     11  C   UNL     1      44.364  42.421   7.659  1.00  0.00     0.002 C 
ATOM     12  C   UNL     1      43.511  43.434   6.838  1.00  0.00     0.005 C 
ATOM     13  C   UNL     1      44.322  42.970   9.113  1.00  0.00    -0.026 C 
ATOM     14  C   UNL     1      43.513  44.750   7.649  1.00  0.00     0.005 C 
ATOM     15  C   UNL     1      44.515  44.473   8.783  1.00  0.00    -0.001 C 
ATOM     16  C   UNL     1      45.486  42.493  10.019  1.00  0.00     0.007 C 
ATOM     17  C   UNL     1      42.965  42.675   9.810  1.00  0.00     0.012 C 
ATOM     18  C   UNL     1      44.597  45.389  10.032  1.00  0.00     0.000 C 
ATOM     19  C   UNL     1      45.643  43.395  11.278  1.00  0.00     0.005 C 
ATOM     20  C   UNL     1      45.803  44.895  10.882  1.00  0.00     0.003 C 
ATOM     21  C   UNL     1      44.725  46.902   9.657  1.00  0.00     0.031 C 
ATOM     22  C   UNL     1      46.114  45.902  12.047  1.00  0.00    -0.008 C 
ATOM     23  C   UNL     1      45.904  47.628  10.264  1.00  0.00    -0.027 C 
ATOM     24  C   UNL     1      46.577  47.185  11.351  1.00  0.00    -0.065 C 
ATOM     25  C   UNL     1      47.245  45.333  12.956  1.00  0.00     0.014 C 
ATOM     26  C   UNL     1      44.874  46.221  12.930  1.00  0.00     0.016 C 
ATOM     27  C   UNL     1      48.004  47.655  11.522  1.00  0.00     0.063 C 
ATOM     28  C   UNL     1      48.037  46.393  13.765  1.00  0.00     0.033 C 
ATOM     29  C   UNL     1      48.468  47.677  12.974  1.00  0.00     0.118 C 
BRANCH  29  30
ATOM     30  O   UNL     1      49.884  47.813  12.985  1.00  0.00    -0.393 OA
ATOM     31  H   UNL     1      50.116  48.543  13.617  1.00  0.00     0.210 HD
ENDBRANCH  29  30
ENDBRANCH   1  11
TORSDOF 6
ENDMDL
MODEL 9
REMARK VINA RESULT:    -6.020      2.951      9.723
REMARK INTER + INTRA:          -9.146
REMARK INTER:                  -8.402
REMARK INTRA:                  -0.744
REMARK UNBOUND:                -1.191
REMARK SMILES CC[C@H](C=C[C@@H](C)[C@H]1CC[C@H]2[C@@H]3CC=C4C[C@H](O)CC[C@]4(C)[C@H]3CC[C@]12C)C(C)C
REMARK SMILES IDX 6 1 7 2 5 3 4 4 3 5 2 6 1 7 28 8 29 9 30 10 8 11 9 12 26 13
REMARK SMILES IDX 10 14 11 15 25 16 27 17 12 18 24 19 23 20 13 21 21 22 14 23
REMARK SMILES IDX 15 24 20 25 22 26 16 27 19 28 17 29 18 30
REMARK H PARENT 18 31
REMARK Flexibility Score: inf
ROOT
ATOM      1  C   UNL     1      47.454  48.335  12.030  1.00  0.00     0.012 C 
ATOM      2  C   UNL     1      47.470  48.993  10.632  1.00  0.00     0.012 C 
ENDROOT
BRANCH   1   3
ATOM      3  C   UNL     1      48.681  48.718  12.837  1.00  0.00    -0.028 C 
ATOM      4  C   UNL     1      49.817  48.015  12.728  1.00  0.00    -0.027 C 
BRANCH   4   5
ATOM      5  C   UNL     1      51.119  48.621  12.217  1.00  0.00     0.014 C 
BRANCH   5   6
ATOM      6  C   UNL     1      51.184  48.444  10.675  1.00  0.00     0.004 C 
ATOM      7  C   UNL     1      51.604  47.023  10.249  1.00  0.00     0.004 C 
ENDBRANCH   5   6
BRANCH   5   8
ATOM      8  C   UNL     1      51.221  50.112  12.684  1.00  0.00    -0.011 C 
ATOM      9  C   UNL     1      52.554  50.366  13.417  1.00  0.00     0.008 C 
ATOM     10  C   UNL     1      51.074  51.151  11.544  1.00  0.00     0.008 C 
ENDBRANCH   5   8
ENDBRANCH   4   5
ENDBRANCH   1   3
BRANCH   1  11
ATOM     11  C   UNL     1      47.194  46.806  11.856  1.00  0.00     0.002 C 
ATOM     12  C   UNL     1      47.624  45.868  13.025  1.00  0.00     0.005 C 
ATOM     13  C   UNL     1      45.783  46.294  11.450  1.00  0.00    -0.026 C 
ATOM     14  C   UNL     1      46.791  44.576  12.865  1.00  0.00     0.005 C 
ATOM     15  C   UNL     1      46.077  44.772  11.517  1.00  0.00    -0.001 C 
ATOM     16  C   UNL     1      45.349  46.667  10.010  1.00  0.00     0.007 C 
ATOM     17  C   UNL     1      44.687  46.741  12.457  1.00  0.00     0.012 C 
ATOM     18  C   UNL     1      44.881  43.879  11.097  1.00  0.00     0.000 C 
ATOM     19  C   UNL     1      44.170  45.780   9.515  1.00  0.00     0.005 C 
ATOM     20  C   UNL     1      44.515  44.263   9.634  1.00  0.00     0.003 C 
ATOM     21  C   UNL     1      45.194  42.352  11.241  1.00  0.00     0.031 C 
ATOM     22  C   UNL     1      43.470  43.254   9.038  1.00  0.00    -0.008 C 
ATOM     23  C   UNL     1      44.981  41.522   9.995  1.00  0.00    -0.027 C 
ATOM     24  C   UNL     1      44.209  41.916   8.956  1.00  0.00    -0.065 C 
ATOM     25  C   UNL     1      43.026  43.722   7.618  1.00  0.00     0.014 C 
ATOM     26  C   UNL     1      42.205  43.082   9.926  1.00  0.00     0.016 C 
ATOM     27  C   UNL     1      44.504  41.306   7.604  1.00  0.00     0.063 C 
ATOM     28  C   UNL     1      42.475  42.603   6.697  1.00  0.00     0.033 C 
ATOM     29  C   UNL     1      43.294  41.266   6.677  1.00  0.00     0.118 C 
BRANCH  29  30
ATOM     30  O   UNL     1      43.753  40.985   5.360  1.00  0.00    -0.393 OA
ATOM     31  H   UNL     1      43.322  40.142   5.061  1.00  0.00     0.210 HD
ENDBRANCH  29  30
ENDBRANCH   1  11
TORSDOF 6
ENDMDL
