MODEL 1
REMARK VINA RESULT:    -4.179      0.000      0.000
REMARK INTER + INTRA:         -13.765
REMARK INTER:                  -9.553
REMARK INTRA:                  -4.213
REMARK UNBOUND:                -4.213
REMARK SMILES CCCCCCCCCCCCCCCCCCCCCCCC(=O)[O-]
REMARK SMILES IDX 13 1 14 2 15 3 16 4 17 5 18 6 19 7 20 8 21 9 22 10 23 11
REMARK SMILES IDX 24 12 25 13 26 14 12 15 11 16 10 17 9 18 8 19 7 20 6 21 5 22
REMARK SMILES IDX 4 23 3 24 2 25 1 26
REMARK H PARENT
REMARK Flexibility Score: inf
ROOT
ATOM      1  C   UNL     1      43.510   1.125  21.214  1.00  0.00     0.000 C 
ENDROOT
BRANCH   1   2
ATOM      2  C   UNL     1      44.221   0.554  22.455  1.00  0.00     0.000 C 
BRANCH   2   3
ATOM      3  C   UNL     1      44.517   1.574  23.570  1.00  0.00     0.000 C 
BRANCH   3   4
ATOM      4  C   UNL     1      45.959   1.486  24.097  1.00  0.00     0.000 C 
BRANCH   4   5
ATOM      5  C   UNL     1      46.615   2.867  24.294  1.00  0.00     0.000 C 
BRANCH   5   6
ATOM      6  C   UNL     1      48.000   2.856  24.966  1.00  0.00     0.000 C 
BRANCH   6   7
ATOM      7  C   UNL     1      48.865   4.068  24.580  1.00  0.00     0.000 C 
BRANCH   7   8
ATOM      8  C   UNL     1      48.510   4.644  23.196  1.00  0.00     0.000 C 
BRANCH   8   9
ATOM      9  C   UNL     1      49.318   5.882  22.769  1.00  0.00     0.000 C 
BRANCH   9  10
ATOM     10  C   UNL     1      48.959   6.376  21.358  1.00  0.00     0.006 C 
BRANCH  10  11
ATOM     11  C   UNL     1      50.191   6.863  20.584  1.00  0.00     0.053 C 
BRANCH  11  12
ATOM     12  C   UNL     1      50.032   8.276  20.114  1.00  0.00     0.041 C 
ATOM     13  O   UNL     1      49.077   8.982  20.535  1.00  0.00    -0.550 OA
ATOM     14  O   UNL     1      50.954   8.824  19.230  1.00  0.00    -0.550 OA
ENDBRANCH  11  12
ENDBRANCH  10  11
ENDBRANCH   9  10
ENDBRANCH   8   9
ENDBRANCH   7   8
ENDBRANCH   6   7
ENDBRANCH   5   6
ENDBRANCH   4   5
ENDBRANCH   3   4
ENDBRANCH   2   3
ENDBRANCH   1   2
BRANCH   1  15
ATOM     15  C   UNL     1      43.531   2.663  21.167  1.00  0.00     0.000 C 
BRANCH  15  16
ATOM     16  C   UNL     1      44.442   3.212  20.057  1.00  0.00     0.000 C 
BRANCH  16  17
ATOM     17  C   UNL     1      45.648   3.989  20.614  1.00  0.00     0.000 C 
BRANCH  17  18
ATOM     18  C   UNL     1      46.944   3.160  20.621  1.00  0.00    -0.000 C 
BRANCH  18  19
ATOM     19  C   UNL     1      46.852   1.802  19.902  1.00  0.00    -0.000 C 
BRANCH  19  20
ATOM     20  C   UNL     1      47.781   0.736  20.511  1.00  0.00    -0.000 C 
BRANCH  20  21
ATOM     21  C   UNL     1      48.606   1.282  21.695  1.00  0.00    -0.000 C 
BRANCH  21  22
ATOM     22  C   UNL     1      50.094   0.877  21.666  1.00  0.00    -0.000 C 
BRANCH  22  23
ATOM     23  C   UNL     1      51.066   2.057  21.470  1.00  0.00    -0.000 C 
BRANCH  23  24
ATOM     24  C   UNL     1      50.539   3.090  20.458  1.00  0.00    -0.000 C 
BRANCH  24  25
ATOM     25  C   UNL     1      51.512   3.324  19.293  1.00  0.00    -0.003 C 
ATOM     26  C   UNL     1      52.583   2.239  19.189  1.00  0.00     0.004 C 
ENDBRANCH  24  25
ENDBRANCH  23  24
ENDBRANCH  22  23
ENDBRANCH  21  22
ENDBRANCH  20  21
ENDBRANCH  19  20
ENDBRANCH  18  19
ENDBRANCH  17  18
ENDBRANCH  16  17
ENDBRANCH  15  16
ENDBRANCH   1  15
TORSDOF 22
ENDMDL
MODEL 2
REMARK VINA RESULT:    -4.096      3.586      7.424
REMARK INTER + INTRA:         -13.577
REMARK INTER:                  -9.901
REMARK INTRA:                  -3.676
REMARK UNBOUND:                -4.213
REMARK SMILES CCCCCCCCCCCCCCCCCCCCCCCC(=O)[O-]
REMARK SMILES IDX 13 1 14 2 15 3 16 4 17 5 18 6 19 7 20 8 21 9 22 10 23 11
REMARK SMILES IDX 24 12 25 13 26 14 12 15 11 16 10 17 9 18 8 19 7 20 6 21 5 22
REMARK SMILES IDX 4 23 3 24 2 25 1 26
REMARK H PARENT
REMARK Flexibility Score: inf
ROOT
ATOM      1  C   UNL     1      51.810   2.811  19.409  1.00  0.00     0.000 C 
ENDROOT
BRANCH   1   2
ATOM      2  C   UNL     1      51.253   2.836  20.845  1.00  0.00     0.000 C 
BRANCH   2   3
ATOM      3  C   UNL     1      50.196   3.922  21.120  1.00  0.00     0.000 C 
BRANCH   3   4
ATOM      4  C   UNL     1      49.533   3.779  22.500  1.00  0.00     0.000 C 
BRANCH   4   5
ATOM      5  C   UNL     1      48.048   3.377  22.417  1.00  0.00     0.000 C 
BRANCH   5   6
ATOM      6  C   UNL     1      47.431   3.400  21.007  1.00  0.00     0.000 C 
BRANCH   6   7
ATOM      7  C   UNL     1      46.991   2.008  20.521  1.00  0.00     0.000 C 
BRANCH   7   8
ATOM      8  C   UNL     1      48.102   0.949  20.648  1.00  0.00     0.000 C 
BRANCH   8   9
ATOM      9  C   UNL     1      47.731  -0.303  21.462  1.00  0.00     0.000 C 
BRANCH   9  10
ATOM     10  C   UNL     1      48.614  -0.496  22.706  1.00  0.00     0.006 C 
BRANCH  10  11
ATOM     11  C   UNL     1      50.073  -0.096  22.447  1.00  0.00     0.053 C 
BRANCH  11  12
ATOM     12  C   UNL     1      50.936  -1.288  22.165  1.00  0.00     0.041 C 
ATOM     13  O   UNL     1      52.121  -1.133  21.766  1.00  0.00    -0.550 OA
ATOM     14  O   UNL     1      50.440  -2.570  22.368  1.00  0.00    -0.550 OA
ENDBRANCH  11  12
ENDBRANCH  10  11
ENDBRANCH   9  10
ENDBRANCH   8   9
ENDBRANCH   7   8
ENDBRANCH   6   7
ENDBRANCH   5   6
ENDBRANCH   4   5
ENDBRANCH   3   4
ENDBRANCH   2   3
ENDBRANCH   1   2
BRANCH   1  15
ATOM     15  C   UNL     1      52.712   4.018  19.095  1.00  0.00     0.000 C 
BRANCH  15  16
ATOM     16  C   UNL     1      52.051   5.022  18.137  1.00  0.00     0.000 C 
BRANCH  16  17
ATOM     17  C   UNL     1      52.297   6.483  18.553  1.00  0.00     0.000 C 
BRANCH  17  18
ATOM     18  C   UNL     1      51.123   7.086  19.343  1.00  0.00    -0.000 C 
BRANCH  18  19
ATOM     19  C   UNL     1      50.944   8.607  19.184  1.00  0.00    -0.000 C 
BRANCH  19  20
ATOM     20  C   UNL     1      49.576   8.991  18.590  1.00  0.00    -0.000 C 
BRANCH  20  21
ATOM     21  C   UNL     1      48.554   9.386  19.675  1.00  0.00    -0.000 C 
BRANCH  21  22
ATOM     22  C   UNL     1      47.416   8.363  19.872  1.00  0.00    -0.000 C 
BRANCH  22  23
ATOM     23  C   UNL     1      47.805   7.145  20.734  1.00  0.00    -0.000 C 
BRANCH  23  24
ATOM     24  C   UNL     1      47.233   7.228  22.160  1.00  0.00    -0.000 C 
BRANCH  24  25
ATOM     25  C   UNL     1      48.323   7.156  23.239  1.00  0.00    -0.003 C 
ATOM     26  C   UNL     1      49.703   7.552  22.715  1.00  0.00     0.004 C 
ENDBRANCH  24  25
ENDBRANCH  23  24
ENDBRANCH  22  23
ENDBRANCH  21  22
ENDBRANCH  20  21
ENDBRANCH  19  20
ENDBRANCH  18  19
ENDBRANCH  17  18
ENDBRANCH  16  17
ENDBRANCH  15  16
ENDBRANCH   1  15
TORSDOF 22
ENDMDL
MODEL 3
REMARK VINA RESULT:    -4.009      2.055      5.353
REMARK INTER + INTRA:         -13.378
REMARK INTER:                  -9.663
REMARK INTRA:                  -3.715
REMARK UNBOUND:                -4.213
REMARK SMILES CCCCCCCCCCCCCCCCCCCCCCCC(=O)[O-]
REMARK SMILES IDX 13 1 14 2 15 3 16 4 17 5 18 6 19 7 20 8 21 9 22 10 23 11
REMARK SMILES IDX 24 12 25 13 26 14 12 15 11 16 10 17 9 18 8 19 7 20 6 21 5 22
REMARK SMILES IDX 4 23 3 24 2 25 1 26
REMARK H PARENT
REMARK Flexibility Score: inf
ROOT
ATOM      1  C   UNL     1      49.774   4.739  23.857  1.00  0.00     0.000 C 
ENDROOT
BRANCH   1   2
ATOM      2  C   UNL     1      50.353   5.704  24.908  1.00  0.00     0.000 C 
BRANCH   2   3
ATOM      3  C   UNL     1      49.550   7.000  25.121  1.00  0.00     0.000 C 
BRANCH   3   4
ATOM      4  C   UNL     1      50.284   8.253  24.612  1.00  0.00     0.000 C 
BRANCH   4   5
ATOM      5  C   UNL     1      49.327   9.353  24.115  1.00  0.00     0.000 C 
BRANCH   5   6
ATOM      6  C   UNL     1      47.920   8.877  23.710  1.00  0.00     0.000 C 
BRANCH   6   7
ATOM      7  C   UNL     1      47.126   9.940  22.932  1.00  0.00     0.000 C 
BRANCH   7   8
ATOM      8  C   UNL     1      47.482   9.978  21.434  1.00  0.00     0.000 C 
BRANCH   8   9
ATOM      9  C   UNL     1      47.049   8.744  20.621  1.00  0.00     0.000 C 
BRANCH   9  10
ATOM     10  C   UNL     1      48.172   8.188  19.730  1.00  0.00     0.006 C 
BRANCH  10  11
ATOM     11  C   UNL     1      49.543   8.255  20.416  1.00  0.00     0.053 C 
BRANCH  11  12
ATOM     12  C   UNL     1      50.625   8.655  19.461  1.00  0.00     0.041 C 
ATOM     13  O   UNL     1      51.619   7.903  19.276  1.00  0.00    -0.550 OA
ATOM     14  O   UNL     1      50.523   9.847  18.753  1.00  0.00    -0.550 OA
ENDBRANCH  11  12
ENDBRANCH  10  11
ENDBRANCH   9  10
ENDBRANCH   8   9
ENDBRANCH   7   8
ENDBRANCH   6   7
ENDBRANCH   5   6
ENDBRANCH   4   5
ENDBRANCH   3   4
ENDBRANCH   2   3
ENDBRANCH   1   2
BRANCH   1  15
ATOM     15  C   UNL     1      49.021   5.463  22.728  1.00  0.00     0.000 C 
BRANCH  15  16
ATOM     16  C   UNL     1      49.107   4.723  21.384  1.00  0.00     0.000 C 
BRANCH  16  17
ATOM     17  C   UNL     1      50.211   3.651  21.372  1.00  0.00     0.000 C 
BRANCH  17  18
ATOM     18  C   UNL     1      49.733   2.305  20.798  1.00  0.00    -0.000 C 
BRANCH  18  19
ATOM     19  C   UNL     1      49.186   1.312  21.838  1.00  0.00    -0.000 C 
BRANCH  19  20
ATOM     20  C   UNL     1      48.184   0.307  21.239  1.00  0.00    -0.000 C 
BRANCH  20  21
ATOM     21  C   UNL     1      47.345   0.921  20.100  1.00  0.00    -0.000 C 
BRANCH  21  22
ATOM     22  C   UNL     1      46.017   1.554  20.566  1.00  0.00    -0.000 C 
BRANCH  22  23
ATOM     23  C   UNL     1      45.920   3.072  20.316  1.00  0.00    -0.000 C 
BRANCH  23  24
ATOM     24  C   UNL     1      45.588   3.858  21.598  1.00  0.00    -0.000 C 
BRANCH  24  25
ATOM     25  C   UNL     1      45.342   2.942  22.805  1.00  0.00    -0.003 C 
ATOM     26  C   UNL     1      46.442   3.047  23.861  1.00  0.00     0.004 C 
ENDBRANCH  24  25
ENDBRANCH  23  24
ENDBRANCH  22  23
ENDBRANCH  21  22
ENDBRANCH  20  21
ENDBRANCH  19  20
ENDBRANCH  18  19
ENDBRANCH  17  18
ENDBRANCH  16  17
ENDBRANCH  15  16
ENDBRANCH   1  15
TORSDOF 22
ENDMDL
MODEL 4
REMARK VINA RESULT:    -3.993      3.542      6.668
REMARK INTER + INTRA:         -13.341
REMARK INTER:                 -10.350
REMARK INTRA:                  -2.992
REMARK UNBOUND:                -4.213
REMARK SMILES CCCCCCCCCCCCCCCCCCCCCCCC(=O)[O-]
REMARK SMILES IDX 13 1 14 2 15 3 16 4 17 5 18 6 19 7 20 8 21 9 22 10 23 11
REMARK SMILES IDX 24 12 25 13 26 14 12 15 11 16 10 17 9 18 8 19 7 20 6 21 5 22
REMARK SMILES IDX 4 23 3 24 2 25 1 26
REMARK H PARENT
REMARK Flexibility Score: inf
ROOT
ATOM      1  C   UNL     1      46.890   2.133  19.997  1.00  0.00     0.000 C 
ENDROOT
BRANCH   1   2
ATOM      2  C   UNL     1      45.964   3.213  20.588  1.00  0.00     0.000 C 
BRANCH   2   3
ATOM      3  C   UNL     1      44.612   3.381  19.871  1.00  0.00     0.000 C 
BRANCH   3   4
ATOM      4  C   UNL     1      43.408   3.250  20.820  1.00  0.00     0.000 C 
BRANCH   4   5
ATOM      5  C   UNL     1      43.545   2.079  21.811  1.00  0.00     0.000 C 
BRANCH   5   6
ATOM      6  C   UNL     1      43.183   0.690  21.253  1.00  0.00     0.000 C 
BRANCH   6   7
ATOM      7  C   UNL     1      43.239  -0.419  22.317  1.00  0.00     0.000 C 
BRANCH   7   8
ATOM      8  C   UNL     1      43.127   0.122  23.755  1.00  0.00     0.000 C 
BRANCH   8   9
ATOM      9  C   UNL     1      44.240  -0.329  24.718  1.00  0.00     0.000 C 
BRANCH   9  10
ATOM     10  C   UNL     1      45.650   0.017  24.211  1.00  0.00     0.006 C 
BRANCH  10  11
ATOM     11  C   UNL     1      46.739  -0.780  24.940  1.00  0.00     0.053 C 
BRANCH  11  12
ATOM     12  C   UNL     1      47.712  -1.399  23.983  1.00  0.00     0.041 C 
ATOM     13  O   UNL     1      47.301  -1.948  22.926  1.00  0.00    -0.550 OA
ATOM     14  O   UNL     1      49.076  -1.346  24.246  1.00  0.00    -0.550 OA
ENDBRANCH  11  12
ENDBRANCH  10  11
ENDBRANCH   9  10
ENDBRANCH   8   9
ENDBRANCH   7   8
ENDBRANCH   6   7
ENDBRANCH   5   6
ENDBRANCH   4   5
ENDBRANCH   3   4
ENDBRANCH   2   3
ENDBRANCH   1   2
BRANCH   1  15
ATOM     15  C   UNL     1      47.290   1.059  21.023  1.00  0.00     0.000 C 
BRANCH  15  16
ATOM     16  C   UNL     1      48.799   1.049  21.316  1.00  0.00     0.000 C 
BRANCH  16  17
ATOM     17  C   UNL     1      49.545   2.193  20.606  1.00  0.00     0.000 C 
BRANCH  17  18
ATOM     18  C   UNL     1      50.111   3.236  21.585  1.00  0.00    -0.000 C 
BRANCH  18  19
ATOM     19  C   UNL     1      49.820   4.702  21.216  1.00  0.00    -0.000 C 
BRANCH  19  20
ATOM     20  C   UNL     1      48.863   5.391  22.206  1.00  0.00    -0.000 C 
BRANCH  20  21
ATOM     21  C   UNL     1      47.750   6.186  21.493  1.00  0.00    -0.000 C 
BRANCH  21  22
ATOM     22  C   UNL     1      48.118   7.653  21.191  1.00  0.00    -0.000 C 
BRANCH  22  23
ATOM     23  C   UNL     1      47.898   8.070  19.723  1.00  0.00    -0.000 C 
BRANCH  23  24
ATOM     24  C   UNL     1      49.115   8.803  19.132  1.00  0.00    -0.000 C 
BRANCH  24  25
ATOM     25  C   UNL     1      50.404   8.543  19.926  1.00  0.00    -0.003 C 
ATOM     26  C   UNL     1      51.341   7.558  19.227  1.00  0.00     0.004 C 
ENDBRANCH  24  25
ENDBRANCH  23  24
ENDBRANCH  22  23
ENDBRANCH  21  22
ENDBRANCH  20  21
ENDBRANCH  19  20
ENDBRANCH  18  19
ENDBRANCH  17  18
ENDBRANCH  16  17
ENDBRANCH  15  16
ENDBRANCH   1  15
TORSDOF 22
ENDMDL
MODEL 5
REMARK VINA RESULT:    -3.985      2.265      4.805
REMARK INTER + INTRA:         -13.324
REMARK INTER:                  -9.338
REMARK INTRA:                  -3.986
REMARK UNBOUND:                -4.213
REMARK SMILES CCCCCCCCCCCCCCCCCCCCCCCC(=O)[O-]
REMARK SMILES IDX 13 1 14 2 15 3 16 4 17 5 18 6 19 7 20 8 21 9 22 10 23 11
REMARK SMILES IDX 24 12 25 13 26 14 12 15 11 16 10 17 9 18 8 19 7 20 6 21 5 22
REMARK SMILES IDX 4 23 3 24 2 25 1 26
REMARK H PARENT
REMARK Flexibility Score: inf
ROOT
ATOM      1  C   UNL     1      44.463   2.839  20.638  1.00  0.00     0.000 C 
ENDROOT
BRANCH   1   2
ATOM      2  C   UNL     1      45.971   2.813  20.951  1.00  0.00     0.000 C 
BRANCH   2   3
ATOM      3  C   UNL     1      46.856   2.172  19.866  1.00  0.00     0.000 C 
BRANCH   3   4
ATOM      4  C   UNL     1      47.355   0.768  20.250  1.00  0.00     0.000 C 
BRANCH   4   5
ATOM      5  C   UNL     1      47.838   0.678  21.710  1.00  0.00     0.000 C 
BRANCH   5   6
ATOM      6  C   UNL     1      48.837  -0.453  22.012  1.00  0.00     0.000 C 
BRANCH   6   7
ATOM      7  C   UNL     1      50.010   0.000  22.897  1.00  0.00     0.000 C 
BRANCH   7   8
ATOM      8  C   UNL     1      51.195   0.556  22.086  1.00  0.00     0.000 C 
BRANCH   8   9
ATOM      9  C   UNL     1      51.521   2.041  22.326  1.00  0.00     0.000 C 
BRANCH   9  10
ATOM     10  C   UNL     1      50.705   2.987  21.428  1.00  0.00     0.006 C 
BRANCH  10  11
ATOM     11  C   UNL     1      50.710   2.540  19.961  1.00  0.00     0.053 C 
BRANCH  11  12
ATOM     12  C   UNL     1      51.974   2.935  19.261  1.00  0.00     0.041 C 
ATOM     13  O   UNL     1      52.903   2.097  19.107  1.00  0.00    -0.550 OA
ATOM     14  O   UNL     1      52.116   4.221  18.754  1.00  0.00    -0.550 OA
ENDBRANCH  11  12
ENDBRANCH  10  11
ENDBRANCH   9  10
ENDBRANCH   8   9
ENDBRANCH   7   8
ENDBRANCH   6   7
ENDBRANCH   5   6
ENDBRANCH   4   5
ENDBRANCH   3   4
ENDBRANCH   2   3
ENDBRANCH   1   2
BRANCH   1  15
ATOM     15  C   UNL     1      43.621   2.094  21.688  1.00  0.00     0.000 C 
BRANCH  15  16
ATOM     16  C   UNL     1      43.226   0.678  21.239  1.00  0.00     0.000 C 
BRANCH  16  17
ATOM     17  C   UNL     1      43.308  -0.347  22.384  1.00  0.00     0.000 C 
BRANCH  17  18
ATOM     18  C   UNL     1      43.553   0.306  23.756  1.00  0.00    -0.000 C 
BRANCH  18  19
ATOM     19  C   UNL     1      44.573  -0.421  24.650  1.00  0.00    -0.000 C 
BRANCH  19  20
ATOM     20  C   UNL     1      45.894   0.355  24.806  1.00  0.00    -0.000 C 
BRANCH  20  21
ATOM     21  C   UNL     1      45.722   1.866  24.551  1.00  0.00    -0.000 C 
BRANCH  21  22
ATOM     22  C   UNL     1      46.259   2.762  25.687  1.00  0.00    -0.000 C 
BRANCH  22  23
ATOM     23  C   UNL     1      47.794   2.896  25.714  1.00  0.00    -0.000 C 
BRANCH  23  24
ATOM     24  C   UNL     1      48.388   3.137  24.314  1.00  0.00    -0.000 C 
BRANCH  24  25
ATOM     25  C   UNL     1      48.573   4.628  24.000  1.00  0.00    -0.003 C 
ATOM     26  C   UNL     1      49.974   5.135  24.344  1.00  0.00     0.004 C 
ENDBRANCH  24  25
ENDBRANCH  23  24
ENDBRANCH  22  23
ENDBRANCH  21  22
ENDBRANCH  20  21
ENDBRANCH  19  20
ENDBRANCH  18  19
ENDBRANCH  17  18
ENDBRANCH  16  17
ENDBRANCH  15  16
ENDBRANCH   1  15
TORSDOF 22
ENDMDL
MODEL 6
REMARK VINA RESULT:    -3.969      2.931      7.031
REMARK INTER + INTRA:         -13.285
REMARK INTER:                  -9.990
REMARK INTRA:                  -3.295
REMARK UNBOUND:                -4.213
REMARK SMILES CCCCCCCCCCCCCCCCCCCCCCCC(=O)[O-]
REMARK SMILES IDX 13 1 14 2 15 3 16 4 17 5 18 6 19 7 20 8 21 9 22 10 23 11
REMARK SMILES IDX 24 12 25 13 26 14 12 15 11 16 10 17 9 18 8 19 7 20 6 21 5 22
REMARK SMILES IDX 4 23 3 24 2 25 1 26
REMARK H PARENT
REMARK Flexibility Score: inf
ROOT
ATOM      1  C   UNL     1      52.638   5.545  18.736  1.00  0.00     0.000 C 
ENDROOT
BRANCH   1   2
ATOM      2  C   UNL     1      51.825   6.781  18.307  1.00  0.00     0.000 C 
BRANCH   2   3
ATOM      3  C   UNL     1      51.074   7.498  19.444  1.00  0.00     0.000 C 
BRANCH   3   4
ATOM      4  C   UNL     1      50.800   8.981  19.142  1.00  0.00     0.000 C 
BRANCH   4   5
ATOM      5  C   UNL     1      49.301   9.299  18.987  1.00  0.00     0.000 C 
BRANCH   5   6
ATOM      6  C   UNL     1      48.336   8.272  19.608  1.00  0.00     0.000 C 
BRANCH   6   7
ATOM      7  C   UNL     1      47.228   8.923  20.454  1.00  0.00     0.000 C 
BRANCH   7   8
ATOM      8  C   UNL     1      47.777   9.737  21.640  1.00  0.00     0.000 C 
BRANCH   8   9
ATOM      9  C   UNL     1      47.943   8.957  22.957  1.00  0.00     0.000 C 
BRANCH   9  10
ATOM     10  C   UNL     1      49.307   8.258  23.073  1.00  0.00     0.006 C 
BRANCH  10  11
ATOM     11  C   UNL     1      50.053   8.652  24.354  1.00  0.00     0.053 C 
BRANCH  11  12
ATOM     12  C   UNL     1      50.028   7.556  25.375  1.00  0.00     0.041 C 
ATOM     13  O   UNL     1      49.145   7.545  26.273  1.00  0.00    -0.550 OA
ATOM     14  O   UNL     1      50.965   6.531  25.318  1.00  0.00    -0.550 OA
ENDBRANCH  11  12
ENDBRANCH  10  11
ENDBRANCH   9  10
ENDBRANCH   8   9
ENDBRANCH   7   8
ENDBRANCH   6   7
ENDBRANCH   5   6
ENDBRANCH   4   5
ENDBRANCH   3   4
ENDBRANCH   2   3
ENDBRANCH   1   2
BRANCH   1  15
ATOM     15  C   UNL     1      51.813   4.246  18.708  1.00  0.00     0.000 C 
BRANCH  15  16
ATOM     16  C   UNL     1      52.539   3.066  19.374  1.00  0.00     0.000 C 
BRANCH  16  17
ATOM     17  C   UNL     1      51.608   2.234  20.274  1.00  0.00     0.000 C 
BRANCH  17  18
ATOM     18  C   UNL     1      50.370   3.019  20.743  1.00  0.00    -0.000 C 
BRANCH  18  19
ATOM     19  C   UNL     1      50.352   3.372  22.241  1.00  0.00    -0.000 C 
BRANCH  19  20
ATOM     20  C   UNL     1      49.257   4.392  22.604  1.00  0.00    -0.000 C 
BRANCH  20  21
ATOM     21  C   UNL     1      48.735   5.159  21.372  1.00  0.00    -0.000 C 
BRANCH  21  22
ATOM     22  C   UNL     1      47.197   5.195  21.257  1.00  0.00    -0.000 C 
BRANCH  22  23
ATOM     23  C   UNL     1      46.460   5.114  22.609  1.00  0.00    -0.000 C 
BRANCH  23  24
ATOM     24  C   UNL     1      45.522   6.312  22.839  1.00  0.00    -0.000 C 
BRANCH  24  25
ATOM     25  C   UNL     1      44.056   5.985  22.521  1.00  0.00    -0.003 C 
ATOM     26  C   UNL     1      43.788   4.482  22.447  1.00  0.00     0.004 C 
ENDBRANCH  24  25
ENDBRANCH  23  24
ENDBRANCH  22  23
ENDBRANCH  21  22
ENDBRANCH  20  21
ENDBRANCH  19  20
ENDBRANCH  18  19
ENDBRANCH  17  18
ENDBRANCH  16  17
ENDBRANCH  15  16
ENDBRANCH   1  15
TORSDOF 22
ENDMDL
MODEL 7
REMARK VINA RESULT:    -3.927      2.236      5.701
REMARK INTER + INTRA:         -13.190
REMARK INTER:                  -9.402
REMARK INTRA:                  -3.789
REMARK UNBOUND:                -4.213
REMARK SMILES CCCCCCCCCCCCCCCCCCCCCCCC(=O)[O-]
REMARK SMILES IDX 13 1 14 2 15 3 16 4 17 5 18 6 19 7 20 8 21 9 22 10 23 11
REMARK SMILES IDX 24 12 25 13 26 14 12 15 11 16 10 17 9 18 8 19 7 20 6 21 5 22
REMARK SMILES IDX 4 23 3 24 2 25 1 26
REMARK H PARENT
REMARK Flexibility Score: inf
ROOT
ATOM      1  C   UNL     1      46.950   2.934  24.379  1.00  0.00     0.000 C 
ENDROOT
BRANCH   1   2
ATOM      2  C   UNL     1      45.786   3.919  24.165  1.00  0.00     0.000 C 
BRANCH   2   3
ATOM      3  C   UNL     1      46.174   5.261  23.516  1.00  0.00     0.000 C 
BRANCH   3   4
ATOM      4  C   UNL     1      45.600   5.432  22.100  1.00  0.00     0.000 C 
BRANCH   4   5
ATOM      5  C   UNL     1      46.368   4.625  21.036  1.00  0.00     0.000 C 
BRANCH   5   6
ATOM      6  C   UNL     1      45.656   3.363  20.516  1.00  0.00     0.000 C 
BRANCH   6   7
ATOM      7  C   UNL     1      46.626   2.210  20.205  1.00  0.00     0.000 C 
BRANCH   7   8
ATOM      8  C   UNL     1      48.105   2.627  20.305  1.00  0.00     0.000 C 
BRANCH   8   9
ATOM      9  C   UNL     1      49.053   1.561  20.884  1.00  0.00     0.000 C 
BRANCH   9  10
ATOM     10  C   UNL     1      50.417   2.135  21.303  1.00  0.00     0.006 C 
BRANCH  10  11
ATOM     11  C   UNL     1      50.751   3.435  20.561  1.00  0.00     0.053 C 
BRANCH  11  12
ATOM     12  C   UNL     1      51.664   3.195  19.398  1.00  0.00     0.041 C 
ATOM     13  O   UNL     1      52.235   2.081  19.258  1.00  0.00    -0.550 OA
ATOM     14  O   UNL     1      51.864   4.194  18.453  1.00  0.00    -0.550 OA
ENDBRANCH  11  12
ENDBRANCH  10  11
ENDBRANCH   9  10
ENDBRANCH   8   9
ENDBRANCH   7   8
ENDBRANCH   6   7
ENDBRANCH   5   6
ENDBRANCH   4   5
ENDBRANCH   3   4
ENDBRANCH   2   3
ENDBRANCH   1   2
BRANCH   1  15
ATOM     15  C   UNL     1      48.326   3.560  24.097  1.00  0.00     0.000 C 
BRANCH  15  16
ATOM     16  C   UNL     1      49.249   3.549  25.326  1.00  0.00     0.000 C 
BRANCH  16  17
ATOM     17  C   UNL     1      48.930   4.687  26.312  1.00  0.00     0.000 C 
BRANCH  17  18
ATOM     18  C   UNL     1      50.168   5.519  26.688  1.00  0.00    -0.000 C 
BRANCH  18  19
ATOM     19  C   UNL     1      50.779   6.336  25.535  1.00  0.00    -0.000 C 
BRANCH  19  20
ATOM     20  C   UNL     1      50.020   7.648  25.262  1.00  0.00    -0.000 C 
BRANCH  20  21
ATOM     21  C   UNL     1      49.691   7.838  23.767  1.00  0.00    -0.000 C 
BRANCH  21  22
ATOM     22  C   UNL     1      49.644   6.525  22.960  1.00  0.00    -0.000 C 
BRANCH  22  23
ATOM     23  C   UNL     1      49.331   6.715  21.462  1.00  0.00    -0.000 C 
BRANCH  23  24
ATOM     24  C   UNL     1      49.550   8.166  20.996  1.00  0.00    -0.000 C 
BRANCH  24  25
ATOM     25  C   UNL     1      49.722   8.278  19.475  1.00  0.00    -0.003 C 
ATOM     26  C   UNL     1      51.183   8.181  19.036  1.00  0.00     0.004 C 
ENDBRANCH  24  25
ENDBRANCH  23  24
ENDBRANCH  22  23
ENDBRANCH  21  22
ENDBRANCH  20  21
ENDBRANCH  19  20
ENDBRANCH  18  19
ENDBRANCH  17  18
ENDBRANCH  16  17
ENDBRANCH  15  16
ENDBRANCH   1  15
TORSDOF 22
ENDMDL
MODEL 8
REMARK VINA RESULT:    -3.923      2.438      3.776
REMARK INTER + INTRA:         -13.180
REMARK INTER:                  -8.326
REMARK INTRA:                  -4.855
REMARK UNBOUND:                -4.213
REMARK SMILES CCCCCCCCCCCCCCCCCCCCCCCC(=O)[O-]
REMARK SMILES IDX 13 1 14 2 15 3 16 4 17 5 18 6 19 7 20 8 21 9 22 10 23 11
REMARK SMILES IDX 24 12 25 13 26 14 12 15 11 16 10 17 9 18 8 19 7 20 6 21 5 22
REMARK SMILES IDX 4 23 3 24 2 25 1 26
REMARK H PARENT
REMARK Flexibility Score: inf
ROOT
ATOM      1  C   UNL     1      43.560   1.182  21.348  1.00  0.00     0.000 C 
ENDROOT
BRANCH   1   2
ATOM      2  C   UNL     1      44.106   0.699  22.705  1.00  0.00     0.000 C 
BRANCH   2   3
ATOM      3  C   UNL     1      44.427   1.813  23.718  1.00  0.00     0.000 C 
BRANCH   3   4
ATOM      4  C   UNL     1      45.719   1.551  24.510  1.00  0.00     0.000 C 
BRANCH   4   5
ATOM      5  C   UNL     1      46.688   2.748  24.497  1.00  0.00     0.000 C 
BRANCH   5   6
ATOM      6  C   UNL     1      47.723   2.779  25.636  1.00  0.00     0.000 C 
BRANCH   6   7
ATOM      7  C   UNL     1      49.100   3.295  25.185  1.00  0.00     0.000 C 
BRANCH   7   8
ATOM      8  C   UNL     1      49.132   3.698  23.699  1.00  0.00     0.000 C 
BRANCH   8   9
ATOM      9  C   UNL     1      50.244   3.042  22.860  1.00  0.00     0.000 C 
BRANCH   9  10
ATOM     10  C   UNL     1      50.388   3.663  21.461  1.00  0.00     0.006 C 
BRANCH  10  11
ATOM     11  C   UNL     1      50.665   2.607  20.384  1.00  0.00     0.053 C 
BRANCH  11  12
ATOM     12  C   UNL     1      52.113   2.569  19.999  1.00  0.00     0.041 C 
ATOM     13  O   UNL     1      52.456   2.746  18.801  1.00  0.00    -0.550 OA
ATOM     14  O   UNL     1      53.085   2.364  20.971  1.00  0.00    -0.550 OA
ENDBRANCH  11  12
ENDBRANCH  10  11
ENDBRANCH   9  10
ENDBRANCH   8   9
ENDBRANCH   7   8
ENDBRANCH   6   7
ENDBRANCH   5   6
ENDBRANCH   4   5
ENDBRANCH   3   4
ENDBRANCH   2   3
ENDBRANCH   1   2
BRANCH   1  15
ATOM     15  C   UNL     1      43.477   2.715  21.247  1.00  0.00     0.000 C 
BRANCH  15  16
ATOM     16  C   UNL     1      44.471   3.299  20.231  1.00  0.00     0.000 C 
BRANCH  16  17
ATOM     17  C   UNL     1      45.739   3.858  20.901  1.00  0.00     0.000 C 
BRANCH  17  18
ATOM     18  C   UNL     1      46.894   2.843  20.939  1.00  0.00    -0.000 C 
BRANCH  18  19
ATOM     19  C   UNL     1      46.905   1.825  19.784  1.00  0.00    -0.000 C 
BRANCH  19  20
ATOM     20  C   UNL     1      47.365   0.423  20.223  1.00  0.00    -0.000 C 
BRANCH  20  21
ATOM     21  C   UNL     1      47.821   0.388  21.696  1.00  0.00    -0.000 C 
BRANCH  21  22
ATOM     22  C   UNL     1      49.156  -0.348  21.926  1.00  0.00    -0.000 C 
BRANCH  22  23
ATOM     23  C   UNL     1      49.163  -1.274  23.159  1.00  0.00    -0.000 C 
BRANCH  23  24
ATOM     24  C   UNL     1      47.855  -1.187  23.966  1.00  0.00    -0.000 C 
BRANCH  24  25
ATOM     25  C   UNL     1      48.099  -1.109  25.480  1.00  0.00    -0.003 C 
ATOM     26  C   UNL     1      49.455  -0.496  25.830  1.00  0.00     0.004 C 
ENDBRANCH  24  25
ENDBRANCH  23  24
ENDBRANCH  22  23
ENDBRANCH  21  22
ENDBRANCH  20  21
ENDBRANCH  19  20
ENDBRANCH  18  19
ENDBRANCH  17  18
ENDBRANCH  16  17
ENDBRANCH  15  16
ENDBRANCH   1  15
TORSDOF 22
ENDMDL
MODEL 9
REMARK VINA RESULT:    -3.886      2.850      5.192
REMARK INTER + INTRA:         -13.097
REMARK INTER:                  -8.125
REMARK INTRA:                  -4.971
REMARK UNBOUND:                -4.213
REMARK SMILES CCCCCCCCCCCCCCCCCCCCCCCC(=O)[O-]
REMARK SMILES IDX 13 1 14 2 15 3 16 4 17 5 18 6 19 7 20 8 21 9 22 10 23 11
REMARK SMILES IDX 24 12 25 13 26 14 12 15 11 16 10 17 9 18 8 19 7 20 6 21 5 22
REMARK SMILES IDX 4 23 3 24 2 25 1 26
REMARK H PARENT
REMARK Flexibility Score: inf
ROOT
ATOM      1  C   UNL     1      44.787   3.403  19.846  1.00  0.00     0.000 C 
ENDROOT
BRANCH   1   2
ATOM      2  C   UNL     1      43.499   3.146  20.650  1.00  0.00     0.000 C 
BRANCH   2   3
ATOM      3  C   UNL     1      43.603   3.424  22.161  1.00  0.00     0.000 C 
BRANCH   3   4
ATOM      4  C   UNL     1      43.280   2.191  23.022  1.00  0.00     0.000 C 
BRANCH   4   5
ATOM      5  C   UNL     1      43.213   0.886  22.207  1.00  0.00     0.000 C 
BRANCH   5   6
ATOM      6  C   UNL     1      43.785  -0.363  22.902  1.00  0.00     0.000 C 
BRANCH   6   7
ATOM      7  C   UNL     1      43.782  -0.252  24.436  1.00  0.00     0.000 C 
BRANCH   7   8
ATOM      8  C   UNL     1      45.107  -0.711  25.074  1.00  0.00     0.000 C 
BRANCH   8   9
ATOM      9  C   UNL     1      45.644   0.191  26.200  1.00  0.00     0.000 C 
BRANCH   9  10
ATOM     10  C   UNL     1      44.768   1.430  26.446  1.00  0.00     0.006 C 
BRANCH  10  11
ATOM     11  C   UNL     1      45.605   2.697  26.663  1.00  0.00     0.053 C 
BRANCH  11  12
ATOM     12  C   UNL     1      45.136   3.831  25.804  1.00  0.00     0.041 C 
ATOM     13  O   UNL     1      43.990   4.325  25.974  1.00  0.00    -0.550 OA
ATOM     14  O   UNL     1      45.975   4.360  24.830  1.00  0.00    -0.550 OA
ENDBRANCH  11  12
ENDBRANCH  10  11
ENDBRANCH   9  10
ENDBRANCH   8   9
ENDBRANCH   7   8
ENDBRANCH   6   7
ENDBRANCH   5   6
ENDBRANCH   4   5
ENDBRANCH   3   4
ENDBRANCH   2   3
ENDBRANCH   1   2
BRANCH   1  15
ATOM     15  C   UNL     1      46.065   3.157  20.666  1.00  0.00     0.000 C 
BRANCH  15  16
ATOM     16  C   UNL     1      46.791   1.863  20.265  1.00  0.00     0.000 C 
BRANCH  16  17
ATOM     17  C   UNL     1      46.978   0.901  21.451  1.00  0.00     0.000 C 
BRANCH  17  18
ATOM     18  C   UNL     1      46.944   1.616  22.813  1.00  0.00    -0.000 C 
BRANCH  18  19
ATOM     19  C   UNL     1      48.128   1.299  23.745  1.00  0.00    -0.000 C 
BRANCH  19  20
ATOM     20  C   UNL     1      48.650  -0.140  23.584  1.00  0.00    -0.000 C 
BRANCH  20  21
ATOM     21  C   UNL     1      50.067  -0.188  22.977  1.00  0.00    -0.000 C 
BRANCH  21  22
ATOM     22  C   UNL     1      50.950   1.023  23.340  1.00  0.00    -0.000 C 
BRANCH  22  23
ATOM     23  C   UNL     1      51.583   1.730  22.125  1.00  0.00    -0.000 C 
BRANCH  23  24
ATOM     24  C   UNL     1      50.576   1.947  20.981  1.00  0.00    -0.000 C 
BRANCH  24  25
ATOM     25  C   UNL     1      50.334   3.433  20.681  1.00  0.00    -0.003 C 
ATOM     26  C   UNL     1      49.545   4.139  21.783  1.00  0.00     0.004 C 
ENDBRANCH  24  25
ENDBRANCH  23  24
ENDBRANCH  22  23
ENDBRANCH  21  22
ENDBRANCH  20  21
ENDBRANCH  19  20
ENDBRANCH  18  19
ENDBRANCH  17  18
ENDBRANCH  16  17
ENDBRANCH  15  16
ENDBRANCH   1  15
TORSDOF 22
ENDMDL
