MODEL 1
REMARK VINA RESULT:    -7.774      0.000      0.000
REMARK INTER + INTRA:         -12.838
REMARK INTER:                 -10.729
REMARK INTRA:                  -2.109
REMARK UNBOUND:                -2.109
REMARK SMILES CC[C@@H](CC[C@H](C)[C@@H]1CC[C@H]2[C@@H]3CC=C4C[C@H](O)CC[C@@]4(C)[C@H]3CC[C@@]21C)C(C)C
REMARK SMILES IDX 5 1 4 2 3 3 2 4 1 5 28 6 29 7 30 8 6 9 7 10 8 11 9 12 26 13
REMARK SMILES IDX 10 14 11 15 25 16 27 17 12 18 24 19 23 20 13 21 21 22 14 23
REMARK SMILES IDX 15 24 20 25 22 26 16 27 19 28 17 29 18 30
REMARK H PARENT 18 31
REMARK Flexibility Score: inf
ROOT
ATOM      1  C   UNL     1      23.510 -17.873 -13.151  1.00  0.00     0.004 C 
ENDROOT
BRANCH   1   2
ATOM      2  C   UNL     1      23.606 -17.569 -11.639  1.00  0.00     0.004 C 
BRANCH   2   3
ATOM      3  C   UNL     1      23.430 -18.815 -10.718  1.00  0.00    -0.009 C 
BRANCH   3   4
ATOM      4  C   UNL     1      22.787 -18.454  -9.347  1.00  0.00     0.000 C 
ATOM      5  C   UNL     1      21.990 -17.148  -9.353  1.00  0.00     0.004 C 
ENDBRANCH   3   4
BRANCH   3   6
ATOM      6  C   UNL     1      24.755 -19.636 -10.535  1.00  0.00    -0.014 C 
ATOM      7  C   UNL     1      24.691 -20.576  -9.315  1.00  0.00     0.007 C 
ATOM      8  C   UNL     1      25.096 -20.477 -11.781  1.00  0.00     0.007 C 
ENDBRANCH   3   6
ENDBRANCH   2   3
ENDBRANCH   1   2
BRANCH   1   9
ATOM      9  C   UNL     1      22.221 -17.312 -13.831  1.00  0.00    -0.011 C 
ATOM     10  C   UNL     1      21.876 -15.946 -13.180  1.00  0.00     0.008 C 
BRANCH   9  11
ATOM     11  C   UNL     1      20.991 -18.301 -13.805  1.00  0.00    -0.002 C 
ATOM     12  C   UNL     1      20.238 -18.331 -12.434  1.00  0.00     0.005 C 
ATOM     13  C   UNL     1      21.276 -19.822 -14.099  1.00  0.00    -0.026 C 
ATOM     14  C   UNL     1      20.242 -19.772 -11.918  1.00  0.00     0.005 C 
ATOM     15  C   UNL     1      21.378 -20.412 -12.683  1.00  0.00    -0.001 C 
ATOM     16  C   UNL     1      22.579 -20.209 -14.848  1.00  0.00     0.007 C 
ATOM     17  C   UNL     1      20.051 -20.364 -14.909  1.00  0.00     0.012 C 
ATOM     18  C   UNL     1      21.481 -21.954 -12.668  1.00  0.00     0.000 C 
ATOM     19  C   UNL     1      22.801 -21.742 -14.873  1.00  0.00     0.005 C 
ATOM     20  C   UNL     1      22.753 -22.382 -13.453  1.00  0.00     0.003 C 
ATOM     21  C   UNL     1      21.618 -22.498 -11.240  1.00  0.00     0.031 C 
ATOM     22  C   UNL     1      23.041 -23.955 -13.387  1.00  0.00    -0.008 C 
ATOM     23  C   UNL     1      21.612 -23.992 -11.298  1.00  0.00    -0.027 C 
ATOM     24  C   UNL     1      22.188 -24.668 -12.314  1.00  0.00    -0.065 C 
ATOM     25  C   UNL     1      22.752 -24.662 -14.743  1.00  0.00     0.014 C 
ATOM     26  C   UNL     1      24.539 -24.128 -13.021  1.00  0.00     0.016 C 
ATOM     27  C   UNL     1      21.739 -26.104 -12.511  1.00  0.00     0.063 C 
ATOM     28  C   UNL     1      23.022 -26.181 -14.748  1.00  0.00     0.033 C 
ATOM     29  C   UNL     1      22.638 -26.926 -13.448  1.00  0.00     0.118 C 
BRANCH  29  30
ATOM     30  O   UNL     1      23.797 -27.334 -12.767  1.00  0.00    -0.393 OA
ATOM     31  H   UNL     1      24.183 -26.527 -12.336  1.00  0.00     0.210 HD
ENDBRANCH  29  30
ENDBRANCH   9  11
ENDBRANCH   1   9
TORSDOF 7
ENDMDL
MODEL 2
REMARK VINA RESULT:    -7.522      3.008      7.697
REMARK INTER + INTRA:         -12.490
REMARK INTER:                 -11.175
REMARK INTRA:                  -1.315
REMARK UNBOUND:                -2.109
REMARK SMILES CC[C@@H](CC[C@H](C)[C@@H]1CC[C@H]2[C@@H]3CC=C4C[C@H](O)CC[C@@]4(C)[C@H]3CC[C@@]21C)C(C)C
REMARK SMILES IDX 5 1 4 2 3 3 2 4 1 5 28 6 29 7 30 8 6 9 7 10 8 11 9 12 26 13
REMARK SMILES IDX 10 14 11 15 25 16 27 17 12 18 24 19 23 20 13 21 21 22 14 23
REMARK SMILES IDX 15 24 20 25 22 26 16 27 19 28 17 29 18 30
REMARK H PARENT 18 31
REMARK Flexibility Score: inf
ROOT
ATOM      1  C   UNL     1      24.396 -25.104 -14.974  1.00  0.00     0.004 C 
ENDROOT
BRANCH   1   2
ATOM      2  C   UNL     1      25.851 -25.267 -14.477  1.00  0.00     0.004 C 
BRANCH   2   3
ATOM      3  C   UNL     1      26.531 -26.604 -14.902  1.00  0.00    -0.009 C 
BRANCH   3   4
ATOM      4  C   UNL     1      25.554 -27.555 -15.652  1.00  0.00     0.000 C 
ATOM      5  C   UNL     1      25.123 -28.778 -14.840  1.00  0.00     0.004 C 
ENDBRANCH   3   4
BRANCH   3   6
ATOM      6  C   UNL     1      27.247 -27.335 -13.711  1.00  0.00    -0.014 C 
ATOM      7  C   UNL     1      28.756 -27.025 -13.663  1.00  0.00     0.007 C 
ATOM      8  C   UNL     1      26.631 -26.966 -12.347  1.00  0.00     0.007 C 
ENDBRANCH   3   6
ENDBRANCH   2   3
ENDBRANCH   1   2
BRANCH   1   9
ATOM      9  C   UNL     1      23.373 -24.767 -13.843  1.00  0.00    -0.011 C 
ATOM     10  C   UNL     1      22.674 -26.082 -13.404  1.00  0.00     0.008 C 
BRANCH   9  11
ATOM     11  C   UNL     1      22.328 -23.648 -14.224  1.00  0.00    -0.002 C 
ATOM     12  C   UNL     1      22.652 -22.916 -15.569  1.00  0.00     0.005 C 
ATOM     13  C   UNL     1      22.127 -22.465 -13.204  1.00  0.00    -0.026 C 
ATOM     14  C   UNL     1      22.781 -21.419 -15.280  1.00  0.00     0.005 C 
ATOM     15  C   UNL     1      23.037 -21.373 -13.791  1.00  0.00    -0.001 C 
ATOM     16  C   UNL     1      22.556 -22.668 -11.727  1.00  0.00     0.007 C 
ATOM     17  C   UNL     1      20.607 -22.090 -13.240  1.00  0.00     0.012 C 
ATOM     18  C   UNL     1      22.898 -20.010 -13.075  1.00  0.00     0.000 C 
ATOM     19  C   UNL     1      22.481 -21.352 -10.913  1.00  0.00     0.005 C 
ATOM     20  C   UNL     1      23.274 -20.187 -11.577  1.00  0.00     0.003 C 
ATOM     21  C   UNL     1      23.848 -18.961 -13.667  1.00  0.00     0.031 C 
ATOM     22  C   UNL     1      23.301 -18.809 -10.763  1.00  0.00    -0.008 C 
ATOM     23  C   UNL     1      23.587 -17.651 -12.995  1.00  0.00    -0.027 C 
ATOM     24  C   UNL     1      23.258 -17.573 -11.689  1.00  0.00    -0.065 C 
ATOM     25  C   UNL     1      22.100 -18.684  -9.780  1.00  0.00     0.014 C 
ATOM     26  C   UNL     1      24.631 -18.779  -9.964  1.00  0.00     0.016 C 
ATOM     27  C   UNL     1      22.584 -16.290 -11.237  1.00  0.00     0.063 C 
ATOM     28  C   UNL     1      22.077 -17.381  -8.955  1.00  0.00     0.033 C 
ATOM     29  C   UNL     1      22.526 -16.109  -9.712  1.00  0.00     0.118 C 
BRANCH  29  30
ATOM     30  O   UNL     1      23.774 -15.677  -9.230  1.00  0.00    -0.393 OA
ATOM     31  H   UNL     1      24.275 -16.488  -8.950  1.00  0.00     0.210 HD
ENDBRANCH  29  30
ENDBRANCH   9  11
ENDBRANCH   1   9
TORSDOF 7
ENDMDL
MODEL 3
REMARK VINA RESULT:    -7.113      2.704      7.498
REMARK INTER + INTRA:         -11.926
REMARK INTER:                  -9.093
REMARK INTRA:                  -2.832
REMARK UNBOUND:                -2.109
REMARK SMILES CC[C@@H](CC[C@H](C)[C@@H]1CC[C@H]2[C@@H]3CC=C4C[C@H](O)CC[C@@]4(C)[C@H]3CC[C@@]21C)C(C)C
REMARK SMILES IDX 5 1 4 2 3 3 2 4 1 5 28 6 29 7 30 8 6 9 7 10 8 11 9 12 26 13
REMARK SMILES IDX 10 14 11 15 25 16 27 17 12 18 24 19 23 20 13 21 21 22 14 23
REMARK SMILES IDX 15 24 20 25 22 26 16 27 19 28 17 29 18 30
REMARK H PARENT 18 31
REMARK Flexibility Score: inf
ROOT
ATOM      1  C   UNL     1      24.191 -28.198 -14.861  1.00  0.00     0.004 C 
ENDROOT
BRANCH   1   2
ATOM      2  C   UNL     1      25.507 -27.391 -14.775  1.00  0.00     0.004 C 
BRANCH   2   3
ATOM      3  C   UNL     1      25.711 -26.631 -13.429  1.00  0.00    -0.009 C 
BRANCH   3   4
ATOM      4  C   UNL     1      25.799 -25.090 -13.625  1.00  0.00     0.000 C 
ATOM      5  C   UNL     1      26.203 -24.659 -15.037  1.00  0.00     0.004 C 
ENDBRANCH   3   4
BRANCH   3   6
ATOM      6  C   UNL     1      26.923 -27.176 -12.594  1.00  0.00    -0.014 C 
ATOM      7  C   UNL     1      26.608 -28.532 -11.930  1.00  0.00     0.007 C 
ATOM      8  C   UNL     1      28.195 -27.338 -13.450  1.00  0.00     0.007 C 
ENDBRANCH   3   6
ENDBRANCH   2   3
ENDBRANCH   1   2
BRANCH   1   9
ATOM      9  C   UNL     1      23.115 -27.771 -13.813  1.00  0.00    -0.011 C 
ATOM     10  C   UNL     1      22.549 -29.050 -13.141  1.00  0.00     0.008 C 
BRANCH   9  11
ATOM     11  C   UNL     1      21.967 -26.858 -14.397  1.00  0.00    -0.002 C 
ATOM     12  C   UNL     1      22.110 -26.570 -15.928  1.00  0.00     0.005 C 
ATOM     13  C   UNL     1      21.790 -25.425 -13.769  1.00  0.00    -0.026 C 
ATOM     14  C   UNL     1      22.168 -25.053 -16.125  1.00  0.00     0.005 C 
ATOM     15  C   UNL     1      22.566 -24.540 -14.760  1.00  0.00    -0.001 C 
ATOM     16  C   UNL     1      22.375 -25.146 -12.359  1.00  0.00     0.007 C 
ATOM     17  C   UNL     1      20.254 -25.127 -13.745  1.00  0.00     0.012 C 
ATOM     18  C   UNL     1      22.409 -23.027 -14.482  1.00  0.00     0.000 C 
ATOM     19  C   UNL     1      22.294 -23.646 -11.982  1.00  0.00     0.005 C 
ATOM     20  C   UNL     1      22.941 -22.719 -13.054  1.00  0.00     0.003 C 
ATOM     21  C   UNL     1      23.226 -22.184 -15.470  1.00  0.00     0.031 C 
ATOM     22  C   UNL     1      22.958 -21.157 -12.707  1.00  0.00    -0.008 C 
ATOM     23  C   UNL     1      22.947 -20.739 -15.204  1.00  0.00    -0.027 C 
ATOM     24  C   UNL     1      22.744 -20.271 -13.954  1.00  0.00    -0.065 C 
ATOM     25  C   UNL     1      21.854 -20.771 -11.679  1.00  0.00     0.014 C 
ATOM     26  C   UNL     1      24.355 -20.839 -12.111  1.00  0.00     0.016 C 
ATOM     27  C   UNL     1      22.035 -18.933 -13.841  1.00  0.00     0.063 C 
ATOM     28  C   UNL     1      21.826 -19.279 -11.293  1.00  0.00     0.033 C 
ATOM     29  C   UNL     1      22.115 -18.290 -12.448  1.00  0.00     0.118 C 
BRANCH  29  30
ATOM     30  O   UNL     1      23.374 -17.691 -12.265  1.00  0.00    -0.393 OA
ATOM     31  H   UNL     1      23.967 -18.030 -12.987  1.00  0.00     0.210 HD
ENDBRANCH  29  30
ENDBRANCH   9  11
ENDBRANCH   1   9
TORSDOF 7
ENDMDL
MODEL 4
REMARK VINA RESULT:    -6.872      4.205      8.322
REMARK INTER + INTRA:         -11.593
REMARK INTER:                  -8.937
REMARK INTRA:                  -2.656
REMARK UNBOUND:                -2.109
REMARK SMILES CC[C@@H](CC[C@H](C)[C@@H]1CC[C@H]2[C@@H]3CC=C4C[C@H](O)CC[C@@]4(C)[C@H]3CC[C@@]21C)C(C)C
REMARK SMILES IDX 5 1 4 2 3 3 2 4 1 5 28 6 29 7 30 8 6 9 7 10 8 11 9 12 26 13
REMARK SMILES IDX 10 14 11 15 25 16 27 17 12 18 24 19 23 20 13 21 21 22 14 23
REMARK SMILES IDX 15 24 20 25 22 26 16 27 19 28 17 29 18 30
REMARK H PARENT 18 31
REMARK Flexibility Score: inf
ROOT
ATOM      1  C   UNL     1      26.590 -25.594 -14.959  1.00  0.00     0.004 C 
ENDROOT
BRANCH   1   2
ATOM      2  C   UNL     1      25.708 -24.412 -14.498  1.00  0.00     0.004 C 
BRANCH   2   3
ATOM      3  C   UNL     1      24.200 -24.764 -14.318  1.00  0.00    -0.009 C 
BRANCH   3   4
ATOM      4  C   UNL     1      23.292 -24.032 -15.349  1.00  0.00     0.000 C 
ATOM      5  C   UNL     1      22.327 -24.952 -16.099  1.00  0.00     0.004 C 
ENDBRANCH   3   4
BRANCH   3   6
ATOM      6  C   UNL     1      23.690 -24.551 -12.848  1.00  0.00    -0.014 C 
ATOM      7  C   UNL     1      23.283 -23.087 -12.582  1.00  0.00     0.007 C 
ATOM      8  C   UNL     1      22.490 -25.458 -12.511  1.00  0.00     0.007 C 
ENDBRANCH   3   6
ENDBRANCH   2   3
ENDBRANCH   1   2
BRANCH   1   9
ATOM      9  C   UNL     1      26.548 -26.828 -14.003  1.00  0.00    -0.011 C 
ATOM     10  C   UNL     1      27.987 -27.099 -13.486  1.00  0.00     0.008 C 
BRANCH   9  11
ATOM     11  C   UNL     1      25.902 -28.121 -14.639  1.00  0.00    -0.002 C 
ATOM     12  C   UNL     1      25.045 -27.833 -15.915  1.00  0.00     0.005 C 
ATOM     13  C   UNL     1      24.934 -28.969 -13.731  1.00  0.00    -0.026 C 
ATOM     14  C   UNL     1      23.628 -28.355 -15.667  1.00  0.00     0.005 C 
ATOM     15  C   UNL     1      23.551 -28.449 -14.160  1.00  0.00    -0.001 C 
ATOM     16  C   UNL     1      25.019 -28.810 -12.190  1.00  0.00     0.007 C 
ATOM     17  C   UNL     1      25.171 -30.472 -14.096  1.00  0.00     0.012 C 
ATOM     18  C   UNL     1      22.379 -29.249 -13.545  1.00  0.00     0.000 C 
ATOM     19  C   UNL     1      23.870 -29.553 -11.464  1.00  0.00     0.005 C 
ATOM     20  C   UNL     1      22.462 -29.152 -11.996  1.00  0.00     0.003 C 
ATOM     21  C   UNL     1      21.020 -28.676 -13.970  1.00  0.00     0.031 C 
ATOM     22  C   UNL     1      21.217 -29.827 -11.250  1.00  0.00    -0.008 C 
ATOM     23  C   UNL     1      19.942 -29.554 -13.421  1.00  0.00    -0.027 C 
ATOM     24  C   UNL     1      20.054 -30.150 -12.215  1.00  0.00    -0.065 C 
ATOM     25  C   UNL     1      21.606 -31.158 -10.544  1.00  0.00     0.014 C 
ATOM     26  C   UNL     1      20.712 -28.808 -10.195  1.00  0.00     0.016 C 
ATOM     27  C   UNL     1      19.150 -31.344 -11.965  1.00  0.00     0.063 C 
ATOM     28  C   UNL     1      20.450 -31.852  -9.795  1.00  0.00     0.033 C 
ATOM     29  C   UNL     1      19.072 -31.782 -10.495  1.00  0.00     0.118 C 
BRANCH  29  30
ATOM     30  O   UNL     1      18.214 -30.926  -9.782  1.00  0.00    -0.393 OA
ATOM     31  H   UNL     1      17.574 -31.500  -9.285  1.00  0.00     0.210 HD
ENDBRANCH  29  30
ENDBRANCH   9  11
ENDBRANCH   1   9
TORSDOF 7
ENDMDL
MODEL 5
REMARK VINA RESULT:    -6.858      3.185      6.902
REMARK INTER + INTRA:         -11.573
REMARK INTER:                  -8.697
REMARK INTRA:                  -2.876
REMARK UNBOUND:                -2.109
REMARK SMILES CC[C@@H](CC[C@H](C)[C@@H]1CC[C@H]2[C@@H]3CC=C4C[C@H](O)CC[C@@]4(C)[C@H]3CC[C@@]21C)C(C)C
REMARK SMILES IDX 5 1 4 2 3 3 2 4 1 5 28 6 29 7 30 8 6 9 7 10 8 11 9 12 26 13
REMARK SMILES IDX 10 14 11 15 25 16 27 17 12 18 24 19 23 20 13 21 21 22 14 23
REMARK SMILES IDX 15 24 20 25 22 26 16 27 19 28 17 29 18 30
REMARK H PARENT 18 31
REMARK Flexibility Score: inf
ROOT
ATOM      1  C   UNL     1      24.377 -23.766 -13.946  1.00  0.00     0.004 C 
ENDROOT
BRANCH   1   2
ATOM      2  C   UNL     1      23.706 -23.695 -12.555  1.00  0.00     0.004 C 
BRANCH   2   3
ATOM      3  C   UNL     1      22.342 -22.939 -12.535  1.00  0.00    -0.009 C 
BRANCH   3   4
ATOM      4  C   UNL     1      21.164 -23.853 -12.088  1.00  0.00     0.000 C 
ATOM      5  C   UNL     1      21.438 -24.648 -10.809  1.00  0.00     0.004 C 
ENDBRANCH   3   4
BRANCH   3   6
ATOM      6  C   UNL     1      22.024 -22.210 -13.888  1.00  0.00    -0.014 C 
ATOM      7  C   UNL     1      20.600 -22.518 -14.392  1.00  0.00     0.007 C 
ATOM      8  C   UNL     1      22.180 -20.680 -13.776  1.00  0.00     0.007 C 
ENDBRANCH   3   6
ENDBRANCH   2   3
ENDBRANCH   1   2
BRANCH   1   9
ATOM      9  C   UNL     1      25.010 -25.155 -14.275  1.00  0.00    -0.011 C 
ATOM     10  C   UNL     1      26.349 -24.920 -15.026  1.00  0.00     0.008 C 
BRANCH   9  11
ATOM     11  C   UNL     1      24.057 -26.131 -15.070  1.00  0.00    -0.002 C 
ATOM     12  C   UNL     1      22.829 -25.417 -15.725  1.00  0.00     0.005 C 
ATOM     13  C   UNL     1      23.404 -27.319 -14.268  1.00  0.00    -0.026 C 
ATOM     14  C   UNL     1      21.554 -26.072 -15.191  1.00  0.00     0.005 C 
ATOM     15  C   UNL     1      22.017 -26.752 -13.923  1.00  0.00    -0.001 C 
ATOM     16  C   UNL     1      24.054 -27.770 -12.933  1.00  0.00     0.007 C 
ATOM     17  C   UNL     1      23.348 -28.545 -15.239  1.00  0.00     0.012 C 
ATOM     18  C   UNL     1      21.074 -27.792 -13.275  1.00  0.00     0.000 C 
ATOM     19  C   UNL     1      23.178 -28.800 -12.178  1.00  0.00     0.005 C 
ATOM     20  C   UNL     1      21.719 -28.303 -11.955  1.00  0.00     0.003 C 
ATOM     21  C   UNL     1      19.715 -27.176 -12.914  1.00  0.00     0.031 C 
ATOM     22  C   UNL     1      20.767 -29.284 -11.123  1.00  0.00    -0.008 C 
ATOM     23  C   UNL     1      18.829 -28.258 -12.387  1.00  0.00    -0.027 C 
ATOM     24  C   UNL     1      19.309 -29.270 -11.635  1.00  0.00    -0.065 C 
ATOM     25  C   UNL     1      21.255 -30.761 -11.176  1.00  0.00     0.014 C 
ATOM     26  C   UNL     1      20.777 -28.787  -9.653  1.00  0.00     0.016 C 
ATOM     27  C   UNL     1      18.446 -30.515 -11.546  1.00  0.00     0.063 C 
ATOM     28  C   UNL     1      20.385 -31.756 -10.381  1.00  0.00     0.033 C 
ATOM     29  C   UNL     1      18.861 -31.496 -10.438  1.00  0.00     0.118 C 
BRANCH  29  30
ATOM     30  O   UNL     1      18.404 -31.035  -9.191  1.00  0.00    -0.393 OA
ATOM     31  H   UNL     1      19.000 -30.288  -8.919  1.00  0.00     0.210 HD
ENDBRANCH  29  30
ENDBRANCH   9  11
ENDBRANCH   1   9
TORSDOF 7
ENDMDL
MODEL 6
REMARK VINA RESULT:    -6.855      2.872      7.144
REMARK INTER + INTRA:         -11.570
REMARK INTER:                 -10.882
REMARK INTRA:                  -0.688
REMARK UNBOUND:                -2.109
REMARK SMILES CC[C@@H](CC[C@H](C)[C@@H]1CC[C@H]2[C@@H]3CC=C4C[C@H](O)CC[C@@]4(C)[C@H]3CC[C@@]21C)C(C)C
REMARK SMILES IDX 5 1 4 2 3 3 2 4 1 5 28 6 29 7 30 8 6 9 7 10 8 11 9 12 26 13
REMARK SMILES IDX 10 14 11 15 25 16 27 17 12 18 24 19 23 20 13 21 21 22 14 23
REMARK SMILES IDX 15 24 20 25 22 26 16 27 19 28 17 29 18 30
REMARK H PARENT 18 31
REMARK Flexibility Score: inf
ROOT
ATOM      1  C   UNL     1      23.780 -26.181 -15.299  1.00  0.00     0.004 C 
ENDROOT
BRANCH   1   2
ATOM      2  C   UNL     1      24.228 -26.541 -13.864  1.00  0.00     0.004 C 
BRANCH   2   3
ATOM      3  C   UNL     1      25.737 -26.278 -13.574  1.00  0.00    -0.009 C 
BRANCH   3   4
ATOM      4  C   UNL     1      26.509 -25.800 -14.837  1.00  0.00     0.000 C 
ATOM      5  C   UNL     1      27.002 -24.353 -14.761  1.00  0.00     0.004 C 
ENDBRANCH   3   4
BRANCH   3   6
ATOM      6  C   UNL     1      26.452 -27.495 -12.887  1.00  0.00    -0.014 C 
ATOM      7  C   UNL     1      25.861 -28.845 -13.340  1.00  0.00     0.007 C 
ATOM      8  C   UNL     1      27.969 -27.511 -13.164  1.00  0.00     0.007 C 
ENDBRANCH   3   6
ENDBRANCH   2   3
ENDBRANCH   1   2
BRANCH   1   9
ATOM      9  C   UNL     1      22.758 -25.002 -15.368  1.00  0.00    -0.011 C 
ATOM     10  C   UNL     1      23.517 -23.716 -15.791  1.00  0.00     0.008 C 
BRANCH   9  11
ATOM     11  C   UNL     1      21.928 -24.784 -14.042  1.00  0.00    -0.002 C 
ATOM     12  C   UNL     1      20.422 -24.444 -14.292  1.00  0.00     0.005 C 
ATOM     13  C   UNL     1      22.404 -23.640 -13.070  1.00  0.00    -0.026 C 
ATOM     14  C   UNL     1      20.117 -23.101 -13.624  1.00  0.00     0.005 C 
ATOM     15  C   UNL     1      21.483 -22.474 -13.465  1.00  0.00    -0.001 C 
ATOM     16  C   UNL     1      23.863 -23.123 -13.178  1.00  0.00     0.007 C 
ATOM     17  C   UNL     1      22.160 -24.156 -11.612  1.00  0.00     0.012 C 
ATOM     18  C   UNL     1      21.612 -21.248 -12.531  1.00  0.00     0.000 C 
ATOM     19  C   UNL     1      24.103 -21.871 -12.298  1.00  0.00     0.005 C 
ATOM     20  C   UNL     1      23.078 -20.732 -12.577  1.00  0.00     0.003 C 
ATOM     21  C   UNL     1      20.704 -20.097 -12.982  1.00  0.00     0.031 C 
ATOM     22  C   UNL     1      23.299 -19.377 -11.755  1.00  0.00    -0.008 C 
ATOM     23  C   UNL     1      20.807 -18.991 -11.981  1.00  0.00    -0.027 C 
ATOM     24  C   UNL     1      21.967 -18.704 -11.354  1.00  0.00    -0.065 C 
ATOM     25  C   UNL     1      24.104 -19.610 -10.443  1.00  0.00     0.014 C 
ATOM     26  C   UNL     1      24.082 -18.407 -12.679  1.00  0.00     0.016 C 
ATOM     27  C   UNL     1      21.860 -17.904 -10.068  1.00  0.00     0.063 C 
ATOM     28  C   UNL     1      24.361 -18.338  -9.610  1.00  0.00     0.033 C 
ATOM     29  C   UNL     1      23.193 -17.325  -9.570  1.00  0.00     0.118 C 
BRANCH  29  30
ATOM     30  O   UNL     1      23.526 -16.177 -10.310  1.00  0.00    -0.393 OA
ATOM     31  H   UNL     1      22.939 -15.442  -9.989  1.00  0.00     0.210 HD
ENDBRANCH  29  30
ENDBRANCH   9  11
ENDBRANCH   1   9
TORSDOF 7
ENDMDL
MODEL 7
REMARK VINA RESULT:    -6.842      1.801      3.868
REMARK INTER + INTRA:         -11.551
REMARK INTER:                 -10.246
REMARK INTRA:                  -1.305
REMARK UNBOUND:                -2.109
REMARK SMILES CC[C@@H](CC[C@H](C)[C@@H]1CC[C@H]2[C@@H]3CC=C4C[C@H](O)CC[C@@]4(C)[C@H]3CC[C@@]21C)C(C)C
REMARK SMILES IDX 5 1 4 2 3 3 2 4 1 5 28 6 29 7 30 8 6 9 7 10 8 11 9 12 26 13
REMARK SMILES IDX 10 14 11 15 25 16 27 17 12 18 24 19 23 20 13 21 21 22 14 23
REMARK SMILES IDX 15 24 20 25 22 26 16 27 19 28 17 29 18 30
REMARK H PARENT 18 31
REMARK Flexibility Score: inf
ROOT
ATOM      1  C   UNL     1      23.195 -20.268 -10.029  1.00  0.00     0.004 C 
ENDROOT
BRANCH   1   2
ATOM      2  C   UNL     1      23.380 -18.733 -10.042  1.00  0.00     0.004 C 
BRANCH   2   3
ATOM      3  C   UNL     1      22.060 -17.926 -10.232  1.00  0.00    -0.009 C 
BRANCH   3   4
ATOM      4  C   UNL     1      21.567 -17.932 -11.709  1.00  0.00     0.000 C 
ATOM      5  C   UNL     1      20.288 -18.739 -11.940  1.00  0.00     0.004 C 
ENDBRANCH   3   4
BRANCH   3   6
ATOM      6  C   UNL     1      22.144 -16.467  -9.659  1.00  0.00    -0.014 C 
ATOM      7  C   UNL     1      23.522 -16.166  -9.038  1.00  0.00     0.007 C 
ATOM      8  C   UNL     1      21.852 -15.401 -10.734  1.00  0.00     0.007 C 
ENDBRANCH   3   6
ENDBRANCH   2   3
ENDBRANCH   1   2
BRANCH   1   9
ATOM      9  C   UNL     1      23.796 -20.990 -11.277  1.00  0.00    -0.011 C 
ATOM     10  C   UNL     1      24.755 -20.007 -12.000  1.00  0.00     0.008 C 
BRANCH   9  11
ATOM     11  C   UNL     1      22.718 -21.588 -12.263  1.00  0.00    -0.002 C 
ATOM     12  C   UNL     1      21.402 -22.048 -11.552  1.00  0.00     0.005 C 
ATOM     13  C   UNL     1      23.132 -22.847 -13.114  1.00  0.00    -0.026 C 
ATOM     14  C   UNL     1      21.182 -23.530 -11.866  1.00  0.00     0.005 C 
ATOM     15  C   UNL     1      22.555 -24.004 -12.282  1.00  0.00    -0.001 C 
ATOM     16  C   UNL     1      24.641 -23.147 -13.324  1.00  0.00     0.007 C 
ATOM     17  C   UNL     1      22.452 -22.690 -14.515  1.00  0.00     0.012 C 
ATOM     18  C   UNL     1      22.663 -25.377 -12.987  1.00  0.00     0.000 C 
ATOM     19  C   UNL     1      24.872 -24.519 -14.003  1.00  0.00     0.005 C 
ATOM     20  C   UNL     1      24.162 -25.688 -13.257  1.00  0.00     0.003 C 
ATOM     21  C   UNL     1      22.109 -26.507 -12.109  1.00  0.00     0.031 C 
ATOM     22  C   UNL     1      24.407 -27.151 -13.859  1.00  0.00    -0.008 C 
ATOM     23  C   UNL     1      22.155 -27.781 -12.890  1.00  0.00    -0.027 C 
ATOM     24  C   UNL     1      23.157 -28.052 -13.753  1.00  0.00    -0.065 C 
ATOM     25  C   UNL     1      24.812 -27.107 -15.361  1.00  0.00     0.014 C 
ATOM     26  C   UNL     1      25.551 -27.796 -13.032  1.00  0.00     0.016 C 
ATOM     27  C   UNL     1      22.878 -29.116 -14.799  1.00  0.00     0.063 C 
ATOM     28  C   UNL     1      25.075 -28.487 -15.997  1.00  0.00     0.033 C 
ATOM     29  C   UNL     1      24.128 -29.621 -15.536  1.00  0.00     0.118 C 
BRANCH  29  30
ATOM     30  O   UNL     1      24.828 -30.534 -14.729  1.00  0.00    -0.393 OA
ATOM     31  H   UNL     1      25.484 -30.998 -15.313  1.00  0.00     0.210 HD
ENDBRANCH  29  30
ENDBRANCH   9  11
ENDBRANCH   1   9
TORSDOF 7
ENDMDL
MODEL 8
REMARK VINA RESULT:    -6.828      2.541      7.359
REMARK INTER + INTRA:         -11.532
REMARK INTER:                  -8.999
REMARK INTRA:                  -2.533
REMARK UNBOUND:                -2.109
REMARK SMILES CC[C@@H](CC[C@H](C)[C@@H]1CC[C@H]2[C@@H]3CC=C4C[C@H](O)CC[C@@]4(C)[C@H]3CC[C@@]21C)C(C)C
REMARK SMILES IDX 5 1 4 2 3 3 2 4 1 5 28 6 29 7 30 8 6 9 7 10 8 11 9 12 26 13
REMARK SMILES IDX 10 14 11 15 25 16 27 17 12 18 24 19 23 20 13 21 21 22 14 23
REMARK SMILES IDX 15 24 20 25 22 26 16 27 19 28 17 29 18 30
REMARK H PARENT 18 31
REMARK Flexibility Score: inf
ROOT
ATOM      1  C   UNL     1      22.769 -27.158 -13.193  1.00  0.00     0.004 C 
ENDROOT
BRANCH   1   2
ATOM      2  C   UNL     1      21.835 -27.378 -11.981  1.00  0.00     0.004 C 
BRANCH   2   3
ATOM      3  C   UNL     1      20.624 -26.398 -11.913  1.00  0.00    -0.009 C 
BRANCH   3   4
ATOM      4  C   UNL     1      20.647 -25.514 -10.632  1.00  0.00     0.000 C 
ATOM      5  C   UNL     1      21.293 -24.141 -10.828  1.00  0.00     0.004 C 
ENDBRANCH   3   4
BRANCH   3   6
ATOM      6  C   UNL     1      19.240 -27.117 -12.092  1.00  0.00    -0.014 C 
ATOM      7  C   UNL     1      18.536 -26.703 -13.399  1.00  0.00     0.007 C 
ATOM      8  C   UNL     1      19.377 -28.653 -12.078  1.00  0.00     0.007 C 
ENDBRANCH   3   6
ENDBRANCH   2   3
ENDBRANCH   1   2
BRANCH   1   9
ATOM      9  C   UNL     1      22.132 -26.308 -14.339  1.00  0.00    -0.011 C 
ATOM     10  C   UNL     1      21.609 -27.275 -15.435  1.00  0.00     0.008 C 
BRANCH   9  11
ATOM     11  C   UNL     1      23.089 -25.205 -14.938  1.00  0.00    -0.002 C 
ATOM     12  C   UNL     1      24.529 -25.223 -14.327  1.00  0.00     0.005 C 
ATOM     13  C   UNL     1      22.646 -23.702 -14.789  1.00  0.00    -0.026 C 
ATOM     14  C   UNL     1      24.811 -23.843 -13.728  1.00  0.00     0.005 C 
ATOM     15  C   UNL     1      23.430 -23.256 -13.543  1.00  0.00    -0.001 C 
ATOM     16  C   UNL     1      21.151 -23.383 -14.522  1.00  0.00     0.007 C 
ATOM     17  C   UNL     1      23.091 -22.966 -16.097  1.00  0.00     0.012 C 
ATOM     18  C   UNL     1      23.321 -21.739 -13.262  1.00  0.00     0.000 C 
ATOM     19  C   UNL     1      20.924 -21.885 -14.200  1.00  0.00     0.005 C 
ATOM     20  C   UNL     1      21.826 -21.375 -13.037  1.00  0.00     0.003 C 
ATOM     21  C   UNL     1      24.086 -21.344 -11.992  1.00  0.00     0.031 C 
ATOM     22  C   UNL     1      21.604 -19.852 -12.599  1.00  0.00    -0.008 C 
ATOM     23  C   UNL     1      24.019 -19.858 -11.840  1.00  0.00    -0.027 C 
ATOM     24  C   UNL     1      22.921 -19.155 -12.189  1.00  0.00    -0.065 C 
ATOM     25  C   UNL     1      20.973 -18.999 -13.738  1.00  0.00     0.014 C 
ATOM     26  C   UNL     1      20.652 -19.866 -11.373  1.00  0.00     0.016 C 
ATOM     27  C   UNL     1      23.116 -17.669 -12.424  1.00  0.00     0.063 C 
ATOM     28  C   UNL     1      20.721 -17.522 -13.372  1.00  0.00     0.033 C 
ATOM     29  C   UNL     1      21.810 -16.862 -12.494  1.00  0.00     0.118 C 
BRANCH  29  30
ATOM     30  O   UNL     1      21.314 -16.637 -11.198  1.00  0.00    -0.393 OA
ATOM     31  H   UNL     1      22.019 -16.151 -10.695  1.00  0.00     0.210 HD
ENDBRANCH  29  30
ENDBRANCH   9  11
ENDBRANCH   1   9
TORSDOF 7
ENDMDL
MODEL 9
REMARK VINA RESULT:    -6.778      1.535      2.804
REMARK INTER + INTRA:         -11.463
REMARK INTER:                  -9.627
REMARK INTRA:                  -1.836
REMARK UNBOUND:                -2.109
REMARK SMILES CC[C@@H](CC[C@H](C)[C@@H]1CC[C@H]2[C@@H]3CC=C4C[C@H](O)CC[C@@]4(C)[C@H]3CC[C@@]21C)C(C)C
REMARK SMILES IDX 5 1 4 2 3 3 2 4 1 5 28 6 29 7 30 8 6 9 7 10 8 11 9 12 26 13
REMARK SMILES IDX 10 14 11 15 25 16 27 17 12 18 24 19 23 20 13 21 21 22 14 23
REMARK SMILES IDX 15 24 20 25 22 26 16 27 19 28 17 29 18 30
REMARK H PARENT 18 31
REMARK Flexibility Score: inf
ROOT
ATOM      1  C   UNL     1      23.735 -19.906 -12.894  1.00  0.00     0.004 C 
ENDROOT
BRANCH   1   2
ATOM      2  C   UNL     1      23.936 -18.499 -12.287  1.00  0.00     0.004 C 
BRANCH   2   3
ATOM      3  C   UNL     1      23.821 -18.444 -10.734  1.00  0.00    -0.009 C 
BRANCH   3   4
ATOM      4  C   UNL     1      23.507 -19.835 -10.112  1.00  0.00     0.000 C 
ATOM      5  C   UNL     1      24.696 -20.489  -9.403  1.00  0.00     0.004 C 
ENDBRANCH   3   4
BRANCH   3   6
ATOM      6  C   UNL     1      22.816 -17.347 -10.230  1.00  0.00    -0.014 C 
ATOM      7  C   UNL     1      21.735 -17.025 -11.281  1.00  0.00     0.007 C 
ATOM      8  C   UNL     1      22.115 -17.759  -8.920  1.00  0.00     0.007 C 
ENDBRANCH   3   6
ENDBRANCH   2   3
ENDBRANCH   1   2
BRANCH   1   9
ATOM      9  C   UNL     1      22.767 -19.937 -14.120  1.00  0.00    -0.011 C 
ATOM     10  C   UNL     1      22.641 -18.496 -14.683  1.00  0.00     0.008 C 
BRANCH   9  11
ATOM     11  C   UNL     1      21.354 -20.572 -13.816  1.00  0.00    -0.002 C 
ATOM     12  C   UNL     1      20.846 -20.308 -12.360  1.00  0.00     0.005 C 
ATOM     13  C   UNL     1      21.211 -22.132 -13.976  1.00  0.00    -0.026 C 
ATOM     14  C   UNL     1      20.584 -21.660 -11.692  1.00  0.00     0.005 C 
ATOM     15  C   UNL     1      21.393 -22.624 -12.530  1.00  0.00    -0.001 C 
ATOM     16  C   UNL     1      22.244 -22.895 -14.848  1.00  0.00     0.007 C 
ATOM     17  C   UNL     1      19.778 -22.399 -14.545  1.00  0.00     0.012 C 
ATOM     18  C   UNL     1      21.120 -24.136 -12.359  1.00  0.00     0.000 C 
ATOM     19  C   UNL     1      22.081 -24.431 -14.733  1.00  0.00     0.005 C 
ATOM     20  C   UNL     1      22.107 -24.932 -13.258  1.00  0.00     0.003 C 
ATOM     21  C   UNL     1      21.348 -24.591 -10.911  1.00  0.00     0.031 C 
ATOM     22  C   UNL     1      22.012 -26.517 -13.058  1.00  0.00    -0.008 C 
ATOM     23  C   UNL     1      20.970 -26.034 -10.802  1.00  0.00    -0.027 C 
ATOM     24  C   UNL     1      21.195 -26.907 -11.806  1.00  0.00    -0.065 C 
ATOM     25  C   UNL     1      21.346 -27.223 -14.275  1.00  0.00     0.014 C 
ATOM     26  C   UNL     1      23.462 -27.041 -12.884  1.00  0.00     0.016 C 
ATOM     27  C   UNL     1      20.385 -28.190 -11.779  1.00  0.00     0.063 C 
ATOM     28  C   UNL     1      21.235 -28.756 -14.148  1.00  0.00     0.033 C 
ATOM     29  C   UNL     1      20.896 -29.281 -12.733  1.00  0.00     0.118 C 
BRANCH  29  30
ATOM     30  O   UNL     1      22.016 -29.923 -12.176  1.00  0.00    -0.393 OA
ATOM     31  H   UNL     1      22.619 -30.162 -12.928  1.00  0.00     0.210 HD
ENDBRANCH  29  30
ENDBRANCH   9  11
ENDBRANCH   1   9
TORSDOF 7
ENDMDL
