MODEL 1
REMARK VINA RESULT:    -4.446      0.000      0.000
REMARK INTER + INTRA:          -9.403
REMARK INTER:                  -8.345
REMARK INTRA:                  -1.058
REMARK UNBOUND:                -1.058
REMARK SMILES CCCCCCCCC=CCCCCCCCC(=O)[O-]
REMARK SMILES IDX 10 1 9 2 11 3 12 4 13 5 14 6 15 7 16 8 17 9 18 10 19 11
REMARK SMILES IDX 20 12 8 13 7 14 6 15 5 16 4 17 3 18 2 19 1 20
REMARK H PARENT
REMARK Flexibility Score: inf
ROOT
ATOM      1  C   UNL     1      11.195  16.217  25.598  1.00  0.00    -0.031 C 
ATOM      2  C   UNL     1      11.919  15.744  26.629  1.00  0.00    -0.031 C 
ENDROOT
BRANCH   1   3
ATOM      3  C   UNL     1      11.144  17.665  25.177  1.00  0.00     0.027 C 
BRANCH   3   4
ATOM      4  C   UNL     1      11.461  17.839  23.685  1.00  0.00     0.004 C 
BRANCH   4   5
ATOM      5  C   UNL     1      12.941  17.568  23.371  1.00  0.00     0.000 C 
BRANCH   5   6
ATOM      6  C   UNL     1      13.848  18.125  24.476  1.00  0.00     0.000 C 
BRANCH   6   7
ATOM      7  C   UNL     1      15.096  17.248  24.656  1.00  0.00     0.000 C 
BRANCH   7   8
ATOM      8  C   UNL     1      16.160  17.894  25.562  1.00  0.00     0.006 C 
BRANCH   8   9
ATOM      9  C   UNL     1      16.842  16.908  26.527  1.00  0.00     0.053 C 
BRANCH   9  10
ATOM     10  C   UNL     1      18.329  16.855  26.347  1.00  0.00     0.041 C 
ATOM     11  O   UNL     1      18.830  16.834  25.192  1.00  0.00    -0.550 OA
ATOM     12  O   UNL     1      19.164  16.860  27.457  1.00  0.00    -0.550 OA
ENDBRANCH   9  10
ENDBRANCH   8   9
ENDBRANCH   7   8
ENDBRANCH   6   7
ENDBRANCH   5   6
ENDBRANCH   4   5
ENDBRANCH   3   4
ENDBRANCH   1   3
BRANCH   2  13
ATOM     13  C   UNL     1      12.714  16.599  27.586  1.00  0.00     0.027 C 
BRANCH  13  14
ATOM     14  C   UNL     1      13.284  15.778  28.757  1.00  0.00     0.004 C 
BRANCH  14  15
ATOM     15  C   UNL     1      14.819  15.643  28.747  1.00  0.00     0.000 C 
BRANCH  15  16
ATOM     16  C   UNL     1      15.420  14.981  30.001  1.00  0.00     0.000 C 
BRANCH  16  17
ATOM     17  C   UNL     1      14.396  14.753  31.134  1.00  0.00    -0.000 C 
BRANCH  17  18
ATOM     18  C   UNL     1      14.557  13.374  31.797  1.00  0.00    -0.000 C 
BRANCH  18  19
ATOM     19  C   UNL     1      15.643  12.518  31.128  1.00  0.00    -0.003 C 
ATOM     20  C   UNL     1      15.197  11.938  29.786  1.00  0.00     0.004 C 
ENDBRANCH  18  19
ENDBRANCH  17  18
ENDBRANCH  16  17
ENDBRANCH  15  16
ENDBRANCH  14  15
ENDBRANCH  13  14
ENDBRANCH   2  13
TORSDOF 15
ENDMDL
MODEL 2
REMARK VINA RESULT:    -4.359      1.247      2.633
REMARK INTER + INTRA:          -9.239
REMARK INTER:                  -8.568
REMARK INTRA:                  -0.671
REMARK UNBOUND:                -1.058
REMARK SMILES CCCCCCCCC=CCCCCCCCC(=O)[O-]
REMARK SMILES IDX 10 1 9 2 11 3 12 4 13 5 14 6 15 7 16 8 17 9 18 10 19 11
REMARK SMILES IDX 20 12 8 13 7 14 6 15 5 16 4 17 3 18 2 19 1 20
REMARK H PARENT
REMARK Flexibility Score: inf
ROOT
ATOM      1  C   UNL     1      12.872  17.076  23.678  1.00  0.00    -0.031 C 
ATOM      2  C   UNL     1      12.081  16.471  24.583  1.00  0.00    -0.031 C 
ENDROOT
BRANCH   1   3
ATOM      3  C   UNL     1      13.957  18.069  24.012  1.00  0.00     0.027 C 
BRANCH   3   4
ATOM      4  C   UNL     1      14.701  17.693  25.302  1.00  0.00     0.004 C 
BRANCH   4   5
ATOM      5  C   UNL     1      16.178  18.116  25.264  1.00  0.00     0.000 C 
BRANCH   5   6
ATOM      6  C   UNL     1      16.774  17.904  23.867  1.00  0.00     0.000 C 
BRANCH   6   7
ATOM      7  C   UNL     1      18.294  18.125  23.879  1.00  0.00     0.000 C 
BRANCH   7   8
ATOM      8  C   UNL     1      19.048  17.086  24.730  1.00  0.00     0.006 C 
BRANCH   8   9
ATOM      9  C   UNL     1      19.683  17.666  26.006  1.00  0.00     0.053 C 
BRANCH   9  10
ATOM     10  C   UNL     1      19.220  16.974  27.251  1.00  0.00     0.041 C 
ATOM     11  O   UNL     1      19.929  16.991  28.291  1.00  0.00    -0.550 OA
ATOM     12  O   UNL     1      17.986  16.335  27.272  1.00  0.00    -0.550 OA
ENDBRANCH   9  10
ENDBRANCH   8   9
ENDBRANCH   7   8
ENDBRANCH   6   7
ENDBRANCH   5   6
ENDBRANCH   4   5
ENDBRANCH   3   4
ENDBRANCH   1   3
BRANCH   2  13
ATOM     13  C   UNL     1      12.087  16.766  26.064  1.00  0.00     0.027 C 
BRANCH  13  14
ATOM     14  C   UNL     1      12.202  15.484  26.907  1.00  0.00     0.004 C 
BRANCH  14  15
ATOM     15  C   UNL     1      12.972  15.664  28.230  1.00  0.00     0.000 C 
BRANCH  15  16
ATOM     16  C   UNL     1      14.506  15.676  28.092  1.00  0.00     0.000 C 
BRANCH  16  17
ATOM     17  C   UNL     1      15.244  15.100  29.320  1.00  0.00    -0.000 C 
BRANCH  17  18
ATOM     18  C   UNL     1      14.974  13.598  29.512  1.00  0.00    -0.000 C 
BRANCH  18  19
ATOM     19  C   UNL     1      15.098  13.157  30.978  1.00  0.00    -0.003 C 
ATOM     20  C   UNL     1      14.387  14.103  31.944  1.00  0.00     0.004 C 
ENDBRANCH  18  19
ENDBRANCH  17  18
ENDBRANCH  16  17
ENDBRANCH  15  16
ENDBRANCH  14  15
ENDBRANCH  13  14
ENDBRANCH   2  13
TORSDOF 15
ENDMDL
MODEL 3
REMARK VINA RESULT:    -4.264      2.202      6.262
REMARK INTER + INTRA:          -9.061
REMARK INTER:                  -7.749
REMARK INTRA:                  -1.313
REMARK UNBOUND:                -1.058
REMARK SMILES CCCCCCCCC=CCCCCCCCC(=O)[O-]
REMARK SMILES IDX 10 1 9 2 11 3 12 4 13 5 14 6 15 7 16 8 17 9 18 10 19 11
REMARK SMILES IDX 20 12 8 13 7 14 6 15 5 16 4 17 3 18 2 19 1 20
REMARK H PARENT
REMARK Flexibility Score: inf
ROOT
ATOM      1  C   UNL     1      12.680  15.779  27.195  1.00  0.00    -0.031 C 
ATOM      2  C   UNL     1      11.973  16.287  26.169  1.00  0.00    -0.031 C 
ENDROOT
BRANCH   1   3
ATOM      3  C   UNL     1      13.700  16.547  27.999  1.00  0.00     0.027 C 
BRANCH   3   4
ATOM      4  C   UNL     1      14.956  15.711  28.282  1.00  0.00     0.004 C 
BRANCH   4   5
ATOM      5  C   UNL     1      15.208  15.533  29.788  1.00  0.00     0.000 C 
BRANCH   5   6
ATOM      6  C   UNL     1      14.115  14.669  30.430  1.00  0.00     0.000 C 
BRANCH   6   7
ATOM      7  C   UNL     1      14.704  13.755  31.514  1.00  0.00     0.000 C 
BRANCH   7   8
ATOM      8  C   UNL     1      15.634  12.667  30.947  1.00  0.00     0.006 C 
BRANCH   8   9
ATOM      9  C   UNL     1      14.938  11.692  29.980  1.00  0.00     0.053 C 
BRANCH   9  10
ATOM     10  C   UNL     1      15.540  11.708  28.608  1.00  0.00     0.041 C 
ATOM     11  O   UNL     1      15.825  12.801  28.050  1.00  0.00    -0.550 OA
ATOM     12  O   UNL     1      15.817  10.513  27.956  1.00  0.00    -0.550 OA
ENDBRANCH   9  10
ENDBRANCH   8   9
ENDBRANCH   7   8
ENDBRANCH   6   7
ENDBRANCH   5   6
ENDBRANCH   4   5
ENDBRANCH   3   4
ENDBRANCH   1   3
BRANCH   2  13
ATOM     13  C   UNL     1      12.159  17.672  25.598  1.00  0.00     0.027 C 
BRANCH  13  14
ATOM     14  C   UNL     1      12.742  17.636  24.175  1.00  0.00     0.004 C 
BRANCH  14  15
ATOM     15  C   UNL     1      14.200  18.125  24.076  1.00  0.00     0.000 C 
BRANCH  15  16
ATOM     16  C   UNL     1      15.209  17.337  24.932  1.00  0.00     0.000 C 
BRANCH  16  17
ATOM     17  C   UNL     1      16.520  18.103  25.211  1.00  0.00    -0.000 C 
BRANCH  17  18
ATOM     18  C   UNL     1      17.536  17.254  25.994  1.00  0.00    -0.000 C 
BRANCH  18  19
ATOM     19  C   UNL     1      18.971  17.416  25.471  1.00  0.00    -0.003 C 
ATOM     20  C   UNL     1      19.052  17.391  23.945  1.00  0.00     0.004 C 
ENDBRANCH  18  19
ENDBRANCH  17  18
ENDBRANCH  16  17
ENDBRANCH  15  16
ENDBRANCH  14  15
ENDBRANCH  13  14
ENDBRANCH   2  13
TORSDOF 15
ENDMDL
MODEL 4
REMARK VINA RESULT:    -3.469      3.230      6.519
REMARK INTER + INTRA:          -7.569
REMARK INTER:                  -6.701
REMARK INTRA:                  -0.868
REMARK UNBOUND:                -1.058
REMARK SMILES CCCCCCCCC=CCCCCCCCC(=O)[O-]
REMARK SMILES IDX 10 1 9 2 11 3 12 4 13 5 14 6 15 7 16 8 17 9 18 10 19 11
REMARK SMILES IDX 20 12 8 13 7 14 6 15 5 16 4 17 3 18 2 19 1 20
REMARK H PARENT
REMARK Flexibility Score: inf
ROOT
ATOM      1  C   UNL     1      14.393  14.901  28.731  1.00  0.00    -0.031 C 
ATOM      2  C   UNL     1      15.612  15.417  28.973  1.00  0.00    -0.031 C 
ENDROOT
BRANCH   1   3
ATOM      3  C   UNL     1      13.488  15.328  27.603  1.00  0.00     0.027 C 
BRANCH   3   4
ATOM      4  C   UNL     1      12.826  16.685  27.882  1.00  0.00     0.004 C 
BRANCH   4   5
ATOM      5  C   UNL     1      13.036  17.681  26.730  1.00  0.00     0.000 C 
BRANCH   5   6
ATOM      6  C   UNL     1      14.334  17.377  25.971  1.00  0.00     0.000 C 
BRANCH   6   7
ATOM      7  C   UNL     1      14.376  18.125  24.631  1.00  0.00     0.000 C 
BRANCH   7   8
ATOM      8  C   UNL     1      13.548  17.437  23.530  1.00  0.00     0.006 C 
BRANCH   8   9
ATOM      9  C   UNL     1      12.115  17.982  23.393  1.00  0.00     0.053 C 
BRANCH   9  10
ATOM     10  C   UNL     1      11.106  17.153  24.127  1.00  0.00     0.041 C 
ATOM     11  O   UNL     1      11.215  15.899  24.159  1.00  0.00    -0.550 OA
ATOM     12  O   UNL     1      10.061  17.769  24.805  1.00  0.00    -0.550 OA
ENDBRANCH   9  10
ENDBRANCH   8   9
ENDBRANCH   7   8
ENDBRANCH   6   7
ENDBRANCH   5   6
ENDBRANCH   4   5
ENDBRANCH   3   4
ENDBRANCH   1   3
BRANCH   2  13
ATOM     13  C   UNL     1      16.224  16.572  28.216  1.00  0.00     0.027 C 
BRANCH  13  14
ATOM     14  C   UNL     1      17.523  16.168  27.498  1.00  0.00     0.004 C 
BRANCH  14  15
ATOM     15  C   UNL     1      17.892  17.068  26.303  1.00  0.00     0.000 C 
BRANCH  15  16
ATOM     16  C   UNL     1      19.399  17.166  26.005  1.00  0.00     0.000 C 
BRANCH  16  17
ATOM     17  C   UNL     1      19.720  17.569  24.549  1.00  0.00    -0.000 C 
BRANCH  17  18
ATOM     18  C   UNL     1      18.469  18.034  23.784  1.00  0.00    -0.000 C 
BRANCH  18  19
ATOM     19  C   UNL     1      18.698  18.113  22.267  1.00  0.00    -0.003 C 
ATOM     20  C   UNL     1      20.012  17.466  21.832  1.00  0.00     0.004 C 
ENDBRANCH  18  19
ENDBRANCH  17  18
ENDBRANCH  16  17
ENDBRANCH  15  16
ENDBRANCH  14  15
ENDBRANCH  13  14
ENDBRANCH   2  13
TORSDOF 15
ENDMDL
MODEL 5
REMARK VINA RESULT:    -3.234      2.653      4.291
REMARK INTER + INTRA:          -7.127
REMARK INTER:                  -4.821
REMARK INTRA:                  -2.306
REMARK UNBOUND:                -1.058
REMARK SMILES CCCCCCCCC=CCCCCCCCC(=O)[O-]
REMARK SMILES IDX 10 1 9 2 11 3 12 4 13 5 14 6 15 7 16 8 17 9 18 10 19 11
REMARK SMILES IDX 20 12 8 13 7 14 6 15 5 16 4 17 3 18 2 19 1 20
REMARK H PARENT
REMARK Flexibility Score: inf
ROOT
ATOM      1  C   UNL     1      15.425  15.477  27.464  1.00  0.00    -0.031 C 
ATOM      2  C   UNL     1      14.081  15.421  27.487  1.00  0.00    -0.031 C 
ENDROOT
BRANCH   1   3
ATOM      3  C   UNL     1      16.247  16.619  28.009  1.00  0.00     0.027 C 
BRANCH   3   4
ATOM      4  C   UNL     1      17.373  17.024  27.047  1.00  0.00     0.004 C 
BRANCH   4   5
ATOM      5  C   UNL     1      17.001  16.770  25.578  1.00  0.00     0.000 C 
BRANCH   5   6
ATOM      6  C   UNL     1      16.433  18.038  24.928  1.00  0.00     0.000 C 
BRANCH   6   7
ATOM      7  C   UNL     1      14.912  18.124  25.126  1.00  0.00     0.000 C 
BRANCH   7   8
ATOM      8  C   UNL     1      14.131  17.154  24.222  1.00  0.00     0.006 C 
BRANCH   8   9
ATOM      9  C   UNL     1      12.728  17.654  23.834  1.00  0.00     0.053 C 
BRANCH   9  10
ATOM     10  C   UNL     1      11.639  16.996  24.625  1.00  0.00     0.041 C 
ATOM     11  O   UNL     1      10.752  17.692  25.189  1.00  0.00    -0.550 OA
ATOM     12  O   UNL     1      11.583  15.611  24.714  1.00  0.00    -0.550 OA
ENDBRANCH   9  10
ENDBRANCH   8   9
ENDBRANCH   7   8
ENDBRANCH   6   7
ENDBRANCH   5   6
ENDBRANCH   4   5
ENDBRANCH   3   4
ENDBRANCH   1   3
BRANCH   2  13
ATOM     13  C   UNL     1      13.181  16.534  27.970  1.00  0.00     0.027 C 
BRANCH  13  14
ATOM     14  C   UNL     1      12.884  16.423  29.476  1.00  0.00     0.004 C 
BRANCH  14  15
ATOM     15  C   UNL     1      12.954  14.988  30.031  1.00  0.00     0.000 C 
BRANCH  15  16
ATOM     16  C   UNL     1      13.946  14.787  31.191  1.00  0.00     0.000 C 
BRANCH  16  17
ATOM     17  C   UNL     1      15.308  14.209  30.751  1.00  0.00    -0.000 C 
BRANCH  17  18
ATOM     18  C   UNL     1      15.455  12.721  31.112  1.00  0.00    -0.000 C 
BRANCH  18  19
ATOM     19  C   UNL     1      14.981  11.789  29.988  1.00  0.00    -0.003 C 
ATOM     20  C   UNL     1      15.629  12.108  28.641  1.00  0.00     0.004 C 
ENDBRANCH  18  19
ENDBRANCH  17  18
ENDBRANCH  16  17
ENDBRANCH  15  16
ENDBRANCH  14  15
ENDBRANCH  13  14
ENDBRANCH   2  13
TORSDOF 15
ENDMDL
MODEL 6
REMARK VINA RESULT:    -3.184     17.436     19.765
REMARK INTER + INTRA:          -7.034
REMARK INTER:                  -6.174
REMARK INTRA:                  -0.860
REMARK UNBOUND:                -1.058
REMARK SMILES CCCCCCCCC=CCCCCCCCC(=O)[O-]
REMARK SMILES IDX 10 1 9 2 11 3 12 4 13 5 14 6 15 7 16 8 17 9 18 10 19 11
REMARK SMILES IDX 20 12 8 13 7 14 6 15 5 16 4 17 3 18 2 19 1 20
REMARK H PARENT
REMARK Flexibility Score: inf
ROOT
ATOM      1  C   UNL     1       4.691   3.363  32.613  1.00  0.00    -0.031 C 
ATOM      2  C   UNL     1       3.593   3.763  31.946  1.00  0.00    -0.031 C 
ENDROOT
BRANCH   1   3
ATOM      3  C   UNL     1       4.753   3.126  34.102  1.00  0.00     0.027 C 
BRANCH   3   4
ATOM      4  C   UNL     1       6.172   2.771  34.567  1.00  0.00     0.004 C 
BRANCH   4   5
ATOM      5  C   UNL     1       6.250   1.359  35.166  1.00  0.00     0.000 C 
BRANCH   5   6
ATOM      6  C   UNL     1       5.868   0.298  34.126  1.00  0.00     0.000 C 
BRANCH   6   7
ATOM      7  C   UNL     1       6.753  -0.949  34.260  1.00  0.00     0.000 C 
BRANCH   7   8
ATOM      8  C   UNL     1       7.324  -1.431  32.914  1.00  0.00     0.006 C 
BRANCH   8   9
ATOM      9  C   UNL     1       8.765  -0.965  32.643  1.00  0.00     0.053 C 
BRANCH   9  10
ATOM     10  C   UNL     1       9.209  -1.242  31.239  1.00  0.00     0.041 C 
ATOM     11  O   UNL     1      10.371  -1.670  31.011  1.00  0.00    -0.550 OA
ATOM     12  O   UNL     1       8.326  -1.057  30.182  1.00  0.00    -0.550 OA
ENDBRANCH   9  10
ENDBRANCH   8   9
ENDBRANCH   7   8
ENDBRANCH   6   7
ENDBRANCH   5   6
ENDBRANCH   4   5
ENDBRANCH   3   4
ENDBRANCH   1   3
BRANCH   2  13
ATOM     13  C   UNL     1       2.281   4.135  32.593  1.00  0.00     0.027 C 
BRANCH  13  14
ATOM     14  C   UNL     1       1.153   4.296  31.559  1.00  0.00     0.004 C 
BRANCH  14  15
ATOM     15  C   UNL     1      -0.123   3.496  31.884  1.00  0.00     0.000 C 
BRANCH  15  16
ATOM     16  C   UNL     1      -0.124   2.042  31.378  1.00  0.00     0.000 C 
BRANCH  16  17
ATOM     17  C   UNL     1       0.504   1.870  29.978  1.00  0.00    -0.000 C 
BRANCH  17  18
ATOM     18  C   UNL     1      -0.103   0.686  29.207  1.00  0.00    -0.000 C 
BRANCH  18  19
ATOM     19  C   UNL     1       0.254  -0.672  29.829  1.00  0.00    -0.003 C 
ATOM     20  C   UNL     1       0.155  -1.825  28.832  1.00  0.00     0.004 C 
ENDBRANCH  18  19
ENDBRANCH  17  18
ENDBRANCH  16  17
ENDBRANCH  15  16
ENDBRANCH  14  15
ENDBRANCH  13  14
ENDBRANCH   2  13
TORSDOF 15
ENDMDL
MODEL 7
REMARK VINA RESULT:    -2.426      2.232      6.656
REMARK INTER + INTRA:          -5.611
REMARK INTER:                  -3.822
REMARK INTRA:                  -1.788
REMARK UNBOUND:                -1.058
REMARK SMILES CCCCCCCCC=CCCCCCCCC(=O)[O-]
REMARK SMILES IDX 10 1 9 2 11 3 12 4 13 5 14 6 15 7 16 8 17 9 18 10 19 11
REMARK SMILES IDX 20 12 8 13 7 14 6 15 5 16 4 17 3 18 2 19 1 20
REMARK H PARENT
REMARK Flexibility Score: inf
ROOT
ATOM      1  C   UNL     1      13.122  16.885  27.991  1.00  0.00    -0.031 C 
ATOM      2  C   UNL     1      13.992  17.811  27.549  1.00  0.00    -0.031 C 
ENDROOT
BRANCH   1   3
ATOM      3  C   UNL     1      13.475  15.450  28.294  1.00  0.00     0.027 C 
BRANCH   3   4
ATOM      4  C   UNL     1      14.327  15.325  29.565  1.00  0.00     0.004 C 
BRANCH   4   5
ATOM      5  C   UNL     1      13.465  15.135  30.824  1.00  0.00     0.000 C 
BRANCH   5   6
ATOM      6  C   UNL     1      13.955  13.938  31.649  1.00  0.00     0.000 C 
BRANCH   6   7
ATOM      7  C   UNL     1      15.483  13.803  31.568  1.00  0.00     0.000 C 
BRANCH   7   8
ATOM      8  C   UNL     1      15.939  12.455  30.980  1.00  0.00     0.006 C 
BRANCH   8   9
ATOM      9  C   UNL     1      14.936  11.833  29.992  1.00  0.00     0.053 C 
BRANCH   9  10
ATOM     10  C   UNL     1      15.450  11.808  28.584  1.00  0.00     0.041 C 
ATOM     11  O   UNL     1      15.664  12.883  27.965  1.00  0.00    -0.550 OA
ATOM     12  O   UNL     1      15.725  10.594  27.967  1.00  0.00    -0.550 OA
ENDBRANCH   9  10
ENDBRANCH   8   9
ENDBRANCH   7   8
ENDBRANCH   6   7
ENDBRANCH   5   6
ENDBRANCH   4   5
ENDBRANCH   3   4
ENDBRANCH   1   3
BRANCH   2  13
ATOM     13  C   UNL     1      15.434  17.537  27.192  1.00  0.00     0.027 C 
BRANCH  13  14
ATOM     14  C   UNL     1      15.579  16.979  25.766  1.00  0.00     0.004 C 
BRANCH  14  15
ATOM     15  C   UNL     1      15.282  18.002  24.652  1.00  0.00     0.000 C 
BRANCH  15  16
ATOM     16  C   UNL     1      13.882  17.886  24.021  1.00  0.00     0.000 C 
BRANCH  16  17
ATOM     17  C   UNL     1      13.210  16.515  24.249  1.00  0.00    -0.000 C 
BRANCH  17  18
ATOM     18  C   UNL     1      11.713  16.646  24.577  1.00  0.00    -0.000 C 
BRANCH  18  19
ATOM     19  C   UNL     1      11.315  18.078  24.966  1.00  0.00    -0.003 C 
ATOM     20  C   UNL     1      10.093  18.125  25.882  1.00  0.00     0.004 C 
ENDBRANCH  18  19
ENDBRANCH  17  18
ENDBRANCH  16  17
ENDBRANCH  15  16
ENDBRANCH  14  15
ENDBRANCH  13  14
ENDBRANCH   2  13
TORSDOF 15
ENDMDL
