MODEL 1
REMARK VINA RESULT:    -4.931      0.000      0.000
REMARK INTER + INTRA:         -18.319
REMARK INTER:                 -13.002
REMARK INTRA:                  -5.317
REMARK UNBOUND:                -5.317
REMARK SMILES CCCCCCCCCCCCCCCCCCCCCCCCCCCCCC(=O)[O-]
REMARK SMILES IDX 16 1 17 2 18 3 19 4 20 5 21 6 22 7 23 8 24 9 25 10 26 11
REMARK SMILES IDX 27 12 28 13 29 14 30 15 31 16 32 17 15 18 14 19 13 20 12 21
REMARK SMILES IDX 11 22 10 23 9 24 8 25 7 26 6 27 5 28 4 29 3 30 2 31 1 32
REMARK H PARENT
REMARK Flexibility Score: inf
ROOT
ATOM      1  C   UNL     1       9.386  15.545   5.197  1.00  0.00     0.000 C 
ENDROOT
BRANCH   1   2
ATOM      2  C   UNL     1      10.909  15.497   5.411  1.00  0.00     0.000 C 
BRANCH   2   3
ATOM      3  C   UNL     1      11.306  14.663   6.641  1.00  0.00     0.000 C 
BRANCH   3   4
ATOM      4  C   UNL     1      11.880  13.281   6.279  1.00  0.00     0.000 C 
BRANCH   4   5
ATOM      5  C   UNL     1      13.393  13.247   5.988  1.00  0.00     0.000 C 
BRANCH   5   6
ATOM      6  C   UNL     1      13.745  12.474   4.708  1.00  0.00     0.000 C 
BRANCH   6   7
ATOM      7  C   UNL     1      12.559  11.623   4.222  1.00  0.00     0.000 C 
BRANCH   7   8
ATOM      8  C   UNL     1      12.013  12.078   2.852  1.00  0.00     0.000 C 
BRANCH   8   9
ATOM      9  C   UNL     1      12.091  13.596   2.603  1.00  0.00     0.000 C 
BRANCH   9  10
ATOM     10  C   UNL     1      12.881  14.033   1.355  1.00  0.00     0.000 C 
BRANCH  10  11
ATOM     11  C   UNL     1      13.771  15.275   1.540  1.00  0.00     0.000 C 
BRANCH  11  12
ATOM     12  C   UNL     1      13.769  15.809   2.981  1.00  0.00     0.000 C 
BRANCH  12  13
ATOM     13  C   UNL     1      15.169  15.793   3.616  1.00  0.00     0.006 C 
BRANCH  13  14
ATOM     14  C   UNL     1      16.258  15.292   2.657  1.00  0.00     0.053 C 
BRANCH  14  15
ATOM     15  C   UNL     1      16.654  13.887   2.989  1.00  0.00     0.041 C 
ATOM     16  O   UNL     1      16.125  12.919   2.380  1.00  0.00    -0.550 OA
ATOM     17  O   UNL     1      17.583  13.644   3.995  1.00  0.00    -0.550 OA
ENDBRANCH  14  15
ENDBRANCH  13  14
ENDBRANCH  12  13
ENDBRANCH  11  12
ENDBRANCH  10  11
ENDBRANCH   9  10
ENDBRANCH   8   9
ENDBRANCH   7   8
ENDBRANCH   6   7
ENDBRANCH   5   6
ENDBRANCH   4   5
ENDBRANCH   3   4
ENDBRANCH   2   3
ENDBRANCH   1   2
BRANCH   1  18
ATOM     18  C   UNL     1       8.869  14.737   3.989  1.00  0.00     0.000 C 
BRANCH  18  19
ATOM     19  C   UNL     1       8.025  13.497   4.347  1.00  0.00     0.000 C 
BRANCH  19  20
ATOM     20  C   UNL     1       8.674  12.146   3.988  1.00  0.00     0.000 C 
BRANCH  20  21
ATOM     21  C   UNL     1       8.603  11.075   5.097  1.00  0.00     0.000 C 
BRANCH  21  22
ATOM     22  C   UNL     1       8.105  11.587   6.464  1.00  0.00     0.000 C 
BRANCH  22  23
ATOM     23  C   UNL     1       9.093  11.391   7.629  1.00  0.00     0.000 C 
BRANCH  23  24
ATOM     24  C   UNL     1       9.090  12.520   8.679  1.00  0.00    -0.000 C 
BRANCH  24  25
ATOM     25  C   UNL     1       8.099  13.661   8.360  1.00  0.00    -0.000 C 
BRANCH  25  26
ATOM     26  C   UNL     1       7.130  13.940   9.522  1.00  0.00    -0.000 C 
BRANCH  26  27
ATOM     27  C   UNL     1       7.196  12.862  10.617  1.00  0.00    -0.000 C 
BRANCH  27  28
ATOM     28  C   UNL     1       7.522  13.449  12.002  1.00  0.00    -0.000 C 
BRANCH  28  29
ATOM     29  C   UNL     1       8.750  12.791  12.655  1.00  0.00    -0.000 C 
BRANCH  29  30
ATOM     30  C   UNL     1       8.696  11.255  12.749  1.00  0.00    -0.000 C 
BRANCH  30  31
ATOM     31  C   UNL     1       9.900  10.570  12.085  1.00  0.00    -0.003 C 
ATOM     32  C   UNL     1       9.458   9.673  10.934  1.00  0.00     0.004 C 
ENDBRANCH  30  31
ENDBRANCH  29  30
ENDBRANCH  28  29
ENDBRANCH  27  28
ENDBRANCH  26  27
ENDBRANCH  25  26
ENDBRANCH  24  25
ENDBRANCH  23  24
ENDBRANCH  22  23
ENDBRANCH  21  22
ENDBRANCH  20  21
ENDBRANCH  19  20
ENDBRANCH  18  19
ENDBRANCH   1  18
TORSDOF 28
ENDMDL
MODEL 2
REMARK VINA RESULT:    -4.912      2.258      4.494
REMARK INTER + INTRA:         -18.269
REMARK INTER:                 -12.495
REMARK INTRA:                  -5.774
REMARK UNBOUND:                -5.317
REMARK SMILES CCCCCCCCCCCCCCCCCCCCCCCCCCCCCC(=O)[O-]
REMARK SMILES IDX 16 1 17 2 18 3 19 4 20 5 21 6 22 7 23 8 24 9 25 10 26 11
REMARK SMILES IDX 27 12 28 13 29 14 30 15 31 16 32 17 15 18 14 19 13 20 12 21
REMARK SMILES IDX 11 22 10 23 9 24 8 25 7 26 6 27 5 28 4 29 3 30 2 31 1 32
REMARK H PARENT
REMARK Flexibility Score: inf
ROOT
ATOM      1  C   UNL     1      13.153  12.757   5.477  1.00  0.00     0.000 C 
ENDROOT
BRANCH   1   2
ATOM      2  C   UNL     1      14.515  13.016   4.808  1.00  0.00     0.000 C 
BRANCH   2   3
ATOM      3  C   UNL     1      14.437  12.965   3.272  1.00  0.00     0.000 C 
BRANCH   3   4
ATOM      4  C   UNL     1      13.001  12.789   2.742  1.00  0.00     0.000 C 
BRANCH   4   5
ATOM      5  C   UNL     1      12.800  13.120   1.251  1.00  0.00     0.000 C 
BRANCH   5   6
ATOM      6  C   UNL     1      13.831  14.122   0.710  1.00  0.00     0.000 C 
BRANCH   6   7
ATOM      7  C   UNL     1      13.155  15.418   0.228  1.00  0.00     0.000 C 
BRANCH   7   8
ATOM      8  C   UNL     1      11.657  15.489   0.594  1.00  0.00     0.000 C 
BRANCH   8   9
ATOM      9  C   UNL     1      11.353  16.253   1.896  1.00  0.00     0.000 C 
BRANCH   9  10
ATOM     10  C   UNL     1      12.500  17.116   2.453  1.00  0.00     0.000 C 
BRANCH  10  11
ATOM     11  C   UNL     1      13.235  16.529   3.672  1.00  0.00     0.000 C 
BRANCH  11  12
ATOM     12  C   UNL     1      14.764  16.526   3.509  1.00  0.00     0.000 C 
BRANCH  12  13
ATOM     13  C   UNL     1      15.245  17.528   2.448  1.00  0.00     0.006 C 
BRANCH  13  14
ATOM     14  C   UNL     1      16.337  16.957   1.533  1.00  0.00     0.053 C 
BRANCH  14  15
ATOM     15  C   UNL     1      16.364  17.679   0.222  1.00  0.00     0.041 C 
ATOM     16  O   UNL     1      16.779  18.868   0.161  1.00  0.00    -0.550 OA
ATOM     17  O   UNL     1      15.901  17.051  -0.929  1.00  0.00    -0.550 OA
ENDBRANCH  14  15
ENDBRANCH  13  14
ENDBRANCH  12  13
ENDBRANCH  11  12
ENDBRANCH  10  11
ENDBRANCH   9  10
ENDBRANCH   8   9
ENDBRANCH   7   8
ENDBRANCH   6   7
ENDBRANCH   5   6
ENDBRANCH   4   5
ENDBRANCH   3   4
ENDBRANCH   2   3
ENDBRANCH   1   2
BRANCH   1  18
ATOM     18  C   UNL     1      12.695  13.844   6.470  1.00  0.00     0.000 C 
BRANCH  18  19
ATOM     19  C   UNL     1      11.177  13.885   6.738  1.00  0.00     0.000 C 
BRANCH  19  20
ATOM     20  C   UNL     1      10.516  15.260   6.511  1.00  0.00     0.000 C 
BRANCH  20  21
ATOM     21  C   UNL     1       9.867  15.448   5.124  1.00  0.00     0.000 C 
BRANCH  21  22
ATOM     22  C   UNL     1       8.922  14.309   4.688  1.00  0.00     0.000 C 
BRANCH  22  23
ATOM     23  C   UNL     1       9.441  13.446   3.523  1.00  0.00     0.000 C 
BRANCH  23  24
ATOM     24  C   UNL     1       9.016  11.966   3.572  1.00  0.00    -0.000 C 
BRANCH  24  25
ATOM     25  C   UNL     1       8.465  11.524   4.946  1.00  0.00    -0.000 C 
BRANCH  25  26
ATOM     26  C   UNL     1       9.459  10.645   5.724  1.00  0.00    -0.000 C 
BRANCH  26  27
ATOM     27  C   UNL     1       9.450  10.940   7.234  1.00  0.00    -0.000 C 
BRANCH  27  28
ATOM     28  C   UNL     1       8.140  11.598   7.698  1.00  0.00    -0.000 C 
BRANCH  28  29
ATOM     29  C   UNL     1       8.268  12.281   9.071  1.00  0.00    -0.000 C 
BRANCH  29  30
ATOM     30  C   UNL     1       7.238  13.392   9.347  1.00  0.00    -0.000 C 
BRANCH  30  31
ATOM     31  C   UNL     1       7.494  14.665   8.525  1.00  0.00    -0.003 C 
ATOM     32  C   UNL     1       6.479  14.804   7.396  1.00  0.00     0.004 C 
ENDBRANCH  30  31
ENDBRANCH  29  30
ENDBRANCH  28  29
ENDBRANCH  27  28
ENDBRANCH  26  27
ENDBRANCH  25  26
ENDBRANCH  24  25
ENDBRANCH  23  24
ENDBRANCH  22  23
ENDBRANCH  21  22
ENDBRANCH  20  21
ENDBRANCH  19  20
ENDBRANCH  18  19
ENDBRANCH   1  18
TORSDOF 28
ENDMDL
MODEL 3
REMARK VINA RESULT:    -4.879      2.480      4.451
REMARK INTER + INTRA:         -18.183
REMARK INTER:                 -12.980
REMARK INTRA:                  -5.203
REMARK UNBOUND:                -5.317
REMARK SMILES CCCCCCCCCCCCCCCCCCCCCCCCCCCCCC(=O)[O-]
REMARK SMILES IDX 16 1 17 2 18 3 19 4 20 5 21 6 22 7 23 8 24 9 25 10 26 11
REMARK SMILES IDX 27 12 28 13 29 14 30 15 31 16 32 17 15 18 14 19 13 20 12 21
REMARK SMILES IDX 11 22 10 23 9 24 8 25 7 26 6 27 5 28 4 29 3 30 2 31 1 32
REMARK H PARENT
REMARK Flexibility Score: inf
ROOT
ATOM      1  C   UNL     1      12.023  11.783   4.535  1.00  0.00     0.000 C 
ENDROOT
BRANCH   1   2
ATOM      2  C   UNL     1      12.404  12.608   5.777  1.00  0.00     0.000 C 
BRANCH   2   3
ATOM      3  C   UNL     1      13.658  13.470   5.550  1.00  0.00     0.000 C 
BRANCH   3   4
ATOM      4  C   UNL     1      14.798  12.712   4.845  1.00  0.00     0.000 C 
BRANCH   4   5
ATOM      5  C   UNL     1      15.821  13.594   4.103  1.00  0.00     0.000 C 
BRANCH   5   6
ATOM      6  C   UNL     1      15.766  13.430   2.577  1.00  0.00     0.000 C 
BRANCH   6   7
ATOM      7  C   UNL     1      14.344  13.088   2.100  1.00  0.00     0.000 C 
BRANCH   7   8
ATOM      8  C   UNL     1      13.746  14.163   1.168  1.00  0.00     0.000 C 
BRANCH   8   9
ATOM      9  C   UNL     1      14.493  15.510   1.183  1.00  0.00     0.000 C 
BRANCH   9  10
ATOM     10  C   UNL     1      13.664  16.734   1.614  1.00  0.00     0.000 C 
BRANCH  10  11
ATOM     11  C   UNL     1      13.134  16.695   3.060  1.00  0.00     0.000 C 
BRANCH  11  12
ATOM     12  C   UNL     1      14.252  16.760   4.113  1.00  0.00     0.000 C 
BRANCH  12  13
ATOM     13  C   UNL     1      14.160  18.017   4.992  1.00  0.00     0.006 C 
BRANCH  13  14
ATOM     14  C   UNL     1      12.717  18.490   5.215  1.00  0.00     0.053 C 
BRANCH  14  15
ATOM     15  C   UNL     1      12.301  18.277   6.637  1.00  0.00     0.041 C 
ATOM     16  O   UNL     1      13.121  17.813   7.475  1.00  0.00    -0.550 OA
ATOM     17  O   UNL     1      10.998  18.558   7.032  1.00  0.00    -0.550 OA
ENDBRANCH  14  15
ENDBRANCH  13  14
ENDBRANCH  12  13
ENDBRANCH  11  12
ENDBRANCH  10  11
ENDBRANCH   9  10
ENDBRANCH   8   9
ENDBRANCH   7   8
ENDBRANCH   6   7
ENDBRANCH   5   6
ENDBRANCH   4   5
ENDBRANCH   3   4
ENDBRANCH   2   3
ENDBRANCH   1   2
BRANCH   1  18
ATOM     18  C   UNL     1      10.826  12.327   3.729  1.00  0.00     0.000 C 
BRANCH  18  19
ATOM     19  C   UNL     1       9.548  11.469   3.800  1.00  0.00     0.000 C 
BRANCH  19  20
ATOM     20  C   UNL     1       9.377  10.666   5.105  1.00  0.00     0.000 C 
BRANCH  20  21
ATOM     21  C   UNL     1       8.640  11.413   6.237  1.00  0.00     0.000 C 
BRANCH  21  22
ATOM     22  C   UNL     1       9.392  11.460   7.583  1.00  0.00     0.000 C 
BRANCH  22  23
ATOM     23  C   UNL     1       8.490  11.441   8.831  1.00  0.00     0.000 C 
BRANCH  23  24
ATOM     24  C   UNL     1       9.055  12.193  10.052  1.00  0.00    -0.000 C 
BRANCH  24  25
ATOM     25  C   UNL     1       8.039  13.148  10.717  1.00  0.00    -0.000 C 
BRANCH  25  26
ATOM     26  C   UNL     1       6.901  13.554   9.765  1.00  0.00    -0.000 C 
BRANCH  26  27
ATOM     27  C   UNL     1       7.244  14.804   8.936  1.00  0.00    -0.000 C 
BRANCH  27  28
ATOM     28  C   UNL     1       6.763  14.693   7.479  1.00  0.00    -0.000 C 
BRANCH  28  29
ATOM     29  C   UNL     1       7.855  15.064   6.460  1.00  0.00    -0.000 C 
BRANCH  29  30
ATOM     30  C   UNL     1       9.297  14.990   6.993  1.00  0.00    -0.000 C 
BRANCH  30  31
ATOM     31  C   UNL     1      10.351  15.306   5.919  1.00  0.00    -0.003 C 
ATOM     32  C   UNL     1       9.692  15.688   4.598  1.00  0.00     0.004 C 
ENDBRANCH  30  31
ENDBRANCH  29  30
ENDBRANCH  28  29
ENDBRANCH  27  28
ENDBRANCH  26  27
ENDBRANCH  25  26
ENDBRANCH  24  25
ENDBRANCH  23  24
ENDBRANCH  22  23
ENDBRANCH  21  22
ENDBRANCH  20  21
ENDBRANCH  19  20
ENDBRANCH  18  19
ENDBRANCH   1  18
TORSDOF 28
ENDMDL
MODEL 4
REMARK VINA RESULT:    -4.858      3.764      6.669
REMARK INTER + INTRA:         -18.126
REMARK INTER:                 -11.830
REMARK INTRA:                  -6.296
REMARK UNBOUND:                -5.317
REMARK SMILES CCCCCCCCCCCCCCCCCCCCCCCCCCCCCC(=O)[O-]
REMARK SMILES IDX 16 1 17 2 18 3 19 4 20 5 21 6 22 7 23 8 24 9 25 10 26 11
REMARK SMILES IDX 27 12 28 13 29 14 30 15 31 16 32 17 15 18 14 19 13 20 12 21
REMARK SMILES IDX 11 22 10 23 9 24 8 25 7 26 6 27 5 28 4 29 3 30 2 31 1 32
REMARK H PARENT
REMARK Flexibility Score: inf
ROOT
ATOM      1  C   UNL     1      13.425  13.678   1.057  1.00  0.00     0.000 C 
ENDROOT
BRANCH   1   2
ATOM      2  C   UNL     1      12.465  14.880   1.017  1.00  0.00     0.000 C 
BRANCH   2   3
ATOM      3  C   UNL     1      13.086  16.110   0.333  1.00  0.00     0.000 C 
BRANCH   3   4
ATOM      4  C   UNL     1      14.624  16.055   0.264  1.00  0.00     0.000 C 
BRANCH   4   5
ATOM      5  C   UNL     1      15.363  17.105   1.116  1.00  0.00     0.000 C 
BRANCH   5   6
ATOM      6  C   UNL     1      15.830  16.562   2.474  1.00  0.00     0.000 C 
BRANCH   6   7
ATOM      7  C   UNL     1      15.156  17.309   3.639  1.00  0.00     0.000 C 
BRANCH   7   8
ATOM      8  C   UNL     1      13.925  16.566   4.200  1.00  0.00     0.000 C 
BRANCH   8   9
ATOM      9  C   UNL     1      12.686  17.454   4.418  1.00  0.00     0.000 C 
BRANCH   9  10
ATOM     10  C   UNL     1      12.090  18.097   3.152  1.00  0.00     0.000 C 
BRANCH  10  11
ATOM     11  C   UNL     1      10.734  18.802   3.346  1.00  0.00     0.000 C 
BRANCH  11  12
ATOM     12  C   UNL     1       9.542  17.831   3.324  1.00  0.00     0.000 C 
BRANCH  12  13
ATOM     13  C   UNL     1       9.003  17.530   4.731  1.00  0.00     0.006 C 
BRANCH  13  14
ATOM     14  C   UNL     1       7.598  16.911   4.716  1.00  0.00     0.053 C 
BRANCH  14  15
ATOM     15  C   UNL     1       6.587  17.900   4.225  1.00  0.00     0.041 C 
ATOM     16  O   UNL     1       6.108  17.795   3.065  1.00  0.00    -0.550 OA
ATOM     17  O   UNL     1       6.197  18.960   5.038  1.00  0.00    -0.550 OA
ENDBRANCH  14  15
ENDBRANCH  13  14
ENDBRANCH  12  13
ENDBRANCH  11  12
ENDBRANCH  10  11
ENDBRANCH   9  10
ENDBRANCH   8   9
ENDBRANCH   7   8
ENDBRANCH   6   7
ENDBRANCH   5   6
ENDBRANCH   4   5
ENDBRANCH   3   4
ENDBRANCH   2   3
ENDBRANCH   1   2
BRANCH   1  18
ATOM     18  C   UNL     1      13.449  12.904   2.390  1.00  0.00     0.000 C 
BRANCH  18  19
ATOM     19  C   UNL     1      14.712  13.118   3.247  1.00  0.00     0.000 C 
BRANCH  19  20
ATOM     20  C   UNL     1      14.479  13.066   4.770  1.00  0.00     0.000 C 
BRANCH  20  21
ATOM     21  C   UNL     1      13.031  12.743   5.196  1.00  0.00     0.000 C 
BRANCH  21  22
ATOM     22  C   UNL     1      12.393  13.765   6.159  1.00  0.00     0.000 C 
BRANCH  22  23
ATOM     23  C   UNL     1      11.094  14.415   5.646  1.00  0.00     0.000 C 
BRANCH  23  24
ATOM     24  C   UNL     1      10.713  14.049   4.199  1.00  0.00    -0.000 C 
BRANCH  24  25
ATOM     25  C   UNL     1       9.200  13.809   3.998  1.00  0.00    -0.000 C 
BRANCH  25  26
ATOM     26  C   UNL     1       8.883  12.359   3.593  1.00  0.00    -0.000 C 
BRANCH  26  27
ATOM     27  C   UNL     1      10.124  11.452   3.627  1.00  0.00    -0.000 C 
BRANCH  27  28
ATOM     28  C   UNL     1      10.117  10.489   4.827  1.00  0.00    -0.000 C 
BRANCH  28  29
ATOM     29  C   UNL     1       8.942  10.740   5.787  1.00  0.00    -0.000 C 
BRANCH  29  30
ATOM     30  C   UNL     1       9.330  11.332   7.155  1.00  0.00    -0.000 C 
BRANCH  30  31
ATOM     31  C   UNL     1       8.539  12.602   7.506  1.00  0.00    -0.003 C 
ATOM     32  C   UNL     1       7.075  12.467   7.102  1.00  0.00     0.004 C 
ENDBRANCH  30  31
ENDBRANCH  29  30
ENDBRANCH  28  29
ENDBRANCH  27  28
ENDBRANCH  26  27
ENDBRANCH  25  26
ENDBRANCH  24  25
ENDBRANCH  23  24
ENDBRANCH  22  23
ENDBRANCH  21  22
ENDBRANCH  20  21
ENDBRANCH  19  20
ENDBRANCH  18  19
ENDBRANCH   1  18
TORSDOF 28
ENDMDL
MODEL 5
REMARK VINA RESULT:    -4.847      3.418      7.860
REMARK INTER + INTRA:         -18.099
REMARK INTER:                 -12.333
REMARK INTRA:                  -5.766
REMARK UNBOUND:                -5.317
REMARK SMILES CCCCCCCCCCCCCCCCCCCCCCCCCCCCCC(=O)[O-]
REMARK SMILES IDX 16 1 17 2 18 3 19 4 20 5 21 6 22 7 23 8 24 9 25 10 26 11
REMARK SMILES IDX 27 12 28 13 29 14 30 15 31 16 32 17 15 18 14 19 13 20 12 21
REMARK SMILES IDX 11 22 10 23 9 24 8 25 7 26 6 27 5 28 4 29 3 30 2 31 1 32
REMARK H PARENT
REMARK Flexibility Score: inf
ROOT
ATOM      1  C   UNL     1       9.296  14.856   4.593  1.00  0.00     0.000 C 
ENDROOT
BRANCH   1   2
ATOM      2  C   UNL     1      10.763  14.888   5.057  1.00  0.00     0.000 C 
BRANCH   2   3
ATOM      3  C   UNL     1      10.958  14.244   6.441  1.00  0.00     0.000 C 
BRANCH   3   4
ATOM      4  C   UNL     1      12.373  13.673   6.652  1.00  0.00     0.000 C 
BRANCH   4   5
ATOM      5  C   UNL     1      13.296  13.719   5.419  1.00  0.00     0.000 C 
BRANCH   5   6
ATOM      6  C   UNL     1      13.553  12.335   4.805  1.00  0.00     0.000 C 
BRANCH   6   7
ATOM      7  C   UNL     1      12.486  11.980   3.755  1.00  0.00     0.000 C 
BRANCH   7   8
ATOM      8  C   UNL     1      11.477  10.925   4.254  1.00  0.00     0.000 C 
BRANCH   8   9
ATOM      9  C   UNL     1       9.999  11.291   4.017  1.00  0.00     0.000 C 
BRANCH   9  10
ATOM     10  C   UNL     1       9.014  10.856   5.118  1.00  0.00     0.000 C 
BRANCH  10  11
ATOM     11  C   UNL     1       9.602  10.787   6.539  1.00  0.00     0.000 C 
BRANCH  11  12
ATOM     12  C   UNL     1       8.815  11.629   7.557  1.00  0.00     0.000 C 
BRANCH  12  13
ATOM     13  C   UNL     1       7.713  12.473   6.896  1.00  0.00     0.006 C 
BRANCH  13  14
ATOM     14  C   UNL     1       6.751  13.105   7.912  1.00  0.00     0.053 C 
BRANCH  14  15
ATOM     15  C   UNL     1       7.162  14.509   8.231  1.00  0.00     0.041 C 
ATOM     16  O   UNL     1       7.227  15.374   7.316  1.00  0.00    -0.550 OA
ATOM     17  O   UNL     1       7.507  14.855   9.533  1.00  0.00    -0.550 OA
ENDBRANCH  14  15
ENDBRANCH  13  14
ENDBRANCH  12  13
ENDBRANCH  11  12
ENDBRANCH  10  11
ENDBRANCH   9  10
ENDBRANCH   8   9
ENDBRANCH   7   8
ENDBRANCH   6   7
ENDBRANCH   5   6
ENDBRANCH   4   5
ENDBRANCH   3   4
ENDBRANCH   2   3
ENDBRANCH   1   2
BRANCH   1  18
ATOM     18  C   UNL     1       8.822  16.114   3.838  1.00  0.00     0.000 C 
BRANCH  18  19
ATOM     19  C   UNL     1       9.890  16.787   2.953  1.00  0.00     0.000 C 
BRANCH  19  20
ATOM     20  C   UNL     1       9.756  16.503   1.444  1.00  0.00     0.000 C 
BRANCH  20  21
ATOM     21  C   UNL     1      10.989  15.842   0.793  1.00  0.00     0.000 C 
BRANCH  21  22
ATOM     22  C   UNL     1      11.960  15.162   1.781  1.00  0.00     0.000 C 
BRANCH  22  23
ATOM     23  C   UNL     1      13.137  14.417   1.124  1.00  0.00     0.000 C 
BRANCH  23  24
ATOM     24  C   UNL     1      14.069  15.300   0.272  1.00  0.00    -0.000 C 
BRANCH  24  25
ATOM     25  C   UNL     1      15.150  16.037   1.094  1.00  0.00    -0.000 C 
BRANCH  25  26
ATOM     26  C   UNL     1      15.644  15.209   2.292  1.00  0.00    -0.000 C 
BRANCH  26  27
ATOM     27  C   UNL     1      15.373  15.901   3.639  1.00  0.00    -0.000 C 
BRANCH  27  28
ATOM     28  C   UNL     1      14.560  17.197   3.482  1.00  0.00    -0.000 C 
BRANCH  28  29
ATOM     29  C   UNL     1      14.319  17.918   4.820  1.00  0.00    -0.000 C 
BRANCH  29  30
ATOM     30  C   UNL     1      12.853  18.291   5.107  1.00  0.00    -0.000 C 
BRANCH  30  31
ATOM     31  C   UNL     1      12.342  17.735   6.445  1.00  0.00    -0.003 C 
ATOM     32  C   UNL     1      10.885  18.116   6.678  1.00  0.00     0.004 C 
ENDBRANCH  30  31
ENDBRANCH  29  30
ENDBRANCH  28  29
ENDBRANCH  27  28
ENDBRANCH  26  27
ENDBRANCH  25  26
ENDBRANCH  24  25
ENDBRANCH  23  24
ENDBRANCH  22  23
ENDBRANCH  21  22
ENDBRANCH  20  21
ENDBRANCH  19  20
ENDBRANCH  18  19
ENDBRANCH   1  18
TORSDOF 28
ENDMDL
MODEL 6
REMARK VINA RESULT:    -4.833      3.082      6.119
REMARK INTER + INTRA:         -18.060
REMARK INTER:                 -11.817
REMARK INTRA:                  -6.243
REMARK UNBOUND:                -5.317
REMARK SMILES CCCCCCCCCCCCCCCCCCCCCCCCCCCCCC(=O)[O-]
REMARK SMILES IDX 16 1 17 2 18 3 19 4 20 5 21 6 22 7 23 8 24 9 25 10 26 11
REMARK SMILES IDX 27 12 28 13 29 14 30 15 31 16 32 17 15 18 14 19 13 20 12 21
REMARK SMILES IDX 11 22 10 23 9 24 8 25 7 26 6 27 5 28 4 29 3 30 2 31 1 32
REMARK H PARENT
REMARK Flexibility Score: inf
ROOT
ATOM      1  C   UNL     1      13.114  13.483   1.317  1.00  0.00     0.000 C 
ENDROOT
BRANCH   1   2
ATOM      2  C   UNL     1      14.651  13.425   1.362  1.00  0.00     0.000 C 
BRANCH   2   3
ATOM      3  C   UNL     1      15.207  13.591   2.787  1.00  0.00     0.000 C 
BRANCH   3   4
ATOM      4  C   UNL     1      15.411  15.063   3.192  1.00  0.00     0.000 C 
BRANCH   4   5
ATOM      5  C   UNL     1      16.835  15.615   2.986  1.00  0.00     0.000 C 
BRANCH   5   6
ATOM      6  C   UNL     1      16.891  16.792   2.002  1.00  0.00     0.000 C 
BRANCH   6   7
ATOM      7  C   UNL     1      15.719  16.746   1.006  1.00  0.00     0.000 C 
BRANCH   7   8
ATOM      8  C   UNL     1      15.749  17.903  -0.015  1.00  0.00     0.000 C 
BRANCH   8   9
ATOM      9  C   UNL     1      15.048  19.191   0.456  1.00  0.00     0.000 C 
BRANCH   9  10
ATOM     10  C   UNL     1      13.928  19.004   1.496  1.00  0.00     0.000 C 
BRANCH  10  11
ATOM     11  C   UNL     1      14.199  19.627   2.878  1.00  0.00     0.000 C 
BRANCH  11  12
ATOM     12  C   UNL     1      14.410  18.577   3.980  1.00  0.00     0.000 C 
BRANCH  12  13
ATOM     13  C   UNL     1      13.091  17.934   4.441  1.00  0.00     0.006 C 
BRANCH  13  14
ATOM     14  C   UNL     1      12.246  18.864   5.322  1.00  0.00     0.053 C 
BRANCH  14  15
ATOM     15  C   UNL     1      12.019  18.257   6.671  1.00  0.00     0.041 C 
ATOM     16  O   UNL     1      10.857  18.207   7.158  1.00  0.00    -0.550 OA
ATOM     17  O   UNL     1      13.096  17.774   7.408  1.00  0.00    -0.550 OA
ENDBRANCH  14  15
ENDBRANCH  13  14
ENDBRANCH  12  13
ENDBRANCH  11  12
ENDBRANCH  10  11
ENDBRANCH   9  10
ENDBRANCH   8   9
ENDBRANCH   7   8
ENDBRANCH   6   7
ENDBRANCH   5   6
ENDBRANCH   4   5
ENDBRANCH   3   4
ENDBRANCH   2   3
ENDBRANCH   1   2
BRANCH   1  18
ATOM     18  C   UNL     1      12.526  14.687   0.553  1.00  0.00     0.000 C 
BRANCH  18  19
ATOM     19  C   UNL     1      12.140  15.893   1.432  1.00  0.00     0.000 C 
BRANCH  19  20
ATOM     20  C   UNL     1      10.649  15.960   1.821  1.00  0.00     0.000 C 
BRANCH  20  21
ATOM     21  C   UNL     1      10.228  15.003   2.956  1.00  0.00     0.000 C 
BRANCH  21  22
ATOM     22  C   UNL     1      10.108  15.657   4.347  1.00  0.00     0.000 C 
BRANCH  22  23
ATOM     23  C   UNL     1      10.930  14.977   5.457  1.00  0.00     0.000 C 
BRANCH  23  24
ATOM     24  C   UNL     1      12.229  14.299   4.980  1.00  0.00    -0.000 C 
BRANCH  24  25
ATOM     25  C   UNL     1      12.394  12.848   5.484  1.00  0.00    -0.000 C 
BRANCH  25  26
ATOM     26  C   UNL     1      12.339  11.819   4.342  1.00  0.00    -0.000 C 
BRANCH  26  27
ATOM     27  C   UNL     1      10.898  11.470   3.933  1.00  0.00    -0.000 C 
BRANCH  27  28
ATOM     28  C   UNL     1      10.156  10.666   5.015  1.00  0.00    -0.000 C 
BRANCH  28  29
ATOM     29  C   UNL     1       8.648  10.970   5.057  1.00  0.00    -0.000 C 
BRANCH  29  30
ATOM     30  C   UNL     1       8.275  12.452   4.868  1.00  0.00    -0.000 C 
BRANCH  30  31
ATOM     31  C   UNL     1       7.595  13.062   6.103  1.00  0.00    -0.003 C 
ATOM     32  C   UNL     1       8.496  12.969   7.330  1.00  0.00     0.004 C 
ENDBRANCH  30  31
ENDBRANCH  29  30
ENDBRANCH  28  29
ENDBRANCH  27  28
ENDBRANCH  26  27
ENDBRANCH  25  26
ENDBRANCH  24  25
ENDBRANCH  23  24
ENDBRANCH  22  23
ENDBRANCH  21  22
ENDBRANCH  20  21
ENDBRANCH  19  20
ENDBRANCH  18  19
ENDBRANCH   1  18
TORSDOF 28
ENDMDL
MODEL 7
REMARK VINA RESULT:    -4.818      3.998      8.290
REMARK INTER + INTRA:         -18.021
REMARK INTER:                 -12.740
REMARK INTRA:                  -5.281
REMARK UNBOUND:                -5.317
REMARK SMILES CCCCCCCCCCCCCCCCCCCCCCCCCCCCCC(=O)[O-]
REMARK SMILES IDX 16 1 17 2 18 3 19 4 20 5 21 6 22 7 23 8 24 9 25 10 26 11
REMARK SMILES IDX 27 12 28 13 29 14 30 15 31 16 32 17 15 18 14 19 13 20 12 21
REMARK SMILES IDX 11 22 10 23 9 24 8 25 7 26 6 27 5 28 4 29 3 30 2 31 1 32
REMARK H PARENT
REMARK Flexibility Score: inf
ROOT
ATOM      1  C   UNL     1      12.479  13.246   6.009  1.00  0.00     0.000 C 
ENDROOT
BRANCH   1   2
ATOM      2  C   UNL     1      12.110  14.740   5.991  1.00  0.00     0.000 C 
BRANCH   2   3
ATOM      3  C   UNL     1      10.634  14.980   5.629  1.00  0.00     0.000 C 
BRANCH   3   4
ATOM      4  C   UNL     1      10.270  14.500   4.212  1.00  0.00     0.000 C 
BRANCH   4   5
ATOM      5  C   UNL     1       8.836  13.964   4.042  1.00  0.00     0.000 C 
BRANCH   5   6
ATOM      6  C   UNL     1       8.787  12.469   3.694  1.00  0.00     0.000 C 
BRANCH   6   7
ATOM      7  C   UNL     1      10.200  11.890   3.502  1.00  0.00     0.000 C 
BRANCH   7   8
ATOM      8  C   UNL     1      10.480  10.671   4.406  1.00  0.00     0.000 C 
BRANCH   8   9
ATOM      9  C   UNL     1       9.407  10.410   5.479  1.00  0.00     0.000 C 
BRANCH   9  10
ATOM     10  C   UNL     1       9.768  10.849   6.911  1.00  0.00     0.000 C 
BRANCH  10  11
ATOM     11  C   UNL     1       9.030  12.099   7.424  1.00  0.00     0.000 C 
BRANCH  11  12
ATOM     12  C   UNL     1       7.500  11.978   7.327  1.00  0.00     0.000 C 
BRANCH  12  13
ATOM     13  C   UNL     1       6.814  13.339   7.128  1.00  0.00     0.006 C 
BRANCH  13  14
ATOM     14  C   UNL     1       7.679  14.521   7.587  1.00  0.00     0.053 C 
BRANCH  14  15
ATOM     15  C   UNL     1       7.348  14.907   8.995  1.00  0.00     0.041 C 
ATOM     16  O   UNL     1       7.716  16.023   9.449  1.00  0.00    -0.550 OA
ATOM     17  O   UNL     1       6.662  14.020   9.817  1.00  0.00    -0.550 OA
ENDBRANCH  14  15
ENDBRANCH  13  14
ENDBRANCH  12  13
ENDBRANCH  11  12
ENDBRANCH  10  11
ENDBRANCH   9  10
ENDBRANCH   8   9
ENDBRANCH   7   8
ENDBRANCH   6   7
ENDBRANCH   5   6
ENDBRANCH   4   5
ENDBRANCH   3   4
ENDBRANCH   2   3
ENDBRANCH   1   2
BRANCH   1  18
ATOM     18  C   UNL     1      13.868  12.907   5.432  1.00  0.00     0.000 C 
BRANCH  18  19
ATOM     19  C   UNL     1      13.856  12.296   4.017  1.00  0.00     0.000 C 
BRANCH  19  20
ATOM     20  C   UNL     1      13.505  13.285   2.887  1.00  0.00     0.000 C 
BRANCH  20  21
ATOM     21  C   UNL     1      14.719  13.903   2.162  1.00  0.00     0.000 C 
BRANCH  21  22
ATOM     22  C   UNL     1      15.585  14.842   3.027  1.00  0.00     0.000 C 
BRANCH  22  23
ATOM     23  C   UNL     1      14.825  16.019   3.666  1.00  0.00     0.000 C 
BRANCH  23  24
ATOM     24  C   UNL     1      13.942  16.826   2.694  1.00  0.00    -0.000 C 
BRANCH  24  25
ATOM     25  C   UNL     1      12.642  17.360   3.335  1.00  0.00    -0.000 C 
BRANCH  25  26
ATOM     26  C   UNL     1      12.882  18.610   4.199  1.00  0.00    -0.000 C 
BRANCH  26  27
ATOM     27  C   UNL     1      12.514  18.386   5.675  1.00  0.00    -0.000 C 
BRANCH  27  28
ATOM     28  C   UNL     1      11.035  18.692   5.967  1.00  0.00    -0.000 C 
BRANCH  28  29
ATOM     29  C   UNL     1      10.832  20.048   6.665  1.00  0.00    -0.000 C 
BRANCH  29  30
ATOM     30  C   UNL     1      10.240  21.158   5.776  1.00  0.00    -0.000 C 
BRANCH  30  31
ATOM     31  C   UNL     1      10.786  22.554   6.115  1.00  0.00    -0.003 C 
ATOM     32  C   UNL     1       9.835  23.307   7.039  1.00  0.00     0.004 C 
ENDBRANCH  30  31
ENDBRANCH  29  30
ENDBRANCH  28  29
ENDBRANCH  27  28
ENDBRANCH  26  27
ENDBRANCH  25  26
ENDBRANCH  24  25
ENDBRANCH  23  24
ENDBRANCH  22  23
ENDBRANCH  21  22
ENDBRANCH  20  21
ENDBRANCH  19  20
ENDBRANCH  18  19
ENDBRANCH   1  18
TORSDOF 28
ENDMDL
MODEL 8
REMARK VINA RESULT:    -4.808      2.610      5.030
REMARK INTER + INTRA:         -17.994
REMARK INTER:                 -12.722
REMARK INTRA:                  -5.273
REMARK UNBOUND:                -5.317
REMARK SMILES CCCCCCCCCCCCCCCCCCCCCCCCCCCCCC(=O)[O-]
REMARK SMILES IDX 16 1 17 2 18 3 19 4 20 5 21 6 22 7 23 8 24 9 25 10 26 11
REMARK SMILES IDX 27 12 28 13 29 14 30 15 31 16 32 17 15 18 14 19 13 20 12 21
REMARK SMILES IDX 11 22 10 23 9 24 8 25 7 26 6 27 5 28 4 29 3 30 2 31 1 32
REMARK H PARENT
REMARK Flexibility Score: inf
ROOT
ATOM      1  C   UNL     1      13.455  12.399   4.734  1.00  0.00     0.000 C 
ENDROOT
BRANCH   1   2
ATOM      2  C   UNL     1      14.696  13.093   4.146  1.00  0.00     0.000 C 
BRANCH   2   3
ATOM      3  C   UNL     1      14.687  13.116   2.608  1.00  0.00     0.000 C 
BRANCH   3   4
ATOM      4  C   UNL     1      13.270  13.187   2.010  1.00  0.00     0.000 C 
BRANCH   4   5
ATOM      5  C   UNL     1      12.936  14.484   1.248  1.00  0.00     0.000 C 
BRANCH   5   6
ATOM      6  C   UNL     1      14.063  14.941   0.310  1.00  0.00     0.000 C 
BRANCH   6   7
ATOM      7  C   UNL     1      13.978  16.450   0.024  1.00  0.00     0.000 C 
BRANCH   7   8
ATOM      8  C   UNL     1      14.906  17.288   0.929  1.00  0.00     0.000 C 
BRANCH   8   9
ATOM      9  C   UNL     1      15.978  16.472   1.676  1.00  0.00     0.000 C 
BRANCH   9  10
ATOM     10  C   UNL     1      15.897  16.506   3.214  1.00  0.00     0.000 C 
BRANCH  10  11
ATOM     11  C   UNL     1      14.520  16.878   3.794  1.00  0.00     0.000 C 
BRANCH  11  12
ATOM     12  C   UNL     1      14.478  18.298   4.382  1.00  0.00     0.000 C 
BRANCH  12  13
ATOM     13  C   UNL     1      13.081  18.932   4.289  1.00  0.00     0.006 C 
BRANCH  13  14
ATOM     14  C   UNL     1      12.000  18.112   5.005  1.00  0.00     0.053 C 
BRANCH  14  15
ATOM     15  C   UNL     1      11.949  18.457   6.461  1.00  0.00     0.041 C 
ATOM     16  O   UNL     1      11.644  19.624   6.826  1.00  0.00    -0.550 OA
ATOM     17  O   UNL     1      12.270  17.498   7.417  1.00  0.00    -0.550 OA
ENDBRANCH  14  15
ENDBRANCH  13  14
ENDBRANCH  12  13
ENDBRANCH  11  12
ENDBRANCH  10  11
ENDBRANCH   9  10
ENDBRANCH   8   9
ENDBRANCH   7   8
ENDBRANCH   6   7
ENDBRANCH   5   6
ENDBRANCH   4   5
ENDBRANCH   3   4
ENDBRANCH   2   3
ENDBRANCH   1   2
BRANCH   1  18
ATOM     18  C   UNL     1      12.818  13.110   5.945  1.00  0.00     0.000 C 
BRANCH  18  19
ATOM     19  C   UNL     1      12.329  14.546   5.675  1.00  0.00     0.000 C 
BRANCH  19  20
ATOM     20  C   UNL     1      10.830  14.667   5.332  1.00  0.00     0.000 C 
BRANCH  20  21
ATOM     21  C   UNL     1      10.435  14.124   3.942  1.00  0.00     0.000 C 
BRANCH  21  22
ATOM     22  C   UNL     1       8.954  13.715   3.801  1.00  0.00     0.000 C 
BRANCH  22  23
ATOM     23  C   UNL     1       8.711  12.204   3.635  1.00  0.00     0.000 C 
BRANCH  23  24
ATOM     24  C   UNL     1       9.982  11.333   3.683  1.00  0.00    -0.000 C 
BRANCH  24  25
ATOM     25  C   UNL     1      10.264  10.722   5.074  1.00  0.00    -0.000 C 
BRANCH  25  26
ATOM     26  C   UNL     1       9.045  10.801   6.009  1.00  0.00    -0.000 C 
BRANCH  26  27
ATOM     27  C   UNL     1       9.378  11.466   7.356  1.00  0.00    -0.000 C 
BRANCH  27  28
ATOM     28  C   UNL     1       8.673  12.821   7.535  1.00  0.00    -0.000 C 
BRANCH  28  29
ATOM     29  C   UNL     1       7.201  12.677   7.960  1.00  0.00    -0.000 C 
BRANCH  29  30
ATOM     30  C   UNL     1       6.982  12.072   9.359  1.00  0.00    -0.000 C 
BRANCH  30  31
ATOM     31  C   UNL     1       7.406  13.017  10.495  1.00  0.00    -0.003 C 
ATOM     32  C   UNL     1       8.544  12.417  11.313  1.00  0.00     0.004 C 
ENDBRANCH  30  31
ENDBRANCH  29  30
ENDBRANCH  28  29
ENDBRANCH  27  28
ENDBRANCH  26  27
ENDBRANCH  25  26
ENDBRANCH  24  25
ENDBRANCH  23  24
ENDBRANCH  22  23
ENDBRANCH  21  22
ENDBRANCH  20  21
ENDBRANCH  19  20
ENDBRANCH  18  19
ENDBRANCH   1  18
TORSDOF 28
ENDMDL
MODEL 9
REMARK VINA RESULT:    -4.703      3.180      8.337
REMARK INTER + INTRA:         -17.718
REMARK INTER:                 -11.916
REMARK INTRA:                  -5.802
REMARK UNBOUND:                -5.317
REMARK SMILES CCCCCCCCCCCCCCCCCCCCCCCCCCCCCC(=O)[O-]
REMARK SMILES IDX 16 1 17 2 18 3 19 4 20 5 21 6 22 7 23 8 24 9 25 10 26 11
REMARK SMILES IDX 27 12 28 13 29 14 30 15 31 16 32 17 15 18 14 19 13 20 12 21
REMARK SMILES IDX 11 22 10 23 9 24 8 25 7 26 6 27 5 28 4 29 3 30 2 31 1 32
REMARK H PARENT
REMARK Flexibility Score: inf
ROOT
ATOM      1  C   UNL     1      13.543  13.513   5.573  1.00  0.00     0.000 C 
ENDROOT
BRANCH   1   2
ATOM      2  C   UNL     1      12.165  13.370   4.903  1.00  0.00     0.000 C 
BRANCH   2   3
ATOM      3  C   UNL     1      12.069  12.119   4.012  1.00  0.00     0.000 C 
BRANCH   3   4
ATOM      4  C   UNL     1      10.704  11.411   4.104  1.00  0.00     0.000 C 
BRANCH   4   5
ATOM      5  C   UNL     1      10.704  10.068   4.859  1.00  0.00     0.000 C 
BRANCH   5   6
ATOM      6  C   UNL     1       9.845  10.091   6.132  1.00  0.00     0.000 C 
BRANCH   6   7
ATOM      7  C   UNL     1       8.764  11.184   6.060  1.00  0.00     0.000 C 
BRANCH   7   8
ATOM      8  C   UNL     1       8.683  12.038   7.343  1.00  0.00     0.000 C 
BRANCH   8   9
ATOM      9  C   UNL     1       9.506  13.339   7.298  1.00  0.00     0.000 C 
BRANCH   9  10
ATOM     10  C   UNL     1       8.725  14.615   6.933  1.00  0.00     0.000 C 
BRANCH  10  11
ATOM     11  C   UNL     1       9.117  15.268   5.595  1.00  0.00     0.000 C 
BRANCH  11  12
ATOM     12  C   UNL     1       8.473  14.583   4.379  1.00  0.00     0.000 C 
BRANCH  12  13
ATOM     13  C   UNL     1       9.305  14.754   3.098  1.00  0.00     0.006 C 
BRANCH  13  14
ATOM     14  C   UNL     1      10.243  15.968   3.149  1.00  0.00     0.053 C 
BRANCH  14  15
ATOM     15  C   UNL     1      10.160  16.758   1.880  1.00  0.00     0.041 C 
ATOM     16  O   UNL     1       9.946  16.175   0.783  1.00  0.00    -0.550 OA
ATOM     17  O   UNL     1      10.351  18.135   1.902  1.00  0.00    -0.550 OA
ENDBRANCH  14  15
ENDBRANCH  13  14
ENDBRANCH  12  13
ENDBRANCH  11  12
ENDBRANCH  10  11
ENDBRANCH   9  10
ENDBRANCH   8   9
ENDBRANCH   7   8
ENDBRANCH   6   7
ENDBRANCH   5   6
ENDBRANCH   4   5
ENDBRANCH   3   4
ENDBRANCH   2   3
ENDBRANCH   1   2
BRANCH   1  18
ATOM     18  C   UNL     1      14.673  12.685   4.930  1.00  0.00     0.000 C 
BRANCH  18  19
ATOM     19  C   UNL     1      15.694  13.500   4.111  1.00  0.00     0.000 C 
BRANCH  19  20
ATOM     20  C   UNL     1      15.640  13.265   2.589  1.00  0.00     0.000 C 
BRANCH  20  21
ATOM     21  C   UNL     1      14.281  13.583   1.929  1.00  0.00     0.000 C 
BRANCH  21  22
ATOM     22  C   UNL     1      14.371  14.284   0.558  1.00  0.00     0.000 C 
BRANCH  22  23
ATOM     23  C   UNL     1      13.303  15.365   0.311  1.00  0.00     0.000 C 
BRANCH  23  24
ATOM     24  C   UNL     1      13.798  16.600  -0.467  1.00  0.00    -0.000 C 
BRANCH  24  25
ATOM     25  C   UNL     1      15.337  16.728  -0.515  1.00  0.00    -0.000 C 
BRANCH  25  26
ATOM     26  C   UNL     1      15.867  17.820   0.429  1.00  0.00    -0.000 C 
BRANCH  26  27
ATOM     27  C   UNL     1      16.845  17.268   1.480  1.00  0.00    -0.000 C 
BRANCH  27  28
ATOM     28  C   UNL     1      16.142  16.877   2.791  1.00  0.00    -0.000 C 
BRANCH  28  29
ATOM     29  C   UNL     1      14.806  17.613   2.995  1.00  0.00    -0.000 C 
BRANCH  29  30
ATOM     30  C   UNL     1      13.707  16.791   3.693  1.00  0.00    -0.000 C 
BRANCH  30  31
ATOM     31  C   UNL     1      13.426  17.262   5.129  1.00  0.00    -0.003 C 
ATOM     32  C   UNL     1      12.293  18.282   5.161  1.00  0.00     0.004 C 
ENDBRANCH  30  31
ENDBRANCH  29  30
ENDBRANCH  28  29
ENDBRANCH  27  28
ENDBRANCH  26  27
ENDBRANCH  25  26
ENDBRANCH  24  25
ENDBRANCH  23  24
ENDBRANCH  22  23
ENDBRANCH  21  22
ENDBRANCH  20  21
ENDBRANCH  19  20
ENDBRANCH  18  19
ENDBRANCH   1  18
TORSDOF 28
ENDMDL
