MODEL 1
REMARK VINA RESULT:    -4.165      0.000      0.000
REMARK INTER + INTRA:         -13.222
REMARK INTER:                  -9.521
REMARK INTRA:                  -3.701
REMARK UNBOUND:                -3.701
REMARK SMILES CCCCCCCCCCCCCCCCCCCCCCCC(=O)[O-]
REMARK SMILES IDX 13 1 14 2 15 3 16 4 17 5 18 6 19 7 20 8 21 9 22 10 23 11
REMARK SMILES IDX 24 12 25 13 26 14 12 15 11 16 10 17 9 18 8 19 7 20 6 21 5 22
REMARK SMILES IDX 4 23 3 24 2 25 1 26
REMARK H PARENT
REMARK Flexibility Score: inf
ROOT
ATOM      1  C   UNL     1      17.443  38.151  34.901  1.00  0.00     0.000 C 
ENDROOT
BRANCH   1   2
ATOM      2  C   UNL     1      17.563  39.679  34.763  1.00  0.00     0.000 C 
BRANCH   2   3
ATOM      3  C   UNL     1      19.025  40.152  34.698  1.00  0.00     0.000 C 
BRANCH   3   4
ATOM      4  C   UNL     1      19.445  40.596  33.287  1.00  0.00     0.000 C 
BRANCH   4   5
ATOM      5  C   UNL     1      18.296  40.496  32.268  1.00  0.00     0.000 C 
BRANCH   5   6
ATOM      6  C   UNL     1      18.627  39.710  30.983  1.00  0.00     0.000 C 
BRANCH   6   7
ATOM      7  C   UNL     1      17.414  39.378  30.091  1.00  0.00     0.000 C 
BRANCH   7   8
ATOM      8  C   UNL     1      16.829  40.573  29.310  1.00  0.00     0.000 C 
BRANCH   8   9
ATOM      9  C   UNL     1      15.297  40.568  29.161  1.00  0.00     0.000 C 
BRANCH   9  10
ATOM     10  C   UNL     1      14.838  40.615  27.694  1.00  0.00     0.006 C 
BRANCH  10  11
ATOM     11  C   UNL     1      14.044  39.364  27.297  1.00  0.00     0.053 C 
BRANCH  11  12
ATOM     12  C   UNL     1      14.890  38.382  26.547  1.00  0.00     0.041 C 
ATOM     13  O   UNL     1      14.740  38.234  25.305  1.00  0.00    -0.550 OA
ATOM     14  O   UNL     1      15.832  37.617  27.222  1.00  0.00    -0.550 OA
ENDBRANCH  11  12
ENDBRANCH  10  11
ENDBRANCH   9  10
ENDBRANCH   8   9
ENDBRANCH   7   8
ENDBRANCH   6   7
ENDBRANCH   5   6
ENDBRANCH   4   5
ENDBRANCH   3   4
ENDBRANCH   2   3
ENDBRANCH   1   2
BRANCH   1  15
ATOM     15  C   UNL     1      16.583  37.514  33.792  1.00  0.00     0.000 C 
BRANCH  15  16
ATOM     16  C   UNL     1      17.341  36.578  32.830  1.00  0.00     0.000 C 
BRANCH  16  17
ATOM     17  C   UNL     1      18.813  36.303  33.196  1.00  0.00     0.000 C 
BRANCH  17  18
ATOM     18  C   UNL     1      19.819  36.693  32.092  1.00  0.00    -0.000 C 
BRANCH  18  19
ATOM     19  C   UNL     1      21.065  37.403  32.650  1.00  0.00    -0.000 C 
BRANCH  19  20
ATOM     20  C   UNL     1      21.131  37.355  34.186  1.00  0.00    -0.000 C 
BRANCH  20  21
ATOM     21  C   UNL     1      22.283  38.198  34.752  1.00  0.00    -0.000 C 
BRANCH  21  22
ATOM     22  C   UNL     1      22.403  38.016  36.273  1.00  0.00    -0.000 C 
BRANCH  22  23
ATOM     23  C   UNL     1      21.818  36.680  36.760  1.00  0.00    -0.000 C 
BRANCH  23  24
ATOM     24  C   UNL     1      20.857  36.848  37.947  1.00  0.00    -0.000 C 
BRANCH  24  25
ATOM     25  C   UNL     1      19.924  38.045  37.732  1.00  0.00    -0.003 C 
ATOM     26  C   UNL     1      18.893  38.151  38.853  1.00  0.00     0.004 C 
ENDBRANCH  24  25
ENDBRANCH  23  24
ENDBRANCH  22  23
ENDBRANCH  21  22
ENDBRANCH  20  21
ENDBRANCH  19  20
ENDBRANCH  18  19
ENDBRANCH  17  18
ENDBRANCH  16  17
ENDBRANCH  15  16
ENDBRANCH   1  15
TORSDOF 22
ENDMDL
MODEL 2
REMARK VINA RESULT:    -4.157      0.900      2.219
REMARK INTER + INTRA:         -13.205
REMARK INTER:                  -9.442
REMARK INTRA:                  -3.763
REMARK UNBOUND:                -3.701
REMARK SMILES CCCCCCCCCCCCCCCCCCCCCCCC(=O)[O-]
REMARK SMILES IDX 13 1 14 2 15 3 16 4 17 5 18 6 19 7 20 8 21 9 22 10 23 11
REMARK SMILES IDX 24 12 25 13 26 14 12 15 11 16 10 17 9 18 8 19 7 20 6 21 5 22
REMARK SMILES IDX 4 23 3 24 2 25 1 26
REMARK H PARENT
REMARK Flexibility Score: inf
ROOT
ATOM      1  C   UNL     1      17.333  36.968  33.142  1.00  0.00     0.000 C 
ENDROOT
BRANCH   1   2
ATOM      2  C   UNL     1      18.723  36.334  33.314  1.00  0.00     0.000 C 
BRANCH   2   3
ATOM      3  C   UNL     1      19.687  36.706  32.173  1.00  0.00     0.000 C 
BRANCH   3   4
ATOM      4  C   UNL     1      19.017  37.558  31.082  1.00  0.00     0.000 C 
BRANCH   4   5
ATOM      5  C   UNL     1      19.582  38.988  31.016  1.00  0.00     0.000 C 
BRANCH   5   6
ATOM      6  C   UNL     1      18.542  40.111  31.208  1.00  0.00     0.000 C 
BRANCH   6   7
ATOM      7  C   UNL     1      17.123  39.778  30.707  1.00  0.00     0.000 C 
BRANCH   7   8
ATOM      8  C   UNL     1      16.749  40.393  29.343  1.00  0.00     0.000 C 
BRANCH   8   9
ATOM      9  C   UNL     1      15.243  40.620  29.120  1.00  0.00     0.000 C 
BRANCH   9  10
ATOM     10  C   UNL     1      14.843  40.569  27.636  1.00  0.00     0.006 C 
BRANCH  10  11
ATOM     11  C   UNL     1      13.980  39.342  27.313  1.00  0.00     0.053 C 
BRANCH  11  12
ATOM     12  C   UNL     1      14.616  38.471  26.273  1.00  0.00     0.041 C 
ATOM     13  O   UNL     1      13.911  37.931  25.380  1.00  0.00    -0.550 OA
ATOM     14  O   UNL     1      15.985  38.242  26.302  1.00  0.00    -0.550 OA
ENDBRANCH  11  12
ENDBRANCH  10  11
ENDBRANCH   9  10
ENDBRANCH   8   9
ENDBRANCH   7   8
ENDBRANCH   6   7
ENDBRANCH   5   6
ENDBRANCH   4   5
ENDBRANCH   3   4
ENDBRANCH   2   3
ENDBRANCH   1   2
BRANCH   1  15
ATOM     15  C   UNL     1      17.015  38.021  34.222  1.00  0.00     0.000 C 
BRANCH  15  16
ATOM     16  C   UNL     1      18.076  38.164  35.331  1.00  0.00     0.000 C 
BRANCH  16  17
ATOM     17  C   UNL     1      18.807  39.521  35.377  1.00  0.00     0.000 C 
BRANCH  17  18
ATOM     18  C   UNL     1      20.108  39.564  34.547  1.00  0.00    -0.000 C 
BRANCH  18  19
ATOM     19  C   UNL     1      21.356  39.228  35.382  1.00  0.00    -0.000 C 
BRANCH  19  20
ATOM     20  C   UNL     1      22.006  37.900  34.960  1.00  0.00    -0.000 C 
BRANCH  20  21
ATOM     21  C   UNL     1      21.518  36.711  35.801  1.00  0.00    -0.000 C 
BRANCH  21  22
ATOM     22  C   UNL     1      22.381  36.535  37.060  1.00  0.00    -0.000 C 
BRANCH  22  23
ATOM     23  C   UNL     1      21.692  37.056  38.332  1.00  0.00    -0.000 C 
BRANCH  23  24
ATOM     24  C   UNL     1      20.161  37.085  38.210  1.00  0.00    -0.000 C 
BRANCH  24  25
ATOM     25  C   UNL     1      19.553  38.104  39.181  1.00  0.00    -0.003 C 
ATOM     26  C   UNL     1      20.037  39.518  38.872  1.00  0.00     0.004 C 
ENDBRANCH  24  25
ENDBRANCH  23  24
ENDBRANCH  22  23
ENDBRANCH  21  22
ENDBRANCH  20  21
ENDBRANCH  19  20
ENDBRANCH  18  19
ENDBRANCH  17  18
ENDBRANCH  16  17
ENDBRANCH  15  16
ENDBRANCH   1  15
TORSDOF 22
ENDMDL
MODEL 3
REMARK VINA RESULT:    -4.135      3.579      8.929
REMARK INTER + INTRA:         -13.154
REMARK INTER:                 -10.292
REMARK INTRA:                  -2.863
REMARK UNBOUND:                -3.701
REMARK SMILES CCCCCCCCCCCCCCCCCCCCCCCC(=O)[O-]
REMARK SMILES IDX 13 1 14 2 15 3 16 4 17 5 18 6 19 7 20 8 21 9 22 10 23 11
REMARK SMILES IDX 24 12 25 13 26 14 12 15 11 16 10 17 9 18 8 19 7 20 6 21 5 22
REMARK SMILES IDX 4 23 3 24 2 25 1 26
REMARK H PARENT
REMARK Flexibility Score: inf
ROOT
ATOM      1  C   UNL     1      17.331  38.113  35.037  1.00  0.00     0.000 C 
ENDROOT
BRANCH   1   2
ATOM      2  C   UNL     1      17.071  37.411  33.693  1.00  0.00     0.000 C 
BRANCH   2   3
ATOM      3  C   UNL     1      18.282  36.596  33.208  1.00  0.00     0.000 C 
BRANCH   3   4
ATOM      4  C   UNL     1      18.748  37.002  31.800  1.00  0.00     0.000 C 
BRANCH   4   5
ATOM      5  C   UNL     1      20.267  36.848  31.610  1.00  0.00     0.000 C 
BRANCH   5   6
ATOM      6  C   UNL     1      21.021  38.152  31.280  1.00  0.00     0.000 C 
BRANCH   6   7
ATOM      7  C   UNL     1      21.080  39.180  32.428  1.00  0.00     0.000 C 
BRANCH   7   8
ATOM      8  C   UNL     1      22.252  38.995  33.412  1.00  0.00     0.000 C 
BRANCH   8   9
ATOM      9  C   UNL     1      21.848  38.585  34.840  1.00  0.00     0.000 C 
BRANCH   9  10
ATOM     10  C   UNL     1      21.444  37.104  34.946  1.00  0.00     0.006 C 
BRANCH  10  11
ATOM     11  C   UNL     1      22.038  36.432  36.190  1.00  0.00     0.053 C 
BRANCH  11  12
ATOM     12  C   UNL     1      21.224  36.711  37.416  1.00  0.00     0.041 C 
ATOM     13  O   UNL     1      21.550  36.205  38.523  1.00  0.00    -0.550 OA
ATOM     14  O   UNL     1      20.095  37.514  37.333  1.00  0.00    -0.550 OA
ENDBRANCH  11  12
ENDBRANCH  10  11
ENDBRANCH   9  10
ENDBRANCH   8   9
ENDBRANCH   7   8
ENDBRANCH   6   7
ENDBRANCH   5   6
ENDBRANCH   4   5
ENDBRANCH   3   4
ENDBRANCH   2   3
ENDBRANCH   1   2
BRANCH   1  15
ATOM     15  C   UNL     1      17.958  39.511  34.872  1.00  0.00     0.000 C 
BRANCH  15  16
ATOM     16  C   UNL     1      17.679  40.202  33.523  1.00  0.00     0.000 C 
BRANCH  16  17
ATOM     17  C   UNL     1      16.281  40.836  33.380  1.00  0.00     0.000 C 
BRANCH  17  18
ATOM     18  C   UNL     1      15.584  40.529  32.037  1.00  0.00    -0.000 C 
BRANCH  18  19
ATOM     19  C   UNL     1      16.553  39.968  30.981  1.00  0.00    -0.000 C 
BRANCH  19  20
ATOM     20  C   UNL     1      16.144  40.348  29.548  1.00  0.00    -0.000 C 
BRANCH  20  21
ATOM     21  C   UNL     1      14.645  40.657  29.425  1.00  0.00    -0.000 C 
BRANCH  21  22
ATOM     22  C   UNL     1      14.146  40.409  27.993  1.00  0.00    -0.000 C 
BRANCH  22  23
ATOM     23  C   UNL     1      15.235  40.649  26.935  1.00  0.00    -0.000 C 
BRANCH  23  24
ATOM     24  C   UNL     1      15.522  39.403  26.083  1.00  0.00    -0.000 C 
BRANCH  24  25
ATOM     25  C   UNL     1      14.617  38.236  26.496  1.00  0.00    -0.003 C 
ATOM     26  C   UNL     1      13.805  37.720  25.311  1.00  0.00     0.004 C 
ENDBRANCH  24  25
ENDBRANCH  23  24
ENDBRANCH  22  23
ENDBRANCH  21  22
ENDBRANCH  20  21
ENDBRANCH  19  20
ENDBRANCH  18  19
ENDBRANCH  17  18
ENDBRANCH  16  17
ENDBRANCH  15  16
ENDBRANCH   1  15
TORSDOF 22
ENDMDL
MODEL 4
REMARK VINA RESULT:    -4.118      3.742      8.766
REMARK INTER + INTRA:         -13.115
REMARK INTER:                  -8.678
REMARK INTRA:                  -4.437
REMARK UNBOUND:                -3.701
REMARK SMILES CCCCCCCCCCCCCCCCCCCCCCCC(=O)[O-]
REMARK SMILES IDX 13 1 14 2 15 3 16 4 17 5 18 6 19 7 20 8 21 9 22 10 23 11
REMARK SMILES IDX 24 12 25 13 26 14 12 15 11 16 10 17 9 18 8 19 7 20 6 21 5 22
REMARK SMILES IDX 4 23 3 24 2 25 1 26
REMARK H PARENT
REMARK Flexibility Score: inf
ROOT
ATOM      1  C   UNL     1      18.283  36.650  29.972  1.00  0.00     0.000 C 
ENDROOT
BRANCH   1   2
ATOM      2  C   UNL     1      19.780  36.983  29.847  1.00  0.00     0.000 C 
BRANCH   2   3
ATOM      3  C   UNL     1      20.472  37.112  31.215  1.00  0.00     0.000 C 
BRANCH   3   4
ATOM      4  C   UNL     1      21.629  38.125  31.203  1.00  0.00     0.000 C 
BRANCH   4   5
ATOM      5  C   UNL     1      21.349  39.355  32.085  1.00  0.00     0.000 C 
BRANCH   5   6
ATOM      6  C   UNL     1      19.962  40.001  31.885  1.00  0.00     0.000 C 
BRANCH   6   7
ATOM      7  C   UNL     1      19.055  39.997  33.131  1.00  0.00     0.000 C 
BRANCH   7   8
ATOM      8  C   UNL     1      17.900  38.976  33.097  1.00  0.00     0.000 C 
BRANCH   8   9
ATOM      9  C   UNL     1      18.101  37.733  33.981  1.00  0.00     0.000 C 
BRANCH   9  10
ATOM     10  C   UNL     1      19.139  37.952  35.095  1.00  0.00     0.006 C 
BRANCH  10  11
ATOM     11  C   UNL     1      20.374  37.059  34.917  1.00  0.00     0.053 C 
BRANCH  11  12
ATOM     12  C   UNL     1      21.106  36.857  36.208  1.00  0.00     0.041 C 
ATOM     13  O   UNL     1      20.617  37.281  37.288  1.00  0.00    -0.550 OA
ATOM     14  O   UNL     1      22.338  36.216  36.214  1.00  0.00    -0.550 OA
ENDBRANCH  11  12
ENDBRANCH  10  11
ENDBRANCH   9  10
ENDBRANCH   8   9
ENDBRANCH   7   8
ENDBRANCH   6   7
ENDBRANCH   5   6
ENDBRANCH   4   5
ENDBRANCH   3   4
ENDBRANCH   2   3
ENDBRANCH   1   2
BRANCH   1  15
ATOM     15  C   UNL     1      17.373  37.855  29.668  1.00  0.00     0.000 C 
BRANCH  15  16
ATOM     16  C   UNL     1      18.078  39.065  29.024  1.00  0.00     0.000 C 
BRANCH  16  17
ATOM     17  C   UNL     1      17.265  40.375  29.007  1.00  0.00     0.000 C 
BRANCH  17  18
ATOM     18  C   UNL     1      17.256  41.092  27.640  1.00  0.00    -0.000 C 
BRANCH  18  19
ATOM     19  C   UNL     1      15.859  41.125  26.997  1.00  0.00    -0.000 C 
BRANCH  19  20
ATOM     20  C   UNL     1      14.748  40.726  27.982  1.00  0.00    -0.000 C 
BRANCH  20  21
ATOM     21  C   UNL     1      13.923  39.529  27.488  1.00  0.00    -0.000 C 
BRANCH  21  22
ATOM     22  C   UNL     1      14.704  38.715  26.443  1.00  0.00    -0.000 C 
BRANCH  22  23
ATOM     23  C   UNL     1      14.983  37.274  26.899  1.00  0.00    -0.000 C 
BRANCH  23  24
ATOM     24  C   UNL     1      16.307  36.721  26.349  1.00  0.00    -0.000 C 
BRANCH  24  25
ATOM     25  C   UNL     1      17.130  37.829  25.684  1.00  0.00    -0.003 C 
ATOM     26  C   UNL     1      18.624  37.524  25.750  1.00  0.00     0.004 C 
ENDBRANCH  24  25
ENDBRANCH  23  24
ENDBRANCH  22  23
ENDBRANCH  21  22
ENDBRANCH  20  21
ENDBRANCH  19  20
ENDBRANCH  18  19
ENDBRANCH  17  18
ENDBRANCH  16  17
ENDBRANCH  15  16
ENDBRANCH   1  15
TORSDOF 22
ENDMDL
MODEL 5
REMARK VINA RESULT:    -4.080      2.660      5.644
REMARK INTER + INTRA:         -13.029
REMARK INTER:                  -9.551
REMARK INTRA:                  -3.479
REMARK UNBOUND:                -3.701
REMARK SMILES CCCCCCCCCCCCCCCCCCCCCCCC(=O)[O-]
REMARK SMILES IDX 13 1 14 2 15 3 16 4 17 5 18 6 19 7 20 8 21 9 22 10 23 11
REMARK SMILES IDX 24 12 25 13 26 14 12 15 11 16 10 17 9 18 8 19 7 20 6 21 5 22
REMARK SMILES IDX 4 23 3 24 2 25 1 26
REMARK H PARENT
REMARK Flexibility Score: inf
ROOT
ATOM      1  C   UNL     1      14.201  40.830  28.148  1.00  0.00     0.000 C 
ENDROOT
BRANCH   1   2
ATOM      2  C   UNL     1      14.090  39.432  27.517  1.00  0.00     0.000 C 
BRANCH   2   3
ATOM      3  C   UNL     1      15.118  39.207  26.395  1.00  0.00     0.000 C 
BRANCH   3   4
ATOM      4  C   UNL     1      15.986  40.449  26.126  1.00  0.00     0.000 C 
BRANCH   4   5
ATOM      5  C   UNL     1      17.489  40.122  26.078  1.00  0.00     0.000 C 
BRANCH   5   6
ATOM      6  C   UNL     1      17.881  38.755  26.675  1.00  0.00     0.000 C 
BRANCH   6   7
ATOM      7  C   UNL     1      18.500  37.760  25.674  1.00  0.00     0.000 C 
BRANCH   7   8
ATOM      8  C   UNL     1      18.747  36.342  26.228  1.00  0.00     0.000 C 
BRANCH   8   9
ATOM      9  C   UNL     1      18.789  36.239  27.763  1.00  0.00     0.000 C 
BRANCH   9  10
ATOM     10  C   UNL     1      17.694  35.321  28.332  1.00  0.00     0.006 C 
BRANCH  10  11
ATOM     11  C   UNL     1      16.315  35.627  27.732  1.00  0.00     0.053 C 
BRANCH  11  12
ATOM     12  C   UNL     1      15.275  34.659  28.205  1.00  0.00     0.041 C 
ATOM     13  O   UNL     1      15.349  34.160  29.359  1.00  0.00    -0.550 OA
ATOM     14  O   UNL     1      14.233  34.293  27.363  1.00  0.00    -0.550 OA
ENDBRANCH  11  12
ENDBRANCH  10  11
ENDBRANCH   9  10
ENDBRANCH   8   9
ENDBRANCH   7   8
ENDBRANCH   6   7
ENDBRANCH   5   6
ENDBRANCH   4   5
ENDBRANCH   3   4
ENDBRANCH   2   3
ENDBRANCH   1   2
BRANCH   1  15
ATOM     15  C   UNL     1      13.887  40.834  29.657  1.00  0.00     0.000 C 
BRANCH  15  16
ATOM     16  C   UNL     1      15.064  40.448  30.574  1.00  0.00     0.000 C 
BRANCH  16  17
ATOM     17  C   UNL     1      16.441  40.368  29.886  1.00  0.00     0.000 C 
BRANCH  17  18
ATOM     18  C   UNL     1      17.579  39.882  30.810  1.00  0.00    -0.000 C 
BRANCH  18  19
ATOM     19  C   UNL     1      18.290  38.630  30.267  1.00  0.00    -0.000 C 
BRANCH  19  20
ATOM     20  C   UNL     1      19.757  38.544  30.720  1.00  0.00    -0.000 C 
BRANCH  20  21
ATOM     21  C   UNL     1      20.166  37.120  31.122  1.00  0.00    -0.000 C 
BRANCH  21  22
ATOM     22  C   UNL     1      20.564  37.058  32.605  1.00  0.00    -0.000 C 
BRANCH  22  23
ATOM     23  C   UNL     1      19.351  36.936  33.542  1.00  0.00    -0.000 C 
BRANCH  23  24
ATOM     24  C   UNL     1      18.247  36.032  32.971  1.00  0.00    -0.000 C 
BRANCH  24  25
ATOM     25  C   UNL     1      16.873  36.700  33.094  1.00  0.00    -0.003 C 
ATOM     26  C   UNL     1      16.919  37.886  34.054  1.00  0.00     0.004 C 
ENDBRANCH  24  25
ENDBRANCH  23  24
ENDBRANCH  22  23
ENDBRANCH  21  22
ENDBRANCH  20  21
ENDBRANCH  19  20
ENDBRANCH  18  19
ENDBRANCH  17  18
ENDBRANCH  16  17
ENDBRANCH  15  16
ENDBRANCH   1  15
TORSDOF 22
ENDMDL
MODEL 6
REMARK VINA RESULT:    -4.027      7.224     10.311
REMARK INTER + INTRA:         -12.908
REMARK INTER:                  -8.784
REMARK INTRA:                  -4.123
REMARK UNBOUND:                -3.701
REMARK SMILES CCCCCCCCCCCCCCCCCCCCCCCC(=O)[O-]
REMARK SMILES IDX 13 1 14 2 15 3 16 4 17 5 18 6 19 7 20 8 21 9 22 10 23 11
REMARK SMILES IDX 24 12 25 13 26 14 12 15 11 16 10 17 9 18 8 19 7 20 6 21 5 22
REMARK SMILES IDX 4 23 3 24 2 25 1 26
REMARK H PARENT
REMARK Flexibility Score: inf
ROOT
ATOM      1  C   UNL     1      18.445  30.909  25.080  1.00  0.00     0.000 C 
ENDROOT
BRANCH   1   2
ATOM      2  C   UNL     1      17.412  31.861  25.708  1.00  0.00     0.000 C 
BRANCH   2   3
ATOM      3  C   UNL     1      16.709  32.743  24.662  1.00  0.00     0.000 C 
BRANCH   3   4
ATOM      4  C   UNL     1      16.335  34.131  25.209  1.00  0.00     0.000 C 
BRANCH   4   5
ATOM      5  C   UNL     1      14.905  34.180  25.776  1.00  0.00     0.000 C 
BRANCH   5   6
ATOM      6  C   UNL     1      14.804  34.027  27.308  1.00  0.00     0.000 C 
BRANCH   6   7
ATOM      7  C   UNL     1      13.842  32.923  27.791  1.00  0.00     0.000 C 
BRANCH   7   8
ATOM      8  C   UNL     1      14.454  31.510  27.868  1.00  0.00     0.000 C 
BRANCH   8   9
ATOM      9  C   UNL     1      13.711  30.432  27.058  1.00  0.00     0.000 C 
BRANCH   9  10
ATOM     10  C   UNL     1      13.855  30.619  25.538  1.00  0.00     0.006 C 
BRANCH  10  11
ATOM     11  C   UNL     1      12.604  31.248  24.913  1.00  0.00     0.053 C 
BRANCH  11  12
ATOM     12  C   UNL     1      11.581  30.214  24.553  1.00  0.00     0.041 C 
ATOM     13  O   UNL     1      10.425  30.563  24.196  1.00  0.00    -0.550 OA
ATOM     14  O   UNL     1      11.901  28.865  24.629  1.00  0.00    -0.550 OA
ENDBRANCH  11  12
ENDBRANCH  10  11
ENDBRANCH   9  10
ENDBRANCH   8   9
ENDBRANCH   7   8
ENDBRANCH   6   7
ENDBRANCH   5   6
ENDBRANCH   4   5
ENDBRANCH   3   4
ENDBRANCH   2   3
ENDBRANCH   1   2
BRANCH   1  15
ATOM     15  C   UNL     1      19.897  31.270  25.449  1.00  0.00     0.000 C 
BRANCH  15  16
ATOM     16  C   UNL     1      20.756  31.807  24.287  1.00  0.00     0.000 C 
BRANCH  16  17
ATOM     17  C   UNL     1      21.211  33.273  24.422  1.00  0.00     0.000 C 
BRANCH  17  18
ATOM     18  C   UNL     1      20.133  34.306  24.026  1.00  0.00    -0.000 C 
BRANCH  18  19
ATOM     19  C   UNL     1      19.820  35.300  25.158  1.00  0.00    -0.000 C 
BRANCH  19  20
ATOM     20  C   UNL     1      19.762  34.622  26.537  1.00  0.00    -0.000 C 
BRANCH  20  21
ATOM     21  C   UNL     1      19.026  35.473  27.581  1.00  0.00    -0.000 C 
BRANCH  21  22
ATOM     22  C   UNL     1      18.459  36.753  26.949  1.00  0.00    -0.000 C 
BRANCH  22  23
ATOM     23  C   UNL     1      17.025  37.061  27.411  1.00  0.00    -0.000 C 
BRANCH  23  24
ATOM     24  C   UNL     1      16.178  37.731  26.319  1.00  0.00    -0.000 C 
BRANCH  24  25
ATOM     25  C   UNL     1      16.940  37.784  24.989  1.00  0.00    -0.003 C 
ATOM     26  C   UNL     1      17.164  39.224  24.537  1.00  0.00     0.004 C 
ENDBRANCH  24  25
ENDBRANCH  23  24
ENDBRANCH  22  23
ENDBRANCH  21  22
ENDBRANCH  20  21
ENDBRANCH  19  20
ENDBRANCH  18  19
ENDBRANCH  17  18
ENDBRANCH  16  17
ENDBRANCH  15  16
ENDBRANCH   1  15
TORSDOF 22
ENDMDL
MODEL 7
REMARK VINA RESULT:    -4.022      1.926      3.779
REMARK INTER + INTRA:         -12.896
REMARK INTER:                  -8.870
REMARK INTRA:                  -4.026
REMARK UNBOUND:                -3.701
REMARK SMILES CCCCCCCCCCCCCCCCCCCCCCCC(=O)[O-]
REMARK SMILES IDX 13 1 14 2 15 3 16 4 17 5 18 6 19 7 20 8 21 9 22 10 23 11
REMARK SMILES IDX 24 12 25 13 26 14 12 15 11 16 10 17 9 18 8 19 7 20 6 21 5 22
REMARK SMILES IDX 4 23 3 24 2 25 1 26
REMARK H PARENT
REMARK Flexibility Score: inf
ROOT
ATOM      1  C   UNL     1      16.228  40.131  33.367  1.00  0.00     0.000 C 
ENDROOT
BRANCH   1   2
ATOM      2  C   UNL     1      15.625  40.413  31.980  1.00  0.00     0.000 C 
BRANCH   2   3
ATOM      3  C   UNL     1      16.567  40.008  30.833  1.00  0.00     0.000 C 
BRANCH   3   4
ATOM      4  C   UNL     1      16.084  40.510  29.462  1.00  0.00     0.000 C 
BRANCH   4   5
ATOM      5  C   UNL     1      14.551  40.614  29.375  1.00  0.00     0.000 C 
BRANCH   5   6
ATOM      6  C   UNL     1      13.961  40.409  27.964  1.00  0.00     0.000 C 
BRANCH   6   7
ATOM      7  C   UNL     1      14.920  39.766  26.943  1.00  0.00     0.000 C 
BRANCH   7   8
ATOM      8  C   UNL     1      14.635  38.285  26.621  1.00  0.00     0.000 C 
BRANCH   8   9
ATOM      9  C   UNL     1      15.658  37.285  27.189  1.00  0.00     0.000 C 
BRANCH   9  10
ATOM     10  C   UNL     1      17.105  37.806  27.124  1.00  0.00     0.006 C 
BRANCH  10  11
ATOM     11  C   UNL     1      17.903  37.452  28.385  1.00  0.00     0.053 C 
BRANCH  11  12
ATOM     12  C   UNL     1      17.850  35.986  28.685  1.00  0.00     0.041 C 
ATOM     13  O   UNL     1      18.440  35.163  27.935  1.00  0.00    -0.550 OA
ATOM     14  O   UNL     1      17.134  35.527  29.782  1.00  0.00    -0.550 OA
ENDBRANCH  11  12
ENDBRANCH  10  11
ENDBRANCH   9  10
ENDBRANCH   8   9
ENDBRANCH   7   8
ENDBRANCH   6   7
ENDBRANCH   5   6
ENDBRANCH   4   5
ENDBRANCH   3   4
ENDBRANCH   2   3
ENDBRANCH   1   2
BRANCH   1  15
ATOM     15  C   UNL     1      15.705  38.824  33.995  1.00  0.00     0.000 C 
BRANCH  15  16
ATOM     16  C   UNL     1      16.767  37.729  34.212  1.00  0.00     0.000 C 
BRANCH  16  17
ATOM     17  C   UNL     1      17.333  37.091  32.928  1.00  0.00     0.000 C 
BRANCH  17  18
ATOM     18  C   UNL     1      18.626  36.276  33.147  1.00  0.00    -0.000 C 
BRANCH  18  19
ATOM     19  C   UNL     1      19.730  36.632  32.136  1.00  0.00    -0.000 C 
BRANCH  19  20
ATOM     20  C   UNL     1      19.592  38.064  31.594  1.00  0.00    -0.000 C 
BRANCH  20  21
ATOM     21  C   UNL     1      20.558  39.047  32.272  1.00  0.00    -0.000 C 
BRANCH  21  22
ATOM     22  C   UNL     1      19.811  39.970  33.247  1.00  0.00    -0.000 C 
BRANCH  22  23
ATOM     23  C   UNL     1      19.979  39.545  34.715  1.00  0.00    -0.000 C 
BRANCH  23  24
ATOM     24  C   UNL     1      21.188  38.624  34.934  1.00  0.00    -0.000 C 
BRANCH  24  25
ATOM     25  C   UNL     1      20.790  37.377  35.732  1.00  0.00    -0.003 C 
ATOM     26  C   UNL     1      21.989  36.459  35.956  1.00  0.00     0.004 C 
ENDBRANCH  24  25
ENDBRANCH  23  24
ENDBRANCH  22  23
ENDBRANCH  21  22
ENDBRANCH  20  21
ENDBRANCH  19  20
ENDBRANCH  18  19
ENDBRANCH  17  18
ENDBRANCH  16  17
ENDBRANCH  15  16
ENDBRANCH   1  15
TORSDOF 22
ENDMDL
MODEL 8
REMARK VINA RESULT:    -4.000      4.351      8.822
REMARK INTER + INTRA:         -12.845
REMARK INTER:                  -9.589
REMARK INTRA:                  -3.256
REMARK UNBOUND:                -3.701
REMARK SMILES CCCCCCCCCCCCCCCCCCCCCCCC(=O)[O-]
REMARK SMILES IDX 13 1 14 2 15 3 16 4 17 5 18 6 19 7 20 8 21 9 22 10 23 11
REMARK SMILES IDX 24 12 25 13 26 14 12 15 11 16 10 17 9 18 8 19 7 20 6 21 5 22
REMARK SMILES IDX 4 23 3 24 2 25 1 26
REMARK H PARENT
REMARK Flexibility Score: inf
ROOT
ATOM      1  C   UNL     1      18.237  36.474  32.824  1.00  0.00     0.000 C 
ENDROOT
BRANCH   1   2
ATOM      2  C   UNL     1      18.944  37.190  31.661  1.00  0.00     0.000 C 
BRANCH   2   3
ATOM      3  C   UNL     1      20.463  36.944  31.653  1.00  0.00     0.000 C 
BRANCH   3   4
ATOM      4  C   UNL     1      21.273  38.208  31.989  1.00  0.00     0.000 C 
BRANCH   4   5
ATOM      5  C   UNL     1      20.864  38.832  33.335  1.00  0.00     0.000 C 
BRANCH   5   6
ATOM      6  C   UNL     1      21.763  38.455  34.530  1.00  0.00     0.000 C 
BRANCH   6   7
ATOM      7  C   UNL     1      21.494  37.062  35.134  1.00  0.00     0.000 C 
BRANCH   7   8
ATOM      8  C   UNL     1      20.765  37.067  36.493  1.00  0.00     0.000 C 
BRANCH   8   9
ATOM      9  C   UNL     1      20.404  38.462  37.035  1.00  0.00     0.000 C 
BRANCH   9  10
ATOM     10  C   UNL     1      19.123  38.460  37.886  1.00  0.00     0.006 C 
BRANCH  10  11
ATOM     11  C   UNL     1      19.376  37.947  39.310  1.00  0.00     0.053 C 
BRANCH  11  12
ATOM     12  C   UNL     1      20.440  38.738  40.006  1.00  0.00     0.041 C 
ATOM     13  O   UNL     1      20.214  39.921  40.374  1.00  0.00    -0.550 OA
ATOM     14  O   UNL     1      21.689  38.174  40.232  1.00  0.00    -0.550 OA
ENDBRANCH  11  12
ENDBRANCH  10  11
ENDBRANCH   9  10
ENDBRANCH   8   9
ENDBRANCH   7   8
ENDBRANCH   6   7
ENDBRANCH   5   6
ENDBRANCH   4   5
ENDBRANCH   3   4
ENDBRANCH   2   3
ENDBRANCH   1   2
BRANCH   1  15
ATOM     15  C   UNL     1      16.949  37.190  33.275  1.00  0.00     0.000 C 
BRANCH  15  16
ATOM     16  C   UNL     1      16.996  37.796  34.692  1.00  0.00     0.000 C 
BRANCH  16  17
ATOM     17  C   UNL     1      17.536  39.237  34.779  1.00  0.00     0.000 C 
BRANCH  17  18
ATOM     18  C   UNL     1      16.934  40.199  33.733  1.00  0.00    -0.000 C 
BRANCH  18  19
ATOM     19  C   UNL     1      17.989  41.125  33.102  1.00  0.00    -0.000 C 
BRANCH  19  20
ATOM     20  C   UNL     1      18.341  40.719  31.661  1.00  0.00    -0.000 C 
BRANCH  20  21
ATOM     21  C   UNL     1      17.107  40.657  30.748  1.00  0.00    -0.000 C 
BRANCH  21  22
ATOM     22  C   UNL     1      17.517  40.467  29.279  1.00  0.00    -0.000 C 
BRANCH  22  23
ATOM     23  C   UNL     1      16.434  39.763  28.446  1.00  0.00    -0.000 C 
BRANCH  23  24
ATOM     24  C   UNL     1      15.518  40.749  27.705  1.00  0.00    -0.000 C 
BRANCH  24  25
ATOM     25  C   UNL     1      14.045  40.470  28.020  1.00  0.00    -0.003 C 
ATOM     26  C   UNL     1      13.659  41.021  29.390  1.00  0.00     0.004 C 
ENDBRANCH  24  25
ENDBRANCH  23  24
ENDBRANCH  22  23
ENDBRANCH  21  22
ENDBRANCH  20  21
ENDBRANCH  19  20
ENDBRANCH  18  19
ENDBRANCH  17  18
ENDBRANCH  16  17
ENDBRANCH  15  16
ENDBRANCH   1  15
TORSDOF 22
ENDMDL
MODEL 9
REMARK VINA RESULT:    -3.974      2.508      7.992
REMARK INTER + INTRA:         -12.787
REMARK INTER:                  -8.969
REMARK INTRA:                  -3.818
REMARK UNBOUND:                -3.701
REMARK SMILES CCCCCCCCCCCCCCCCCCCCCCCC(=O)[O-]
REMARK SMILES IDX 13 1 14 2 15 3 16 4 17 5 18 6 19 7 20 8 21 9 22 10 23 11
REMARK SMILES IDX 24 12 25 13 26 14 12 15 11 16 10 17 9 18 8 19 7 20 6 21 5 22
REMARK SMILES IDX 4 23 3 24 2 25 1 26
REMARK H PARENT
REMARK Flexibility Score: inf
ROOT
ATOM      1  C   UNL     1      18.504  39.567  30.683  1.00  0.00     0.000 C 
ENDROOT
BRANCH   1   2
ATOM      2  C   UNL     1      19.480  38.382  30.580  1.00  0.00     0.000 C 
BRANCH   2   3
ATOM      3  C   UNL     1      19.140  37.250  31.565  1.00  0.00     0.000 C 
BRANCH   3   4
ATOM      4  C   UNL     1      20.353  36.801  32.397  1.00  0.00     0.000 C 
BRANCH   4   5
ATOM      5  C   UNL     1      21.236  37.981  32.841  1.00  0.00     0.000 C 
BRANCH   5   6
ATOM      6  C   UNL     1      21.746  37.905  34.295  1.00  0.00     0.000 C 
BRANCH   6   7
ATOM      7  C   UNL     1      20.921  36.997  35.229  1.00  0.00     0.000 C 
BRANCH   7   8
ATOM      8  C   UNL     1      20.427  37.668  36.526  1.00  0.00     0.000 C 
BRANCH   8   9
ATOM      9  C   UNL     1      19.321  38.722  36.335  1.00  0.00     0.000 C 
BRANCH   9  10
ATOM     10  C   UNL     1      18.164  38.224  35.453  1.00  0.00     0.006 C 
BRANCH  10  11
ATOM     11  C   UNL     1      17.739  39.269  34.414  1.00  0.00     0.053 C 
BRANCH  11  12
ATOM     12  C   UNL     1      16.417  38.934  33.794  1.00  0.00     0.041 C 
ATOM     13  O   UNL     1      16.156  37.748  33.459  1.00  0.00    -0.550 OA
ATOM     14  O   UNL     1      15.480  39.934  33.571  1.00  0.00    -0.550 OA
ENDBRANCH  11  12
ENDBRANCH  10  11
ENDBRANCH   9  10
ENDBRANCH   8   9
ENDBRANCH   7   8
ENDBRANCH   6   7
ENDBRANCH   5   6
ENDBRANCH   4   5
ENDBRANCH   3   4
ENDBRANCH   2   3
ENDBRANCH   1   2
BRANCH   1  15
ATOM     15  C   UNL     1      17.103  39.241  30.130  1.00  0.00     0.000 C 
BRANCH  15  16
ATOM     16  C   UNL     1      16.391  40.407  29.415  1.00  0.00     0.000 C 
BRANCH  16  17
ATOM     17  C   UNL     1      14.881  40.532  29.694  1.00  0.00     0.000 C 
BRANCH  17  18
ATOM     18  C   UNL     1      14.004  40.542  28.424  1.00  0.00    -0.000 C 
BRANCH  18  19
ATOM     19  C   UNL     1      14.777  40.109  27.166  1.00  0.00    -0.000 C 
BRANCH  19  20
ATOM     20  C   UNL     1      14.559  38.626  26.824  1.00  0.00    -0.000 C 
BRANCH  20  21
ATOM     21  C   UNL     1      15.718  38.032  26.010  1.00  0.00    -0.000 C 
BRANCH  21  22
ATOM     22  C   UNL     1      16.971  38.916  26.110  1.00  0.00    -0.000 C 
BRANCH  22  23
ATOM     23  C   UNL     1      18.166  38.185  26.744  1.00  0.00    -0.000 C 
BRANCH  23  24
ATOM     24  C   UNL     1      18.044  36.656  26.656  1.00  0.00    -0.000 C 
BRANCH  24  25
ATOM     25  C   UNL     1      18.378  36.001  28.000  1.00  0.00    -0.003 C 
ATOM     26  C   UNL     1      17.112  35.700  28.798  1.00  0.00     0.004 C 
ENDBRANCH  24  25
ENDBRANCH  23  24
ENDBRANCH  22  23
ENDBRANCH  21  22
ENDBRANCH  20  21
ENDBRANCH  19  20
ENDBRANCH  18  19
ENDBRANCH  17  18
ENDBRANCH  16  17
ENDBRANCH  15  16
ENDBRANCH   1  15
TORSDOF 22
ENDMDL
