MODEL 1
REMARK VINA RESULT:    -4.819      0.000      0.000
REMARK INTER + INTRA:         -11.162
REMARK INTER:                  -9.326
REMARK INTRA:                  -1.836
REMARK UNBOUND:                -1.836
REMARK SMILES CCCCCCCCCCCCCCCCCC(=O)[O-]
REMARK SMILES IDX 10 1 11 2 12 3 13 4 14 5 15 6 16 7 17 8 18 9 19 10 20 11
REMARK SMILES IDX 9 12 8 13 7 14 6 15 5 16 4 17 3 18 2 19 1 20
REMARK H PARENT
REMARK Flexibility Score: inf
ROOT
ATOM      1  C   UNL     1      12.570   5.756  27.460  1.00  0.00     0.000 C 
ENDROOT
BRANCH   1   2
ATOM      2  C   UNL     1      13.909   6.361  26.996  1.00  0.00     0.000 C 
BRANCH   2   3
ATOM      3  C   UNL     1      13.918   6.907  25.558  1.00  0.00     0.000 C 
BRANCH   3   4
ATOM      4  C   UNL     1      14.862   8.110  25.383  1.00  0.00     0.000 C 
BRANCH   4   5
ATOM      5  C   UNL     1      15.377   8.257  23.941  1.00  0.00     0.000 C 
BRANCH   5   6
ATOM      6  C   UNL     1      15.087   9.620  23.285  1.00  0.00     0.000 C 
BRANCH   6   7
ATOM      7  C   UNL     1      13.986   9.567  22.205  1.00  0.00     0.006 C 
BRANCH   7   8
ATOM      8  C   UNL     1      13.669   8.132  21.768  1.00  0.00     0.053 C 
BRANCH   8   9
ATOM      9  C   UNL     1      12.285   7.752  22.183  1.00  0.00     0.041 C 
ATOM     10  O   UNL     1      11.669   6.839  21.574  1.00  0.00    -0.550 OA
ATOM     11  O   UNL     1      11.653   8.443  23.210  1.00  0.00    -0.550 OA
ENDBRANCH   8   9
ENDBRANCH   7   8
ENDBRANCH   6   7
ENDBRANCH   5   6
ENDBRANCH   4   5
ENDBRANCH   3   4
ENDBRANCH   2   3
ENDBRANCH   1   2
BRANCH   1  12
ATOM     12  C   UNL     1      11.337   6.611  27.098  1.00  0.00     0.000 C 
BRANCH  12  13
ATOM     13  C   UNL     1      10.076   5.758  26.866  1.00  0.00    -0.000 C 
BRANCH  13  14
ATOM     14  C   UNL     1      10.232   4.318  27.381  1.00  0.00    -0.000 C 
BRANCH  14  15
ATOM     15  C   UNL     1       9.485   4.078  28.706  1.00  0.00    -0.000 C 
BRANCH  15  16
ATOM     16  C   UNL     1      10.429   4.049  29.918  1.00  0.00    -0.000 C 
BRANCH  16  17
ATOM     17  C   UNL     1      10.390   5.352  30.732  1.00  0.00    -0.000 C 
BRANCH  17  18
ATOM     18  C   UNL     1       9.119   6.155  30.417  1.00  0.00    -0.000 C 
BRANCH  18  19
ATOM     19  C   UNL     1       9.243   7.634  30.816  1.00  0.00    -0.003 C 
ATOM     20  C   UNL     1       9.498   8.549  29.619  1.00  0.00     0.004 C 
ENDBRANCH  18  19
ENDBRANCH  17  18
ENDBRANCH  16  17
ENDBRANCH  15  16
ENDBRANCH  14  15
ENDBRANCH  13  14
ENDBRANCH  12  13
ENDBRANCH   1  12
TORSDOF 16
ENDMDL
MODEL 2
REMARK VINA RESULT:    -4.792      1.234      2.734
REMARK INTER + INTRA:         -11.110
REMARK INTER:                  -8.714
REMARK INTRA:                  -2.397
REMARK UNBOUND:                -1.836
REMARK SMILES CCCCCCCCCCCCCCCCCC(=O)[O-]
REMARK SMILES IDX 10 1 11 2 12 3 13 4 14 5 15 6 16 7 17 8 18 9 19 10 20 11
REMARK SMILES IDX 9 12 8 13 7 14 6 15 5 16 4 17 3 18 2 19 1 20
REMARK H PARENT
REMARK Flexibility Score: inf
ROOT
ATOM      1  C   UNL     1      11.062   6.777  26.762  1.00  0.00     0.000 C 
ENDROOT
BRANCH   1   2
ATOM      2  C   UNL     1      12.298   5.993  27.243  1.00  0.00     0.000 C 
BRANCH   2   3
ATOM      3  C   UNL     1      13.461   5.922  26.239  1.00  0.00     0.000 C 
BRANCH   3   4
ATOM      4  C   UNL     1      14.400   7.138  26.328  1.00  0.00     0.000 C 
BRANCH   4   5
ATOM      5  C   UNL     1      14.446   7.952  25.023  1.00  0.00     0.000 C 
BRANCH   5   6
ATOM      6  C   UNL     1      13.439   9.115  24.950  1.00  0.00     0.000 C 
BRANCH   6   7
ATOM      7  C   UNL     1      12.266   8.860  23.981  1.00  0.00     0.006 C 
BRANCH   7   8
ATOM      8  C   UNL     1      12.489   7.615  23.113  1.00  0.00     0.053 C 
BRANCH   8   9
ATOM      9  C   UNL     1      12.868   8.009  21.722  1.00  0.00     0.041 C 
ATOM     10  O   UNL     1      12.217   7.566  20.739  1.00  0.00    -0.550 OA
ATOM     11  O   UNL     1      13.972   8.823  21.506  1.00  0.00    -0.550 OA
ENDBRANCH   8   9
ENDBRANCH   7   8
ENDBRANCH   6   7
ENDBRANCH   5   6
ENDBRANCH   4   5
ENDBRANCH   3   4
ENDBRANCH   2   3
ENDBRANCH   1   2
BRANCH   1  12
ATOM     12  C   UNL     1      10.653   7.938  27.694  1.00  0.00     0.000 C 
BRANCH  12  13
ATOM     13  C   UNL     1       9.318   7.672  28.415  1.00  0.00    -0.000 C 
BRANCH  13  14
ATOM     14  C   UNL     1       9.268   8.295  29.818  1.00  0.00    -0.000 C 
BRANCH  14  15
ATOM     15  C   UNL     1       9.054   7.247  30.926  1.00  0.00    -0.000 C 
BRANCH  15  16
ATOM     16  C   UNL     1      10.188   6.211  30.985  1.00  0.00    -0.000 C 
BRANCH  16  17
ATOM     17  C   UNL     1       9.673   4.764  30.926  1.00  0.00    -0.000 C 
BRANCH  17  18
ATOM     18  C   UNL     1      10.210   4.042  29.681  1.00  0.00    -0.000 C 
BRANCH  18  19
ATOM     19  C   UNL     1       9.228   4.095  28.500  1.00  0.00    -0.003 C 
ATOM     20  C   UNL     1       9.736   3.337  27.275  1.00  0.00     0.004 C 
ENDBRANCH  18  19
ENDBRANCH  17  18
ENDBRANCH  16  17
ENDBRANCH  15  16
ENDBRANCH  14  15
ENDBRANCH  13  14
ENDBRANCH  12  13
ENDBRANCH   1  12
TORSDOF 16
ENDMDL
MODEL 3
REMARK VINA RESULT:    -4.674      2.664      7.705
REMARK INTER + INTRA:         -10.882
REMARK INTER:                  -8.581
REMARK INTRA:                  -2.302
REMARK UNBOUND:                -1.836
REMARK SMILES CCCCCCCCCCCCCCCCCC(=O)[O-]
REMARK SMILES IDX 10 1 11 2 12 3 13 4 14 5 15 6 16 7 17 8 18 9 19 10 20 11
REMARK SMILES IDX 9 12 8 13 7 14 6 15 5 16 4 17 3 18 2 19 1 20
REMARK H PARENT
REMARK Flexibility Score: inf
ROOT
ATOM      1  C   UNL     1      13.496   6.541  26.085  1.00  0.00     0.000 C 
ENDROOT
BRANCH   1   2
ATOM      2  C   UNL     1      12.284   6.722  27.019  1.00  0.00     0.000 C 
BRANCH   2   3
ATOM      3  C   UNL     1      10.962   6.134  26.496  1.00  0.00     0.000 C 
BRANCH   3   4
ATOM      4  C   UNL     1       9.724   6.843  27.075  1.00  0.00     0.000 C 
BRANCH   4   5
ATOM      5  C   UNL     1      10.055   7.708  28.304  1.00  0.00     0.000 C 
BRANCH   5   6
ATOM      6  C   UNL     1       9.132   7.489  29.518  1.00  0.00     0.000 C 
BRANCH   6   7
ATOM      7  C   UNL     1       9.766   6.630  30.631  1.00  0.00     0.006 C 
BRANCH   7   8
ATOM      8  C   UNL     1       9.393   5.147  30.506  1.00  0.00     0.053 C 
BRANCH   8   9
ATOM      9  C   UNL     1      10.456   4.401  29.768  1.00  0.00     0.041 C 
ATOM     10  O   UNL     1      10.148   3.631  28.820  1.00  0.00    -0.550 OA
ATOM     11  O   UNL     1      11.784   4.513  30.160  1.00  0.00    -0.550 OA
ENDBRANCH   8   9
ENDBRANCH   7   8
ENDBRANCH   6   7
ENDBRANCH   5   6
ENDBRANCH   4   5
ENDBRANCH   3   4
ENDBRANCH   2   3
ENDBRANCH   1   2
BRANCH   1  12
ATOM     12  C   UNL     1      14.117   7.869  25.599  1.00  0.00     0.000 C 
BRANCH  12  13
ATOM     13  C   UNL     1      15.023   7.679  24.368  1.00  0.00    -0.000 C 
BRANCH  13  14
ATOM     14  C   UNL     1      15.589   9.006  23.838  1.00  0.00    -0.000 C 
BRANCH  14  15
ATOM     15  C   UNL     1      14.512   9.889  23.180  1.00  0.00    -0.000 C 
BRANCH  15  16
ATOM     16  C   UNL     1      14.185   9.448  21.745  1.00  0.00    -0.000 C 
BRANCH  16  17
ATOM     17  C   UNL     1      12.705   9.082  21.560  1.00  0.00    -0.000 C 
BRANCH  17  18
ATOM     18  C   UNL     1      12.501   7.562  21.654  1.00  0.00    -0.000 C 
BRANCH  18  19
ATOM     19  C   UNL     1      11.497   7.168  22.748  1.00  0.00    -0.003 C 
ATOM     20  C   UNL     1      11.021   8.365  23.571  1.00  0.00     0.004 C 
ENDBRANCH  18  19
ENDBRANCH  17  18
ENDBRANCH  16  17
ENDBRANCH  15  16
ENDBRANCH  14  15
ENDBRANCH  13  14
ENDBRANCH  12  13
ENDBRANCH   1  12
TORSDOF 16
ENDMDL
MODEL 4
REMARK VINA RESULT:    -4.589      2.958      7.302
REMARK INTER + INTRA:         -10.718
REMARK INTER:                  -8.542
REMARK INTRA:                  -2.176
REMARK UNBOUND:                -1.836
REMARK SMILES CCCCCCCCCCCCCCCCCC(=O)[O-]
REMARK SMILES IDX 10 1 11 2 12 3 13 4 14 5 15 6 16 7 17 8 18 9 19 10 20 11
REMARK SMILES IDX 9 12 8 13 7 14 6 15 5 16 4 17 3 18 2 19 1 20
REMARK H PARENT
REMARK Flexibility Score: inf
ROOT
ATOM      1  C   UNL     1      11.472   7.043  23.439  1.00  0.00     0.000 C 
ENDROOT
BRANCH   1   2
ATOM      2  C   UNL     1      11.039   8.445  23.908  1.00  0.00     0.000 C 
BRANCH   2   3
ATOM      3  C   UNL     1      11.893   9.053  25.033  1.00  0.00     0.000 C 
BRANCH   3   4
ATOM      4  C   UNL     1      11.143   9.135  26.374  1.00  0.00     0.000 C 
BRANCH   4   5
ATOM      5  C   UNL     1      11.115   7.791  27.123  1.00  0.00     0.000 C 
BRANCH   5   6
ATOM      6  C   UNL     1      12.386   6.936  26.967  1.00  0.00     0.000 C 
BRANCH   6   7
ATOM      7  C   UNL     1      12.136   5.420  27.111  1.00  0.00     0.006 C 
BRANCH   7   8
ATOM      8  C   UNL     1      10.678   5.102  27.463  1.00  0.00     0.053 C 
BRANCH   8   9
ATOM      9  C   UNL     1      10.571   4.640  28.880  1.00  0.00     0.041 C 
ATOM     10  O   UNL     1      11.577   4.681  29.638  1.00  0.00    -0.550 OA
ATOM     11  O   UNL     1       9.375   4.113  29.351  1.00  0.00    -0.550 OA
ENDBRANCH   8   9
ENDBRANCH   7   8
ENDBRANCH   6   7
ENDBRANCH   5   6
ENDBRANCH   4   5
ENDBRANCH   3   4
ENDBRANCH   2   3
ENDBRANCH   1   2
BRANCH   1  12
ATOM     12  C   UNL     1      11.566   6.896  21.905  1.00  0.00     0.000 C 
BRANCH  12  13
ATOM     13  C   UNL     1      12.215   8.121  21.234  1.00  0.00    -0.000 C 
BRANCH  13  14
ATOM     14  C   UNL     1      13.722   8.224  21.520  1.00  0.00    -0.000 C 
BRANCH  14  15
ATOM     15  C   UNL     1      14.129   9.607  22.062  1.00  0.00    -0.000 C 
BRANCH  15  16
ATOM     16  C   UNL     1      15.084   9.512  23.262  1.00  0.00    -0.000 C 
BRANCH  16  17
ATOM     17  C   UNL     1      15.188   8.086  23.826  1.00  0.00    -0.000 C 
BRANCH  17  18
ATOM     18  C   UNL     1      15.575   8.112  25.312  1.00  0.00    -0.000 C 
BRANCH  18  19
ATOM     19  C   UNL     1      17.025   8.568  25.536  1.00  0.00    -0.003 C 
ATOM     20  C   UNL     1      18.024   7.807  24.667  1.00  0.00     0.004 C 
ENDBRANCH  18  19
ENDBRANCH  17  18
ENDBRANCH  16  17
ENDBRANCH  15  16
ENDBRANCH  14  15
ENDBRANCH  13  14
ENDBRANCH  12  13
ENDBRANCH   1  12
TORSDOF 16
ENDMDL
MODEL 5
REMARK VINA RESULT:    -4.554      2.440      7.499
REMARK INTER + INTRA:         -10.650
REMARK INTER:                  -8.688
REMARK INTRA:                  -1.963
REMARK UNBOUND:                -1.836
REMARK SMILES CCCCCCCCCCCCCCCCCC(=O)[O-]
REMARK SMILES IDX 10 1 11 2 12 3 13 4 14 5 15 6 16 7 17 8 18 9 19 10 20 11
REMARK SMILES IDX 9 12 8 13 7 14 6 15 5 16 4 17 3 18 2 19 1 20
REMARK H PARENT
REMARK Flexibility Score: inf
ROOT
ATOM      1  C   UNL     1      11.385   8.947  24.741  1.00  0.00     0.000 C 
ENDROOT
BRANCH   1   2
ATOM      2  C   UNL     1      11.273   9.272  26.243  1.00  0.00     0.000 C 
BRANCH   2   3
ATOM      3  C   UNL     1      10.942   8.075  27.150  1.00  0.00     0.000 C 
BRANCH   3   4
ATOM      4  C   UNL     1      10.204   8.487  28.436  1.00  0.00     0.000 C 
BRANCH   4   5
ATOM      5  C   UNL     1       9.058   7.527  28.798  1.00  0.00     0.000 C 
BRANCH   5   6
ATOM      6  C   UNL     1       9.176   6.872  30.188  1.00  0.00     0.000 C 
BRANCH   6   7
ATOM      7  C   UNL     1      10.032   5.589  30.198  1.00  0.00     0.006 C 
BRANCH   7   8
ATOM      8  C   UNL     1       9.375   4.445  29.415  1.00  0.00     0.053 C 
BRANCH   8   9
ATOM      9  C   UNL     1      10.133   4.169  28.157  1.00  0.00     0.041 C 
ATOM     10  O   UNL     1       9.738   3.275  27.363  1.00  0.00    -0.550 OA
ATOM     11  O   UNL     1      11.306   4.862  27.886  1.00  0.00    -0.550 OA
ENDBRANCH   8   9
ENDBRANCH   7   8
ENDBRANCH   6   7
ENDBRANCH   5   6
ENDBRANCH   4   5
ENDBRANCH   3   4
ENDBRANCH   2   3
ENDBRANCH   1   2
BRANCH   1  12
ATOM     12  C   UNL     1      10.985   7.500  24.381  1.00  0.00     0.000 C 
BRANCH  12  13
ATOM     13  C   UNL     1      11.836   6.921  23.236  1.00  0.00    -0.000 C 
BRANCH  13  14
ATOM     14  C   UNL     1      11.428   7.469  21.859  1.00  0.00    -0.000 C 
BRANCH  14  15
ATOM     15  C   UNL     1      12.510   8.370  21.235  1.00  0.00    -0.000 C 
BRANCH  15  16
ATOM     16  C   UNL     1      13.858   8.267  21.967  1.00  0.00    -0.000 C 
BRANCH  16  17
ATOM     17  C   UNL     1      14.438   9.641  22.337  1.00  0.00    -0.000 C 
BRANCH  17  18
ATOM     18  C   UNL     1      14.980   9.637  23.774  1.00  0.00    -0.000 C 
BRANCH  18  19
ATOM     19  C   UNL     1      15.459   8.247  24.220  1.00  0.00    -0.003 C 
ATOM     20  C   UNL     1      14.789   7.777  25.510  1.00  0.00     0.004 C 
ENDBRANCH  18  19
ENDBRANCH  17  18
ENDBRANCH  16  17
ENDBRANCH  15  16
ENDBRANCH  14  15
ENDBRANCH  13  14
ENDBRANCH  12  13
ENDBRANCH   1  12
TORSDOF 16
ENDMDL
MODEL 6
REMARK VINA RESULT:    -4.534      2.647      4.224
REMARK INTER + INTRA:         -10.611
REMARK INTER:                  -9.011
REMARK INTRA:                  -1.600
REMARK UNBOUND:                -1.836
REMARK SMILES CCCCCCCCCCCCCCCCCC(=O)[O-]
REMARK SMILES IDX 10 1 11 2 12 3 13 4 14 5 15 6 16 7 17 8 18 9 19 10 20 11
REMARK SMILES IDX 9 12 8 13 7 14 6 15 5 16 4 17 3 18 2 19 1 20
REMARK H PARENT
REMARK Flexibility Score: inf
ROOT
ATOM      1  C   UNL     1      11.999   7.126  23.595  1.00  0.00     0.000 C 
ENDROOT
BRANCH   1   2
ATOM      2  C   UNL     1      12.071   7.650  22.148  1.00  0.00     0.000 C 
BRANCH   2   3
ATOM      3  C   UNL     1      13.422   8.261  21.739  1.00  0.00     0.000 C 
BRANCH   3   4
ATOM      4  C   UNL     1      14.455   8.243  22.881  1.00  0.00     0.000 C 
BRANCH   4   5
ATOM      5  C   UNL     1      14.947   9.650  23.260  1.00  0.00     0.000 C 
BRANCH   5   6
ATOM      6  C   UNL     1      15.280   9.840  24.752  1.00  0.00     0.000 C 
BRANCH   6   7
ATOM      7  C   UNL     1      15.486   8.514  25.515  1.00  0.00     0.006 C 
BRANCH   7   8
ATOM      8  C   UNL     1      16.923   8.357  26.029  1.00  0.00     0.053 C 
BRANCH   8   9
ATOM      9  C   UNL     1      17.868   8.160  24.888  1.00  0.00     0.041 C 
ATOM     10  O   UNL     1      17.750   7.159  24.133  1.00  0.00    -0.550 OA
ATOM     11  O   UNL     1      18.913   9.053  24.689  1.00  0.00    -0.550 OA
ENDBRANCH   8   9
ENDBRANCH   7   8
ENDBRANCH   6   7
ENDBRANCH   5   6
ENDBRANCH   4   5
ENDBRANCH   3   4
ENDBRANCH   2   3
ENDBRANCH   1   2
BRANCH   1  12
ATOM     12  C   UNL     1      11.026   7.912  24.500  1.00  0.00     0.000 C 
BRANCH  12  13
ATOM     13  C   UNL     1      11.741   8.600  25.678  1.00  0.00    -0.000 C 
BRANCH  13  14
ATOM     14  C   UNL     1      11.249   8.099  27.045  1.00  0.00    -0.000 C 
BRANCH  14  15
ATOM     15  C   UNL     1      10.112   7.068  26.924  1.00  0.00    -0.000 C 
BRANCH  15  16
ATOM     16  C   UNL     1       9.662   6.523  28.289  1.00  0.00    -0.000 C 
BRANCH  16  17
ATOM     17  C   UNL     1      10.073   5.059  28.508  1.00  0.00    -0.000 C 
BRANCH  17  18
ATOM     18  C   UNL     1       9.450   4.502  29.796  1.00  0.00    -0.000 C 
BRANCH  18  19
ATOM     19  C   UNL     1      10.501   4.201  30.877  1.00  0.00    -0.003 C 
ATOM     20  C   UNL     1      11.924   4.518  30.420  1.00  0.00     0.004 C 
ENDBRANCH  18  19
ENDBRANCH  17  18
ENDBRANCH  16  17
ENDBRANCH  15  16
ENDBRANCH  14  15
ENDBRANCH  13  14
ENDBRANCH  12  13
ENDBRANCH   1  12
TORSDOF 16
ENDMDL
MODEL 7
REMARK VINA RESULT:    -4.520      9.675     14.001
REMARK INTER + INTRA:         -10.583
REMARK INTER:                  -8.308
REMARK INTRA:                  -2.276
REMARK UNBOUND:                -1.836
REMARK SMILES CCCCCCCCCCCCCCCCCC(=O)[O-]
REMARK SMILES IDX 10 1 11 2 12 3 13 4 14 5 15 6 16 7 17 8 18 9 19 10 20 11
REMARK SMILES IDX 9 12 8 13 7 14 6 15 5 16 4 17 3 18 2 19 1 20
REMARK H PARENT
REMARK Flexibility Score: inf
ROOT
ATOM      1  C   UNL     1       3.536   7.165  15.885  1.00  0.00     0.000 C 
ENDROOT
BRANCH   1   2
ATOM      2  C   UNL     1       2.615   8.245  15.287  1.00  0.00     0.000 C 
BRANCH   2   3
ATOM      3  C   UNL     1       1.947   9.177  16.312  1.00  0.00     0.000 C 
BRANCH   3   4
ATOM      4  C   UNL     1       2.885   9.560  17.471  1.00  0.00     0.000 C 
BRANCH   4   5
ATOM      5  C   UNL     1       2.392   9.037  18.832  1.00  0.00     0.000 C 
BRANCH   5   6
ATOM      6  C   UNL     1       3.508   8.602  19.801  1.00  0.00     0.000 C 
BRANCH   6   7
ATOM      7  C   UNL     1       4.907   8.549  19.152  1.00  0.00     0.006 C 
BRANCH   7   8
ATOM      8  C   UNL     1       5.664   7.264  19.507  1.00  0.00     0.053 C 
BRANCH   8   9
ATOM      9  C   UNL     1       6.044   7.263  20.952  1.00  0.00     0.041 C 
ATOM     10  O   UNL     1       5.639   6.345  21.713  1.00  0.00    -0.550 OA
ATOM     11  O   UNL     1       6.802   8.304  21.473  1.00  0.00    -0.550 OA
ENDBRANCH   8   9
ENDBRANCH   7   8
ENDBRANCH   6   7
ENDBRANCH   5   6
ENDBRANCH   4   5
ENDBRANCH   3   4
ENDBRANCH   2   3
ENDBRANCH   1   2
BRANCH   1  12
ATOM     12  C   UNL     1       4.746   6.808  14.994  1.00  0.00     0.000 C 
BRANCH  12  13
ATOM     13  C   UNL     1       6.071   6.795  15.779  1.00  0.00    -0.000 C 
BRANCH  13  14
ATOM     14  C   UNL     1       6.659   8.201  15.975  1.00  0.00    -0.000 C 
BRANCH  14  15
ATOM     15  C   UNL     1       6.767   8.988  14.656  1.00  0.00    -0.000 C 
BRANCH  15  16
ATOM     16  C   UNL     1       8.049   8.657  13.875  1.00  0.00    -0.000 C 
BRANCH  16  17
ATOM     17  C   UNL     1       7.879   8.825  12.357  1.00  0.00    -0.000 C 
BRANCH  17  18
ATOM     18  C   UNL     1       8.016   7.475  11.638  1.00  0.00    -0.000 C 
BRANCH  18  19
ATOM     19  C   UNL     1       6.815   6.549  11.889  1.00  0.00    -0.003 C 
ATOM     20  C   UNL     1       7.205   5.261  12.612  1.00  0.00     0.004 C 
ENDBRANCH  18  19
ENDBRANCH  17  18
ENDBRANCH  16  17
ENDBRANCH  15  16
ENDBRANCH  14  15
ENDBRANCH  13  14
ENDBRANCH  12  13
ENDBRANCH   1  12
TORSDOF 16
ENDMDL
MODEL 8
REMARK VINA RESULT:    -4.485      1.507      2.867
REMARK INTER + INTRA:         -10.517
REMARK INTER:                  -8.332
REMARK INTRA:                  -2.185
REMARK UNBOUND:                -1.836
REMARK SMILES CCCCCCCCCCCCCCCCCC(=O)[O-]
REMARK SMILES IDX 10 1 11 2 12 3 13 4 14 5 15 6 16 7 17 8 18 9 19 10 20 11
REMARK SMILES IDX 9 12 8 13 7 14 6 15 5 16 4 17 3 18 2 19 1 20
REMARK H PARENT
REMARK Flexibility Score: inf
ROOT
ATOM      1  C   UNL     1      13.834   6.298  25.529  1.00  0.00     0.000 C 
ENDROOT
BRANCH   1   2
ATOM      2  C   UNL     1      14.589   7.615  25.790  1.00  0.00     0.000 C 
BRANCH   2   3
ATOM      3  C   UNL     1      15.646   7.984  24.735  1.00  0.00     0.000 C 
BRANCH   3   4
ATOM      4  C   UNL     1      15.168   9.087  23.774  1.00  0.00     0.000 C 
BRANCH   4   5
ATOM      5  C   UNL     1      13.727   9.543  24.061  1.00  0.00     0.000 C 
BRANCH   5   6
ATOM      6  C   UNL     1      12.690   9.119  23.004  1.00  0.00     0.000 C 
BRANCH   6   7
ATOM      7  C   UNL     1      13.292   8.315  21.833  1.00  0.00     0.006 C 
BRANCH   7   8
ATOM      8  C   UNL     1      12.250   7.429  21.139  1.00  0.00     0.053 C 
BRANCH   8   9
ATOM      9  C   UNL     1      11.227   8.269  20.446  1.00  0.00     0.041 C 
ATOM     10  O   UNL     1      11.554   8.977  19.458  1.00  0.00    -0.550 OA
ATOM     11  O   UNL     1       9.923   8.312  20.923  1.00  0.00    -0.550 OA
ENDBRANCH   8   9
ENDBRANCH   7   8
ENDBRANCH   6   7
ENDBRANCH   5   6
ENDBRANCH   4   5
ENDBRANCH   3   4
ENDBRANCH   2   3
ENDBRANCH   1   2
BRANCH   1  12
ATOM     12  C   UNL     1      12.537   6.144  26.352  1.00  0.00     0.000 C 
BRANCH  12  13
ATOM     13  C   UNL     1      11.314   6.758  25.645  1.00  0.00    -0.000 C 
BRANCH  13  14
ATOM     14  C   UNL     1      10.856   8.075  26.291  1.00  0.00    -0.000 C 
BRANCH  14  15
ATOM     15  C   UNL     1      10.463   7.905  27.770  1.00  0.00    -0.000 C 
BRANCH  15  16
ATOM     16  C   UNL     1       9.140   7.142  27.945  1.00  0.00    -0.000 C 
BRANCH  16  17
ATOM     17  C   UNL     1       9.121   6.272  29.212  1.00  0.00    -0.000 C 
BRANCH  17  18
ATOM     18  C   UNL     1      10.313   5.304  29.230  1.00  0.00    -0.000 C 
BRANCH  18  19
ATOM     19  C   UNL     1       9.910   3.866  28.868  1.00  0.00    -0.003 C 
ATOM     20  C   UNL     1       9.807   3.643  27.360  1.00  0.00     0.004 C 
ENDBRANCH  18  19
ENDBRANCH  17  18
ENDBRANCH  16  17
ENDBRANCH  15  16
ENDBRANCH  14  15
ENDBRANCH  13  14
ENDBRANCH  12  13
ENDBRANCH   1  12
TORSDOF 16
ENDMDL
MODEL 9
REMARK VINA RESULT:    -4.459      9.421     12.020
REMARK INTER + INTRA:         -10.465
REMARK INTER:                  -8.154
REMARK INTRA:                  -2.311
REMARK UNBOUND:                -1.836
REMARK SMILES CCCCCCCCCCCCCCCCCC(=O)[O-]
REMARK SMILES IDX 10 1 11 2 12 3 13 4 14 5 15 6 16 7 17 8 18 9 19 10 20 11
REMARK SMILES IDX 9 12 8 13 7 14 6 15 5 16 4 17 3 18 2 19 1 20
REMARK H PARENT
REMARK Flexibility Score: inf
ROOT
ATOM      1  C   UNL     1       3.902   7.275  17.473  1.00  0.00     0.000 C 
ENDROOT
BRANCH   1   2
ATOM      2  C   UNL     1       3.772   6.651  16.071  1.00  0.00     0.000 C 
BRANCH   2   3
ATOM      3  C   UNL     1       4.432   7.449  14.935  1.00  0.00     0.000 C 
BRANCH   3   4
ATOM      4  C   UNL     1       5.117   8.735  15.430  1.00  0.00     0.000 C 
BRANCH   4   5
ATOM      5  C   UNL     1       6.632   8.746  15.157  1.00  0.00     0.000 C 
BRANCH   5   6
ATOM      6  C   UNL     1       7.269   7.353  14.987  1.00  0.00     0.000 C 
BRANCH   6   7
ATOM      7  C   UNL     1       8.272   7.269  13.818  1.00  0.00     0.006 C 
BRANCH   7   8
ATOM      8  C   UNL     1       7.598   7.484  12.457  1.00  0.00     0.053 C 
BRANCH   8   9
ATOM      9  C   UNL     1       6.703   6.334  12.129  1.00  0.00     0.041 C 
ATOM     10  O   UNL     1       5.551   6.541  11.664  1.00  0.00    -0.550 OA
ATOM     11  O   UNL     1       7.118   5.034  12.385  1.00  0.00    -0.550 OA
ENDBRANCH   8   9
ENDBRANCH   7   8
ENDBRANCH   6   7
ENDBRANCH   5   6
ENDBRANCH   4   5
ENDBRANCH   3   4
ENDBRANCH   2   3
ENDBRANCH   1   2
BRANCH   1  12
ATOM     12  C   UNL     1       2.588   7.872  18.020  1.00  0.00     0.000 C 
BRANCH  12  13
ATOM     13  C   UNL     1       2.693   9.386  18.283  1.00  0.00    -0.000 C 
BRANCH  13  14
ATOM     14  C   UNL     1       3.753   9.731  19.341  1.00  0.00    -0.000 C 
BRANCH  14  15
ATOM     15  C   UNL     1       3.326   9.320  20.763  1.00  0.00    -0.000 C 
BRANCH  15  16
ATOM     16  C   UNL     1       4.523   8.958  21.657  1.00  0.00    -0.000 C 
BRANCH  16  17
ATOM     17  C   UNL     1       4.900   7.471  21.569  1.00  0.00    -0.000 C 
BRANCH  17  18
ATOM     18  C   UNL     1       6.386   7.303  21.219  1.00  0.00    -0.000 C 
BRANCH  18  19
ATOM     19  C   UNL     1       6.627   7.195  19.705  1.00  0.00    -0.003 C 
ATOM     20  C   UNL     1       7.160   8.492  19.098  1.00  0.00     0.004 C 
ENDBRANCH  18  19
ENDBRANCH  17  18
ENDBRANCH  16  17
ENDBRANCH  15  16
ENDBRANCH  14  15
ENDBRANCH  13  14
ENDBRANCH  12  13
ENDBRANCH   1  12
TORSDOF 16
ENDMDL
