MODEL 1
REMARK VINA RESULT:    -4.523      0.000      0.000
REMARK INTER + INTRA:          -9.774
REMARK INTER:                  -7.695
REMARK INTRA:                  -2.079
REMARK UNBOUND:                -2.079
REMARK SMILES CCCCCCCCCCCCCC(=O)[O-]
REMARK SMILES IDX 8 1 9 2 10 3 11 4 12 5 13 6 14 7 15 8 16 9 7 10 6 11 5 12
REMARK SMILES IDX 4 13 3 14 2 15 1 16
REMARK H PARENT
REMARK Flexibility Score: inf
ROOT
ATOM      1  C   UNL     1      21.114  17.703  47.614  1.00  0.00     0.000 C 
ENDROOT
BRANCH   1   2
ATOM      2  C   UNL     1      20.349  16.432  47.207  1.00  0.00     0.000 C 
BRANCH   2   3
ATOM      3  C   UNL     1      19.098  16.734  46.364  1.00  0.00     0.000 C 
BRANCH   3   4
ATOM      4  C   UNL     1      17.830  16.872  47.222  1.00  0.00     0.000 C 
BRANCH   4   5
ATOM      5  C   UNL     1      16.773  17.787  46.576  1.00  0.00     0.006 C 
BRANCH   5   6
ATOM      6  C   UNL     1      15.784  17.001  45.704  1.00  0.00     0.053 C 
BRANCH   6   7
ATOM      7  C   UNL     1      16.027  17.232  44.245  1.00  0.00     0.041 C 
ATOM      8  O   UNL     1      15.371  18.110  43.623  1.00  0.00    -0.550 OA
ATOM      9  O   UNL     1      16.954  16.453  43.563  1.00  0.00    -0.550 OA
ENDBRANCH   6   7
ENDBRANCH   5   6
ENDBRANCH   4   5
ENDBRANCH   3   4
ENDBRANCH   2   3
ENDBRANCH   1   2
BRANCH   1  10
ATOM     10  C   UNL     1      20.881  18.123  49.082  1.00  0.00     0.000 C 
BRANCH  10  11
ATOM     11  C   UNL     1      20.233  19.515  49.189  1.00  0.00    -0.000 C 
BRANCH  11  12
ATOM     12  C   UNL     1      20.104  20.215  47.827  1.00  0.00    -0.000 C 
BRANCH  12  13
ATOM     13  C   UNL     1      18.675  20.700  47.544  1.00  0.00    -0.000 C 
BRANCH  13  14
ATOM     14  C   UNL     1      18.491  21.030  46.058  1.00  0.00    -0.000 C 
BRANCH  14  15
ATOM     15  C   UNL     1      19.487  20.249  45.193  1.00  0.00    -0.003 C 
ATOM     16  C   UNL     1      18.821  19.722  43.925  1.00  0.00     0.004 C 
ENDBRANCH  14  15
ENDBRANCH  13  14
ENDBRANCH  12  13
ENDBRANCH  11  12
ENDBRANCH  10  11
ENDBRANCH   1  10
TORSDOF 12
ENDMDL
MODEL 2
REMARK VINA RESULT:    -4.480      1.656      4.056
REMARK INTER + INTRA:          -9.701
REMARK INTER:                  -7.933
REMARK INTRA:                  -1.767
REMARK UNBOUND:                -2.079
REMARK SMILES CCCCCCCCCCCCCC(=O)[O-]
REMARK SMILES IDX 8 1 9 2 10 3 11 4 12 5 13 6 14 7 15 8 16 9 7 10 6 11 5 12
REMARK SMILES IDX 4 13 3 14 2 15 1 16
REMARK H PARENT
REMARK Flexibility Score: inf
ROOT
ATOM      1  C   UNL     1      20.522  19.781  48.343  1.00  0.00     0.000 C 
ENDROOT
BRANCH   1   2
ATOM      2  C   UNL     1      19.204  20.557  48.513  1.00  0.00     0.000 C 
BRANCH   2   3
ATOM      3  C   UNL     1      18.466  20.777  47.181  1.00  0.00     0.000 C 
BRANCH   3   4
ATOM      4  C   UNL     1      19.428  20.892  45.988  1.00  0.00     0.000 C 
BRANCH   4   5
ATOM      5  C   UNL     1      19.202  19.791  44.935  1.00  0.00     0.006 C 
BRANCH   5   6
ATOM      6  C   UNL     1      18.758  20.368  43.583  1.00  0.00     0.053 C 
BRANCH   6   7
ATOM      7  C   UNL     1      17.527  21.209  43.717  1.00  0.00     0.041 C 
ATOM      8  O   UNL     1      16.434  20.684  44.062  1.00  0.00    -0.550 OA
ATOM      9  O   UNL     1      17.577  22.566  43.428  1.00  0.00    -0.550 OA
ENDBRANCH   6   7
ENDBRANCH   5   6
ENDBRANCH   4   5
ENDBRANCH   3   4
ENDBRANCH   2   3
ENDBRANCH   1   2
BRANCH   1  10
ATOM     10  C   UNL     1      20.728  18.672  49.397  1.00  0.00     0.000 C 
BRANCH  10  11
ATOM     11  C   UNL     1      21.017  17.306  48.749  1.00  0.00    -0.000 C 
BRANCH  11  12
ATOM     12  C   UNL     1      20.579  17.243  47.278  1.00  0.00    -0.000 C 
BRANCH  12  13
ATOM     13  C   UNL     1      20.006  15.872  46.889  1.00  0.00    -0.000 C 
BRANCH  13  14
ATOM     14  C   UNL     1      18.527  15.985  46.499  1.00  0.00    -0.000 C 
BRANCH  14  15
ATOM     15  C   UNL     1      17.840  17.119  47.269  1.00  0.00    -0.003 C 
ATOM     16  C   UNL     1      16.649  17.671  46.492  1.00  0.00     0.004 C 
ENDBRANCH  14  15
ENDBRANCH  13  14
ENDBRANCH  12  13
ENDBRANCH  11  12
ENDBRANCH  10  11
ENDBRANCH   1  10
TORSDOF 12
ENDMDL
MODEL 3
REMARK VINA RESULT:    -4.430      2.113      3.402
REMARK INTER + INTRA:          -9.617
REMARK INTER:                  -7.604
REMARK INTRA:                  -2.013
REMARK UNBOUND:                -2.079
REMARK SMILES CCCCCCCCCCCCCC(=O)[O-]
REMARK SMILES IDX 8 1 9 2 10 3 11 4 12 5 13 6 14 7 15 8 16 9 7 10 6 11 5 12
REMARK SMILES IDX 4 13 3 14 2 15 1 16
REMARK H PARENT
REMARK Flexibility Score: inf
ROOT
ATOM      1  C   UNL     1      18.823  16.144  46.553  1.00  0.00     0.000 C 
ENDROOT
BRANCH   1   2
ATOM      2  C   UNL     1      17.768  16.960  47.321  1.00  0.00     0.000 C 
BRANCH   2   3
ATOM      3  C   UNL     1      16.974  17.913  46.412  1.00  0.00     0.000 C 
BRANCH   3   4
ATOM      4  C   UNL     1      17.675  18.165  45.068  1.00  0.00     0.000 C 
BRANCH   4   5
ATOM      5  C   UNL     1      17.090  19.371  44.310  1.00  0.00     0.006 C 
BRANCH   5   6
ATOM      6  C   UNL     1      18.083  19.952  43.294  1.00  0.00     0.053 C 
BRANCH   6   7
ATOM      7  C   UNL     1      17.787  21.388  42.990  1.00  0.00     0.041 C 
ATOM      8  O   UNL     1      17.871  22.259  43.897  1.00  0.00    -0.550 OA
ATOM      9  O   UNL     1      17.386  21.760  41.713  1.00  0.00    -0.550 OA
ENDBRANCH   6   7
ENDBRANCH   5   6
ENDBRANCH   4   5
ENDBRANCH   3   4
ENDBRANCH   2   3
ENDBRANCH   1   2
BRANCH   1  10
ATOM     10  C   UNL     1      20.276  16.477  46.955  1.00  0.00     0.000 C 
BRANCH  10  11
ATOM     11  C   UNL     1      20.356  17.118  48.352  1.00  0.00    -0.000 C 
BRANCH  11  12
ATOM     12  C   UNL     1      20.846  18.575  48.309  1.00  0.00    -0.000 C 
BRANCH  12  13
ATOM     13  C   UNL     1      21.039  19.092  46.875  1.00  0.00    -0.000 C 
BRANCH  13  14
ATOM     14  C   UNL     1      20.084  20.254  46.577  1.00  0.00    -0.000 C 
BRANCH  14  15
ATOM     15  C   UNL     1      19.191  20.557  47.786  1.00  0.00    -0.003 C 
ATOM     16  C   UNL     1      18.055  21.503  47.409  1.00  0.00     0.004 C 
ENDBRANCH  14  15
ENDBRANCH  13  14
ENDBRANCH  12  13
ENDBRANCH  11  12
ENDBRANCH  10  11
ENDBRANCH   1  10
TORSDOF 12
ENDMDL
MODEL 4
REMARK VINA RESULT:    -4.391      1.170      1.805
REMARK INTER + INTRA:          -9.550
REMARK INTER:                  -7.920
REMARK INTRA:                  -1.630
REMARK UNBOUND:                -2.079
REMARK SMILES CCCCCCCCCCCCCC(=O)[O-]
REMARK SMILES IDX 8 1 9 2 10 3 11 4 12 5 13 6 14 7 15 8 16 9 7 10 6 11 5 12
REMARK SMILES IDX 4 13 3 14 2 15 1 16
REMARK H PARENT
REMARK Flexibility Score: inf
ROOT
ATOM      1  C   UNL     1      21.167  18.333  47.804  1.00  0.00     0.000 C 
ENDROOT
BRANCH   1   2
ATOM      2  C   UNL     1      21.038  16.831  48.112  1.00  0.00     0.000 C 
BRANCH   2   3
ATOM      3  C   UNL     1      20.183  16.082  47.076  1.00  0.00     0.000 C 
BRANCH   3   4
ATOM      4  C   UNL     1      19.083  16.968  46.470  1.00  0.00     0.000 C 
BRANCH   4   5
ATOM      5  C   UNL     1      17.799  16.985  47.320  1.00  0.00     0.006 C 
BRANCH   5   6
ATOM      6  C   UNL     1      16.600  17.549  46.544  1.00  0.00     0.053 C 
BRANCH   6   7
ATOM      7  C   UNL     1      15.667  16.465  46.102  1.00  0.00     0.041 C 
ATOM      8  O   UNL     1      15.680  15.343  46.674  1.00  0.00    -0.550 OA
ATOM      9  O   UNL     1      14.806  16.683  45.034  1.00  0.00    -0.550 OA
ENDBRANCH   6   7
ENDBRANCH   5   6
ENDBRANCH   4   5
ENDBRANCH   3   4
ENDBRANCH   2   3
ENDBRANCH   1   2
BRANCH   1  10
ATOM     10  C   UNL     1      20.394  19.235  48.791  1.00  0.00     0.000 C 
BRANCH  10  11
ATOM     11  C   UNL     1      20.020  20.590  48.163  1.00  0.00    -0.000 C 
BRANCH  11  12
ATOM     12  C   UNL     1      18.557  20.642  47.694  1.00  0.00    -0.000 C 
BRANCH  12  13
ATOM     13  C   UNL     1      18.422  21.054  46.221  1.00  0.00    -0.000 C 
BRANCH  13  14
ATOM     14  C   UNL     1      19.531  20.425  45.370  1.00  0.00    -0.000 C 
BRANCH  14  15
ATOM     15  C   UNL     1      18.957  19.796  44.095  1.00  0.00    -0.003 C 
ATOM     16  C   UNL     1      18.373  20.860  43.170  1.00  0.00     0.004 C 
ENDBRANCH  14  15
ENDBRANCH  13  14
ENDBRANCH  12  13
ENDBRANCH  11  12
ENDBRANCH  10  11
ENDBRANCH   1  10
TORSDOF 12
ENDMDL
MODEL 5
REMARK VINA RESULT:    -4.362      1.622      3.876
REMARK INTER + INTRA:          -9.501
REMARK INTER:                  -7.390
REMARK INTRA:                  -2.111
REMARK UNBOUND:                -2.079
REMARK SMILES CCCCCCCCCCCCCC(=O)[O-]
REMARK SMILES IDX 8 1 9 2 10 3 11 4 12 5 13 6 14 7 15 8 16 9 7 10 6 11 5 12
REMARK SMILES IDX 4 13 3 14 2 15 1 16
REMARK H PARENT
REMARK Flexibility Score: inf
ROOT
ATOM      1  C   UNL     1      20.302  19.234  48.578  1.00  0.00     0.000 C 
ENDROOT
BRANCH   1   2
ATOM      2  C   UNL     1      19.912  20.612  48.016  1.00  0.00     0.000 C 
BRANCH   2   3
ATOM      3  C   UNL     1      18.418  20.711  47.666  1.00  0.00     0.000 C 
BRANCH   3   4
ATOM      4  C   UNL     1      18.179  20.940  46.165  1.00  0.00     0.000 C 
BRANCH   4   5
ATOM      5  C   UNL     1      19.417  20.612  45.310  1.00  0.00     0.006 C 
BRANCH   5   6
ATOM      6  C   UNL     1      19.044  19.894  44.006  1.00  0.00     0.053 C 
BRANCH   6   7
ATOM      7  C   UNL     1      18.115  20.716  43.167  1.00  0.00     0.041 C 
ATOM      8  O   UNL     1      17.006  20.244  42.800  1.00  0.00    -0.550 OA
ATOM      9  O   UNL     1      18.487  21.992  42.763  1.00  0.00    -0.550 OA
ENDBRANCH   6   7
ENDBRANCH   5   6
ENDBRANCH   4   5
ENDBRANCH   3   4
ENDBRANCH   2   3
ENDBRANCH   1   2
BRANCH   1  10
ATOM     10  C   UNL     1      21.213  18.416  47.635  1.00  0.00     0.000 C 
BRANCH  10  11
ATOM     11  C   UNL     1      20.581  17.067  47.248  1.00  0.00    -0.000 C 
BRANCH  11  12
ATOM     12  C   UNL     1      19.099  16.971  47.645  1.00  0.00    -0.000 C 
BRANCH  12  13
ATOM     13  C   UNL     1      18.180  16.712  46.442  1.00  0.00    -0.000 C 
BRANCH  13  14
ATOM     14  C   UNL     1      16.881  17.518  46.560  1.00  0.00    -0.000 C 
BRANCH  14  15
ATOM     15  C   UNL     1      16.234  17.725  45.185  1.00  0.00    -0.003 C 
ATOM     16  C   UNL     1      16.950  16.910  44.112  1.00  0.00     0.004 C 
ENDBRANCH  14  15
ENDBRANCH  13  14
ENDBRANCH  12  13
ENDBRANCH  11  12
ENDBRANCH  10  11
ENDBRANCH   1  10
TORSDOF 12
ENDMDL
MODEL 6
REMARK VINA RESULT:    -4.318      3.077      5.073
REMARK INTER + INTRA:          -9.425
REMARK INTER:                  -7.701
REMARK INTRA:                  -1.724
REMARK UNBOUND:                -2.079
REMARK SMILES CCCCCCCCCCCCCC(=O)[O-]
REMARK SMILES IDX 8 1 9 2 10 3 11 4 12 5 13 6 14 7 15 8 16 9 7 10 6 11 5 12
REMARK SMILES IDX 4 13 3 14 2 15 1 16
REMARK H PARENT
REMARK Flexibility Score: inf
ROOT
ATOM      1  C   UNL     1      17.158  17.877  44.907  1.00  0.00     0.000 C 
ENDROOT
BRANCH   1   2
ATOM      2  C   UNL     1      16.658  17.701  46.352  1.00  0.00     0.000 C 
BRANCH   2   3
ATOM      3  C   UNL     1      17.624  16.877  47.220  1.00  0.00     0.000 C 
BRANCH   3   4
ATOM      4  C   UNL     1      18.869  16.420  46.443  1.00  0.00     0.000 C 
BRANCH   4   5
ATOM      5  C   UNL     1      20.183  16.869  47.110  1.00  0.00     0.006 C 
BRANCH   5   6
ATOM      6  C   UNL     1      21.012  15.678  47.610  1.00  0.00     0.053 C 
BRANCH   6   7
ATOM      7  C   UNL     1      22.008  16.095  48.648  1.00  0.00     0.041 C 
ATOM      8  O   UNL     1      21.622  16.444  49.795  1.00  0.00    -0.550 OA
ATOM      9  O   UNL     1      23.362  16.130  48.338  1.00  0.00    -0.550 OA
ENDBRANCH   6   7
ENDBRANCH   5   6
ENDBRANCH   4   5
ENDBRANCH   3   4
ENDBRANCH   2   3
ENDBRANCH   1   2
BRANCH   1  10
ATOM     10  C   UNL     1      17.281  19.354  44.471  1.00  0.00     0.000 C 
BRANCH  10  11
ATOM     11  C   UNL     1      18.719  19.716  44.059  1.00  0.00    -0.000 C 
BRANCH  11  12
ATOM     12  C   UNL     1      19.651  19.907  45.266  1.00  0.00    -0.000 C 
BRANCH  12  13
ATOM     13  C   UNL     1      19.147  20.984  46.239  1.00  0.00    -0.000 C 
BRANCH  13  14
ATOM     14  C   UNL     1      18.839  20.380  47.614  1.00  0.00    -0.000 C 
BRANCH  14  15
ATOM     15  C   UNL     1      19.880  20.815  48.652  1.00  0.00    -0.003 C 
ATOM     16  C   UNL     1      20.312  19.640  49.525  1.00  0.00     0.004 C 
ENDBRANCH  14  15
ENDBRANCH  13  14
ENDBRANCH  12  13
ENDBRANCH  11  12
ENDBRANCH  10  11
ENDBRANCH   1  10
TORSDOF 12
ENDMDL
MODEL 7
REMARK VINA RESULT:    -4.301      1.151      3.581
REMARK INTER + INTRA:          -9.397
REMARK INTER:                  -7.451
REMARK INTRA:                  -1.946
REMARK UNBOUND:                -2.079
REMARK SMILES CCCCCCCCCCCCCC(=O)[O-]
REMARK SMILES IDX 8 1 9 2 10 3 11 4 12 5 13 6 14 7 15 8 16 9 7 10 6 11 5 12
REMARK SMILES IDX 4 13 3 14 2 15 1 16
REMARK H PARENT
REMARK Flexibility Score: inf
ROOT
ATOM      1  C   UNL     1      20.043  20.667  48.072  1.00  0.00     0.000 C 
ENDROOT
BRANCH   1   2
ATOM      2  C   UNL     1      18.573  20.642  47.619  1.00  0.00     0.000 C 
BRANCH   2   3
ATOM      3  C   UNL     1      18.401  21.013  46.136  1.00  0.00     0.000 C 
BRANCH   3   4
ATOM      4  C   UNL     1      19.435  20.323  45.233  1.00  0.00     0.000 C 
BRANCH   4   5
ATOM      5  C   UNL     1      18.887  20.022  43.826  1.00  0.00     0.006 C 
BRANCH   5   6
ATOM      6  C   UNL     1      17.505  20.649  43.597  1.00  0.00     0.053 C 
BRANCH   6   7
ATOM      7  C   UNL     1      16.458  19.607  43.350  1.00  0.00     0.041 C 
ATOM      8  O   UNL     1      16.648  18.707  42.490  1.00  0.00    -0.550 OA
ATOM      9  O   UNL     1      15.257  19.650  44.047  1.00  0.00    -0.550 OA
ENDBRANCH   6   7
ENDBRANCH   5   6
ENDBRANCH   4   5
ENDBRANCH   3   4
ENDBRANCH   2   3
ENDBRANCH   1   2
BRANCH   1  10
ATOM     10  C   UNL     1      20.285  19.963  49.425  1.00  0.00     0.000 C 
BRANCH  10  11
ATOM     11  C   UNL     1      20.698  18.491  49.244  1.00  0.00    -0.000 C 
BRANCH  11  12
ATOM     12  C   UNL     1      21.256  18.200  47.842  1.00  0.00    -0.000 C 
BRANCH  12  13
ATOM     13  C   UNL     1      20.671  16.920  47.226  1.00  0.00    -0.000 C 
BRANCH  13  14
ATOM     14  C   UNL     1      19.160  16.832  47.475  1.00  0.00    -0.000 C 
BRANCH  14  15
ATOM     15  C   UNL     1      18.372  17.156  46.201  1.00  0.00    -0.003 C 
ATOM     16  C   UNL     1      16.944  17.582  46.529  1.00  0.00     0.004 C 
ENDBRANCH  14  15
ENDBRANCH  13  14
ENDBRANCH  12  13
ENDBRANCH  11  12
ENDBRANCH  10  11
ENDBRANCH   1  10
TORSDOF 12
ENDMDL
MODEL 8
REMARK VINA RESULT:    -4.223      3.289      5.580
REMARK INTER + INTRA:          -9.264
REMARK INTER:                  -7.582
REMARK INTRA:                  -1.682
REMARK UNBOUND:                -2.079
REMARK SMILES CCCCCCCCCCCCCC(=O)[O-]
REMARK SMILES IDX 8 1 9 2 10 3 11 4 12 5 13 6 14 7 15 8 16 9 7 10 6 11 5 12
REMARK SMILES IDX 4 13 3 14 2 15 1 16
REMARK H PARENT
REMARK Flexibility Score: inf
ROOT
ATOM      1  C   UNL     1      18.441  20.483  47.481  1.00  0.00     0.000 C 
ENDROOT
BRANCH   1   2
ATOM      2  C   UNL     1      19.810  20.548  48.181  1.00  0.00     0.000 C 
BRANCH   2   3
ATOM      3  C   UNL     1      20.290  19.174  48.678  1.00  0.00     0.000 C 
BRANCH   3   4
ATOM      4  C   UNL     1      21.173  18.451  47.647  1.00  0.00     0.000 C 
BRANCH   4   5
ATOM      5  C   UNL     1      21.075  16.918  47.753  1.00  0.00     0.006 C 
BRANCH   5   6
ATOM      6  C   UNL     1      22.381  16.289  48.255  1.00  0.00     0.053 C 
BRANCH   6   7
ATOM      7  C   UNL     1      22.350  16.055  49.734  1.00  0.00     0.041 C 
ATOM      8  O   UNL     1      23.380  15.649  50.334  1.00  0.00    -0.550 OA
ATOM      9  O   UNL     1      21.173  16.254  50.445  1.00  0.00    -0.550 OA
ENDBRANCH   6   7
ENDBRANCH   5   6
ENDBRANCH   4   5
ENDBRANCH   3   4
ENDBRANCH   2   3
ENDBRANCH   1   2
BRANCH   1  10
ATOM     10  C   UNL     1      18.302  21.469  46.301  1.00  0.00     0.000 C 
BRANCH  10  11
ATOM     11  C   UNL     1      19.159  21.049  45.093  1.00  0.00    -0.000 C 
BRANCH  11  12
ATOM     12  C   UNL     1      19.080  19.541  44.806  1.00  0.00    -0.000 C 
BRANCH  12  13
ATOM     13  C   UNL     1      17.798  19.147  44.057  1.00  0.00    -0.000 C 
BRANCH  13  14
ATOM     14  C   UNL     1      17.204  17.854  44.626  1.00  0.00    -0.000 C 
BRANCH  14  15
ATOM     15  C   UNL     1      18.095  17.280  45.734  1.00  0.00    -0.003 C 
ATOM     16  C   UNL     1      17.314  17.104  47.034  1.00  0.00     0.004 C 
ENDBRANCH  14  15
ENDBRANCH  13  14
ENDBRANCH  12  13
ENDBRANCH  11  12
ENDBRANCH  10  11
ENDBRANCH   1  10
TORSDOF 12
ENDMDL
MODEL 9
REMARK VINA RESULT:    -4.195      1.953      4.984
REMARK INTER + INTRA:          -9.217
REMARK INTER:                  -7.852
REMARK INTRA:                  -1.365
REMARK UNBOUND:                -2.079
REMARK SMILES CCCCCCCCCCCCCC(=O)[O-]
REMARK SMILES IDX 8 1 9 2 10 3 11 4 12 5 13 6 14 7 15 8 16 9 7 10 6 11 5 12
REMARK SMILES IDX 4 13 3 14 2 15 1 16
REMARK H PARENT
REMARK Flexibility Score: inf
ROOT
ATOM      1  C   UNL     1      20.522  18.960  48.974  1.00  0.00     0.000 C 
ENDROOT
BRANCH   1   2
ATOM      2  C   UNL     1      19.943  20.346  48.644  1.00  0.00     0.000 C 
BRANCH   2   3
ATOM      3  C   UNL     1      18.808  20.286  47.608  1.00  0.00     0.000 C 
BRANCH   3   4
ATOM      4  C   UNL     1      19.198  20.935  46.270  1.00  0.00     0.000 C 
BRANCH   4   5
ATOM      5  C   UNL     1      19.607  19.900  45.205  1.00  0.00     0.006 C 
BRANCH   5   6
ATOM      6  C   UNL     1      18.760  20.019  43.930  1.00  0.00     0.053 C 
BRANCH   6   7
ATOM      7  C   UNL     1      17.294  19.986  44.233  1.00  0.00     0.041 C 
ATOM      8  O   UNL     1      16.761  18.934  44.676  1.00  0.00    -0.550 OA
ATOM      9  O   UNL     1      16.510  21.107  43.995  1.00  0.00    -0.550 OA
ENDBRANCH   6   7
ENDBRANCH   5   6
ENDBRANCH   4   5
ENDBRANCH   3   4
ENDBRANCH   2   3
ENDBRANCH   1   2
BRANCH   1  10
ATOM     10  C   UNL     1      19.794  17.799  48.262  1.00  0.00     0.000 C 
BRANCH  10  11
ATOM     11  C   UNL     1      20.728  17.027  47.313  1.00  0.00    -0.000 C 
BRANCH  11  12
ATOM     12  C   UNL     1      21.390  15.816  47.989  1.00  0.00    -0.000 C 
BRANCH  12  13
ATOM     13  C   UNL     1      22.855  16.077  48.368  1.00  0.00    -0.000 C 
BRANCH  13  14
ATOM     14  C   UNL     1      23.124  15.681  49.825  1.00  0.00    -0.000 C 
BRANCH  14  15
ATOM     15  C   UNL     1      21.812  15.481  50.592  1.00  0.00    -0.003 C 
ATOM     16  C   UNL     1      21.637  16.544  51.673  1.00  0.00     0.004 C 
ENDBRANCH  14  15
ENDBRANCH  13  14
ENDBRANCH  12  13
ENDBRANCH  11  12
ENDBRANCH  10  11
ENDBRANCH   1  10
TORSDOF 12
ENDMDL
