MODEL 1
REMARK VINA RESULT:    88.412      0.000      0.000
REMARK INTER + INTRA:         144.285
REMARK INTER:                 145.267
REMARK INTRA:                  -0.982
REMARK UNBOUND:                -0.982
REMARK SMILES C[C@H]1O[C@@H](OC[C@H]2O[C@H](Oc3c(-c4ccc(O)c(O)c4)oc4cc(O)cc(O)c4c3=O)[C@@H](O)[C@@H](O)[C@H]2O)[C@H](O)[C@@H](O)[C@H]1O
REMARK SMILES IDX 7 1 36 2 34 3 32 4 9 5 8 6 6 7 5 8 4 9 1 10 2 11 42 12 3 13
REMARK SMILES IDX 40 14 38 15 43 16 41 18 39 20 37 22 35 24 10 26 11 27 12 28
REMARK SMILES IDX 30 29 21 30 29 31 31 32 22 33 27 34 23 35 26 36 24 37 13 38
REMARK SMILES IDX 20 39 14 40 18 41 15 42 16 43 19 44 17 46 28 48 25 50 33 52
REMARK H PARENT 43 17 41 19 39 21 37 23 35 25 19 45 17 47 28 49 25 51 33 53
REMARK Flexibility Score: inf
ROOT
ATOM      1  C   UNL     1      -7.024  -6.798  20.770  1.00  0.00     0.180 C 
ATOM      2  C   UNL     1      -7.994  -7.865  20.223  1.00  0.00     0.177 C 
ATOM      3  C   UNL     1      -8.346  -8.942  21.306  1.00  0.00     0.180 C 
ATOM      4  C   UNL     1      -7.054  -9.624  21.815  1.00  0.00     0.214 C 
ATOM      5  C   UNL     1      -5.730  -8.709  21.779  1.00  0.00     0.339 C 
ATOM      6  O   UNL     1      -5.744  -7.416  21.054  1.00  0.00    -0.332 OA
ENDROOT
BRANCH   1   7
ATOM      7  C   UNL     1      -7.457  -5.854  21.937  1.00  0.00     0.198 C 
BRANCH   7   8
ATOM      8  O   UNL     1      -7.811  -4.564  21.492  1.00  0.00    -0.347 OA
BRANCH   8   9
ATOM      9  C   UNL     1      -6.643  -3.720  21.166  1.00  0.00     0.281 C 
ATOM     10  C   UNL     1      -7.039  -0.523  22.834  1.00  0.00     0.041 C 
ATOM     11  C   UNL     1      -6.142  -1.406  21.956  1.00  0.00     0.150 C 
ATOM     12  C   UNL     1      -5.975  -0.914  20.474  1.00  0.00     0.174 C 
ATOM     13  O   UNL     1      -6.394  -2.754  22.238  1.00  0.00    -0.344 OA
ATOM     14  C   UNL     1      -5.512  -2.024  19.580  1.00  0.00     0.179 C 
ATOM     15  C   UNL     1      -6.659  -3.124  19.673  1.00  0.00     0.202 C 
BRANCH  12  16
ATOM     16  O   UNL     1      -7.117  -0.307  19.929  1.00  0.00    -0.388 OA
ATOM     17  H   UNL     1      -7.765  -0.239  20.652  1.00  0.00     0.211 HD
ENDBRANCH  12  16
BRANCH  14  18
ATOM     18  O   UNL     1      -5.163  -1.494  18.279  1.00  0.00    -0.387 OA
ATOM     19  H   UNL     1      -4.280  -0.949  18.370  1.00  0.00     0.211 HD
ENDBRANCH  14  18
BRANCH  15  20
ATOM     20  O   UNL     1      -6.414  -4.187  18.772  1.00  0.00    -0.385 OA
ATOM     21  H   UNL     1      -6.650  -5.020  19.313  1.00  0.00     0.211 HD
ENDBRANCH  15  20
ENDBRANCH   8   9
ENDBRANCH   7   8
ENDBRANCH   1   7
BRANCH   2  22
ATOM     22  O   UNL     1      -9.077  -7.229  19.559  1.00  0.00    -0.387 OA
ATOM     23  H   UNL     1      -9.073  -7.595  18.594  1.00  0.00     0.211 HD
ENDBRANCH   2  22
BRANCH   3  24
ATOM     24  O   UNL     1      -9.052  -8.348  22.389  1.00  0.00    -0.387 OA
ATOM     25  H   UNL     1      -8.508  -7.569  22.762  1.00  0.00     0.211 HD
ENDBRANCH   3  24
BRANCH   5  26
ATOM     26  O   UNL     1      -4.614  -9.417  21.144  1.00  0.00    -0.454 OA
BRANCH  26  27
ATOM     27  C   UNL     1      -3.200  -9.354  21.101  1.00  0.00     0.214 A 
ATOM     28  C   UNL     1      -2.477  -9.973  20.034  1.00  0.00     0.180 A 
ATOM     29  C   UNL     1      -2.545  -8.147  21.542  1.00  0.00     0.239 A 
ATOM     30  O   UNL     1      -1.138 -10.047  20.177  1.00  0.00    -0.452 OA
ATOM     31  C   UNL     1      -1.226  -7.873  21.050  1.00  0.00     0.111 A 
ATOM     32  O   UNL     1      -3.094  -7.351  22.327  1.00  0.00    -0.285 OA
ATOM     33  C   UNL     1      -0.469  -8.959  20.634  1.00  0.00     0.146 A 
ATOM     34  C   UNL     1      -0.806  -6.598  20.612  1.00  0.00     0.134 A 
ATOM     35  C   UNL     1       0.908  -8.779  20.504  1.00  0.00     0.094 A 
ATOM     36  C   UNL     1       0.543  -6.416  20.114  1.00  0.00     0.093 A 
ATOM     37  C   UNL     1       1.452  -7.499  20.084  1.00  0.00     0.123 A 
BRANCH  28  38
ATOM     38  C   UNL     1      -2.848  -9.498  18.649  1.00  0.00     0.025 A 
ATOM     39  C   UNL     1      -2.409  -8.259  18.155  1.00  0.00     0.062 A 
ATOM     40  C   UNL     1      -4.053  -9.982  18.099  1.00  0.00     0.016 A 
ATOM     41  C   UNL     1      -3.261  -7.438  17.384  1.00  0.00     0.158 A 
ATOM     42  C   UNL     1      -4.998  -9.077  17.537  1.00  0.00     0.051 A 
ATOM     43  C   UNL     1      -4.602  -7.781  17.235  1.00  0.00     0.157 A 
BRANCH  41  44
ATOM     44  O   UNL     1      -2.701  -6.382  16.697  1.00  0.00    -0.504 OA
ATOM     45  H   UNL     1      -3.005  -5.469  16.852  1.00  0.00     0.293 HD
ENDBRANCH  41  44
BRANCH  43  46
ATOM     46  O   UNL     1      -5.496  -6.890  16.672  1.00  0.00    -0.504 OA
ATOM     47  H   UNL     1      -6.305  -6.557  17.190  1.00  0.00     0.293 HD
ENDBRANCH  43  46
ENDBRANCH  28  38
BRANCH  34  48
ATOM     48  O   UNL     1      -1.814  -5.685  20.488  1.00  0.00    -0.507 OA
ATOM     49  H   UNL     1      -2.155  -5.223  19.631  1.00  0.00     0.293 HD
ENDBRANCH  34  48
BRANCH  37  50
ATOM     50  O   UNL     1       2.795  -7.321  19.708  1.00  0.00    -0.508 OA
ATOM     51  H   UNL     1       3.315  -8.062  19.226  1.00  0.00     0.293 HD
ENDBRANCH  37  50
ENDBRANCH  26  27
ENDBRANCH   5  26
BRANCH   4  52
ATOM     52  O   UNL     1      -7.314 -10.119  23.123  1.00  0.00    -0.384 OA
ATOM     53  H   UNL     1      -6.738  -9.683  23.803  1.00  0.00     0.211 HD
ENDBRANCH   4  52
TORSDOF 16
ENDMDL
MODEL 2
REMARK VINA RESULT:    90.572      1.697      2.729
REMARK INTER + INTRA:         147.833
REMARK INTER:                 149.108
REMARK INTRA:                  -1.275
REMARK UNBOUND:                -0.982
REMARK SMILES C[C@H]1O[C@@H](OC[C@H]2O[C@H](Oc3c(-c4ccc(O)c(O)c4)oc4cc(O)cc(O)c4c3=O)[C@@H](O)[C@@H](O)[C@H]2O)[C@H](O)[C@@H](O)[C@H]1O
REMARK SMILES IDX 7 1 36 2 34 3 32 4 9 5 8 6 6 7 5 8 4 9 1 10 2 11 42 12 3 13
REMARK SMILES IDX 40 14 38 15 43 16 41 18 39 20 37 22 35 24 10 26 11 27 12 28
REMARK SMILES IDX 30 29 21 30 29 31 31 32 22 33 27 34 23 35 26 36 24 37 13 38
REMARK SMILES IDX 20 39 14 40 18 41 15 42 16 43 19 44 17 46 28 48 25 50 33 52
REMARK H PARENT 43 17 41 19 39 21 37 23 35 25 19 45 17 47 28 49 25 51 33 53
REMARK Flexibility Score: inf
ROOT
ATOM      1  C   UNL     1      -6.709  -5.443  18.408  1.00  0.00     0.180 C 
ATOM      2  C   UNL     1      -8.025  -6.247  18.461  1.00  0.00     0.177 C 
ATOM      3  C   UNL     1      -8.681  -6.197  19.884  1.00  0.00     0.180 C 
ATOM      4  C   UNL     1      -7.693  -6.743  20.942  1.00  0.00     0.214 C 
ATOM      5  C   UNL     1      -6.134  -6.531  20.606  1.00  0.00     0.339 C 
ATOM      6  O   UNL     1      -5.722  -6.087  19.253  1.00  0.00    -0.332 OA
ENDROOT
BRANCH   1   7
ATOM      7  C   UNL     1      -6.712  -3.899  18.634  1.00  0.00     0.198 C 
BRANCH   7   8
ATOM      8  O   UNL     1      -5.932  -3.508  19.742  1.00  0.00    -0.347 OA
BRANCH   8   9
ATOM      9  C   UNL     1      -6.731  -2.924  20.839  1.00  0.00     0.281 C 
ATOM     10  C   UNL     1      -7.392   0.554  20.048  1.00  0.00     0.041 C 
ATOM     11  C   UNL     1      -7.628  -0.602  21.029  1.00  0.00     0.150 C 
ATOM     12  C   UNL     1      -6.944  -0.431  22.432  1.00  0.00     0.174 C 
ATOM     13  O   UNL     1      -7.555  -1.820  20.342  1.00  0.00    -0.344 OA
ATOM     14  C   UNL     1      -6.807  -1.746  23.137  1.00  0.00     0.179 C 
ATOM     15  C   UNL     1      -5.891  -2.626  22.177  1.00  0.00     0.202 C 
BRANCH  12  16
ATOM     16  O   UNL     1      -5.704   0.224  22.399  1.00  0.00    -0.388 OA
ATOM     17  H   UNL     1      -5.736   0.911  23.088  1.00  0.00     0.211 HD
ENDBRANCH  12  16
BRANCH  14  18
ATOM     18  O   UNL     1      -6.376  -1.531  24.502  1.00  0.00    -0.387 OA
ATOM     19  H   UNL     1      -5.338  -1.597  24.534  1.00  0.00     0.211 HD
ENDBRANCH  14  18
BRANCH  15  20
ATOM     20  O   UNL     1      -5.571  -3.865  22.780  1.00  0.00    -0.385 OA
ATOM     21  H   UNL     1      -5.042  -4.356  22.058  1.00  0.00     0.211 HD
ENDBRANCH  15  20
ENDBRANCH   8   9
ENDBRANCH   7   8
ENDBRANCH   1   7
BRANCH   2  22
ATOM     22  O   UNL     1      -8.842  -5.896  17.353  1.00  0.00    -0.387 OA
ATOM     23  H   UNL     1      -8.285  -5.236  16.787  1.00  0.00     0.211 HD
ENDBRANCH   2  22
BRANCH   3  24
ATOM     24  O   UNL     1      -9.068  -4.867  20.207  1.00  0.00    -0.387 OA
ATOM     25  H   UNL     1      -8.253  -4.345  20.530  1.00  0.00     0.211 HD
ENDBRANCH   3  24
BRANCH   5  26
ATOM     26  O   UNL     1      -5.381  -7.779  20.773  1.00  0.00    -0.454 OA
BRANCH  26  27
ATOM     27  C   UNL     1      -4.042  -8.195  20.969  1.00  0.00     0.214 A 
ATOM     28  C   UNL     1      -3.442  -9.149  20.088  1.00  0.00     0.180 A 
ATOM     29  C   UNL     1      -3.075  -7.230  21.430  1.00  0.00     0.239 A 
ATOM     30  O   UNL     1      -2.245  -9.645  20.464  1.00  0.00    -0.452 OA
ATOM     31  C   UNL     1      -1.688  -7.475  21.153  1.00  0.00     0.111 A 
ATOM     32  O   UNL     1      -3.413  -6.205  22.051  1.00  0.00    -0.285 OA
ATOM     33  C   UNL     1      -1.308  -8.794  20.951  1.00  0.00     0.146 A 
ATOM     34  C   UNL     1      -0.794  -6.478  20.704  1.00  0.00     0.134 A 
ATOM     35  C   UNL     1       0.049  -9.101  21.046  1.00  0.00     0.094 A 
ATOM     36  C   UNL     1       0.588  -6.819  20.433  1.00  0.00     0.093 A 
ATOM     37  C   UNL     1       1.057  -8.138  20.635  1.00  0.00     0.123 A 
BRANCH  28  38
ATOM     38  C   UNL     1      -3.431  -8.754  18.630  1.00  0.00     0.025 A 
ATOM     39  C   UNL     1      -4.220  -9.426  17.682  1.00  0.00     0.062 A 
ATOM     40  C   UNL     1      -2.258  -8.150  18.132  1.00  0.00     0.016 A 
ATOM     41  C   UNL     1      -3.722  -9.711  16.391  1.00  0.00     0.158 A 
ATOM     42  C   UNL     1      -1.656  -8.634  16.936  1.00  0.00     0.051 A 
ATOM     43  C   UNL     1      -2.383  -9.468  16.097  1.00  0.00     0.157 A 
BRANCH  41  44
ATOM     44  O   UNL     1      -4.618 -10.111  15.422  1.00  0.00    -0.504 OA
ATOM     45  H   UNL     1      -5.576  -9.970  15.539  1.00  0.00     0.293 HD
ENDBRANCH  41  44
BRANCH  43  46
ATOM     46  O   UNL     1      -1.826  -9.936  14.922  1.00  0.00    -0.504 OA
ATOM     47  H   UNL     1      -1.630  -9.309  14.146  1.00  0.00     0.293 HD
ENDBRANCH  43  46
ENDBRANCH  28  38
BRANCH  34  48
ATOM     48  O   UNL     1      -1.394  -5.305  20.345  1.00  0.00    -0.507 OA
ATOM     49  H   UNL     1      -2.344  -4.977  20.578  1.00  0.00     0.293 HD
ENDBRANCH  34  48
BRANCH  37  50
ATOM     50  O   UNL     1       2.415  -8.466  20.484  1.00  0.00    -0.508 OA
ATOM     51  H   UNL     1       2.705  -9.383  20.127  1.00  0.00     0.293 HD
ENDBRANCH  37  50
ENDBRANCH  26  27
ENDBRANCH   5  26
BRANCH   4  52
ATOM     52  O   UNL     1      -8.044  -6.169  22.195  1.00  0.00    -0.384 OA
ATOM     53  H   UNL     1      -8.922  -5.709  22.156  1.00  0.00     0.211 HD
ENDBRANCH   4  52
TORSDOF 16
ENDMDL
