MODEL 1
REMARK VINA RESULT:    -7.275      0.000      0.000
REMARK INTER + INTRA:          -9.088
REMARK INTER:                  -8.764
REMARK INTRA:                  -0.324
REMARK UNBOUND:                -0.324
REMARK SMILES O=c1c(O)c(-c2ccc(O)c(O)c2)oc2cc(O)cc(O)c12
REMARK SMILES IDX 5 1 3 2 2 3 1 4 22 5 20 6 19 7 17 8 16 9 15 10 14 11 6 12
REMARK SMILES IDX 7 13 8 14 9 15 13 16 11 17 10 18 12 20 4 22 21 24 18 26
REMARK H PARENT 10 19 12 21 4 23 21 25 18 27
REMARK Flexibility Score: inf
ROOT
ATOM      1  C   UNL     1      14.880  35.631 125.289  1.00  0.00     0.180 A 
ATOM      2  C   UNL     1      15.035  36.265 124.043  1.00  0.00     0.208 A 
ATOM      3  C   UNL     1      16.103  37.157 123.863  1.00  0.00     0.238 A 
ATOM      4  O   UNL     1      16.206  37.762 122.764  1.00  0.00    -0.285 OA
ATOM      5  C   UNL     1      17.013  37.391 124.922  1.00  0.00     0.111 A 
ATOM      6  C   UNL     1      18.154  38.243 124.837  1.00  0.00     0.134 A 
ATOM      7  C   UNL     1      18.911  38.503 125.987  1.00  0.00     0.093 A 
ATOM      8  C   UNL     1      18.604  37.888 127.204  1.00  0.00     0.123 A 
ATOM      9  C   UNL     1      17.528  37.009 127.283  1.00  0.00     0.094 A 
ATOM     10  C   UNL     1      16.733  36.758 126.161  1.00  0.00     0.146 A 
ATOM     11  O   UNL     1      15.710  35.920 126.283  1.00  0.00    -0.452 OA
ENDROOT
BRANCH   1  12
ATOM     12  C   UNL     1      13.793  34.658 125.548  1.00  0.00     0.025 A 
ATOM     13  C   UNL     1      12.537  35.074 126.018  1.00  0.00     0.016 A 
ATOM     14  C   UNL     1      11.520  34.141 126.232  1.00  0.00     0.051 A 
ATOM     15  C   UNL     1      11.730  32.783 125.971  1.00  0.00     0.157 A 
ATOM     16  C   UNL     1      13.999  33.300 125.265  1.00  0.00     0.062 A 
ATOM     17  C   UNL     1      12.986  32.356 125.477  1.00  0.00     0.158 A 
BRANCH  15  18
ATOM     18  O   UNL     1      10.674  31.901 126.211  1.00  0.00    -0.504 OA
ATOM     19  H   UNL     1       9.739  32.193 126.461  1.00  0.00     0.293 HD
ENDBRANCH  15  18
BRANCH  17  20
ATOM     20  O   UNL     1      13.267  31.020 125.185  1.00  0.00    -0.504 OA
ATOM     21  H   UNL     1      12.782  30.238 125.600  1.00  0.00     0.293 HD
ENDBRANCH  17  20
ENDBRANCH   1  12
BRANCH   2  22
ATOM     22  O   UNL     1      14.114  36.035 123.018  1.00  0.00    -0.502 OA
ATOM     23  H   UNL     1      13.169  35.717 123.197  1.00  0.00     0.293 HD
ENDBRANCH   2  22
BRANCH   6  24
ATOM     24  O   UNL     1      18.601  38.833 123.651  1.00  0.00    -0.507 OA
ATOM     25  H   UNL     1      18.505  39.811 123.423  1.00  0.00     0.293 HD
ENDBRANCH   6  24
BRANCH   8  26
ATOM     26  O   UNL     1      19.371  38.140 128.339  1.00  0.00    -0.508 OA
ATOM     27  H   UNL     1      19.003  38.668 129.122  1.00  0.00     0.293 HD
ENDBRANCH   8  26
TORSDOF 6
ENDMDL
MODEL 2
REMARK VINA RESULT:    -6.583      1.814      7.029
REMARK INTER + INTRA:          -8.254
REMARK INTER:                  -7.949
REMARK INTRA:                  -0.305
REMARK UNBOUND:                -0.324
REMARK SMILES O=c1c(O)c(-c2ccc(O)c(O)c2)oc2cc(O)cc(O)c12
REMARK SMILES IDX 5 1 3 2 2 3 1 4 22 5 20 6 19 7 17 8 16 9 15 10 14 11 6 12
REMARK SMILES IDX 7 13 8 14 9 15 13 16 11 17 10 18 12 20 4 22 21 24 18 26
REMARK H PARENT 10 19 12 21 4 23 21 25 18 27
REMARK Flexibility Score: inf
ROOT
ATOM      1  C   UNL     1      14.828  36.497 126.149  1.00  0.00     0.180 A 
ATOM      2  C   UNL     1      13.785  37.352 126.549  1.00  0.00     0.208 A 
ATOM      3  C   UNL     1      12.498  36.820 126.718  1.00  0.00     0.238 A 
ATOM      4  O   UNL     1      11.558  37.600 127.023  1.00  0.00    -0.285 OA
ATOM      5  C   UNL     1      12.270  35.440 126.503  1.00  0.00     0.111 A 
ATOM      6  C   UNL     1      11.014  34.788 126.684  1.00  0.00     0.134 A 
ATOM      7  C   UNL     1      10.874  33.443 126.316  1.00  0.00     0.093 A 
ATOM      8  C   UNL     1      11.962  32.711 125.834  1.00  0.00     0.123 A 
ATOM      9  C   UNL     1      13.207  33.324 125.710  1.00  0.00     0.094 A 
ATOM     10  C   UNL     1      13.368  34.673 126.035  1.00  0.00     0.146 A 
ATOM     11  O   UNL     1      14.570  35.220 125.892  1.00  0.00    -0.452 OA
ENDROOT
BRANCH   1  12
ATOM     12  C   UNL     1      16.218  36.977 125.974  1.00  0.00     0.025 A 
ATOM     13  C   UNL     1      17.185  36.799 126.976  1.00  0.00     0.016 A 
ATOM     14  C   UNL     1      18.495  37.240 126.779  1.00  0.00     0.051 A 
ATOM     15  C   UNL     1      18.869  37.853 125.579  1.00  0.00     0.157 A 
ATOM     16  C   UNL     1      16.596  37.574 124.761  1.00  0.00     0.062 A 
ATOM     17  C   UNL     1      17.907  38.019 124.554  1.00  0.00     0.158 A 
BRANCH  15  18
ATOM     18  O   UNL     1      20.194  38.275 125.447  1.00  0.00    -0.504 OA
ATOM     19  H   UNL     1      20.570  39.103 125.888  1.00  0.00     0.293 HD
ENDBRANCH  15  18
BRANCH  17  20
ATOM     20  O   UNL     1      18.208  38.614 123.327  1.00  0.00    -0.504 OA
ATOM     21  H   UNL     1      18.850  38.224 122.652  1.00  0.00     0.293 HD
ENDBRANCH  17  20
ENDBRANCH   1  12
BRANCH   2  22
ATOM     22  O   UNL     1      14.027  38.715 126.735  1.00  0.00    -0.502 OA
ATOM     23  H   UNL     1      14.557  39.269 126.074  1.00  0.00     0.293 HD
ENDBRANCH   2  22
BRANCH   6  24
ATOM     24  O   UNL     1       9.889  35.401 127.243  1.00  0.00    -0.507 OA
ATOM     25  H   UNL     1       9.369  36.150 126.812  1.00  0.00     0.293 HD
ENDBRANCH   6  24
BRANCH   8  26
ATOM     26  O   UNL     1      11.818  31.371 125.485  1.00  0.00    -0.508 OA
ATOM     27  H   UNL     1      11.061  31.056 124.889  1.00  0.00     0.293 HD
ENDBRANCH   8  26
TORSDOF 6
ENDMDL
MODEL 3
REMARK VINA RESULT:    -6.400      3.021      6.848
REMARK INTER + INTRA:          -8.033
REMARK INTER:                  -7.717
REMARK INTRA:                  -0.316
REMARK UNBOUND:                -0.324
REMARK SMILES O=c1c(O)c(-c2ccc(O)c(O)c2)oc2cc(O)cc(O)c12
REMARK SMILES IDX 5 1 3 2 2 3 1 4 22 5 20 6 19 7 17 8 16 9 15 10 14 11 6 12
REMARK SMILES IDX 7 13 8 14 9 15 13 16 11 17 10 18 12 20 4 22 21 24 18 26
REMARK H PARENT 10 19 12 21 4 23 21 25 18 27
REMARK Flexibility Score: inf
ROOT
ATOM      1  C   UNL     1      14.828  37.118 126.667  1.00  0.00     0.180 A 
ATOM      2  C   UNL     1      14.120  36.004 126.181  1.00  0.00     0.208 A 
ATOM      3  C   UNL     1      12.760  35.872 126.498  1.00  0.00     0.238 A 
ATOM      4  O   UNL     1      12.145  34.846 126.106  1.00  0.00    -0.285 OA
ATOM      5  C   UNL     1      12.118  36.862 127.282  1.00  0.00     0.111 A 
ATOM      6  C   UNL     1      10.734  36.849 127.629  1.00  0.00     0.134 A 
ATOM      7  C   UNL     1      10.236  37.812 128.517  1.00  0.00     0.093 A 
ATOM      8  C   UNL     1      11.059  38.824 129.018  1.00  0.00     0.123 A 
ATOM      9  C   UNL     1      12.397  38.878 128.637  1.00  0.00     0.094 A 
ATOM     10  C   UNL     1      12.931  37.911 127.781  1.00  0.00     0.146 A 
ATOM     11  O   UNL     1      14.215  37.996 127.452  1.00  0.00    -0.452 OA
ENDROOT
BRANCH   1  12
ATOM     12  C   UNL     1      16.258  37.340 126.354  1.00  0.00     0.025 A 
ATOM     13  C   UNL     1      17.273  36.896 127.216  1.00  0.00     0.016 A 
ATOM     14  C   UNL     1      18.615  37.096 126.888  1.00  0.00     0.051 A 
ATOM     15  C   UNL     1      18.972  37.729 125.693  1.00  0.00     0.157 A 
ATOM     16  C   UNL     1      16.614  37.957 125.144  1.00  0.00     0.062 A 
ATOM     17  C   UNL     1      17.957  38.162 124.807  1.00  0.00     0.158 A 
BRANCH  15  18
ATOM     18  O   UNL     1      20.332  37.903 125.427  1.00  0.00    -0.504 OA
ATOM     19  H   UNL     1      21.004  38.228 126.107  1.00  0.00     0.293 HD
ENDBRANCH  15  18
BRANCH  17  20
ATOM     20  O   UNL     1      18.236  38.793 123.592  1.00  0.00    -0.504 OA
ATOM     21  H   UNL     1      17.528  39.148 122.965  1.00  0.00     0.293 HD
ENDBRANCH  17  20
ENDBRANCH   1  12
BRANCH   2  22
ATOM     22  O   UNL     1      14.777  35.028 125.427  1.00  0.00    -0.502 OA
ATOM     23  H   UNL     1      14.503  34.794 124.481  1.00  0.00     0.293 HD
ENDBRANCH   2  22
BRANCH   6  24
ATOM     24  O   UNL     1       9.808  35.939 127.112  1.00  0.00    -0.507 OA
ATOM     25  H   UNL     1       8.994  35.604 127.606  1.00  0.00     0.293 HD
ENDBRANCH   6  24
BRANCH   8  26
ATOM     26  O   UNL     1      10.552  39.785 129.888  1.00  0.00    -0.508 OA
ATOM     27  H   UNL     1      11.129  40.207 130.607  1.00  0.00     0.293 HD
ENDBRANCH   8  26
TORSDOF 6
ENDMDL
MODEL 4
REMARK VINA RESULT:    -6.291      8.944     11.537
REMARK INTER + INTRA:          -7.902
REMARK INTER:                  -7.960
REMARK INTRA:                   0.058
REMARK UNBOUND:                -0.324
REMARK SMILES O=c1c(O)c(-c2ccc(O)c(O)c2)oc2cc(O)cc(O)c12
REMARK SMILES IDX 5 1 3 2 2 3 1 4 22 5 20 6 19 7 17 8 16 9 15 10 14 11 6 12
REMARK SMILES IDX 7 13 8 14 9 15 13 16 11 17 10 18 12 20 4 22 21 24 18 26
REMARK H PARENT 10 19 12 21 4 23 21 25 18 27
REMARK Flexibility Score: inf
ROOT
ATOM      1  C   UNL     1      24.290  39.973 129.984  1.00  0.00     0.180 A 
ATOM      2  C   UNL     1      25.110  40.974 129.432  1.00  0.00     0.208 A 
ATOM      3  C   UNL     1      26.320  40.603 128.825  1.00  0.00     0.238 A 
ATOM      4  O   UNL     1      27.074  41.508 128.381  1.00  0.00    -0.285 OA
ATOM      5  C   UNL     1      26.689  39.238 128.762  1.00  0.00     0.111 A 
ATOM      6  C   UNL     1      27.872  38.747 128.135  1.00  0.00     0.134 A 
ATOM      7  C   UNL     1      28.201  37.389 128.247  1.00  0.00     0.093 A 
ATOM      8  C   UNL     1      27.354  36.495 128.908  1.00  0.00     0.123 A 
ATOM      9  C   UNL     1      26.167  36.956 129.471  1.00  0.00     0.094 A 
ATOM     10  C   UNL     1      25.830  38.311 129.407  1.00  0.00     0.146 A 
ATOM     11  O   UNL     1      24.693  38.709 129.967  1.00  0.00    -0.452 OA
ENDROOT
BRANCH   1  12
ATOM     12  C   UNL     1      22.988  40.283 130.617  1.00  0.00     0.025 A 
ATOM     13  C   UNL     1      22.855  41.329 131.543  1.00  0.00     0.016 A 
ATOM     14  C   UNL     1      21.612  41.617 132.110  1.00  0.00     0.051 A 
ATOM     15  C   UNL     1      20.478  40.878 131.757  1.00  0.00     0.157 A 
ATOM     16  C   UNL     1      21.848  39.554 130.246  1.00  0.00     0.062 A 
ATOM     17  C   UNL     1      20.596  39.834 130.808  1.00  0.00     0.158 A 
BRANCH  15  18
ATOM     18  O   UNL     1      19.265  41.214 132.363  1.00  0.00    -0.504 OA
ATOM     19  H   UNL     1      19.187  41.602 133.292  1.00  0.00     0.293 HD
ENDBRANCH  15  18
BRANCH  17  20
ATOM     20  O   UNL     1      19.509  39.060 130.400  1.00  0.00    -0.504 OA
ATOM     21  H   UNL     1      18.873  39.324 129.661  1.00  0.00     0.293 HD
ENDBRANCH  17  20
ENDBRANCH   1  12
BRANCH   2  22
ATOM     22  O   UNL     1      24.737  42.318 129.523  1.00  0.00    -0.502 OA
ATOM     23  H   UNL     1      25.414  43.064 129.621  1.00  0.00     0.293 HD
ENDBRANCH   2  22
BRANCH   6  24
ATOM     24  O   UNL     1      28.738  39.537 127.374  1.00  0.00    -0.507 OA
ATOM     25  H   UNL     1      28.569  39.820 126.421  1.00  0.00     0.293 HD
ENDBRANCH   6  24
BRANCH   8  26
ATOM     26  O   UNL     1      27.680  35.145 129.001  1.00  0.00    -0.508 OA
ATOM     27  H   UNL     1      27.330  34.467 128.335  1.00  0.00     0.293 HD
ENDBRANCH   8  26
TORSDOF 6
ENDMDL
MODEL 5
REMARK VINA RESULT:    -6.200      1.530      6.831
REMARK INTER + INTRA:          -7.793
REMARK INTER:                  -7.901
REMARK INTRA:                   0.108
REMARK UNBOUND:                -0.324
REMARK SMILES O=c1c(O)c(-c2ccc(O)c(O)c2)oc2cc(O)cc(O)c12
REMARK SMILES IDX 5 1 3 2 2 3 1 4 22 5 20 6 19 7 17 8 16 9 15 10 14 11 6 12
REMARK SMILES IDX 7 13 8 14 9 15 13 16 11 17 10 18 12 20 4 22 21 24 18 26
REMARK H PARENT 10 19 12 21 4 23 21 25 18 27
REMARK Flexibility Score: inf
ROOT
ATOM      1  C   UNL     1      15.508  35.378 125.002  1.00  0.00     0.180 A 
ATOM      2  C   UNL     1      15.591  34.664 123.793  1.00  0.00     0.208 A 
ATOM      3  C   UNL     1      14.546  33.795 123.444  1.00  0.00     0.238 A 
ATOM      4  O   UNL     1      14.651  33.118 122.388  1.00  0.00    -0.285 OA
ATOM      5  C   UNL     1      13.423  33.663 124.296  1.00  0.00     0.111 A 
ATOM      6  C   UNL     1      12.289  32.842 124.020  1.00  0.00     0.134 A 
ATOM      7  C   UNL     1      11.295  32.687 124.996  1.00  0.00     0.093 A 
ATOM      8  C   UNL     1      11.364  33.375 126.210  1.00  0.00     0.123 A 
ATOM      9  C   UNL     1      12.438  34.225 126.463  1.00  0.00     0.094 A 
ATOM     10  C   UNL     1      13.462  34.372 125.525  1.00  0.00     0.146 A 
ATOM     11  O   UNL     1      14.473  35.184 125.811  1.00  0.00    -0.452 OA
ENDROOT
BRANCH   1  12
ATOM     12  C   UNL     1      16.558  36.332 125.428  1.00  0.00     0.025 A 
ATOM     13  C   UNL     1      17.063  36.327 126.737  1.00  0.00     0.016 A 
ATOM     14  C   UNL     1      18.070  37.220 127.108  1.00  0.00     0.051 A 
ATOM     15  C   UNL     1      18.600  38.125 126.182  1.00  0.00     0.157 A 
ATOM     16  C   UNL     1      17.102  37.224 124.491  1.00  0.00     0.062 A 
ATOM     17  C   UNL     1      18.111  38.124 124.853  1.00  0.00     0.158 A 
BRANCH  15  18
ATOM     18  O   UNL     1      19.601  38.994 126.618  1.00  0.00    -0.504 OA
ATOM     19  H   UNL     1      19.673  39.961 126.334  1.00  0.00     0.293 HD
ENDBRANCH  15  18
BRANCH  17  20
ATOM     20  O   UNL     1      18.597  38.990 123.872  1.00  0.00    -0.504 OA
ATOM     21  H   UNL     1      18.453  39.990 123.879  1.00  0.00     0.293 HD
ENDBRANCH  17  20
ENDBRANCH   1  12
BRANCH   2  22
ATOM     22  O   UNL     1      16.718  34.793 122.977  1.00  0.00    -0.502 OA
ATOM     23  H   UNL     1      17.194  35.676 122.843  1.00  0.00     0.293 HD
ENDBRANCH   2  22
BRANCH   6  24
ATOM     24  O   UNL     1      12.077  32.186 122.805  1.00  0.00    -0.507 OA
ATOM     25  H   UNL     1      11.556  31.329 122.698  1.00  0.00     0.293 HD
ENDBRANCH   6  24
BRANCH   8  26
ATOM     26  O   UNL     1      10.364  33.227 127.168  1.00  0.00    -0.508 OA
ATOM     27  H   UNL     1      10.538  32.757 128.049  1.00  0.00     0.293 HD
ENDBRANCH   8  26
TORSDOF 6
ENDMDL
MODEL 6
REMARK VINA RESULT:    -6.196      1.886      6.945
REMARK INTER + INTRA:          -7.788
REMARK INTER:                  -7.464
REMARK INTRA:                  -0.323
REMARK UNBOUND:                -0.324
REMARK SMILES O=c1c(O)c(-c2ccc(O)c(O)c2)oc2cc(O)cc(O)c12
REMARK SMILES IDX 5 1 3 2 2 3 1 4 22 5 20 6 19 7 17 8 16 9 15 10 14 11 6 12
REMARK SMILES IDX 7 13 8 14 9 15 13 16 11 17 10 18 12 20 4 22 21 24 18 26
REMARK H PARENT 10 19 12 21 4 23 21 25 18 27
REMARK Flexibility Score: inf
ROOT
ATOM      1  C   UNL     1      15.146  36.212 126.110  1.00  0.00     0.180 A 
ATOM      2  C   UNL     1      15.033  34.832 125.866  1.00  0.00     0.208 A 
ATOM      3  C   UNL     1      13.779  34.217 126.009  1.00  0.00     0.238 A 
ATOM      4  O   UNL     1      13.695  32.972 125.842  1.00  0.00    -0.285 OA
ATOM      5  C   UNL     1      12.652  34.990 126.377  1.00  0.00     0.111 A 
ATOM      6  C   UNL     1      11.327  34.477 126.511  1.00  0.00     0.134 A 
ATOM      7  C   UNL     1      10.313  35.307 127.007  1.00  0.00     0.093 A 
ATOM      8  C   UNL     1      10.562  36.648 127.311  1.00  0.00     0.123 A 
ATOM      9  C   UNL     1      11.839  37.171 127.126  1.00  0.00     0.094 A 
ATOM     10  C   UNL     1      12.880  36.360 126.668  1.00  0.00     0.146 A 
ATOM     11  O   UNL     1      14.084  36.898 126.516  1.00  0.00    -0.452 OA
ENDROOT
BRANCH   1  12
ATOM     12  C   UNL     1      16.428  36.937 125.955  1.00  0.00     0.025 A 
ATOM     13  C   UNL     1      17.343  37.039 127.015  1.00  0.00     0.016 A 
ATOM     14  C   UNL     1      18.556  37.707 126.838  1.00  0.00     0.051 A 
ATOM     15  C   UNL     1      18.886  38.274 125.602  1.00  0.00     0.157 A 
ATOM     16  C   UNL     1      16.765  37.487 124.709  1.00  0.00     0.062 A 
ATOM     17  C   UNL     1      17.980  38.159 124.521  1.00  0.00     0.158 A 
BRANCH  15  18
ATOM     18  O   UNL     1      20.113  38.932 125.493  1.00  0.00    -0.504 OA
ATOM     19  H   UNL     1      20.209  39.918 125.294  1.00  0.00     0.293 HD
ENDBRANCH  15  18
BRANCH  17  20
ATOM     20  O   UNL     1      18.243  38.691 123.257  1.00  0.00    -0.504 OA
ATOM     21  H   UNL     1      18.225  38.153 122.403  1.00  0.00     0.293 HD
ENDBRANCH  17  20
ENDBRANCH   1  12
BRANCH   2  22
ATOM     22  O   UNL     1      16.162  34.083 125.524  1.00  0.00    -0.502 OA
ATOM     23  H   UNL     1      16.102  33.201 125.031  1.00  0.00     0.293 HD
ENDBRANCH   2  22
BRANCH   6  24
ATOM     24  O   UNL     1      10.951  33.181 126.149  1.00  0.00    -0.507 OA
ATOM     25  H   UNL     1      10.034  32.919 125.820  1.00  0.00     0.293 HD
ENDBRANCH   6  24
BRANCH   8  26
ATOM     26  O   UNL     1       9.544  37.469 127.789  1.00  0.00    -0.508 OA
ATOM     27  H   UNL     1       9.261  38.306 127.292  1.00  0.00     0.293 HD
ENDBRANCH   8  26
TORSDOF 6
ENDMDL
MODEL 7
REMARK VINA RESULT:    -6.177      1.591      3.184
REMARK INTER + INTRA:          -7.765
REMARK INTER:                  -7.558
REMARK INTRA:                  -0.207
REMARK UNBOUND:                -0.324
REMARK SMILES O=c1c(O)c(-c2ccc(O)c(O)c2)oc2cc(O)cc(O)c12
REMARK SMILES IDX 5 1 3 2 2 3 1 4 22 5 20 6 19 7 17 8 16 9 15 10 14 11 6 12
REMARK SMILES IDX 7 13 8 14 9 15 13 16 11 17 10 18 12 20 4 22 21 24 18 26
REMARK H PARENT 10 19 12 21 4 23 21 25 18 27
REMARK Flexibility Score: inf
ROOT
ATOM      1  C   UNL     1      14.701  35.450 124.761  1.00  0.00     0.180 A 
ATOM      2  C   UNL     1      15.307  36.356 125.650  1.00  0.00     0.208 A 
ATOM      3  C   UNL     1      16.360  37.161 125.187  1.00  0.00     0.238 A 
ATOM      4  O   UNL     1      16.934  37.930 126.001  1.00  0.00    -0.285 OA
ATOM      5  C   UNL     1      16.782  37.065 123.840  1.00  0.00     0.111 A 
ATOM      6  C   UNL     1      17.810  37.861 123.254  1.00  0.00     0.134 A 
ATOM      7  C   UNL     1      18.234  37.589 121.946  1.00  0.00     0.093 A 
ATOM      8  C   UNL     1      17.621  36.593 121.183  1.00  0.00     0.123 A 
ATOM      9  C   UNL     1      16.576  35.851 121.726  1.00  0.00     0.094 A 
ATOM     10  C   UNL     1      16.155  36.074 123.040  1.00  0.00     0.146 A 
ATOM     11  O   UNL     1      15.162  35.336 123.521  1.00  0.00    -0.452 OA
ENDROOT
BRANCH   1  12
ATOM     12  C   UNL     1      13.569  34.585 125.168  1.00  0.00     0.025 A 
ATOM     13  C   UNL     1      12.320  35.128 125.507  1.00  0.00     0.016 A 
ATOM     14  C   UNL     1      11.261  34.291 125.865  1.00  0.00     0.051 A 
ATOM     15  C   UNL     1      11.422  32.901 125.879  1.00  0.00     0.157 A 
ATOM     16  C   UNL     1      13.727  33.191 125.161  1.00  0.00     0.062 A 
ATOM     17  C   UNL     1      12.671  32.343 125.518  1.00  0.00     0.158 A 
BRANCH  15  18
ATOM     18  O   UNL     1      10.325  32.121 126.250  1.00  0.00    -0.504 OA
ATOM     19  H   UNL     1       9.755  31.601 125.598  1.00  0.00     0.293 HD
ENDBRANCH  15  18
BRANCH  17  20
ATOM     20  O   UNL     1      12.905  30.967 125.500  1.00  0.00    -0.504 OA
ATOM     21  H   UNL     1      13.818  30.550 125.385  1.00  0.00     0.293 HD
ENDBRANCH  17  20
ENDBRANCH   1  12
BRANCH   2  22
ATOM     22  O   UNL     1      14.889  36.420 126.982  1.00  0.00    -0.502 OA
ATOM     23  H   UNL     1      15.511  36.687 127.735  1.00  0.00     0.293 HD
ENDBRANCH   2  22
BRANCH   6  24
ATOM     24  O   UNL     1      18.424  38.939 123.897  1.00  0.00    -0.507 OA
ATOM     25  H   UNL     1      18.618  39.831 123.467  1.00  0.00     0.293 HD
ENDBRANCH   6  24
BRANCH   8  26
ATOM     26  O   UNL     1      18.038  36.340 119.878  1.00  0.00    -0.508 OA
ATOM     27  H   UNL     1      18.260  35.402 119.564  1.00  0.00     0.293 HD
ENDBRANCH   8  26
TORSDOF 6
ENDMDL
MODEL 8
REMARK VINA RESULT:    -6.114      9.350     11.126
REMARK INTER + INTRA:          -7.689
REMARK INTER:                  -7.403
REMARK INTRA:                  -0.286
REMARK UNBOUND:                -0.324
REMARK SMILES O=c1c(O)c(-c2ccc(O)c(O)c2)oc2cc(O)cc(O)c12
REMARK SMILES IDX 5 1 3 2 2 3 1 4 22 5 20 6 19 7 17 8 16 9 15 10 14 11 6 12
REMARK SMILES IDX 7 13 8 14 9 15 13 16 11 17 10 18 12 20 4 22 21 24 18 26
REMARK H PARENT 10 19 12 21 4 23 21 25 18 27
REMARK Flexibility Score: inf
ROOT
ATOM      1  C   UNL     1      21.241  41.221 131.543  1.00  0.00     0.180 A 
ATOM      2  C   UNL     1      21.043  39.991 130.891  1.00  0.00     0.208 A 
ATOM      3  C   UNL     1      22.156  39.308 130.376  1.00  0.00     0.238 A 
ATOM      4  O   UNL     1      21.967  38.235 129.745  1.00  0.00    -0.285 OA
ATOM      5  C   UNL     1      23.454  39.852 130.533  1.00  0.00     0.111 A 
ATOM      6  C   UNL     1      24.655  39.225 130.087  1.00  0.00     0.134 A 
ATOM      7  C   UNL     1      25.870  39.916 130.181  1.00  0.00     0.093 A 
ATOM      8  C   UNL     1      25.935  41.184 130.764  1.00  0.00     0.123 A 
ATOM      9  C   UNL     1      24.776  41.778 131.256  1.00  0.00     0.094 A 
ATOM     10  C   UNL     1      23.544  41.129 131.145  1.00  0.00     0.146 A 
ATOM     11  O   UNL     1      22.462  41.737 131.619  1.00  0.00    -0.452 OA
ENDROOT
BRANCH   1  12
ATOM     12  C   UNL     1      20.121  41.988 132.135  1.00  0.00     0.025 A 
ATOM     13  C   UNL     1      19.556  43.088 131.470  1.00  0.00     0.016 A 
ATOM     14  C   UNL     1      18.485  43.780 132.037  1.00  0.00     0.051 A 
ATOM     15  C   UNL     1      17.949  43.385 133.267  1.00  0.00     0.157 A 
ATOM     16  C   UNL     1      19.572  41.576 133.359  1.00  0.00     0.062 A 
ATOM     17  C   UNL     1      18.497  42.265 133.936  1.00  0.00     0.158 A 
BRANCH  15  18
ATOM     18  O   UNL     1      16.881  44.124 133.781  1.00  0.00    -0.504 OA
ATOM     19  H   UNL     1      15.911  43.861 133.677  1.00  0.00     0.293 HD
ENDBRANCH  15  18
BRANCH  17  20
ATOM     20  O   UNL     1      18.010  41.805 135.161  1.00  0.00    -0.504 OA
ATOM     21  H   UNL     1      17.299  41.095 135.256  1.00  0.00     0.293 HD
ENDBRANCH  17  20
ENDBRANCH   1  12
BRANCH   2  22
ATOM     22  O   UNL     1      19.752  39.481 130.727  1.00  0.00    -0.502 OA
ATOM     23  H   UNL     1      19.328  39.358 129.816  1.00  0.00     0.293 HD
ENDBRANCH   2  22
BRANCH   6  24
ATOM     24  O   UNL     1      24.714  37.927 129.575  1.00  0.00    -0.507 OA
ATOM     25  H   UNL     1      24.378  37.652 128.664  1.00  0.00     0.293 HD
ENDBRANCH   6  24
BRANCH   8  26
ATOM     26  O   UNL     1      27.150  41.857 130.867  1.00  0.00    -0.508 OA
ATOM     27  H   UNL     1      27.938  41.457 131.362  1.00  0.00     0.293 HD
ENDBRANCH   8  26
TORSDOF 6
ENDMDL
MODEL 9
REMARK VINA RESULT:    -6.037      1.490      7.133
REMARK INTER + INTRA:          -7.596
REMARK INTER:                  -7.617
REMARK INTRA:                   0.020
REMARK UNBOUND:                -0.324
REMARK SMILES O=c1c(O)c(-c2ccc(O)c(O)c2)oc2cc(O)cc(O)c12
REMARK SMILES IDX 5 1 3 2 2 3 1 4 22 5 20 6 19 7 17 8 16 9 15 10 14 11 6 12
REMARK SMILES IDX 7 13 8 14 9 15 13 16 11 17 10 18 12 20 4 22 21 24 18 26
REMARK H PARENT 10 19 12 21 4 23 21 25 18 27
REMARK Flexibility Score: inf
ROOT
ATOM      1  C   UNL     1      15.399  35.929 125.691  1.00  0.00     0.180 A 
ATOM      2  C   UNL     1      14.365  36.189 126.607  1.00  0.00     0.208 A 
ATOM      3  C   UNL     1      13.242  35.346 126.621  1.00  0.00     0.238 A 
ATOM      4  O   UNL     1      12.296  35.615 127.406  1.00  0.00    -0.285 OA
ATOM      5  C   UNL     1      13.174  34.246 125.733  1.00  0.00     0.111 A 
ATOM      6  C   UNL     1      12.103  33.305 125.689  1.00  0.00     0.134 A 
ATOM      7  C   UNL     1      12.079  32.332 124.681  1.00  0.00     0.093 A 
ATOM      8  C   UNL     1      13.121  32.227 123.757  1.00  0.00     0.123 A 
ATOM      9  C   UNL     1      14.200  33.104 123.829  1.00  0.00     0.094 A 
ATOM     10  C   UNL     1      14.234  34.108 124.800  1.00  0.00     0.146 A 
ATOM     11  O   UNL     1      15.278  34.929 124.826  1.00  0.00    -0.452 OA
ENDROOT
BRANCH   1  12
ATOM     12  C   UNL     1      16.626  36.757 125.632  1.00  0.00     0.025 A 
ATOM     13  C   UNL     1      17.071  37.321 124.426  1.00  0.00     0.016 A 
ATOM     14  C   UNL     1      18.217  38.118 124.401  1.00  0.00     0.051 A 
ATOM     15  C   UNL     1      18.933  38.378 125.574  1.00  0.00     0.157 A 
ATOM     16  C   UNL     1      17.330  37.034 126.814  1.00  0.00     0.062 A 
ATOM     17  C   UNL     1      18.481  37.832 126.799  1.00  0.00     0.158 A 
BRANCH  15  18
ATOM     18  O   UNL     1      20.073  39.179 125.479  1.00  0.00    -0.504 OA
ATOM     19  H   UNL     1      20.997  38.882 125.760  1.00  0.00     0.293 HD
ENDBRANCH  15  18
BRANCH  17  20
ATOM     20  O   UNL     1      19.137  38.054 128.011  1.00  0.00    -0.504 OA
ATOM     21  H   UNL     1      20.113  38.300 128.088  1.00  0.00     0.293 HD
ENDBRANCH  17  20
ENDBRANCH   1  12
BRANCH   2  22
ATOM     22  O   UNL     1      14.442  37.292 127.461  1.00  0.00    -0.502 OA
ATOM     23  H   UNL     1      13.822  37.412 128.253  1.00  0.00     0.293 HD
ENDBRANCH   2  22
BRANCH   6  24
ATOM     24  O   UNL     1      11.062  33.264 126.620  1.00  0.00    -0.507 OA
ATOM     25  H   UNL     1      10.161  33.702 126.496  1.00  0.00     0.293 HD
ENDBRANCH   6  24
BRANCH   8  26
ATOM     26  O   UNL     1      13.097  31.247 122.767  1.00  0.00    -0.508 OA
ATOM     27  H   UNL     1      13.263  31.472 121.793  1.00  0.00     0.293 HD
ENDBRANCH   8  26
TORSDOF 6
ENDMDL
