MODEL 1
REMARK VINA RESULT:    17.870      0.000      0.000
REMARK INTER + INTRA:          32.615
REMARK INTER:                  26.227
REMARK INTRA:                   6.388
REMARK UNBOUND:                 6.388
REMARK SMILES O=c1c(O[C@@H]2O[C@H](CO)[C@H](O)[C@@H](O)[C@@H]2O)c(-c2ccc(O)c(O)c2)oc2cc(O)cc(O)c12
REMARK SMILES IDX 4 1 3 2 16 3 25 4 2 5 26 6 1 7 33 8 27 9 31 10 28 11 30 12
REMARK SMILES IDX 17 13 18 14 19 15 20 16 24 17 22 18 21 19 23 21 32 23 29 25
REMARK SMILES IDX 5 27 14 28 6 29 12 30 7 31 10 32 15 33 13 35 8 37 9 38 11 40
REMARK H PARENT 21 20 23 22 32 24 29 26 15 34 13 36 9 39 11 41
REMARK Flexibility Score: inf
ROOT
ATOM      1  O   UNL     1    -115.264 -98.419  37.154  1.00  0.00    -0.454 OA
ENDROOT
BRANCH   1   2
ATOM      2  C   UNL     1    -115.677 -98.096  35.858  1.00  0.00     0.214 A 
ATOM      3  C   UNL     1    -114.954 -97.167  35.087  1.00  0.00     0.180 A 
ATOM      4  O   UNL     1    -115.336 -96.905  33.841  1.00  0.00    -0.452 OA
ATOM      5  C   UNL     1    -116.808 -98.708  35.303  1.00  0.00     0.239 A 
ATOM      6  C   UNL     1    -116.397 -97.468  33.270  1.00  0.00     0.146 A 
ATOM      7  O   UNL     1    -117.461 -99.537  35.991  1.00  0.00    -0.285 OA
ATOM      8  C   UNL     1    -117.191 -98.398  33.985  1.00  0.00     0.111 A 
ATOM      9  C   UNL     1    -116.720 -97.132  31.952  1.00  0.00     0.094 A 
ATOM     10  C   UNL     1    -118.314 -98.978  33.349  1.00  0.00     0.134 A 
ATOM     11  C   UNL     1    -117.828 -97.715  31.327  1.00  0.00     0.123 A 
ATOM     12  C   UNL     1    -118.621 -98.628  32.027  1.00  0.00     0.093 A 
BRANCH   3  13
ATOM     13  C   UNL     1    -113.749 -96.484  35.612  1.00  0.00     0.025 A 
ATOM     14  C   UNL     1    -113.575 -95.095  35.474  1.00  0.00     0.016 A 
ATOM     15  C   UNL     1    -112.431 -94.475  35.981  1.00  0.00     0.051 A 
ATOM     16  C   UNL     1    -111.437 -95.230  36.615  1.00  0.00     0.157 A 
ATOM     17  C   UNL     1    -112.739 -97.241  36.228  1.00  0.00     0.062 A 
ATOM     18  C   UNL     1    -111.590 -96.621  36.735  1.00  0.00     0.158 A 
BRANCH  16  19
ATOM     19  O   UNL     1    -110.299 -94.606  37.123  1.00  0.00    -0.504 OA
ATOM     20  H   UNL     1    -109.558 -94.277  36.516  1.00  0.00     0.293 HD
ENDBRANCH  16  19
BRANCH  18  21
ATOM     21  O   UNL     1    -110.616 -97.404  37.355  1.00  0.00    -0.504 OA
ATOM     22  H   UNL     1    -110.123 -97.092  38.182  1.00  0.00     0.293 HD
ENDBRANCH  18  21
ENDBRANCH   3  13
BRANCH  10  23
ATOM     23  O   UNL     1    -119.125 -99.896  34.019  1.00  0.00    -0.507 OA
ATOM     24  H   UNL     1    -119.558 -99.675  34.907  1.00  0.00     0.293 HD
ENDBRANCH  10  23
BRANCH  11  25
ATOM     25  O   UNL     1    -118.150 -97.397  30.009  1.00  0.00    -0.508 OA
ATOM     26  H   UNL     1    -118.860 -97.912  29.499  1.00  0.00     0.293 HD
ENDBRANCH  11  25
ENDBRANCH   1   2
BRANCH   1  27
ATOM     27  C   UNL     1    -116.104 -98.211  38.289  1.00  0.00     0.339 C 
ATOM     28  C   UNL     1    -117.398 -99.054  38.156  1.00  0.00     0.214 C 
ATOM     29  O   UNL     1    -115.391 -98.562  39.463  1.00  0.00    -0.332 OA
ATOM     30  C   UNL     1    -117.789 -99.682  39.512  1.00  0.00     0.180 C 
ATOM     31  C   UNL     1    -116.085 -98.113  40.619  1.00  0.00     0.179 C 
ATOM     32  C   UNL     1    -117.543 -98.694  40.673  1.00  0.00     0.177 C 
BRANCH  28  33
ATOM     33  O   UNL     1    -117.227-100.073  37.204  1.00  0.00    -0.384 OA
ATOM     34  H   UNL     1    -116.524-100.677  37.556  1.00  0.00     0.211 HD
ENDBRANCH  28  33
BRANCH  30  35
ATOM     35  O   UNL     1    -119.125-100.124  39.504  1.00  0.00    -0.387 OA
ATOM     36  H   UNL     1    -119.181-100.906  38.894  1.00  0.00     0.211 HD
ENDBRANCH  30  35
BRANCH  31  37
ATOM     37  C   UNL     1    -115.214 -98.441  41.847  1.00  0.00     0.191 C 
BRANCH  37  38
ATOM     38  O   UNL     1    -115.870 -98.067  43.031  1.00  0.00    -0.394 OA
ATOM     39  H   UNL     1    -115.233 -98.194  43.781  1.00  0.00     0.210 HD
ENDBRANCH  37  38
ENDBRANCH  31  37
BRANCH  32  40
ATOM     40  O   UNL     1    -117.861 -99.284  41.912  1.00  0.00    -0.387 OA
ATOM     41  H   UNL     1    -117.493-100.206  41.917  1.00  0.00     0.211 HD
ENDBRANCH  32  40
ENDBRANCH   1  27
TORSDOF 12
ENDMDL
MODEL 2
REMARK VINA RESULT:    20.496      1.248      1.963
REMARK INTER + INTRA:          36.469
REMARK INTER:                  36.371
REMARK INTRA:                   0.098
REMARK UNBOUND:                 6.388
REMARK SMILES O=c1c(O[C@@H]2O[C@H](CO)[C@H](O)[C@@H](O)[C@@H]2O)c(-c2ccc(O)c(O)c2)oc2cc(O)cc(O)c12
REMARK SMILES IDX 4 1 3 2 16 3 25 4 2 5 26 6 1 7 33 8 27 9 31 10 28 11 30 12
REMARK SMILES IDX 17 13 18 14 19 15 20 16 24 17 22 18 21 19 23 21 32 23 29 25
REMARK SMILES IDX 5 27 14 28 6 29 12 30 7 31 10 32 15 33 13 35 8 37 9 38 11 40
REMARK H PARENT 21 20 23 22 32 24 29 26 15 34 13 36 9 39 11 41
REMARK Flexibility Score: inf
ROOT
ATOM      1  O   UNL     1    -115.212 -98.472  37.945  1.00  0.00    -0.454 OA
ENDROOT
BRANCH   1   2
ATOM      2  C   UNL     1    -115.555 -98.360  36.595  1.00  0.00     0.214 A 
ATOM      3  C   UNL     1    -114.718 -97.668  35.698  1.00  0.00     0.180 A 
ATOM      4  O   UNL     1    -115.039 -97.609  34.409  1.00  0.00    -0.452 OA
ATOM      5  C   UNL     1    -116.730 -98.951  36.112  1.00  0.00     0.239 A 
ATOM      6  C   UNL     1    -116.139 -98.162  33.906  1.00  0.00     0.146 A 
ATOM      7  O   UNL     1    -117.484 -99.567  36.911  1.00  0.00    -0.285 OA
ATOM      8  C   UNL     1    -117.044 -98.857  34.743  1.00  0.00     0.111 A 
ATOM      9  C   UNL     1    -116.391 -98.049  32.535  1.00  0.00     0.094 A 
ATOM     10  C   UNL     1    -118.206 -99.433  34.176  1.00  0.00     0.134 A 
ATOM     11  C   UNL     1    -117.538 -98.627  31.979  1.00  0.00     0.123 A 
ATOM     12  C   UNL     1    -118.440 -99.310  32.799  1.00  0.00     0.093 A 
BRANCH   3  13
ATOM     13  C   UNL     1    -113.462 -97.021  36.141  1.00  0.00     0.025 A 
ATOM     14  C   UNL     1    -113.239 -95.645  35.950  1.00  0.00     0.016 A 
ATOM     15  C   UNL     1    -112.047 -95.058  36.381  1.00  0.00     0.051 A 
ATOM     16  C   UNL     1    -111.054 -95.836  36.990  1.00  0.00     0.157 A 
ATOM     17  C   UNL     1    -112.454 -97.800  36.732  1.00  0.00     0.062 A 
ATOM     18  C   UNL     1    -111.257 -97.215  37.162  1.00  0.00     0.158 A 
BRANCH  16  19
ATOM     19  O   UNL     1    -109.868 -95.245  37.421  1.00  0.00    -0.504 OA
ATOM     20  H   UNL     1    -109.698 -94.253  37.312  1.00  0.00     0.293 HD
ENDBRANCH  16  19
BRANCH  18  21
ATOM     21  O   UNL     1    -110.286 -98.019  37.759  1.00  0.00    -0.504 OA
ATOM     22  H   UNL     1    -109.430 -97.634  38.139  1.00  0.00     0.293 HD
ENDBRANCH  18  21
ENDBRANCH   3  13
BRANCH  10  23
ATOM     23  O   UNL     1    -119.125-100.125  34.966  1.00  0.00    -0.507 OA
ATOM     24  H   UNL     1    -119.520-101.009  34.672  1.00  0.00     0.293 HD
ENDBRANCH  10  23
BRANCH  11  25
ATOM     25  O   UNL     1    -117.791 -98.532  30.612  1.00  0.00    -0.508 OA
ATOM     26  H   UNL     1    -118.602 -98.037  30.258  1.00  0.00     0.293 HD
ENDBRANCH  11  25
ENDBRANCH   1   2
BRANCH   1  27
ATOM     27  C   UNL     1    -116.167 -98.838  38.940  1.00  0.00     0.339 C 
ATOM     28  C   UNL     1    -115.443 -99.236  40.252  1.00  0.00     0.214 C 
ATOM     29  O   UNL     1    -117.047 -97.749  39.159  1.00  0.00    -0.332 OA
ATOM     30  C   UNL     1    -116.190 -98.680  41.485  1.00  0.00     0.180 C 
ATOM     31  C   UNL     1    -118.167 -98.162  39.930  1.00  0.00     0.179 C 
ATOM     32  C   UNL     1    -117.720 -98.786  41.301  1.00  0.00     0.177 C 
BRANCH  28  33
ATOM     33  O   UNL     1    -114.123 -98.754  40.254  1.00  0.00    -0.384 OA
ATOM     34  H   UNL     1    -114.167 -97.802  40.527  1.00  0.00     0.211 HD
ENDBRANCH  28  33
BRANCH  30  35
ATOM     35  O   UNL     1    -115.781 -99.327  42.665  1.00  0.00    -0.387 OA
ATOM     36  H   UNL     1    -115.950-100.299  42.552  1.00  0.00     0.211 HD
ENDBRANCH  30  35
BRANCH  31  37
ATOM     37  C   UNL     1    -119.124 -96.961  40.050  1.00  0.00     0.191 C 
BRANCH  37  38
ATOM     38  O   UNL     1    -118.420 -95.806  40.429  1.00  0.00    -0.394 OA
ATOM     39  H   UNL     1    -119.087 -95.100  40.632  1.00  0.00     0.210 HD
ENDBRANCH  37  38
ENDBRANCH  31  37
BRANCH  32  40
ATOM     40  O   UNL     1    -118.399 -98.240  42.408  1.00  0.00    -0.387 OA
ATOM     41  H   UNL     1    -119.071 -98.901  42.714  1.00  0.00     0.211 HD
ENDBRANCH  32  40
ENDBRANCH   1  27
TORSDOF 12
ENDMDL
