MODEL 1
REMARK VINA RESULT:    -4.836      0.000      0.000
REMARK INTER + INTRA:          -6.179
REMARK INTER:                  -5.826
REMARK INTRA:                  -0.353
REMARK UNBOUND:                -0.353
REMARK SMILES Oc1cc(O)c2cc(O)c(-c3ccc(O)c(O)c3)[o+]c2c1.[Cl-]
REMARK SMILES IDX 10 1 19 2 20 3 21 4 2 5 3 6 4 7 6 8 7 9 8 10 11 11 12 12
REMARK SMILES IDX 13 13 14 14 18 15 16 16 15 17 17 19 9 21 1 23 5 25
REMARK H PARENT 15 18 17 20 9 22 1 24 5 26
REMARK Flexibility Score: inf
ROOT
ATOM      1  C   UNL     1     103.031 101.971  92.873  1.00  0.00     0.402 A 
ATOM      2  O   UNL     1     102.442 100.851  93.283  1.00  0.00    -0.202 OA
ATOM      3  C   UNL     1     103.033  99.661  93.248  1.00  0.00     0.368 A 
ATOM      4  C   UNL     1     102.332  98.539  93.698  1.00  0.00     0.162 A 
ATOM      5  C   UNL     1     102.929  97.275  93.669  1.00  0.00     0.128 A 
ATOM      6  C   UNL     1     104.232  97.133  93.188  1.00  0.00     0.093 A 
ATOM      7  C   UNL     1     104.956  98.241  92.731  1.00  0.00     0.136 A 
ATOM      8  C   UNL     1     104.356  99.527  92.760  1.00  0.00     0.125 A 
ATOM      9  C   UNL     1     105.010 100.694  92.336  1.00  0.00     0.078 A 
ATOM     10  C   UNL     1     104.355 101.928  92.399  1.00  0.00     0.223 A 
ENDROOT
BRANCH   1  11
ATOM     11  C   UNL     1     102.263 103.236  92.954  1.00  0.00     0.087 A 
ATOM     12  C   UNL     1     101.552 103.731  91.849  1.00  0.00     0.022 A 
ATOM     13  C   UNL     1     100.817 104.913  91.956  1.00  0.00     0.051 A 
ATOM     14  C   UNL     1     100.765 105.614  93.166  1.00  0.00     0.157 A 
ATOM     15  C   UNL     1     102.194 103.926  94.174  1.00  0.00     0.068 A 
ATOM     16  C   UNL     1     101.459 105.112  94.291  1.00  0.00     0.158 A 
BRANCH  14  17
ATOM     17  O   UNL     1     100.014 106.791  93.205  1.00  0.00    -0.504 OA
ATOM     18  H   UNL     1      99.026 106.838  93.004  1.00  0.00     0.293 HD
ENDBRANCH  14  17
BRANCH  16  19
ATOM     19  O   UNL     1     101.446 105.751  95.533  1.00  0.00    -0.504 OA
ATOM     20  H   UNL     1     101.513 105.269  96.416  1.00  0.00     0.293 HD
ENDBRANCH  16  19
ENDBRANCH   1  11
BRANCH  10  21
ATOM     21  O   UNL     1     105.021 103.094  92.024  1.00  0.00    -0.500 OA
ATOM     22  H   UNL     1     104.594 103.780  91.414  1.00  0.00     0.294 HD
ENDBRANCH  10  21
BRANCH   5  23
ATOM     23  O   UNL     1     102.235  96.153  94.116  1.00  0.00    -0.507 OA
ATOM     24  H   UNL     1     101.503  96.225  94.812  1.00  0.00     0.293 HD
ENDBRANCH   5  23
BRANCH   7  25
ATOM     25  O   UNL     1     106.253  98.013  92.262  1.00  0.00    -0.507 OA
ATOM     26  H   UNL     1     106.661  97.098  92.135  1.00  0.00     0.293 HD
ENDBRANCH   7  25
TORSDOF 6
ENDMDL
MODEL 2
REMARK VINA RESULT:    -4.823      1.340      2.899
REMARK INTER + INTRA:          -6.163
REMARK INTER:                  -5.881
REMARK INTRA:                  -0.282
REMARK UNBOUND:                -0.353
REMARK SMILES Oc1cc(O)c2cc(O)c(-c3ccc(O)c(O)c3)[o+]c2c1.[Cl-]
REMARK SMILES IDX 10 1 19 2 20 3 21 4 2 5 3 6 4 7 6 8 7 9 8 10 11 11 12 12
REMARK SMILES IDX 13 13 14 14 18 15 16 16 15 17 17 19 9 21 1 23 5 25
REMARK H PARENT 15 18 17 20 9 22 1 24 5 26
REMARK Flexibility Score: inf
ROOT
ATOM      1  C   UNL     1     101.209 101.349  93.524  1.00  0.00     0.402 A 
ATOM      2  O   UNL     1     102.455 101.030  93.182  1.00  0.00    -0.202 OA
ATOM      3  C   UNL     1     102.935  99.793  93.242  1.00  0.00     0.368 A 
ATOM      4  C   UNL     1     104.259  99.557  92.863  1.00  0.00     0.162 A 
ATOM      5  C   UNL     1     104.790  98.265  92.921  1.00  0.00     0.128 A 
ATOM      6  C   UNL     1     103.993  97.205  93.358  1.00  0.00     0.093 A 
ATOM      7  C   UNL     1     102.664  97.415  93.744  1.00  0.00     0.136 A 
ATOM      8  C   UNL     1     102.119  98.724  93.686  1.00  0.00     0.125 A 
ATOM      9  C   UNL     1     100.794  99.025  94.039  1.00  0.00     0.078 A 
ATOM     10  C   UNL     1     100.325 100.340  93.951  1.00  0.00     0.223 A 
ENDROOT
BRANCH   1  11
ATOM     11  C   UNL     1     100.795 102.767  93.422  1.00  0.00     0.087 A 
ATOM     12  C   UNL     1      99.951 103.210  92.392  1.00  0.00     0.022 A 
ATOM     13  C   UNL     1      99.555 104.548  92.330  1.00  0.00     0.051 A 
ATOM     14  C   UNL     1      99.981 105.464  93.298  1.00  0.00     0.157 A 
ATOM     15  C   UNL     1     101.205 103.680  94.407  1.00  0.00     0.068 A 
ATOM     16  C   UNL     1     100.814 105.023  94.353  1.00  0.00     0.158 A 
BRANCH  14  17
ATOM     17  O   UNL     1      99.553 106.787  93.177  1.00  0.00    -0.504 OA
ATOM     18  H   UNL     1      99.860 107.538  93.778  1.00  0.00     0.293 HD
ENDBRANCH  14  17
BRANCH  16  19
ATOM     19  O   UNL     1     101.271 105.876  95.361  1.00  0.00    -0.504 OA
ATOM     20  H   UNL     1     101.900 105.593  96.096  1.00  0.00     0.293 HD
ENDBRANCH  16  19
ENDBRANCH   1  11
BRANCH  10  21
ATOM     21  O   UNL     1      98.996 100.631  94.254  1.00  0.00    -0.500 OA
ATOM     22  H   UNL     1      98.237 100.035  93.948  1.00  0.00     0.294 HD
ENDBRANCH  10  21
BRANCH   5  23
ATOM     23  O   UNL     1     106.110  98.024  92.544  1.00  0.00    -0.507 OA
ATOM     24  H   UNL     1     106.738  97.486  93.129  1.00  0.00     0.293 HD
ENDBRANCH   5  23
BRANCH   7  25
ATOM     25  O   UNL     1     101.935  96.301  94.173  1.00  0.00    -0.507 OA
ATOM     26  H   UNL     1     102.164  95.346  93.941  1.00  0.00     0.293 HD
ENDBRANCH   7  25
TORSDOF 6
ENDMDL
MODEL 3
REMARK VINA RESULT:    -4.654      2.556      7.623
REMARK INTER + INTRA:          -5.959
REMARK INTER:                  -5.742
REMARK INTRA:                  -0.218
REMARK UNBOUND:                -0.353
REMARK SMILES Oc1cc(O)c2cc(O)c(-c3ccc(O)c(O)c3)[o+]c2c1.[Cl-]
REMARK SMILES IDX 10 1 19 2 20 3 21 4 2 5 3 6 4 7 6 8 7 9 8 10 11 11 12 12
REMARK SMILES IDX 13 13 14 14 18 15 16 16 15 17 17 19 9 21 1 23 5 25
REMARK H PARENT 15 18 17 20 9 22 1 24 5 26
REMARK Flexibility Score: inf
ROOT
ATOM      1  C   UNL     1     100.724 103.420  93.722  1.00  0.00     0.402 A 
ATOM      2  O   UNL     1      99.663 104.045  93.220  1.00  0.00    -0.202 OA
ATOM      3  C   UNL     1      99.579 105.366  93.107  1.00  0.00     0.368 A 
ATOM      4  C   UNL     1      98.419 105.931  92.569  1.00  0.00     0.162 A 
ATOM      5  C   UNL     1      98.304 107.319  92.443  1.00  0.00     0.128 A 
ATOM      6  C   UNL     1      99.352 108.144  92.857  1.00  0.00     0.093 A 
ATOM      7  C   UNL     1     100.524 107.603  93.400  1.00  0.00     0.136 A 
ATOM      8  C   UNL     1     100.647 106.195  93.528  1.00  0.00     0.125 A 
ATOM      9  C   UNL     1     101.789 105.563  94.047  1.00  0.00     0.078 A 
ATOM     10  C   UNL     1     101.840 104.169  94.138  1.00  0.00     0.223 A 
ENDROOT
BRANCH   1  11
ATOM     11  C   UNL     1     100.693 101.941  93.803  1.00  0.00     0.087 A 
ATOM     12  C   UNL     1      99.808 101.274  94.666  1.00  0.00     0.022 A 
ATOM     13  C   UNL     1      99.781  99.879  94.707  1.00  0.00     0.051 A 
ATOM     14  C   UNL     1     100.623  99.123  93.884  1.00  0.00     0.157 A 
ATOM     15  C   UNL     1     101.523 101.185  92.960  1.00  0.00     0.068 A 
ATOM     16  C   UNL     1     101.503  99.785  92.996  1.00  0.00     0.158 A 
BRANCH  14  17
ATOM     17  O   UNL     1     100.550  97.732  93.977  1.00  0.00    -0.504 OA
ATOM     18  H   UNL     1     101.200  97.101  93.532  1.00  0.00     0.293 HD
ENDBRANCH  14  17
BRANCH  16  19
ATOM     19  O   UNL     1     102.366  99.099  92.138  1.00  0.00    -0.504 OA
ATOM     20  H   UNL     1     103.033  98.407  92.444  1.00  0.00     0.293 HD
ENDBRANCH  16  19
ENDBRANCH   1  11
BRANCH  10  21
ATOM     21  O   UNL     1     102.993 103.540  94.608  1.00  0.00    -0.500 OA
ATOM     22  H   UNL     1     103.308 102.655  94.231  1.00  0.00     0.294 HD
ENDBRANCH  10  21
BRANCH   5  23
ATOM     23  O   UNL     1      97.151 107.889  91.907  1.00  0.00    -0.507 OA
ATOM     24  H   UNL     1      97.196 108.669  91.264  1.00  0.00     0.293 HD
ENDBRANCH   5  23
BRANCH   7  25
ATOM     25  O   UNL     1     101.524 108.497  93.793  1.00  0.00    -0.507 OA
ATOM     26  H   UNL     1     102.505 108.382  93.586  1.00  0.00     0.293 HD
ENDBRANCH   7  25
TORSDOF 6
ENDMDL
MODEL 4
REMARK VINA RESULT:    -4.647      4.864      6.719
REMARK INTER + INTRA:          -5.951
REMARK INTER:                  -5.607
REMARK INTRA:                  -0.344
REMARK UNBOUND:                -0.353
REMARK SMILES Oc1cc(O)c2cc(O)c(-c3ccc(O)c(O)c3)[o+]c2c1.[Cl-]
REMARK SMILES IDX 10 1 19 2 20 3 21 4 2 5 3 6 4 7 6 8 7 9 8 10 11 11 12 12
REMARK SMILES IDX 13 13 14 14 18 15 16 16 15 17 17 19 9 21 1 23 5 25
REMARK H PARENT 15 18 17 20 9 22 1 24 5 26
REMARK Flexibility Score: inf
ROOT
ATOM      1  C   UNL     1     101.959 106.345  93.097  1.00  0.00     0.402 A 
ATOM      2  O   UNL     1     102.688 107.033  92.223  1.00  0.00    -0.202 OA
ATOM      3  C   UNL     1     103.986 106.824  92.029  1.00  0.00     0.368 A 
ATOM      4  C   UNL     1     104.669 107.601  91.089  1.00  0.00     0.162 A 
ATOM      5  C   UNL     1     106.035 107.403  90.869  1.00  0.00     0.128 A 
ATOM      6  C   UNL     1     106.721 106.425  91.591  1.00  0.00     0.093 A 
ATOM      7  C   UNL     1     106.061 105.633  92.539  1.00  0.00     0.136 A 
ATOM      8  C   UNL     1     104.674 105.828  92.765  1.00  0.00     0.125 A 
ATOM      9  C   UNL     1     103.927 105.073  93.684  1.00  0.00     0.078 A 
ATOM     10  C   UNL     1     102.560 105.319  93.849  1.00  0.00     0.223 A 
ENDROOT
BRANCH   1  11
ATOM     11  C   UNL     1     100.522 106.679  93.228  1.00  0.00     0.087 A 
ATOM     12  C   UNL     1     100.085 107.709  94.076  1.00  0.00     0.022 A 
ATOM     13  C   UNL     1      98.727 108.021  94.164  1.00  0.00     0.051 A 
ATOM     14  C   UNL     1      97.783 107.324  93.402  1.00  0.00     0.157 A 
ATOM     15  C   UNL     1      99.579 105.994  92.445  1.00  0.00     0.068 A 
ATOM     16  C   UNL     1      98.215 106.300  92.528  1.00  0.00     0.158 A 
BRANCH  14  17
ATOM     17  O   UNL     1      96.440 107.683  93.540  1.00  0.00    -0.504 OA
ATOM     18  H   UNL     1      95.703 107.033  93.772  1.00  0.00     0.293 HD
ENDBRANCH  14  17
BRANCH  16  19
ATOM     19  O   UNL     1      97.333 105.567  91.729  1.00  0.00    -0.504 OA
ATOM     20  H   UNL     1      96.366 105.814  91.586  1.00  0.00     0.293 HD
ENDBRANCH  16  19
ENDBRANCH   1  11
BRANCH  10  21
ATOM     21  O   UNL     1     101.810 104.536  94.725  1.00  0.00    -0.500 OA
ATOM     22  H   UNL     1     102.246 103.975  95.446  1.00  0.00     0.294 HD
ENDBRANCH  10  21
BRANCH   5  23
ATOM     23  O   UNL     1     106.721 108.175  89.933  1.00  0.00    -0.507 OA
ATOM     24  H   UNL     1     106.244 108.607  89.151  1.00  0.00     0.293 HD
ENDBRANCH   5  23
BRANCH   7  25
ATOM     25  O   UNL     1     106.821 104.679  93.222  1.00  0.00    -0.507 OA
ATOM     26  H   UNL     1     107.709 104.867  93.663  1.00  0.00     0.293 HD
ENDBRANCH   7  25
TORSDOF 6
ENDMDL
MODEL 5
REMARK VINA RESULT:    -4.557      3.434      8.231
REMARK INTER + INTRA:          -5.842
REMARK INTER:                  -5.706
REMARK INTRA:                  -0.137
REMARK UNBOUND:                -0.353
REMARK SMILES Oc1cc(O)c2cc(O)c(-c3ccc(O)c(O)c3)[o+]c2c1.[Cl-]
REMARK SMILES IDX 10 1 19 2 20 3 21 4 2 5 3 6 4 7 6 8 7 9 8 10 11 11 12 12
REMARK SMILES IDX 13 13 14 14 18 15 16 16 15 17 17 19 9 21 1 23 5 25
REMARK H PARENT 15 18 17 20 9 22 1 24 5 26
REMARK Flexibility Score: inf
ROOT
ATOM      1  C   UNL     1     103.375 105.173  92.942  1.00  0.00     0.402 A 
ATOM      2  O   UNL     1     103.353 106.379  92.383  1.00  0.00    -0.202 OA
ATOM      3  C   UNL     1     102.443 107.303  92.675  1.00  0.00     0.368 A 
ATOM      4  C   UNL     1     102.501 108.542  92.031  1.00  0.00     0.162 A 
ATOM      5  C   UNL     1     101.553 109.530  92.317  1.00  0.00     0.128 A 
ATOM      6  C   UNL     1     100.545 109.277  93.249  1.00  0.00     0.093 A 
ATOM      7  C   UNL     1     100.465 108.043  93.907  1.00  0.00     0.136 A 
ATOM      8  C   UNL     1     101.425 107.038  93.622  1.00  0.00     0.125 A 
ATOM      9  C   UNL     1     101.431 105.778  94.242  1.00  0.00     0.078 A 
ATOM     10  C   UNL     1     102.414 104.839  93.915  1.00  0.00     0.223 A 
ENDROOT
BRANCH   1  11
ATOM     11  C   UNL     1     104.437 104.227  92.527  1.00  0.00     0.087 A 
ATOM     12  C   UNL     1     104.126 102.952  92.028  1.00  0.00     0.022 A 
ATOM     13  C   UNL     1     105.143 102.087  91.621  1.00  0.00     0.051 A 
ATOM     14  C   UNL     1     106.484 102.479  91.689  1.00  0.00     0.157 A 
ATOM     15  C   UNL     1     105.780 104.631  92.575  1.00  0.00     0.068 A 
ATOM     16  C   UNL     1     106.807 103.770  92.169  1.00  0.00     0.158 A 
BRANCH  14  17
ATOM     17  O   UNL     1     107.453 101.565  91.270  1.00  0.00    -0.504 OA
ATOM     18  H   UNL     1     108.269 101.318  91.811  1.00  0.00     0.293 HD
ENDBRANCH  14  17
BRANCH  16  19
ATOM     19  O   UNL     1     108.121 104.235  92.257  1.00  0.00    -0.504 OA
ATOM     20  H   UNL     1     108.368 105.188  92.479  1.00  0.00     0.293 HD
ENDBRANCH  16  19
ENDBRANCH   1  11
BRANCH  10  21
ATOM     21  O   UNL     1     102.449 103.607  94.566  1.00  0.00    -0.500 OA
ATOM     22  H   UNL     1     103.020 102.841  94.228  1.00  0.00     0.294 HD
ENDBRANCH  10  21
BRANCH   5  23
ATOM     23  O   UNL     1     101.605 110.767  91.679  1.00  0.00    -0.507 OA
ATOM     24  H   UNL     1     100.790 111.168  91.231  1.00  0.00     0.293 HD
ENDBRANCH   5  23
BRANCH   7  25
ATOM     25  O   UNL     1      99.423 107.869  94.823  1.00  0.00    -0.507 OA
ATOM     26  H   UNL     1      98.808 107.069  94.841  1.00  0.00     0.293 HD
ENDBRANCH   7  25
TORSDOF 6
ENDMDL
MODEL 6
REMARK VINA RESULT:    -4.547      4.100      7.172
REMARK INTER + INTRA:          -5.831
REMARK INTER:                  -5.490
REMARK INTRA:                  -0.341
REMARK UNBOUND:                -0.353
REMARK SMILES Oc1cc(O)c2cc(O)c(-c3ccc(O)c(O)c3)[o+]c2c1.[Cl-]
REMARK SMILES IDX 10 1 19 2 20 3 21 4 2 5 3 6 4 7 6 8 7 9 8 10 11 11 12 12
REMARK SMILES IDX 13 13 14 14 18 15 16 16 15 17 17 19 9 21 1 23 5 25
REMARK H PARENT 15 18 17 20 9 22 1 24 5 26
REMARK Flexibility Score: inf
ROOT
ATOM      1  C   UNL     1     101.339 108.350  93.436  1.00  0.00     0.402 A 
ATOM      2  O   UNL     1     102.379 107.860  92.766  1.00  0.00    -0.202 OA
ATOM      3  C   UNL     1     102.748 106.585  92.821  1.00  0.00     0.368 A 
ATOM      4  C   UNL     1     103.858 106.164  92.084  1.00  0.00     0.162 A 
ATOM      5  C   UNL     1     104.269 104.829  92.127  1.00  0.00     0.128 A 
ATOM      6  C   UNL     1     103.567 103.911  92.911  1.00  0.00     0.093 A 
ATOM      7  C   UNL     1     102.452 104.307  93.660  1.00  0.00     0.136 A 
ATOM      8  C   UNL     1     102.029 105.660  93.618  1.00  0.00     0.125 A 
ATOM      9  C   UNL     1     100.916 106.144  94.323  1.00  0.00     0.078 A 
ATOM     10  C   UNL     1     100.556 107.492  94.229  1.00  0.00     0.223 A 
ENDROOT
BRANCH   1  11
ATOM     11  C   UNL     1     101.035 109.794  93.299  1.00  0.00     0.087 A 
ATOM     12  C   UNL     1     100.246 110.278  92.244  1.00  0.00     0.022 A 
ATOM     13  C   UNL     1      99.953 111.640  92.150  1.00  0.00     0.051 A 
ATOM     14  C   UNL     1     100.429 112.541  93.109  1.00  0.00     0.157 A 
ATOM     15  C   UNL     1     101.495 110.692  94.275  1.00  0.00     0.068 A 
ATOM     16  C   UNL     1     101.207 112.060  94.188  1.00  0.00     0.158 A 
BRANCH  14  17
ATOM     17  O   UNL     1     100.104 113.890  92.954  1.00  0.00    -0.504 OA
ATOM     18  H   UNL     1      99.578 114.259  92.175  1.00  0.00     0.293 HD
ENDBRANCH  14  17
BRANCH  16  19
ATOM     19  O   UNL     1     101.708 112.896  95.188  1.00  0.00    -0.504 OA
ATOM     20  H   UNL     1     102.508 113.500  95.071  1.00  0.00     0.293 HD
ENDBRANCH  16  19
ENDBRANCH   1  11
BRANCH  10  21
ATOM     21  O   UNL     1      99.422 107.962  94.891  1.00  0.00    -0.500 OA
ATOM     22  H   UNL     1      98.879 107.368  95.506  1.00  0.00     0.294 HD
ENDBRANCH  10  21
BRANCH   5  23
ATOM     23  O   UNL     1     105.374 104.403  91.394  1.00  0.00    -0.507 OA
ATOM     24  H   UNL     1     106.318 104.653  91.664  1.00  0.00     0.293 HD
ENDBRANCH   5  23
BRANCH   7  25
ATOM     25  O   UNL     1     101.807 103.327  94.421  1.00  0.00    -0.507 OA
ATOM     26  H   UNL     1     101.802 103.301  95.430  1.00  0.00     0.293 HD
ENDBRANCH   7  25
TORSDOF 6
ENDMDL
MODEL 7
REMARK VINA RESULT:    -4.417      8.214     10.326
REMARK INTER + INTRA:          -5.674
REMARK INTER:                  -5.326
REMARK INTRA:                  -0.348
REMARK UNBOUND:                -0.353
REMARK SMILES Oc1cc(O)c2cc(O)c(-c3ccc(O)c(O)c3)[o+]c2c1.[Cl-]
REMARK SMILES IDX 10 1 19 2 20 3 21 4 2 5 3 6 4 7 6 8 7 9 8 10 11 11 12 12
REMARK SMILES IDX 13 13 14 14 18 15 16 16 15 17 17 19 9 21 1 23 5 25
REMARK H PARENT 15 18 17 20 9 22 1 24 5 26
REMARK Flexibility Score: inf
ROOT
ATOM      1  C   UNL     1     102.076 110.342  93.276  1.00  0.00     0.402 A 
ATOM      2  O   UNL     1     103.122 109.908  92.578  1.00  0.00    -0.202 OA
ATOM      3  C   UNL     1     104.280 110.557  92.518  1.00  0.00     0.368 A 
ATOM      4  C   UNL     1     105.321 110.023  91.755  1.00  0.00     0.162 A 
ATOM      5  C   UNL     1     106.548 110.688  91.672  1.00  0.00     0.128 A 
ATOM      6  C   UNL     1     106.734 111.891  92.356  1.00  0.00     0.093 A 
ATOM      7  C   UNL     1     105.706 112.448  93.127  1.00  0.00     0.136 A 
ATOM      8  C   UNL     1     104.459 111.777  93.216  1.00  0.00     0.125 A 
ATOM      9  C   UNL     1     103.378 112.252  93.975  1.00  0.00     0.078 A 
ATOM     10  C   UNL     1     102.180 111.532  94.019  1.00  0.00     0.223 A 
ENDROOT
BRANCH   1  11
ATOM     11  C   UNL     1     100.835 109.532  93.256  1.00  0.00     0.087 A 
ATOM     12  C   UNL     1     100.595 108.538  94.217  1.00  0.00     0.022 A 
ATOM     13  C   UNL     1      99.408 107.804  94.191  1.00  0.00     0.051 A 
ATOM     14  C   UNL     1      98.434 108.055  93.218  1.00  0.00     0.157 A 
ATOM     15  C   UNL     1      99.850 109.801  92.292  1.00  0.00     0.068 A 
ATOM     16  C   UNL     1      98.656 109.070  92.259  1.00  0.00     0.158 A 
BRANCH  14  17
ATOM     17  O   UNL     1      97.271 107.283  93.246  1.00  0.00    -0.504 OA
ATOM     18  H   UNL     1      97.247 106.306  93.502  1.00  0.00     0.293 HD
ENDBRANCH  14  17
BRANCH  16  19
ATOM     19  O   UNL     1      97.727 109.384  91.264  1.00  0.00    -0.504 OA
ATOM     20  H   UNL     1      97.809 109.090  90.302  1.00  0.00     0.293 HD
ENDBRANCH  16  19
ENDBRANCH   1  11
BRANCH  10  21
ATOM     21  O   UNL     1     101.124 111.979  94.812  1.00  0.00    -0.500 OA
ATOM     22  H   UNL     1     101.125 111.859  95.818  1.00  0.00     0.294 HD
ENDBRANCH  10  21
BRANCH   5  23
ATOM     23  O   UNL     1     107.591 110.160  90.913  1.00  0.00    -0.507 OA
ATOM     24  H   UNL     1     108.262 110.758  90.447  1.00  0.00     0.293 HD
ENDBRANCH   5  23
BRANCH   7  25
ATOM     25  O   UNL     1     105.972 113.657  93.776  1.00  0.00    -0.507 OA
ATOM     26  H   UNL     1     105.997 114.557  93.318  1.00  0.00     0.293 HD
ENDBRANCH   7  25
TORSDOF 6
ENDMDL
MODEL 8
REMARK VINA RESULT:    -4.391      3.919      5.476
REMARK INTER + INTRA:          -5.643
REMARK INTER:                  -5.299
REMARK INTRA:                  -0.344
REMARK UNBOUND:                -0.353
REMARK SMILES Oc1cc(O)c2cc(O)c(-c3ccc(O)c(O)c3)[o+]c2c1.[Cl-]
REMARK SMILES IDX 10 1 19 2 20 3 21 4 2 5 3 6 4 7 6 8 7 9 8 10 11 11 12 12
REMARK SMILES IDX 13 13 14 14 18 15 16 16 15 17 17 19 9 21 1 23 5 25
REMARK H PARENT 15 18 17 20 9 22 1 24 5 26
REMARK Flexibility Score: inf
ROOT
ATOM      1  C   UNL     1     100.606 105.510  93.454  1.00  0.00     0.402 A 
ATOM      2  O   UNL     1      99.505 104.972  92.939  1.00  0.00    -0.202 OA
ATOM      3  C   UNL     1      99.193 103.686  93.063  1.00  0.00     0.368 A 
ATOM      4  C   UNL     1      98.014 103.212  92.482  1.00  0.00     0.162 A 
ATOM      5  C   UNL     1      97.664 101.863  92.594  1.00  0.00     0.128 A 
ATOM      6  C   UNL     1      98.498 100.985  93.290  1.00  0.00     0.093 A 
ATOM      7  C   UNL     1      99.685 101.434  93.880  1.00  0.00     0.136 A 
ATOM      8  C   UNL     1     100.044 102.803  93.771  1.00  0.00     0.125 A 
ATOM      9  C   UNL     1     101.207 103.345  94.342  1.00  0.00     0.078 A 
ATOM     10  C   UNL     1     101.492 104.706  94.197  1.00  0.00     0.223 A 
ENDROOT
BRANCH   1  11
ATOM     11  C   UNL     1     100.847 106.956  93.240  1.00  0.00     0.087 A 
ATOM     12  C   UNL     1     100.434 107.914  94.179  1.00  0.00     0.022 A 
ATOM     13  C   UNL     1     100.694 109.269  93.965  1.00  0.00     0.051 A 
ATOM     14  C   UNL     1     101.378 109.693  92.822  1.00  0.00     0.157 A 
ATOM     15  C   UNL     1     101.554 107.377  92.102  1.00  0.00     0.068 A 
ATOM     16  C   UNL     1     101.818 108.735  91.880  1.00  0.00     0.158 A 
BRANCH  14  17
ATOM     17  O   UNL     1     101.602 111.063  92.666  1.00  0.00    -0.504 OA
ATOM     18  H   UNL     1     101.663 111.716  93.434  1.00  0.00     0.293 HD
ENDBRANCH  14  17
BRANCH  16  19
ATOM     19  O   UNL     1     102.515 109.081  90.720  1.00  0.00    -0.504 OA
ATOM     20  H   UNL     1     103.522 109.120  90.657  1.00  0.00     0.293 HD
ENDBRANCH  16  19
ENDBRANCH   1  11
BRANCH  10  21
ATOM     21  O   UNL     1     102.621 105.254  94.805  1.00  0.00    -0.500 OA
ATOM     22  H   UNL     1     102.644 106.217  95.117  1.00  0.00     0.294 HD
ENDBRANCH  10  21
BRANCH   5  23
ATOM     23  O   UNL     1      96.489 101.385  92.018  1.00  0.00    -0.507 OA
ATOM     24  H   UNL     1      96.439 100.462  91.605  1.00  0.00     0.293 HD
ENDBRANCH   5  23
BRANCH   7  25
ATOM     25  O   UNL     1     100.465 100.491  94.555  1.00  0.00    -0.507 OA
ATOM     26  H   UNL     1     101.259 100.718  95.137  1.00  0.00     0.293 HD
ENDBRANCH   7  25
TORSDOF 6
ENDMDL
MODEL 9
REMARK VINA RESULT:    -4.320      4.390      7.719
REMARK INTER + INTRA:          -5.558
REMARK INTER:                  -5.223
REMARK INTRA:                  -0.334
REMARK UNBOUND:                -0.353
REMARK SMILES Oc1cc(O)c2cc(O)c(-c3ccc(O)c(O)c3)[o+]c2c1.[Cl-]
REMARK SMILES IDX 10 1 19 2 20 3 21 4 2 5 3 6 4 7 6 8 7 9 8 10 11 11 12 12
REMARK SMILES IDX 13 13 14 14 18 15 16 16 15 17 17 19 9 21 1 23 5 25
REMARK H PARENT 15 18 17 20 9 22 1 24 5 26
REMARK Flexibility Score: inf
ROOT
ATOM      1  C   UNL     1     100.708 108.674  93.106  1.00  0.00     0.402 A 
ATOM      2  O   UNL     1     101.529 107.697  93.483  1.00  0.00    -0.202 OA
ATOM      3  C   UNL     1     101.187 106.413  93.479  1.00  0.00     0.368 A 
ATOM      4  C   UNL     1     102.119 105.459  93.896  1.00  0.00     0.162 A 
ATOM      5  C   UNL     1     101.783 104.102  93.905  1.00  0.00     0.128 A 
ATOM      6  C   UNL     1     100.511 103.698  93.495  1.00  0.00     0.093 A 
ATOM      7  C   UNL     1      99.559 104.634  93.073  1.00  0.00     0.136 A 
ATOM      8  C   UNL     1      99.895 106.012  93.060  1.00  0.00     0.125 A 
ATOM      9  C   UNL     1      99.011 107.019  92.640  1.00  0.00     0.078 A 
ATOM     10  C   UNL     1      99.414 108.358  92.650  1.00  0.00     0.223 A 
ENDROOT
BRANCH   1  11
ATOM     11  C   UNL     1     101.204 110.068  93.165  1.00  0.00     0.087 A 
ATOM     12  C   UNL     1     101.182 110.803  94.361  1.00  0.00     0.022 A 
ATOM     13  C   UNL     1     101.677 112.108  94.396  1.00  0.00     0.051 A 
ATOM     14  C   UNL     1     102.213 112.699  93.248  1.00  0.00     0.157 A 
ATOM     15  C   UNL     1     101.762 110.652  92.017  1.00  0.00     0.068 A 
ATOM     16  C   UNL     1     102.261 111.960  92.043  1.00  0.00     0.158 A 
BRANCH  14  17
ATOM     17  O   UNL     1     102.688 114.009  93.350  1.00  0.00    -0.504 OA
ATOM     18  H   UNL     1     102.096 114.826  93.344  1.00  0.00     0.293 HD
ENDBRANCH  14  17
BRANCH  16  19
ATOM     19  O   UNL     1     102.790 112.480  90.859  1.00  0.00    -0.504 OA
ATOM     20  H   UNL     1     103.111 113.431  90.755  1.00  0.00     0.293 HD
ENDBRANCH  16  19
ENDBRANCH   1  11
BRANCH  10  21
ATOM     21  O   UNL     1      98.553 109.352  92.187  1.00  0.00    -0.500 OA
ATOM     22  H   UNL     1      97.971 109.214  91.371  1.00  0.00     0.294 HD
ENDBRANCH  10  21
BRANCH   5  23
ATOM     23  O   UNL     1     102.708 103.146  94.319  1.00  0.00    -0.507 OA
ATOM     24  H   UNL     1     103.705 103.318  94.272  1.00  0.00     0.293 HD
ENDBRANCH   5  23
BRANCH   7  25
ATOM     25  O   UNL     1      98.308 104.147  92.682  1.00  0.00    -0.507 OA
ATOM     26  H   UNL     1      98.073 103.869  91.740  1.00  0.00     0.293 HD
ENDBRANCH   7  25
TORSDOF 6
ENDMDL
