MODEL 1
REMARK VINA RESULT:    -3.449      0.000      0.000
REMARK INTER + INTRA:          -6.698
REMARK INTER:                  -5.465
REMARK INTRA:                  -1.233
REMARK UNBOUND:                -1.233
REMARK SMILES CCCCCCCCCCCC(=O)[O-]
REMARK SMILES IDX 7 1 8 2 9 3 10 4 11 5 12 6 13 7 14 8 6 9 5 10 4 11 3 12 2 13
REMARK SMILES IDX 1 14
REMARK H PARENT
REMARK Flexibility Score: inf
ROOT
ATOM      1  C   UNL     1     -96.249 148.726 240.477  1.00  0.00     0.000 C 
ENDROOT
BRANCH   1   2
ATOM      2  C   UNL     1     -96.239 150.238 240.206  1.00  0.00     0.000 C 
BRANCH   2   3
ATOM      3  C   UNL     1     -97.654 150.822 240.289  1.00  0.00     0.000 C 
BRANCH   3   4
ATOM      4  C   UNL     1     -98.679 149.736 240.633  1.00  0.00     0.006 C 
BRANCH   4   5
ATOM      5  C   UNL     1     -99.567 150.169 241.803  1.00  0.00     0.053 C 
BRANCH   5   6
ATOM      6  C   UNL     1     -98.828 150.036 243.098  1.00  0.00     0.041 C 
ATOM      7  O   UNL     1     -98.239 148.960 243.383  1.00  0.00    -0.550 OA
ATOM      8  O   UNL     1     -98.750 151.115 243.968  1.00  0.00    -0.550 OA
ENDBRANCH   5   6
ENDBRANCH   4   5
ENDBRANCH   3   4
ENDBRANCH   2   3
ENDBRANCH   1   2
BRANCH   1   9
ATOM      9  C   UNL     1     -94.967 148.030 239.996  1.00  0.00     0.000 C 
BRANCH   9  10
ATOM     10  C   UNL     1     -94.218 148.843 238.925  1.00  0.00    -0.000 C 
BRANCH  10  11
ATOM     11  C   UNL     1     -93.800 147.989 237.718  1.00  0.00    -0.000 C 
BRANCH  11  12
ATOM     12  C   UNL     1     -94.654 148.272 236.470  1.00  0.00    -0.000 C 
BRANCH  12  13
ATOM     13  C   UNL     1     -95.532 149.523 236.629  1.00  0.00    -0.003 C 
ATOM     14  C   UNL     1     -97.026 149.200 236.665  1.00  0.00     0.004 C 
ENDBRANCH  12  13
ENDBRANCH  11  12
ENDBRANCH  10  11
ENDBRANCH   9  10
ENDBRANCH   1   9
TORSDOF 10
ENDMDL
MODEL 2
REMARK VINA RESULT:    -3.365      1.058      2.043
REMARK INTER + INTRA:          -6.564
REMARK INTER:                  -5.254
REMARK INTRA:                  -1.310
REMARK UNBOUND:                -1.233
REMARK SMILES CCCCCCCCCCCC(=O)[O-]
REMARK SMILES IDX 7 1 8 2 9 3 10 4 11 5 12 6 13 7 14 8 6 9 5 10 4 11 3 12 2 13
REMARK SMILES IDX 1 14
REMARK H PARENT
REMARK Flexibility Score: inf
ROOT
ATOM      1  C   UNL     1     -94.568 147.178 239.179  1.00  0.00     0.000 C 
ENDROOT
BRANCH   1   2
ATOM      2  C   UNL     1     -95.215 148.034 240.278  1.00  0.00     0.000 C 
BRANCH   2   3
ATOM      3  C   UNL     1     -95.189 149.520 239.906  1.00  0.00     0.000 C 
BRANCH   3   4
ATOM      4  C   UNL     1     -96.463 150.230 240.379  1.00  0.00     0.006 C 
BRANCH   4   5
ATOM      5  C   UNL     1     -97.561 149.217 240.720  1.00  0.00     0.053 C 
BRANCH   5   6
ATOM      6  C   UNL     1     -98.069 149.445 242.109  1.00  0.00     0.041 C 
ATOM      7  O   UNL     1     -98.053 148.508 242.950  1.00  0.00    -0.550 OA
ATOM      8  O   UNL     1     -98.516 150.704 242.489  1.00  0.00    -0.550 OA
ENDBRANCH   5   6
ENDBRANCH   4   5
ENDBRANCH   3   4
ENDBRANCH   2   3
ENDBRANCH   1   2
BRANCH   1   9
ATOM      9  C   UNL     1     -93.862 148.025 238.109  1.00  0.00     0.000 C 
BRANCH   9  10
ATOM     10  C   UNL     1     -93.914 147.377 236.713  1.00  0.00    -0.000 C 
BRANCH  10  11
ATOM     11  C   UNL     1     -94.658 148.243 235.685  1.00  0.00    -0.000 C 
BRANCH  11  12
ATOM     12  C   UNL     1     -95.339 149.466 236.325  1.00  0.00    -0.000 C 
BRANCH  12  13
ATOM     13  C   UNL     1     -96.839 149.542 235.999  1.00  0.00    -0.003 C 
ATOM     14  C   UNL     1     -97.713 148.898 237.075  1.00  0.00     0.004 C 
ENDBRANCH  12  13
ENDBRANCH  11  12
ENDBRANCH  10  11
ENDBRANCH   9  10
ENDBRANCH   1   9
TORSDOF 10
ENDMDL
MODEL 3
REMARK VINA RESULT:    -3.281      3.565      5.614
REMARK INTER + INTRA:          -6.432
REMARK INTER:                  -5.206
REMARK INTRA:                  -1.226
REMARK UNBOUND:                -1.233
REMARK SMILES CCCCCCCCCCCC(=O)[O-]
REMARK SMILES IDX 7 1 8 2 9 3 10 4 11 5 12 6 13 7 14 8 6 9 5 10 4 11 3 12 2 13
REMARK SMILES IDX 1 14
REMARK H PARENT
REMARK Flexibility Score: inf
ROOT
ATOM      1  C   UNL     1     -94.303 148.843 239.128  1.00  0.00     0.000 C 
ENDROOT
BRANCH   1   2
ATOM      2  C   UNL     1     -93.846 147.941 237.972  1.00  0.00     0.000 C 
BRANCH   2   3
ATOM      3  C   UNL     1     -94.556 148.319 236.667  1.00  0.00     0.000 C 
BRANCH   3   4
ATOM      4  C   UNL     1     -95.326 149.636 236.819  1.00  0.00     0.006 C 
BRANCH   4   5
ATOM      5  C   UNL     1     -96.776 149.481 236.351  1.00  0.00     0.053 C 
BRANCH   5   6
ATOM      6  C   UNL     1     -97.025 150.316 235.133  1.00  0.00     0.041 C 
ATOM      7  O   UNL     1     -96.415 150.068 234.060  1.00  0.00    -0.550 OA
ATOM      8  O   UNL     1     -97.966 151.337 235.170  1.00  0.00    -0.550 OA
ENDBRANCH   5   6
ENDBRANCH   4   5
ENDBRANCH   3   4
ENDBRANCH   2   3
ENDBRANCH   1   2
BRANCH   1   9
ATOM      9  C   UNL     1     -95.144 148.090 240.170  1.00  0.00     0.000 C 
BRANCH   9  10
ATOM     10  C   UNL     1     -96.510 148.754 240.420  1.00  0.00    -0.000 C 
BRANCH  10  11
ATOM     11  C   UNL     1     -96.439 150.288 240.379  1.00  0.00    -0.000 C 
BRANCH  11  12
ATOM     12  C   UNL     1     -97.831 150.942 240.330  1.00  0.00    -0.000 C 
BRANCH  12  13
ATOM     13  C   UNL     1     -98.783 150.229 239.356  1.00  0.00    -0.003 C 
ATOM     14  C   UNL     1     -99.492 151.194 238.407  1.00  0.00     0.004 C 
ENDBRANCH  12  13
ENDBRANCH  11  12
ENDBRANCH  10  11
ENDBRANCH   9  10
ENDBRANCH   1   9
TORSDOF 10
ENDMDL
MODEL 4
REMARK VINA RESULT:    -3.272      1.570      2.028
REMARK INTER + INTRA:          -6.417
REMARK INTER:                  -4.838
REMARK INTRA:                  -1.579
REMARK UNBOUND:                -1.233
REMARK SMILES CCCCCCCCCCCC(=O)[O-]
REMARK SMILES IDX 7 1 8 2 9 3 10 4 11 5 12 6 13 7 14 8 6 9 5 10 4 11 3 12 2 13
REMARK SMILES IDX 1 14
REMARK H PARENT
REMARK Flexibility Score: inf
ROOT
ATOM      1  C   UNL     1     -95.535 148.143 240.276  1.00  0.00     0.000 C 
ENDROOT
BRANCH   1   2
ATOM      2  C   UNL     1     -96.773 148.906 240.772  1.00  0.00     0.000 C 
BRANCH   2   3
ATOM      3  C   UNL     1     -96.689 150.391 240.403  1.00  0.00     0.000 C 
BRANCH   3   4
ATOM      4  C   UNL     1     -98.076 150.960 240.083  1.00  0.00     0.006 C 
BRANCH   4   5
ATOM      5  C   UNL     1     -99.107 149.837 239.928  1.00  0.00     0.053 C 
BRANCH   5   6
ATOM      6  C   UNL     1    -100.319 150.121 240.758  1.00  0.00     0.041 C 
ATOM      7  O   UNL     1    -101.373 150.546 240.217  1.00  0.00    -0.550 OA
ATOM      8  O   UNL     1    -100.300 149.870 242.125  1.00  0.00    -0.550 OA
ENDBRANCH   5   6
ENDBRANCH   4   5
ENDBRANCH   3   4
ENDBRANCH   2   3
ENDBRANCH   1   2
BRANCH   1   9
ATOM      9  C   UNL     1     -94.572 149.033 239.476  1.00  0.00     0.000 C 
BRANCH   9  10
ATOM     10  C   UNL     1     -93.876 148.273 238.332  1.00  0.00    -0.000 C 
BRANCH  10  11
ATOM     11  C   UNL     1     -94.607 148.424 236.989  1.00  0.00    -0.000 C 
BRANCH  11  12
ATOM     12  C   UNL     1     -95.409 149.735 236.897  1.00  0.00    -0.000 C 
BRANCH  12  13
ATOM     13  C   UNL     1     -96.891 149.496 236.571  1.00  0.00    -0.003 C 
ATOM     14  C   UNL     1     -97.389 148.129 237.041  1.00  0.00     0.004 C 
ENDBRANCH  12  13
ENDBRANCH  11  12
ENDBRANCH  10  11
ENDBRANCH   9  10
ENDBRANCH   1   9
TORSDOF 10
ENDMDL
MODEL 5
REMARK VINA RESULT:    -3.226      3.967      5.997
REMARK INTER + INTRA:          -6.344
REMARK INTER:                  -5.357
REMARK INTRA:                  -0.987
REMARK UNBOUND:                -1.233
REMARK SMILES CCCCCCCCCCCC(=O)[O-]
REMARK SMILES IDX 7 1 8 2 9 3 10 4 11 5 12 6 13 7 14 8 6 9 5 10 4 11 3 12 2 13
REMARK SMILES IDX 1 14
REMARK H PARENT
REMARK Flexibility Score: inf
ROOT
ATOM      1  C   UNL     1     -93.874 148.186 238.028  1.00  0.00     0.000 C 
ENDROOT
BRANCH   1   2
ATOM      2  C   UNL     1     -94.731 148.312 236.760  1.00  0.00     0.000 C 
BRANCH   2   3
ATOM      3  C   UNL     1     -95.385 149.696 236.673  1.00  0.00     0.000 C 
BRANCH   3   4
ATOM      4  C   UNL     1     -96.210 149.837 235.389  1.00  0.00     0.006 C 
BRANCH   4   5
ATOM      5  C   UNL     1     -95.754 151.052 234.574  1.00  0.00     0.053 C 
BRANCH   5   6
ATOM      6  C   UNL     1     -96.900 151.987 234.344  1.00  0.00     0.041 C 
ATOM      7  O   UNL     1     -96.724 153.059 233.709  1.00  0.00    -0.550 OA
ATOM      8  O   UNL     1     -98.172 151.651 234.790  1.00  0.00    -0.550 OA
ENDBRANCH   5   6
ENDBRANCH   4   5
ENDBRANCH   3   4
ENDBRANCH   2   3
ENDBRANCH   1   2
BRANCH   1   9
ATOM      9  C   UNL     1     -94.457 148.964 239.217  1.00  0.00     0.000 C 
BRANCH   9  10
ATOM     10  C   UNL     1     -95.262 148.067 240.174  1.00  0.00    -0.000 C 
BRANCH  10  11
ATOM     11  C   UNL     1     -96.527 148.756 240.709  1.00  0.00    -0.000 C 
BRANCH  11  12
ATOM     12  C   UNL     1     -96.577 150.253 240.358  1.00  0.00    -0.000 C 
BRANCH  12  13
ATOM     13  C   UNL     1     -98.001 150.736 240.040  1.00  0.00    -0.003 C 
ATOM     14  C   UNL     1     -98.511 150.230 238.691  1.00  0.00     0.004 C 
ENDBRANCH  12  13
ENDBRANCH  11  12
ENDBRANCH  10  11
ENDBRANCH   9  10
ENDBRANCH   1   9
TORSDOF 10
ENDMDL
MODEL 6
REMARK VINA RESULT:    -3.203      1.303      2.794
REMARK INTER + INTRA:          -6.308
REMARK INTER:                  -5.074
REMARK INTRA:                  -1.234
REMARK UNBOUND:                -1.233
REMARK SMILES CCCCCCCCCCCC(=O)[O-]
REMARK SMILES IDX 7 1 8 2 9 3 10 4 11 5 12 6 13 7 14 8 6 9 5 10 4 11 3 12 2 13
REMARK SMILES IDX 1 14
REMARK H PARENT
REMARK Flexibility Score: inf
ROOT
ATOM      1  C   UNL     1     -94.140 148.802 238.371  1.00  0.00     0.000 C 
ENDROOT
BRANCH   1   2
ATOM      2  C   UNL     1     -94.811 148.626 239.741  1.00  0.00     0.000 C 
BRANCH   2   3
ATOM      3  C   UNL     1     -95.820 149.749 240.009  1.00  0.00     0.000 C 
BRANCH   3   4
ATOM      4  C   UNL     1     -97.079 149.207 240.696  1.00  0.00     0.006 C 
BRANCH   4   5
ATOM      5  C   UNL     1     -97.933 150.348 241.256  1.00  0.00     0.053 C 
BRANCH   5   6
ATOM      6  C   UNL     1     -98.352 150.048 242.660  1.00  0.00     0.041 C 
ATOM      7  O   UNL     1     -98.867 150.947 243.374  1.00  0.00    -0.550 OA
ATOM      8  O   UNL     1     -98.217 148.761 243.166  1.00  0.00    -0.550 OA
ENDBRANCH   5   6
ENDBRANCH   4   5
ENDBRANCH   3   4
ENDBRANCH   2   3
ENDBRANCH   1   2
BRANCH   1   9
ATOM      9  C   UNL     1     -95.030 149.553 237.368  1.00  0.00     0.000 C 
BRANCH   9  10
ATOM     10  C   UNL     1     -95.841 148.602 236.469  1.00  0.00    -0.000 C 
BRANCH  10  11
ATOM     11  C   UNL     1     -97.321 148.522 236.873  1.00  0.00    -0.000 C 
BRANCH  11  12
ATOM     12  C   UNL     1     -98.046 149.872 236.730  1.00  0.00    -0.000 C 
BRANCH  12  13
ATOM     13  C   UNL     1     -99.219 150.017 237.712  1.00  0.00    -0.003 C 
ATOM     14  C   UNL     1     -99.538 151.475 238.044  1.00  0.00     0.004 C 
ENDBRANCH  12  13
ENDBRANCH  11  12
ENDBRANCH  10  11
ENDBRANCH   9  10
ENDBRANCH   1   9
TORSDOF 10
ENDMDL
MODEL 7
REMARK VINA RESULT:    -3.202      2.595      5.530
REMARK INTER + INTRA:          -6.307
REMARK INTER:                  -5.085
REMARK INTRA:                  -1.221
REMARK UNBOUND:                -1.233
REMARK SMILES CCCCCCCCCCCC(=O)[O-]
REMARK SMILES IDX 7 1 8 2 9 3 10 4 11 5 12 6 13 7 14 8 6 9 5 10 4 11 3 12 2 13
REMARK SMILES IDX 1 14
REMARK H PARENT
REMARK Flexibility Score: inf
ROOT
ATOM      1  C   UNL     1     -95.171 148.100 240.083  1.00  0.00     0.000 C 
ENDROOT
BRANCH   1   2
ATOM      2  C   UNL     1     -94.354 149.009 239.153  1.00  0.00     0.000 C 
BRANCH   2   3
ATOM      3  C   UNL     1     -93.884 148.245 237.910  1.00  0.00     0.000 C 
BRANCH   3   4
ATOM      4  C   UNL     1     -95.020 148.099 236.890  1.00  0.00     0.006 C 
BRANCH   4   5
ATOM      5  C   UNL     1     -95.734 149.437 236.669  1.00  0.00     0.053 C 
BRANCH   5   6
ATOM      6  C   UNL     1     -97.216 149.263 236.775  1.00  0.00     0.041 C 
ATOM      7  O   UNL     1     -97.696 148.215 237.280  1.00  0.00    -0.550 OA
ATOM      8  O   UNL     1     -98.067 150.279 236.359  1.00  0.00    -0.550 OA
ENDBRANCH   5   6
ENDBRANCH   4   5
ENDBRANCH   3   4
ENDBRANCH   2   3
ENDBRANCH   1   2
BRANCH   1   9
ATOM      9  C   UNL     1     -96.479 148.756 240.553  1.00  0.00     0.000 C 
BRANCH   9  10
ATOM     10  C   UNL     1     -96.498 150.276 240.310  1.00  0.00    -0.000 C 
BRANCH  10  11
ATOM     11  C   UNL     1     -97.923 150.849 240.257  1.00  0.00    -0.000 C 
BRANCH  11  12
ATOM     12  C   UNL     1     -98.954 149.932 240.938  1.00  0.00    -0.000 C 
BRANCH  12  13
ATOM     13  C   UNL     1     -99.318 150.405 242.354  1.00  0.00    -0.003 C 
ATOM     14  C   UNL     1     -98.635 149.584 243.447  1.00  0.00     0.004 C 
ENDBRANCH  12  13
ENDBRANCH  11  12
ENDBRANCH  10  11
ENDBRANCH   9  10
ENDBRANCH   1   9
TORSDOF 10
ENDMDL
MODEL 8
REMARK VINA RESULT:    -3.198      2.729      4.256
REMARK INTER + INTRA:          -6.299
REMARK INTER:                  -5.595
REMARK INTRA:                  -0.704
REMARK UNBOUND:                -1.233
REMARK SMILES CCCCCCCCCCCC(=O)[O-]
REMARK SMILES IDX 7 1 8 2 9 3 10 4 11 5 12 6 13 7 14 8 6 9 5 10 4 11 3 12 2 13
REMARK SMILES IDX 1 14
REMARK H PARENT
REMARK Flexibility Score: inf
ROOT
ATOM      1  C   UNL     1     -95.359 149.018 236.384  1.00  0.00     0.000 C 
ENDROOT
BRANCH   1   2
ATOM      2  C   UNL     1     -94.657 149.450 237.680  1.00  0.00     0.000 C 
BRANCH   2   3
ATOM      3  C   UNL     1     -94.567 148.285 238.672  1.00  0.00     0.000 C 
BRANCH   3   4
ATOM      4  C   UNL     1     -95.303 148.613 239.976  1.00  0.00     0.006 C 
BRANCH   4   5
ATOM      5  C   UNL     1     -95.756 150.076 239.999  1.00  0.00     0.053 C 
BRANCH   5   6
ATOM      6  C   UNL     1     -97.105 150.196 240.634  1.00  0.00     0.041 C 
ATOM      7  O   UNL     1     -97.416 149.457 241.605  1.00  0.00    -0.550 OA
ATOM      8  O   UNL     1     -98.002 151.157 240.185  1.00  0.00    -0.550 OA
ENDBRANCH   5   6
ENDBRANCH   4   5
ENDBRANCH   3   4
ENDBRANCH   2   3
ENDBRANCH   1   2
BRANCH   1   9
ATOM      9  C   UNL     1     -96.645 149.813 236.113  1.00  0.00     0.000 C 
BRANCH   9  10
ATOM     10  C   UNL     1     -96.826 150.157 234.623  1.00  0.00    -0.000 C 
BRANCH  10  11
ATOM     11  C   UNL     1     -95.576 150.805 234.009  1.00  0.00    -0.000 C 
BRANCH  11  12
ATOM     12  C   UNL     1     -95.865 152.193 233.409  1.00  0.00    -0.000 C 
BRANCH  12  13
ATOM     13  C   UNL     1     -97.279 152.695 233.742  1.00  0.00    -0.003 C 
ATOM     14  C   UNL     1     -97.276 154.042 234.464  1.00  0.00     0.004 C 
ENDBRANCH  12  13
ENDBRANCH  11  12
ENDBRANCH  10  11
ENDBRANCH   9  10
ENDBRANCH   1   9
TORSDOF 10
ENDMDL
MODEL 9
REMARK VINA RESULT:    -3.147      1.217      1.478
REMARK INTER + INTRA:          -6.219
REMARK INTER:                  -5.285
REMARK INTRA:                  -0.934
REMARK UNBOUND:                -1.233
REMARK SMILES CCCCCCCCCCCC(=O)[O-]
REMARK SMILES IDX 7 1 8 2 9 3 10 4 11 5 12 6 13 7 14 8 6 9 5 10 4 11 3 12 2 13
REMARK SMILES IDX 1 14
REMARK H PARENT
REMARK Flexibility Score: inf
ROOT
ATOM      1  C   UNL     1     -96.882 148.396 240.805  1.00  0.00     0.000 C 
ENDROOT
BRANCH   1   2
ATOM      2  C   UNL     1     -97.426 149.691 240.182  1.00  0.00     0.000 C 
BRANCH   2   3
ATOM      3  C   UNL     1     -98.089 150.575 241.244  1.00  0.00     0.000 C 
BRANCH   3   4
ATOM      4  C   UNL     1     -98.314 149.799 242.547  1.00  0.00     0.006 C 
BRANCH   4   5
ATOM      5  C   UNL     1     -99.662 150.164 243.177  1.00  0.00     0.053 C 
BRANCH   5   6
ATOM      6  C   UNL     1     -99.457 150.807 244.513  1.00  0.00     0.041 C 
ATOM      7  O   UNL     1     -98.696 151.804 244.626  1.00  0.00    -0.550 OA
ATOM      8  O   UNL     1    -100.144 150.336 245.624  1.00  0.00    -0.550 OA
ENDBRANCH   5   6
ENDBRANCH   4   5
ENDBRANCH   3   4
ENDBRANCH   2   3
ENDBRANCH   1   2
BRANCH   1   9
ATOM      9  C   UNL     1     -95.468 148.051 240.314  1.00  0.00     0.000 C 
BRANCH   9  10
ATOM     10  C   UNL     1     -94.764 149.248 239.650  1.00  0.00    -0.000 C 
BRANCH  10  11
ATOM     11  C   UNL     1     -93.873 148.831 238.469  1.00  0.00    -0.000 C 
BRANCH  11  12
ATOM     12  C   UNL     1     -94.688 148.402 237.237  1.00  0.00    -0.000 C 
BRANCH  12  13
ATOM     13  C   UNL     1     -95.454 149.573 236.601  1.00  0.00    -0.003 C 
ATOM     14  C   UNL     1     -96.956 149.310 236.492  1.00  0.00     0.004 C 
ENDBRANCH  12  13
ENDBRANCH  11  12
ENDBRANCH  10  11
ENDBRANCH   9  10
ENDBRANCH   1   9
TORSDOF 10
ENDMDL
