MODEL 1
REMARK VINA RESULT:    -7.665      0.000      0.000
REMARK INTER + INTRA:          -9.248
REMARK INTER:                  -9.233
REMARK INTRA:                  -0.015
REMARK UNBOUND:                -0.015
REMARK SMILES O=c1c(O)c(-c2ccc(O)c(O)c2)oc2cc(O)cc(O)c12
REMARK SMILES IDX 5 1 3 2 2 3 1 4 22 5 20 6 19 7 17 8 16 9 15 10 14 11 6 12
REMARK SMILES IDX 7 13 8 14 9 15 13 16 11 17 10 18 12 20 4 22 21 24 18 26
REMARK H PARENT 10 19 12 21 4 23 21 25 18 27
REMARK Flexibility Score: inf
ROOT
ATOM      1  C   UNL     1       9.699  -1.696  19.347  1.00  0.00     0.180 A 
ATOM      2  C   UNL     1      11.044  -2.091  19.241  1.00  0.00     0.208 A 
ATOM      3  C   UNL     1      11.364  -3.454  19.354  1.00  0.00     0.238 A 
ATOM      4  O   UNL     1      12.563  -3.807  19.203  1.00  0.00    -0.285 OA
ATOM      5  C   UNL     1      10.340  -4.401  19.589  1.00  0.00     0.111 A 
ATOM      6  C   UNL     1      10.554  -5.802  19.760  1.00  0.00     0.134 A 
ATOM      7  C   UNL     1       9.453  -6.663  19.857  1.00  0.00     0.093 A 
ATOM      8  C   UNL     1       8.148  -6.165  19.853  1.00  0.00     0.123 A 
ATOM      9  C   UNL     1       7.930  -4.794  19.746  1.00  0.00     0.094 A 
ATOM     10  C   UNL     1       9.006  -3.914  19.612  1.00  0.00     0.146 A 
ATOM     11  O   UNL     1       8.754  -2.615  19.501  1.00  0.00    -0.452 OA
ENDROOT
BRANCH   1  12
ATOM     12  C   UNL     1       9.286  -0.277  19.263  1.00  0.00     0.025 A 
ATOM     13  C   UNL     1       9.913   0.675  20.078  1.00  0.00     0.016 A 
ATOM     14  C   UNL     1       9.553   2.021  19.999  1.00  0.00     0.051 A 
ATOM     15  C   UNL     1       8.572   2.446  19.097  1.00  0.00     0.157 A 
ATOM     16  C   UNL     1       8.316   0.150  18.339  1.00  0.00     0.062 A 
ATOM     17  C   UNL     1       7.950   1.499  18.250  1.00  0.00     0.158 A 
BRANCH  15  18
ATOM     18  O   UNL     1       8.252   3.806  19.073  1.00  0.00    -0.504 OA
ATOM     19  H   UNL     1       7.903   4.317  19.870  1.00  0.00     0.293 HD
ENDBRANCH  15  18
BRANCH  17  20
ATOM     20  O   UNL     1       6.978   1.850  17.311  1.00  0.00    -0.504 OA
ATOM     21  H   UNL     1       6.778   1.315  16.479  1.00  0.00     0.293 HD
ENDBRANCH  17  20
ENDBRANCH   1  12
BRANCH   2  22
ATOM     22  O   UNL     1      12.038  -1.142  18.986  1.00  0.00    -0.502 OA
ATOM     23  H   UNL     1      12.688  -0.831  19.698  1.00  0.00     0.293 HD
ENDBRANCH   2  22
BRANCH   6  24
ATOM     24  O   UNL     1      11.818  -6.390  19.870  1.00  0.00    -0.507 OA
ATOM     25  H   UNL     1      12.310  -6.538  20.738  1.00  0.00     0.293 HD
ENDBRANCH   6  24
BRANCH   8  26
ATOM     26  O   UNL     1       7.059  -7.027  19.966  1.00  0.00    -0.508 OA
ATOM     27  H   UNL     1       6.199  -6.738  20.419  1.00  0.00     0.293 HD
ENDBRANCH   8  26
TORSDOF 6
ENDMDL
MODEL 2
REMARK VINA RESULT:    -6.238      1.986      6.686
REMARK INTER + INTRA:          -7.529
REMARK INTER:                  -8.030
REMARK INTRA:                   0.501
REMARK UNBOUND:                -0.015
REMARK SMILES O=c1c(O)c(-c2ccc(O)c(O)c2)oc2cc(O)cc(O)c12
REMARK SMILES IDX 5 1 3 2 2 3 1 4 22 5 20 6 19 7 17 8 16 9 15 10 14 11 6 12
REMARK SMILES IDX 7 13 8 14 9 15 13 16 11 17 10 18 12 20 4 22 21 24 18 26
REMARK H PARENT 10 19 12 21 4 23 21 25 18 27
REMARK Flexibility Score: inf
ROOT
ATOM      1  C   UNL     1       9.651  -2.855  19.610  1.00  0.00     0.180 A 
ATOM      2  C   UNL     1       9.085  -1.586  19.398  1.00  0.00     0.208 A 
ATOM      3  C   UNL     1       9.932  -0.470  19.298  1.00  0.00     0.238 A 
ATOM      4  O   UNL     1       9.423   0.655  19.053  1.00  0.00    -0.285 OA
ATOM      5  C   UNL     1      11.331  -0.634  19.429  1.00  0.00     0.111 A 
ATOM      6  C   UNL     1      12.281   0.430  19.385  1.00  0.00     0.134 A 
ATOM      7  C   UNL     1      13.650   0.137  19.394  1.00  0.00     0.093 A 
ATOM      8  C   UNL     1      14.103  -1.180  19.511  1.00  0.00     0.123 A 
ATOM      9  C   UNL     1      13.184  -2.221  19.615  1.00  0.00     0.094 A 
ATOM     10  C   UNL     1      11.813  -1.963  19.572  1.00  0.00     0.146 A 
ATOM     11  O   UNL     1      10.971  -2.986  19.663  1.00  0.00    -0.452 OA
ENDROOT
BRANCH   1  12
ATOM     12  C   UNL     1       8.822  -4.074  19.751  1.00  0.00     0.025 A 
ATOM     13  C   UNL     1       7.434  -3.951  19.903  1.00  0.00     0.016 A 
ATOM     14  C   UNL     1       6.633  -5.088  20.017  1.00  0.00     0.051 A 
ATOM     15  C   UNL     1       7.196  -6.368  19.966  1.00  0.00     0.157 A 
ATOM     16  C   UNL     1       9.390  -5.358  19.676  1.00  0.00     0.062 A 
ATOM     17  C   UNL     1       8.593  -6.504  19.785  1.00  0.00     0.158 A 
BRANCH  15  18
ATOM     18  O   UNL     1       6.341  -7.464  20.092  1.00  0.00    -0.504 OA
ATOM     19  H   UNL     1       6.278  -8.212  19.418  1.00  0.00     0.293 HD
ENDBRANCH  15  18
BRANCH  17  20
ATOM     20  O   UNL     1       9.225  -7.747  19.704  1.00  0.00    -0.504 OA
ATOM     21  H   UNL     1      10.035  -8.005  20.249  1.00  0.00     0.293 HD
ENDBRANCH  17  20
ENDBRANCH   1  12
BRANCH   2  22
ATOM     22  O   UNL     1       7.702  -1.449  19.249  1.00  0.00    -0.502 OA
ATOM     23  H   UNL     1       7.271  -0.588  18.932  1.00  0.00     0.293 HD
ENDBRANCH   2  22
BRANCH   6  24
ATOM     24  O   UNL     1      11.933   1.785  19.360  1.00  0.00    -0.507 OA
ATOM     25  H   UNL     1      12.573   2.539  19.163  1.00  0.00     0.293 HD
ENDBRANCH   6  24
BRANCH   8  26
ATOM     26  O   UNL     1      15.467  -1.462  19.536  1.00  0.00    -0.508 OA
ATOM     27  H   UNL     1      16.153  -0.792  19.205  1.00  0.00     0.293 HD
ENDBRANCH   8  26
TORSDOF 6
ENDMDL
