MODEL 1
REMARK VINA RESULT:    -4.031      0.000      0.000
REMARK INTER + INTRA:         -11.990
REMARK INTER:                  -8.744
REMARK INTRA:                  -3.246
REMARK UNBOUND:                -3.246
REMARK SMILES CCCCCCCCCCCCCCCCCCCCCC(=O)[O-]
REMARK SMILES IDX 12 1 11 2 10 3 9 4 8 5 7 6 6 7 5 8 4 9 3 10 2 11 1 12 13 13
REMARK SMILES IDX 14 14 15 15 16 16 17 17 18 18 19 19 20 20 21 21 22 22 23 23
REMARK SMILES IDX 24 24
REMARK H PARENT
REMARK Flexibility Score: inf
ROOT
ATOM      1  C   UNL     1      98.000  84.623  81.832  1.00  0.00     0.000 C 
ENDROOT
BRANCH   1   2
ATOM      2  C   UNL     1      99.191  83.877  81.204  1.00  0.00     0.000 C 
BRANCH   2   3
ATOM      3  C   UNL     1      98.932  82.369  81.055  1.00  0.00     0.000 C 
BRANCH   3   4
ATOM      4  C   UNL     1      98.434  81.988  79.653  1.00  0.00    -0.000 C 
BRANCH   4   5
ATOM      5  C   UNL     1      96.945  81.609  79.685  1.00  0.00    -0.000 C 
BRANCH   5   6
ATOM      6  C   UNL     1      96.067  82.571  78.870  1.00  0.00    -0.000 C 
BRANCH   6   7
ATOM      7  C   UNL     1      96.866  83.749  78.284  1.00  0.00    -0.000 C 
BRANCH   7   8
ATOM      8  C   UNL     1      95.991  84.987  78.033  1.00  0.00    -0.000 C 
BRANCH   8   9
ATOM      9  C   UNL     1      94.692  84.647  77.279  1.00  0.00    -0.000 C 
BRANCH   9  10
ATOM     10  C   UNL     1      93.427  85.047  78.057  1.00  0.00    -0.000 C 
BRANCH  10  11
ATOM     11  C   UNL     1      92.189  84.176  77.775  1.00  0.00    -0.003 C 
ATOM     12  C   UNL     1      92.531  82.703  77.558  1.00  0.00     0.004 C 
ENDBRANCH  10  11
ENDBRANCH   9  10
ENDBRANCH   8   9
ENDBRANCH   7   8
ENDBRANCH   6   7
ENDBRANCH   5   6
ENDBRANCH   4   5
ENDBRANCH   3   4
ENDBRANCH   2   3
ENDBRANCH   1   2
BRANCH   1  13
ATOM     13  C   UNL     1      97.375  83.851  83.005  1.00  0.00     0.000 C 
BRANCH  13  14
ATOM     14  C   UNL     1      95.857  83.649  82.841  1.00  0.00     0.000 C 
BRANCH  14  15
ATOM     15  C   UNL     1      95.251  84.560  81.759  1.00  0.00     0.000 C 
BRANCH  15  16
ATOM     16  C   UNL     1      93.709  84.596  81.728  1.00  0.00     0.000 C 
BRANCH  16  17
ATOM     17  C   UNL     1      93.025  84.480  83.102  1.00  0.00     0.000 C 
BRANCH  17  18
ATOM     18  C   UNL     1      91.492  84.445  83.006  1.00  0.00     0.000 C 
BRANCH  18  19
ATOM     19  C   UNL     1      91.035  84.387  81.542  1.00  0.00     0.000 C 
BRANCH  19  20
ATOM     20  C   UNL     1      89.780  83.521  81.335  1.00  0.00     0.006 C 
BRANCH  20  21
ATOM     21  C   UNL     1      89.546  83.097  79.873  1.00  0.00     0.053 C 
BRANCH  21  22
ATOM     22  C   UNL     1      88.206  83.522  79.354  1.00  0.00     0.041 C 
ATOM     23  O   UNL     1      87.545  82.761  78.600  1.00  0.00    -0.550 OA
ATOM     24  O   UNL     1      87.671  84.748  79.732  1.00  0.00    -0.550 OA
ENDBRANCH  21  22
ENDBRANCH  20  21
ENDBRANCH  19  20
ENDBRANCH  18  19
ENDBRANCH  17  18
ENDBRANCH  16  17
ENDBRANCH  15  16
ENDBRANCH  14  15
ENDBRANCH  13  14
ENDBRANCH   1  13
TORSDOF 20
ENDMDL
MODEL 2
REMARK VINA RESULT:    -4.022      1.413      4.739
REMARK INTER + INTRA:         -11.969
REMARK INTER:                  -9.038
REMARK INTRA:                  -2.931
REMARK UNBOUND:                -3.246
REMARK SMILES CCCCCCCCCCCCCCCCCCCCCC(=O)[O-]
REMARK SMILES IDX 12 1 11 2 10 3 9 4 8 5 7 6 6 7 5 8 4 9 3 10 2 11 1 12 13 13
REMARK SMILES IDX 14 14 15 15 16 16 17 17 18 18 19 19 20 20 21 21 22 22 23 23
REMARK SMILES IDX 24 24
REMARK H PARENT
REMARK Flexibility Score: inf
ROOT
ATOM      1  C   UNL     1      98.285  82.029  79.293  1.00  0.00     0.000 C 
ENDROOT
BRANCH   1   2
ATOM      2  C   UNL     1      99.038  82.122  80.632  1.00  0.00     0.000 C 
BRANCH   2   3
ATOM      3  C   UNL     1      98.838  83.476  81.330  1.00  0.00     0.000 C 
BRANCH   3   4
ATOM      4  C   UNL     1      98.370  83.330  82.787  1.00  0.00    -0.000 C 
BRANCH   4   5
ATOM      5  C   UNL     1      97.306  84.385  83.128  1.00  0.00    -0.000 C 
BRANCH   5   6
ATOM      6  C   UNL     1      96.332  84.646  81.968  1.00  0.00    -0.000 C 
BRANCH   6   7
ATOM      7  C   UNL     1      95.015  83.864  82.114  1.00  0.00    -0.000 C 
BRANCH   7   8
ATOM      8  C   UNL     1      93.870  84.733  82.656  1.00  0.00    -0.000 C 
BRANCH   8   9
ATOM      9  C   UNL     1      92.750  83.898  83.302  1.00  0.00    -0.000 C 
BRANCH   9  10
ATOM     10  C   UNL     1      93.177  83.251  84.631  1.00  0.00    -0.000 C 
BRANCH  10  11
ATOM     11  C   UNL     1      93.625  84.243  85.721  1.00  0.00    -0.003 C 
ATOM     12  C   UNL     1      95.089  84.068  86.122  1.00  0.00     0.004 C 
ENDBRANCH  10  11
ENDBRANCH   9  10
ENDBRANCH   8   9
ENDBRANCH   7   8
ENDBRANCH   6   7
ENDBRANCH   5   6
ENDBRANCH   4   5
ENDBRANCH   3   4
ENDBRANCH   2   3
ENDBRANCH   1   2
BRANCH   1  13
ATOM     13  C   UNL     1      96.817  81.612  79.470  1.00  0.00     0.000 C 
BRANCH  13  14
ATOM     14  C   UNL     1      95.831  82.692  78.990  1.00  0.00     0.000 C 
BRANCH  14  15
ATOM     15  C   UNL     1      96.499  83.749  78.093  1.00  0.00     0.000 C 
BRANCH  15  16
ATOM     16  C   UNL     1      96.085  85.206  78.387  1.00  0.00     0.000 C 
BRANCH  16  17
ATOM     17  C   UNL     1      94.599  85.524  78.147  1.00  0.00     0.000 C 
BRANCH  17  18
ATOM     18  C   UNL     1      94.095  85.030  76.782  1.00  0.00     0.000 C 
BRANCH  18  19
ATOM     19  C   UNL     1      92.790  84.236  76.933  1.00  0.00     0.000 C 
BRANCH  19  20
ATOM     20  C   UNL     1      92.373  84.033  78.401  1.00  0.00     0.006 C 
BRANCH  20  21
ATOM     21  C   UNL     1      91.122  83.152  78.580  1.00  0.00     0.053 C 
BRANCH  21  22
ATOM     22  C   UNL     1      89.859  83.852  78.181  1.00  0.00     0.041 C 
ATOM     23  O   UNL     1      89.260  83.529  77.122  1.00  0.00    -0.550 OA
ATOM     24  O   UNL     1      89.323  84.841  78.998  1.00  0.00    -0.550 OA
ENDBRANCH  21  22
ENDBRANCH  20  21
ENDBRANCH  19  20
ENDBRANCH  18  19
ENDBRANCH  17  18
ENDBRANCH  16  17
ENDBRANCH  15  16
ENDBRANCH  14  15
ENDBRANCH  13  14
ENDBRANCH   1  13
TORSDOF 20
ENDMDL
MODEL 3
REMARK VINA RESULT:    -3.993      1.841      4.499
REMARK INTER + INTRA:         -11.907
REMARK INTER:                  -8.612
REMARK INTRA:                  -3.295
REMARK UNBOUND:                -3.246
REMARK SMILES CCCCCCCCCCCCCCCCCCCCCC(=O)[O-]
REMARK SMILES IDX 12 1 11 2 10 3 9 4 8 5 7 6 6 7 5 8 4 9 3 10 2 11 1 12 13 13
REMARK SMILES IDX 14 14 15 15 16 16 17 17 18 18 19 19 20 20 21 21 22 22 23 23
REMARK SMILES IDX 24 24
REMARK H PARENT
REMARK Flexibility Score: inf
ROOT
ATOM      1  C   UNL     1      99.180  81.958  79.972  1.00  0.00     0.000 C 
ENDROOT
BRANCH   1   2
ATOM      2  C   UNL     1      99.015  82.523  81.394  1.00  0.00     0.000 C 
BRANCH   2   3
ATOM      3  C   UNL     1     100.289  83.213  81.908  1.00  0.00     0.000 C 
BRANCH   3   4
ATOM      4  C   UNL     1     101.309  83.484  80.791  1.00  0.00    -0.000 C 
BRANCH   4   5
ATOM      5  C   UNL     1     101.798  84.940  80.837  1.00  0.00    -0.000 C 
BRANCH   5   6
ATOM      6  C   UNL     1     100.645  85.952  80.923  1.00  0.00    -0.000 C 
BRANCH   6   7
ATOM      7  C   UNL     1      99.979  86.209  79.559  1.00  0.00    -0.000 C 
BRANCH   7   8
ATOM      8  C   UNL     1      98.446  86.138  79.629  1.00  0.00    -0.000 C 
BRANCH   8   9
ATOM      9  C   UNL     1      97.917  86.231  81.072  1.00  0.00    -0.000 C 
BRANCH   9  10
ATOM     10  C   UNL     1      96.720  85.298  81.331  1.00  0.00    -0.000 C 
BRANCH  10  11
ATOM     11  C   UNL     1      96.518  84.895  82.803  1.00  0.00    -0.003 C 
ATOM     12  C   UNL     1      97.726  85.216  83.683  1.00  0.00     0.004 C 
ENDBRANCH  10  11
ENDBRANCH   9  10
ENDBRANCH   8   9
ENDBRANCH   7   8
ENDBRANCH   6   7
ENDBRANCH   5   6
ENDBRANCH   4   5
ENDBRANCH   3   4
ENDBRANCH   2   3
ENDBRANCH   1   2
BRANCH   1  13
ATOM     13  C   UNL     1      98.125  82.503  78.996  1.00  0.00     0.000 C 
BRANCH  13  14
ATOM     14  C   UNL     1      96.734  81.885  79.221  1.00  0.00     0.000 C 
BRANCH  14  15
ATOM     15  C   UNL     1      95.592  82.891  78.992  1.00  0.00     0.000 C 
BRANCH  15  16
ATOM     16  C   UNL     1      95.896  83.995  77.957  1.00  0.00     0.000 C 
BRANCH  16  17
ATOM     17  C   UNL     1      94.663  84.577  77.243  1.00  0.00     0.000 C 
BRANCH  17  18
ATOM     18  C   UNL     1      93.382  84.478  78.085  1.00  0.00     0.000 C 
BRANCH  18  19
ATOM     19  C   UNL     1      92.277  83.736  77.320  1.00  0.00     0.000 C 
BRANCH  19  20
ATOM     20  C   UNL     1      91.386  82.874  78.232  1.00  0.00     0.006 C 
BRANCH  20  21
ATOM     21  C   UNL     1      90.018  83.506  78.548  1.00  0.00     0.053 C 
BRANCH  21  22
ATOM     22  C   UNL     1      90.033  84.320  79.806  1.00  0.00     0.041 C 
ATOM     23  O   UNL     1      89.676  85.527  79.787  1.00  0.00    -0.550 OA
ATOM     24  O   UNL     1      90.410  83.735  81.009  1.00  0.00    -0.550 OA
ENDBRANCH  21  22
ENDBRANCH  20  21
ENDBRANCH  19  20
ENDBRANCH  18  19
ENDBRANCH  17  18
ENDBRANCH  16  17
ENDBRANCH  15  16
ENDBRANCH  14  15
ENDBRANCH  13  14
ENDBRANCH   1  13
TORSDOF 20
ENDMDL
MODEL 4
REMARK VINA RESULT:    -3.970      5.404      8.431
REMARK INTER + INTRA:         -11.857
REMARK INTER:                  -9.006
REMARK INTRA:                  -2.851
REMARK UNBOUND:                -3.246
REMARK SMILES CCCCCCCCCCCCCCCCCCCCCC(=O)[O-]
REMARK SMILES IDX 12 1 11 2 10 3 9 4 8 5 7 6 6 7 5 8 4 9 3 10 2 11 1 12 13 13
REMARK SMILES IDX 14 14 15 15 16 16 17 17 18 18 19 19 20 20 21 21 22 22 23 23
REMARK SMILES IDX 24 24
REMARK H PARENT
REMARK Flexibility Score: inf
ROOT
ATOM      1  C   UNL     1      97.060  83.679  80.578  1.00  0.00     0.000 C 
ENDROOT
BRANCH   1   2
ATOM      2  C   UNL     1      96.950  85.121  80.052  1.00  0.00     0.000 C 
BRANCH   2   3
ATOM      3  C   UNL     1      96.930  85.190  78.517  1.00  0.00     0.000 C 
BRANCH   3   4
ATOM      4  C   UNL     1      96.078  86.354  77.986  1.00  0.00    -0.000 C 
BRANCH   4   5
ATOM      5  C   UNL     1      94.671  85.872  77.602  1.00  0.00    -0.000 C 
BRANCH   5   6
ATOM      6  C   UNL     1      94.622  84.369  77.286  1.00  0.00    -0.000 C 
BRANCH   6   7
ATOM      7  C   UNL     1      93.786  83.576  78.306  1.00  0.00    -0.000 C 
BRANCH   7   8
ATOM      8  C   UNL     1      93.067  84.487  79.314  1.00  0.00    -0.000 C 
BRANCH   8   9
ATOM      9  C   UNL     1      91.592  84.094  79.516  1.00  0.00    -0.000 C 
BRANCH   9  10
ATOM     10  C   UNL     1      91.046  83.215  78.377  1.00  0.00    -0.000 C 
BRANCH  10  11
ATOM     11  C   UNL     1      89.902  83.846  77.563  1.00  0.00    -0.003 C 
ATOM     12  C   UNL     1      90.382  84.511  76.273  1.00  0.00     0.004 C 
ENDBRANCH  10  11
ENDBRANCH   9  10
ENDBRANCH   8   9
ENDBRANCH   7   8
ENDBRANCH   6   7
ENDBRANCH   5   6
ENDBRANCH   4   5
ENDBRANCH   3   4
ENDBRANCH   2   3
ENDBRANCH   1   2
BRANCH   1  13
ATOM     13  C   UNL     1      97.385  82.670  79.466  1.00  0.00     0.000 C 
BRANCH  13  14
ATOM     14  C   UNL     1      98.756  81.996  79.658  1.00  0.00     0.000 C 
BRANCH  14  15
ATOM     15  C   UNL     1      99.562  82.609  80.817  1.00  0.00     0.000 C 
BRANCH  15  16
ATOM     16  C   UNL     1     101.022  82.970  80.475  1.00  0.00     0.000 C 
BRANCH  16  17
ATOM     17  C   UNL     1     101.523  84.298  81.069  1.00  0.00     0.000 C 
BRANCH  17  18
ATOM     18  C   UNL     1     100.435  85.381  81.114  1.00  0.00     0.000 C 
BRANCH  18  19
ATOM     19  C   UNL     1     100.485  86.263  79.860  1.00  0.00     0.000 C 
BRANCH  19  20
ATOM     20  C   UNL     1     101.908  86.429  79.295  1.00  0.00     0.006 C 
BRANCH  20  21
ATOM     21  C   UNL     1     102.403  87.887  79.265  1.00  0.00     0.053 C 
BRANCH  21  22
ATOM     22  C   UNL     1     103.419  88.176  80.326  1.00  0.00     0.041 C 
ATOM     23  O   UNL     1     103.766  87.277  81.137  1.00  0.00    -0.550 OA
ATOM     24  O   UNL     1     104.012  89.431  80.399  1.00  0.00    -0.550 OA
ENDBRANCH  21  22
ENDBRANCH  20  21
ENDBRANCH  19  20
ENDBRANCH  18  19
ENDBRANCH  17  18
ENDBRANCH  16  17
ENDBRANCH  15  16
ENDBRANCH  14  15
ENDBRANCH  13  14
ENDBRANCH   1  13
TORSDOF 20
ENDMDL
MODEL 5
REMARK VINA RESULT:    -3.966      3.970      7.261
REMARK INTER + INTRA:         -11.849
REMARK INTER:                  -8.534
REMARK INTRA:                  -3.315
REMARK UNBOUND:                -3.246
REMARK SMILES CCCCCCCCCCCCCCCCCCCCCC(=O)[O-]
REMARK SMILES IDX 12 1 11 2 10 3 9 4 8 5 7 6 6 7 5 8 4 9 3 10 2 11 1 12 13 13
REMARK SMILES IDX 14 14 15 15 16 16 17 17 18 18 19 19 20 20 21 21 22 22 23 23
REMARK SMILES IDX 24 24
REMARK H PARENT
REMARK Flexibility Score: inf
ROOT
ATOM      1  C   UNL     1      90.618  83.898  81.315  1.00  0.00     0.000 C 
ENDROOT
BRANCH   1   2
ATOM      2  C   UNL     1      89.506  83.887  80.252  1.00  0.00     0.000 C 
BRANCH   2   3
ATOM      3  C   UNL     1      89.936  83.186  78.954  1.00  0.00     0.000 C 
BRANCH   3   4
ATOM      4  C   UNL     1      89.464  83.927  77.693  1.00  0.00    -0.000 C 
BRANCH   4   5
ATOM      5  C   UNL     1      90.640  84.192  76.741  1.00  0.00    -0.000 C 
BRANCH   5   6
ATOM      6  C   UNL     1      91.911  83.423  77.136  1.00  0.00    -0.000 C 
BRANCH   6   7
ATOM      7  C   UNL     1      93.193  84.079  76.592  1.00  0.00    -0.000 C 
BRANCH   7   8
ATOM      8  C   UNL     1      94.022  84.754  77.696  1.00  0.00    -0.000 C 
BRANCH   8   9
ATOM      9  C   UNL     1      94.876  83.749  78.490  1.00  0.00    -0.000 C 
BRANCH   9  10
ATOM     10  C   UNL     1      96.375  83.841  78.155  1.00  0.00    -0.000 C 
BRANCH  10  11
ATOM     11  C   UNL     1      97.241  82.709  78.737  1.00  0.00    -0.003 C 
ATOM     12  C   UNL     1      96.415  81.563  79.320  1.00  0.00     0.004 C 
ENDBRANCH  10  11
ENDBRANCH   9  10
ENDBRANCH   8   9
ENDBRANCH   7   8
ENDBRANCH   6   7
ENDBRANCH   5   6
ENDBRANCH   4   5
ENDBRANCH   3   4
ENDBRANCH   2   3
ENDBRANCH   1   2
BRANCH   1  13
ATOM     13  C   UNL     1      91.991  84.265  80.728  1.00  0.00     0.000 C 
BRANCH  13  14
ATOM     14  C   UNL     1      92.228  85.785  80.679  1.00  0.00     0.000 C 
BRANCH  14  15
ATOM     15  C   UNL     1      93.311  86.249  81.669  1.00  0.00     0.000 C 
BRANCH  15  16
ATOM     16  C   UNL     1      94.664  86.619  81.027  1.00  0.00     0.000 C 
BRANCH  16  17
ATOM     17  C   UNL     1      95.818  85.648  81.332  1.00  0.00     0.000 C 
BRANCH  17  18
ATOM     18  C   UNL     1      95.399  84.493  82.256  1.00  0.00     0.000 C 
BRANCH  18  19
ATOM     19  C   UNL     1      96.626  83.724  82.764  1.00  0.00     0.000 C 
BRANCH  19  20
ATOM     20  C   UNL     1      97.939  84.170  82.095  1.00  0.00     0.006 C 
BRANCH  20  21
ATOM     21  C   UNL     1      98.999  83.058  81.992  1.00  0.00     0.053 C 
BRANCH  21  22
ATOM     22  C   UNL     1      99.469  82.581  83.333  1.00  0.00     0.041 C 
ATOM     23  O   UNL     1     100.007  83.382  84.141  1.00  0.00    -0.550 OA
ATOM     24  O   UNL     1      99.280  81.255  83.705  1.00  0.00    -0.550 OA
ENDBRANCH  21  22
ENDBRANCH  20  21
ENDBRANCH  19  20
ENDBRANCH  18  19
ENDBRANCH  17  18
ENDBRANCH  16  17
ENDBRANCH  15  16
ENDBRANCH  14  15
ENDBRANCH  13  14
ENDBRANCH   1  13
TORSDOF 20
ENDMDL
MODEL 6
REMARK VINA RESULT:    -3.959      1.727      4.615
REMARK INTER + INTRA:         -11.833
REMARK INTER:                  -9.058
REMARK INTRA:                  -2.774
REMARK UNBOUND:                -3.246
REMARK SMILES CCCCCCCCCCCCCCCCCCCCCC(=O)[O-]
REMARK SMILES IDX 12 1 11 2 10 3 9 4 8 5 7 6 6 7 5 8 4 9 3 10 2 11 1 12 13 13
REMARK SMILES IDX 14 14 15 15 16 16 17 17 18 18 19 19 20 20 21 21 22 22 23 23
REMARK SMILES IDX 24 24
REMARK H PARENT
REMARK Flexibility Score: inf
ROOT
ATOM      1  C   UNL     1      96.398  84.776  79.086  1.00  0.00     0.000 C 
ENDROOT
BRANCH   1   2
ATOM      2  C   UNL     1      96.989  83.545  78.375  1.00  0.00     0.000 C 
BRANCH   2   3
ATOM      3  C   UNL     1      96.483  82.221  78.967  1.00  0.00     0.000 C 
BRANCH   3   4
ATOM      4  C   UNL     1      97.380  81.695  80.099  1.00  0.00    -0.000 C 
BRANCH   4   5
ATOM      5  C   UNL     1      98.822  82.201  79.934  1.00  0.00    -0.000 C 
BRANCH   5   6
ATOM      6  C   UNL     1      99.550  82.371  81.277  1.00  0.00    -0.000 C 
BRANCH   6   7
ATOM      7  C   UNL     1      99.393  83.787  81.860  1.00  0.00    -0.000 C 
BRANCH   7   8
ATOM      8  C   UNL     1      98.191  83.902  82.811  1.00  0.00    -0.000 C 
BRANCH   8   9
ATOM      9  C   UNL     1      97.350  85.164  82.547  1.00  0.00    -0.000 C 
BRANCH   9  10
ATOM     10  C   UNL     1      95.845  84.939  82.775  1.00  0.00    -0.000 C 
BRANCH  10  11
ATOM     11  C   UNL     1      95.376  83.480  82.620  1.00  0.00    -0.003 C 
ATOM     12  C   UNL     1      94.404  83.044  83.715  1.00  0.00     0.004 C 
ENDBRANCH  10  11
ENDBRANCH   9  10
ENDBRANCH   8   9
ENDBRANCH   7   8
ENDBRANCH   6   7
ENDBRANCH   5   6
ENDBRANCH   4   5
ENDBRANCH   3   4
ENDBRANCH   2   3
ENDBRANCH   1   2
BRANCH   1  13
ATOM     13  C   UNL     1      95.928  85.856  78.099  1.00  0.00     0.000 C 
BRANCH  13  14
ATOM     14  C   UNL     1      94.394  85.948  78.006  1.00  0.00     0.000 C 
BRANCH  14  15
ATOM     15  C   UNL     1      93.805  84.995  76.951  1.00  0.00     0.000 C 
BRANCH  15  16
ATOM     16  C   UNL     1      93.341  83.628  77.496  1.00  0.00     0.000 C 
BRANCH  16  17
ATOM     17  C   UNL     1      92.032  83.093  76.889  1.00  0.00     0.000 C 
BRANCH  17  18
ATOM     18  C   UNL     1      90.993  84.198  76.643  1.00  0.00     0.000 C 
BRANCH  18  19
ATOM     19  C   UNL     1      89.605  83.766  77.137  1.00  0.00     0.000 C 
BRANCH  19  20
ATOM     20  C   UNL     1      89.276  84.292  78.546  1.00  0.00     0.006 C 
BRANCH  20  21
ATOM     21  C   UNL     1      89.872  83.445  79.686  1.00  0.00     0.053 C 
BRANCH  21  22
ATOM     22  C   UNL     1      90.866  84.204  80.511  1.00  0.00     0.041 C 
ATOM     23  O   UNL     1      91.489  85.181  80.019  1.00  0.00    -0.550 OA
ATOM     24  O   UNL     1      91.078  83.854  81.840  1.00  0.00    -0.550 OA
ENDBRANCH  21  22
ENDBRANCH  20  21
ENDBRANCH  19  20
ENDBRANCH  18  19
ENDBRANCH  17  18
ENDBRANCH  16  17
ENDBRANCH  15  16
ENDBRANCH  14  15
ENDBRANCH  13  14
ENDBRANCH   1  13
TORSDOF 20
ENDMDL
MODEL 7
REMARK VINA RESULT:    -3.946      4.068      6.074
REMARK INTER + INTRA:         -11.805
REMARK INTER:                  -7.675
REMARK INTRA:                  -4.130
REMARK UNBOUND:                -3.246
REMARK SMILES CCCCCCCCCCCCCCCCCCCCCC(=O)[O-]
REMARK SMILES IDX 12 1 11 2 10 3 9 4 8 5 7 6 6 7 5 8 4 9 3 10 2 11 1 12 13 13
REMARK SMILES IDX 14 14 15 15 16 16 17 17 18 18 19 19 20 20 21 21 22 22 23 23
REMARK SMILES IDX 24 24
REMARK H PARENT
REMARK Flexibility Score: inf
ROOT
ATOM      1  C   UNL     1      96.979  84.364  84.791  1.00  0.00     0.000 C 
ENDROOT
BRANCH   1   2
ATOM      2  C   UNL     1      97.740  83.153  84.223  1.00  0.00     0.000 C 
BRANCH   2   3
ATOM      3  C   UNL     1      99.265  83.303  84.343  1.00  0.00     0.000 C 
BRANCH   3   4
ATOM      4  C   UNL     1     100.018  82.687  83.153  1.00  0.00    -0.000 C 
BRANCH   4   5
ATOM      5  C   UNL     1      99.049  82.338  82.013  1.00  0.00    -0.000 C 
BRANCH   5   6
ATOM      6  C   UNL     1      99.740  82.278  80.642  1.00  0.00    -0.000 C 
BRANCH   6   7
ATOM      7  C   UNL     1      98.756  81.987  79.495  1.00  0.00    -0.000 C 
BRANCH   7   8
ATOM      8  C   UNL     1      97.296  81.932  79.972  1.00  0.00    -0.000 C 
BRANCH   8   9
ATOM      9  C   UNL     1      96.305  82.411  78.895  1.00  0.00    -0.000 C 
BRANCH   9  10
ATOM     10  C   UNL     1      96.713  83.754  78.264  1.00  0.00    -0.000 C 
BRANCH  10  11
ATOM     11  C   UNL     1      95.539  84.671  77.873  1.00  0.00    -0.003 C 
ATOM     12  C   UNL     1      94.175  84.082  78.233  1.00  0.00     0.004 C 
ENDBRANCH  10  11
ENDBRANCH   9  10
ENDBRANCH   8   9
ENDBRANCH   7   8
ENDBRANCH   6   7
ENDBRANCH   5   6
ENDBRANCH   4   5
ENDBRANCH   3   4
ENDBRANCH   2   3
ENDBRANCH   1   2
BRANCH   1  13
ATOM     13  C   UNL     1      95.461  84.261  84.570  1.00  0.00     0.000 C 
BRANCH  13  14
ATOM     14  C   UNL     1      95.088  83.237  83.483  1.00  0.00     0.000 C 
BRANCH  14  15
ATOM     15  C   UNL     1      95.011  83.863  82.079  1.00  0.00     0.000 C 
BRANCH  15  16
ATOM     16  C   UNL     1      94.770  85.386  82.058  1.00  0.00     0.000 C 
BRANCH  16  17
ATOM     17  C   UNL     1      95.926  86.222  81.481  1.00  0.00     0.000 C 
BRANCH  17  18
ATOM     18  C   UNL     1      97.196  85.395  81.235  1.00  0.00     0.000 C 
BRANCH  18  19
ATOM     19  C   UNL     1      98.433  86.300  81.146  1.00  0.00     0.000 C 
BRANCH  19  20
ATOM     20  C   UNL     1      99.468  85.809  80.118  1.00  0.00     0.006 C 
BRANCH  20  21
ATOM     21  C   UNL     1      99.986  86.912  79.176  1.00  0.00     0.053 C 
BRANCH  21  22
ATOM     22  C   UNL     1      98.880  87.693  78.535  1.00  0.00     0.041 C 
ATOM     23  O   UNL     1      98.106  87.141  77.710  1.00  0.00    -0.550 OA
ATOM     24  O   UNL     1      98.681  89.026  78.876  1.00  0.00    -0.550 OA
ENDBRANCH  21  22
ENDBRANCH  20  21
ENDBRANCH  19  20
ENDBRANCH  18  19
ENDBRANCH  17  18
ENDBRANCH  16  17
ENDBRANCH  15  16
ENDBRANCH  14  15
ENDBRANCH  13  14
ENDBRANCH   1  13
TORSDOF 20
ENDMDL
MODEL 8
REMARK VINA RESULT:    -3.943      3.606      6.121
REMARK INTER + INTRA:         -11.799
REMARK INTER:                  -9.102
REMARK INTRA:                  -2.697
REMARK UNBOUND:                -3.246
REMARK SMILES CCCCCCCCCCCCCCCCCCCCCC(=O)[O-]
REMARK SMILES IDX 12 1 11 2 10 3 9 4 8 5 7 6 6 7 5 8 4 9 3 10 2 11 1 12 13 13
REMARK SMILES IDX 14 14 15 15 16 16 17 17 18 18 19 19 20 20 21 21 22 22 23 23
REMARK SMILES IDX 24 24
REMARK H PARENT
REMARK Flexibility Score: inf
ROOT
ATOM      1  C   UNL     1      98.579  81.975  79.881  1.00  0.00     0.000 C 
ENDROOT
BRANCH   1   2
ATOM      2  C   UNL     1      97.080  81.639  79.971  1.00  0.00     0.000 C 
BRANCH   2   3
ATOM      3  C   UNL     1      96.251  82.338  78.882  1.00  0.00     0.000 C 
BRANCH   3   4
ATOM      4  C   UNL     1      96.926  83.610  78.346  1.00  0.00    -0.000 C 
BRANCH   4   5
ATOM      5  C   UNL     1      95.884  84.583  77.774  1.00  0.00    -0.000 C 
BRANCH   5   6
ATOM      6  C   UNL     1      94.866  85.051  78.826  1.00  0.00    -0.000 C 
BRANCH   6   7
ATOM      7  C   UNL     1      93.425  85.076  78.285  1.00  0.00    -0.000 C 
BRANCH   7   8
ATOM      8  C   UNL     1      93.249  84.198  77.036  1.00  0.00    -0.000 C 
BRANCH   8   9
ATOM      9  C   UNL     1      91.931  83.404  77.055  1.00  0.00    -0.000 C 
BRANCH   9  10
ATOM     10  C   UNL     1      91.422  83.123  78.480  1.00  0.00    -0.000 C 
BRANCH  10  11
ATOM     11  C   UNL     1      90.160  83.907  78.886  1.00  0.00    -0.003 C 
ATOM     12  C   UNL     1      88.918  83.023  78.999  1.00  0.00     0.004 C 
ENDBRANCH  10  11
ENDBRANCH   9  10
ENDBRANCH   8   9
ENDBRANCH   7   8
ENDBRANCH   6   7
ENDBRANCH   5   6
ENDBRANCH   4   5
ENDBRANCH   3   4
ENDBRANCH   2   3
ENDBRANCH   1   2
BRANCH   1  13
ATOM     13  C   UNL     1      99.176  82.372  81.240  1.00  0.00     0.000 C 
BRANCH  13  14
ATOM     14  C   UNL     1     100.372  83.331  81.106  1.00  0.00     0.000 C 
BRANCH  14  15
ATOM     15  C   UNL     1     100.030  84.770  81.531  1.00  0.00     0.000 C 
BRANCH  15  16
ATOM     16  C   UNL     1      98.546  85.160  81.373  1.00  0.00     0.000 C 
BRANCH  16  17
ATOM     17  C   UNL     1      98.292  86.450  80.574  1.00  0.00     0.000 C 
BRANCH  17  18
ATOM     18  C   UNL     1      99.073  86.498  79.252  1.00  0.00     0.000 C 
BRANCH  18  19
ATOM     19  C   UNL     1      98.313  87.309  78.193  1.00  0.00     0.000 C 
BRANCH  19  20
ATOM     20  C   UNL     1      97.340  88.335  78.802  1.00  0.00     0.006 C 
BRANCH  20  21
ATOM     21  C   UNL     1      96.072  88.572  77.961  1.00  0.00     0.053 C 
BRANCH  21  22
ATOM     22  C   UNL     1      95.997  89.962  77.406  1.00  0.00     0.041 C 
ATOM     23  O   UNL     1      96.922  90.407  76.677  1.00  0.00    -0.550 OA
ATOM     24  O   UNL     1      94.886  90.756  77.666  1.00  0.00    -0.550 OA
ENDBRANCH  21  22
ENDBRANCH  20  21
ENDBRANCH  19  20
ENDBRANCH  18  19
ENDBRANCH  17  18
ENDBRANCH  16  17
ENDBRANCH  15  16
ENDBRANCH  14  15
ENDBRANCH  13  14
ENDBRANCH   1  13
TORSDOF 20
ENDMDL
MODEL 9
REMARK VINA RESULT:    -3.909      4.416      6.773
REMARK INTER + INTRA:         -11.725
REMARK INTER:                  -8.101
REMARK INTRA:                  -3.625
REMARK UNBOUND:                -3.246
REMARK SMILES CCCCCCCCCCCCCCCCCCCCCC(=O)[O-]
REMARK SMILES IDX 12 1 11 2 10 3 9 4 8 5 7 6 6 7 5 8 4 9 3 10 2 11 1 12 13 13
REMARK SMILES IDX 14 14 15 15 16 16 17 17 18 18 19 19 20 20 21 21 22 22 23 23
REMARK SMILES IDX 24 24
REMARK H PARENT
REMARK Flexibility Score: inf
ROOT
ATOM      1  C   UNL     1      98.822  82.033  79.898  1.00  0.00     0.000 C 
ENDROOT
BRANCH   1   2
ATOM      2  C   UNL     1      97.303  82.039  80.146  1.00  0.00     0.000 C 
BRANCH   2   3
ATOM      3  C   UNL     1      96.497  82.318  78.868  1.00  0.00     0.000 C 
BRANCH   3   4
ATOM      4  C   UNL     1      96.598  83.781  78.409  1.00  0.00    -0.000 C 
BRANCH   4   5
ATOM      5  C   UNL     1      96.544  84.737  79.611  1.00  0.00    -0.000 C 
BRANCH   5   6
ATOM      6  C   UNL     1      95.181  85.430  79.760  1.00  0.00    -0.000 C 
BRANCH   6   7
ATOM      7  C   UNL     1      94.385  84.919  80.974  1.00  0.00    -0.000 C 
BRANCH   7   8
ATOM      8  C   UNL     1      92.894  84.718  80.659  1.00  0.00    -0.000 C 
BRANCH   8   9
ATOM      9  C   UNL     1      92.583  84.870  79.159  1.00  0.00    -0.000 C 
BRANCH   9  10
ATOM     10  C   UNL     1      92.208  83.536  78.488  1.00  0.00    -0.000 C 
BRANCH  10  11
ATOM     11  C   UNL     1      92.645  83.404  77.017  1.00  0.00    -0.003 C 
ATOM     12  C   UNL     1      93.562  84.538  76.562  1.00  0.00     0.004 C 
ENDBRANCH  10  11
ENDBRANCH   9  10
ENDBRANCH   8   9
ENDBRANCH   7   8
ENDBRANCH   6   7
ENDBRANCH   5   6
ENDBRANCH   4   5
ENDBRANCH   3   4
ENDBRANCH   2   3
ENDBRANCH   1   2
BRANCH   1  13
ATOM     13  C   UNL     1      99.627  82.363  81.165  1.00  0.00     0.000 C 
BRANCH  13  14
ATOM     14  C   UNL     1     100.655  83.487  80.939  1.00  0.00     0.000 C 
BRANCH  14  15
ATOM     15  C   UNL     1     100.007  84.881  80.878  1.00  0.00     0.000 C 
BRANCH  15  16
ATOM     16  C   UNL     1      99.690  85.512  82.250  1.00  0.00     0.000 C 
BRANCH  16  17
ATOM     17  C   UNL     1      98.288  86.133  82.375  1.00  0.00     0.000 C 
BRANCH  17  18
ATOM     18  C   UNL     1      97.485  85.564  83.555  1.00  0.00     0.000 C 
BRANCH  18  19
ATOM     19  C   UNL     1      97.074  84.109  83.289  1.00  0.00     0.000 C 
BRANCH  19  20
ATOM     20  C   UNL     1      97.779  83.103  84.215  1.00  0.00     0.006 C 
BRANCH  20  21
ATOM     21  C   UNL     1      98.551  83.756  85.377  1.00  0.00     0.053 C 
BRANCH  21  22
ATOM     22  C   UNL     1      99.988  83.334  85.427  1.00  0.00     0.041 C 
ATOM     23  O   UNL     1     100.753  83.785  86.318  1.00  0.00    -0.550 OA
ATOM     24  O   UNL     1     100.475  82.412  84.507  1.00  0.00    -0.550 OA
ENDBRANCH  21  22
ENDBRANCH  20  21
ENDBRANCH  19  20
ENDBRANCH  18  19
ENDBRANCH  17  18
ENDBRANCH  16  17
ENDBRANCH  15  16
ENDBRANCH  14  15
ENDBRANCH  13  14
ENDBRANCH   1  13
TORSDOF 20
ENDMDL
