MODEL 1
REMARK VINA RESULT:    -7.342      0.000      0.000
REMARK INTER + INTRA:          -8.986
REMARK INTER:                  -8.844
REMARK INTRA:                  -0.142
REMARK UNBOUND:                -0.142
REMARK SMILES O=c1c(O)c(-c2ccc(O)c(O)c2)oc2cc(O)cc(O)c12
REMARK SMILES IDX 5 1 3 2 2 3 1 4 22 5 20 6 19 7 17 8 16 9 15 10 14 11 6 12
REMARK SMILES IDX 7 13 8 14 9 15 13 16 11 17 10 18 12 20 4 22 21 24 18 26
REMARK H PARENT 10 19 12 21 4 23 21 25 18 27
REMARK Flexibility Score: inf
ROOT
ATOM      1  C   UNL     1       5.428   6.848  18.215  1.00  0.00     0.180 A 
ATOM      2  C   UNL     1       4.440   7.173  17.269  1.00  0.00     0.208 A 
ATOM      3  C   UNL     1       3.955   6.167  16.418  1.00  0.00     0.238 A 
ATOM      4  O   UNL     1       3.019   6.449  15.625  1.00  0.00    -0.285 OA
ATOM      5  C   UNL     1       4.501   4.863  16.485  1.00  0.00     0.111 A 
ATOM      6  C   UNL     1       4.117   3.777  15.641  1.00  0.00     0.134 A 
ATOM      7  C   UNL     1       4.650   2.503  15.869  1.00  0.00     0.093 A 
ATOM      8  C   UNL     1       5.600   2.287  16.866  1.00  0.00     0.123 A 
ATOM      9  C   UNL     1       6.024   3.352  17.661  1.00  0.00     0.094 A 
ATOM     10  C   UNL     1       5.482   4.627  17.483  1.00  0.00     0.146 A 
ATOM     11  O   UNL     1       5.897   5.608  18.277  1.00  0.00    -0.452 OA
ENDROOT
BRANCH   1  12
ATOM     12  C   UNL     1       5.979   7.850  19.156  1.00  0.00     0.025 A 
ATOM     13  C   UNL     1       5.838   7.702  20.547  1.00  0.00     0.016 A 
ATOM     14  C   UNL     1       6.388   8.648  21.416  1.00  0.00     0.051 A 
ATOM     15  C   UNL     1       7.096   9.744  20.914  1.00  0.00     0.157 A 
ATOM     16  C   UNL     1       6.708   8.940  18.655  1.00  0.00     0.062 A 
ATOM     17  C   UNL     1       7.260   9.890  19.526  1.00  0.00     0.158 A 
BRANCH  15  18
ATOM     18  O   UNL     1       7.631  10.672  21.806  1.00  0.00    -0.504 OA
ATOM     19  H   UNL     1       8.401  10.442  22.424  1.00  0.00     0.293 HD
ENDBRANCH  15  18
BRANCH  17  20
ATOM     20  O   UNL     1       7.971  10.977  19.018  1.00  0.00    -0.504 OA
ATOM     21  H   UNL     1       8.789  10.850  18.434  1.00  0.00     0.293 HD
ENDBRANCH  17  20
ENDBRANCH   1  12
BRANCH   2  22
ATOM     22  O   UNL     1       3.968   8.485  17.167  1.00  0.00    -0.502 OA
ATOM     23  H   UNL     1       3.252   8.756  16.504  1.00  0.00     0.293 HD
ENDBRANCH   2  22
BRANCH   6  24
ATOM     24  O   UNL     1       3.242   3.899  14.557  1.00  0.00    -0.507 OA
ATOM     25  H   UNL     1       2.776   4.751  14.283  1.00  0.00     0.293 HD
ENDBRANCH   6  24
BRANCH   8  26
ATOM     26  O   UNL     1       6.122   1.009  17.053  1.00  0.00    -0.508 OA
ATOM     27  H   UNL     1       7.108   0.815  16.924  1.00  0.00     0.293 HD
ENDBRANCH   8  26
TORSDOF 6
ENDMDL
MODEL 2
REMARK VINA RESULT:    -6.987      1.158      2.941
REMARK INTER + INTRA:          -8.558
REMARK INTER:                  -8.339
REMARK INTRA:                  -0.219
REMARK UNBOUND:                -0.142
REMARK SMILES O=c1c(O)c(-c2ccc(O)c(O)c2)oc2cc(O)cc(O)c12
REMARK SMILES IDX 5 1 3 2 2 3 1 4 22 5 20 6 19 7 17 8 16 9 15 10 14 11 6 12
REMARK SMILES IDX 7 13 8 14 9 15 13 16 11 17 10 18 12 20 4 22 21 24 18 26
REMARK H PARENT 10 19 12 21 4 23 21 25 18 27
REMARK Flexibility Score: inf
ROOT
ATOM      1  C   UNL     1       6.431   6.133  18.721  1.00  0.00     0.180 A 
ATOM      2  C   UNL     1       7.160   4.973  19.038  1.00  0.00     0.208 A 
ATOM      3  C   UNL     1       6.912   3.794  18.317  1.00  0.00     0.238 A 
ATOM      4  O   UNL     1       7.620   2.781  18.556  1.00  0.00    -0.285 OA
ATOM      5  C   UNL     1       5.901   3.773  17.326  1.00  0.00     0.111 A 
ATOM      6  C   UNL     1       5.533   2.623  16.564  1.00  0.00     0.134 A 
ATOM      7  C   UNL     1       4.590   2.747  15.537  1.00  0.00     0.093 A 
ATOM      8  C   UNL     1       3.955   3.962  15.284  1.00  0.00     0.123 A 
ATOM      9  C   UNL     1       4.266   5.080  16.058  1.00  0.00     0.094 A 
ATOM     10  C   UNL     1       5.230   4.997  17.065  1.00  0.00     0.146 A 
ATOM     11  O   UNL     1       5.512   6.091  17.764  1.00  0.00    -0.452 OA
ENDROOT
BRANCH   1  12
ATOM     12  C   UNL     1       6.646   7.417  19.426  1.00  0.00     0.025 A 
ATOM     13  C   UNL     1       6.264   7.588  20.768  1.00  0.00     0.016 A 
ATOM     14  C   UNL     1       6.499   8.801  21.420  1.00  0.00     0.051 A 
ATOM     15  C   UNL     1       7.130   9.854  20.750  1.00  0.00     0.157 A 
ATOM     16  C   UNL     1       7.298   8.468  18.762  1.00  0.00     0.062 A 
ATOM     17  C   UNL     1       7.534   9.687  19.414  1.00  0.00     0.158 A 
BRANCH  15  18
ATOM     18  O   UNL     1       7.349  11.053  21.426  1.00  0.00    -0.504 OA
ATOM     19  H   UNL     1       6.906  11.919  21.143  1.00  0.00     0.293 HD
ENDBRANCH  15  18
BRANCH  17  20
ATOM     20  O   UNL     1       8.170  10.730  18.742  1.00  0.00    -0.504 OA
ATOM     21  H   UNL     1       7.666  11.560  18.453  1.00  0.00     0.293 HD
ENDBRANCH  17  20
ENDBRANCH   1  12
BRANCH   2  22
ATOM     22  O   UNL     1       8.101   4.994  20.071  1.00  0.00    -0.502 OA
ATOM     23  H   UNL     1       8.068   5.671  20.824  1.00  0.00     0.293 HD
ENDBRANCH   2  22
BRANCH   6  24
ATOM     24  O   UNL     1       6.040   1.339  16.790  1.00  0.00    -0.507 OA
ATOM     25  H   UNL     1       7.016   1.087  16.748  1.00  0.00     0.293 HD
ENDBRANCH   6  24
BRANCH   8  26
ATOM     26  O   UNL     1       3.009   4.044  14.265  1.00  0.00    -0.508 OA
ATOM     27  H   UNL     1       2.948   3.339  13.540  1.00  0.00     0.293 HD
ENDBRANCH   8  26
TORSDOF 6
ENDMDL
MODEL 3
REMARK VINA RESULT:    -6.185      1.614      6.896
REMARK INTER + INTRA:          -7.592
REMARK INTER:                  -7.262
REMARK INTRA:                  -0.330
REMARK UNBOUND:                -0.142
REMARK SMILES O=c1c(O)c(-c2ccc(O)c(O)c2)oc2cc(O)cc(O)c12
REMARK SMILES IDX 5 1 3 2 2 3 1 4 22 5 20 6 19 7 17 8 16 9 15 10 14 11 6 12
REMARK SMILES IDX 7 13 8 14 9 15 13 16 11 17 10 18 12 20 4 22 21 24 18 26
REMARK H PARENT 10 19 12 21 4 23 21 25 18 27
REMARK Flexibility Score: inf
ROOT
ATOM      1  C   UNL     1       5.232   4.374  17.875  1.00  0.00     0.180 A 
ATOM      2  C   UNL     1       4.606   5.226  16.948  1.00  0.00     0.208 A 
ATOM      3  C   UNL     1       4.621   6.611  17.178  1.00  0.00     0.238 A 
ATOM      4  O   UNL     1       4.125   7.372  16.307  1.00  0.00    -0.285 OA
ATOM      5  C   UNL     1       5.212   7.123  18.358  1.00  0.00     0.111 A 
ATOM      6  C   UNL     1       5.246   8.505  18.716  1.00  0.00     0.134 A 
ATOM      7  C   UNL     1       5.951   8.906  19.857  1.00  0.00     0.093 A 
ATOM      8  C   UNL     1       6.570   7.973  20.687  1.00  0.00     0.123 A 
ATOM      9  C   UNL     1       6.497   6.614  20.378  1.00  0.00     0.094 A 
ATOM     10  C   UNL     1       5.833   6.186  19.226  1.00  0.00     0.146 A 
ATOM     11  O   UNL     1       5.807   4.886  18.956  1.00  0.00    -0.452 OA
ENDROOT
BRANCH   1  12
ATOM     12  C   UNL     1       5.270   2.904  17.694  1.00  0.00     0.025 A 
ATOM     13  C   UNL     1       6.339   2.276  17.031  1.00  0.00     0.016 A 
ATOM     14  C   UNL     1       6.365   0.886  16.894  1.00  0.00     0.051 A 
ATOM     15  C   UNL     1       5.337   0.103  17.428  1.00  0.00     0.157 A 
ATOM     16  C   UNL     1       4.250   2.114  18.248  1.00  0.00     0.062 A 
ATOM     17  C   UNL     1       4.275   0.719  18.111  1.00  0.00     0.158 A 
BRANCH  15  18
ATOM     18  O   UNL     1       5.390  -1.282  17.274  1.00  0.00    -0.504 OA
ATOM     19  H   UNL     1       5.531  -1.717  16.370  1.00  0.00     0.293 HD
ENDBRANCH  15  18
BRANCH  17  20
ATOM     20  O   UNL     1       3.250  -0.056  18.652  1.00  0.00    -0.504 OA
ATOM     21  H   UNL     1       3.444  -0.859  19.239  1.00  0.00     0.293 HD
ENDBRANCH  17  20
ENDBRANCH   1  12
BRANCH   2  22
ATOM     22  O   UNL     1       3.962   4.694  15.827  1.00  0.00    -0.502 OA
ATOM     23  H   UNL     1       3.664   3.728  15.778  1.00  0.00     0.293 HD
ENDBRANCH   2  22
BRANCH   6  24
ATOM     24  O   UNL     1       4.588   9.514  18.006  1.00  0.00    -0.507 OA
ATOM     25  H   UNL     1       4.892  10.474  17.950  1.00  0.00     0.293 HD
ENDBRANCH   6  24
BRANCH   8  26
ATOM     26  O   UNL     1       7.248   8.406  21.824  1.00  0.00    -0.508 OA
ATOM     27  H   UNL     1       7.365   7.806  22.633  1.00  0.00     0.293 HD
ENDBRANCH   8  26
TORSDOF 6
ENDMDL
MODEL 4
REMARK VINA RESULT:    -6.106      1.779      6.893
REMARK INTER + INTRA:          -7.497
REMARK INTER:                  -7.499
REMARK INTRA:                   0.002
REMARK UNBOUND:                -0.142
REMARK SMILES O=c1c(O)c(-c2ccc(O)c(O)c2)oc2cc(O)cc(O)c12
REMARK SMILES IDX 5 1 3 2 2 3 1 4 22 5 20 6 19 7 17 8 16 9 15 10 14 11 6 12
REMARK SMILES IDX 7 13 8 14 9 15 13 16 11 17 10 18 12 20 4 22 21 24 18 26
REMARK H PARENT 10 19 12 21 4 23 21 25 18 27
REMARK Flexibility Score: inf
ROOT
ATOM      1  C   UNL     1       5.985   5.709  18.675  1.00  0.00     0.180 A 
ATOM      2  C   UNL     1       5.552   6.318  19.866  1.00  0.00     0.208 A 
ATOM      3  C   UNL     1       6.022   7.602  20.185  1.00  0.00     0.238 A 
ATOM      4  O   UNL     1       5.573   8.169  21.214  1.00  0.00    -0.285 OA
ATOM      5  C   UNL     1       6.961   8.240  19.338  1.00  0.00     0.111 A 
ATOM      6  C   UNL     1       7.538   9.522  19.586  1.00  0.00     0.134 A 
ATOM      7  C   UNL     1       8.376  10.099  18.624  1.00  0.00     0.093 A 
ATOM      8  C   UNL     1       8.709   9.417  17.455  1.00  0.00     0.123 A 
ATOM      9  C   UNL     1       8.195   8.140  17.227  1.00  0.00     0.094 A 
ATOM     10  C   UNL     1       7.326   7.553  18.150  1.00  0.00     0.146 A 
ATOM     11  O   UNL     1       6.841   6.346  17.884  1.00  0.00    -0.452 OA
ENDROOT
BRANCH   1  12
ATOM     12  C   UNL     1       5.524   4.364  18.263  1.00  0.00     0.025 A 
ATOM     13  C   UNL     1       5.576   3.270  19.145  1.00  0.00     0.016 A 
ATOM     14  C   UNL     1       5.111   2.016  18.743  1.00  0.00     0.051 A 
ATOM     15  C   UNL     1       4.577   1.836  17.463  1.00  0.00     0.157 A 
ATOM     16  C   UNL     1       4.967   4.185  16.987  1.00  0.00     0.062 A 
ATOM     17  C   UNL     1       4.501   2.927  16.580  1.00  0.00     0.158 A 
BRANCH  15  18
ATOM     18  O   UNL     1       4.124   0.572  17.089  1.00  0.00    -0.504 OA
ATOM     19  H   UNL     1       4.320   0.178  16.176  1.00  0.00     0.293 HD
ENDBRANCH  15  18
BRANCH  17  20
ATOM     20  O   UNL     1       3.964   2.757  15.305  1.00  0.00    -0.504 OA
ATOM     21  H   UNL     1       4.007   1.866  14.825  1.00  0.00     0.293 HD
ENDBRANCH  17  20
ENDBRANCH   1  12
BRANCH   2  22
ATOM     22  O   UNL     1       4.684   5.640  20.726  1.00  0.00    -0.502 OA
ATOM     23  H   UNL     1       4.364   6.039  21.601  1.00  0.00     0.293 HD
ENDBRANCH   2  22
BRANCH   6  24
ATOM     24  O   UNL     1       7.344  10.254  20.761  1.00  0.00    -0.507 OA
ATOM     25  H   UNL     1       8.034  10.375  21.487  1.00  0.00     0.293 HD
ENDBRANCH   6  24
BRANCH   8  26
ATOM     26  O   UNL     1       9.560  10.015  16.528  1.00  0.00    -0.508 OA
ATOM     27  H   UNL     1       9.324  10.894  16.082  1.00  0.00     0.293 HD
ENDBRANCH   8  26
TORSDOF 6
ENDMDL
MODEL 5
REMARK VINA RESULT:    -6.099      3.216      5.886
REMARK INTER + INTRA:          -7.488
REMARK INTER:                  -7.169
REMARK INTRA:                  -0.319
REMARK UNBOUND:                -0.142
REMARK SMILES O=c1c(O)c(-c2ccc(O)c(O)c2)oc2cc(O)cc(O)c12
REMARK SMILES IDX 5 1 3 2 2 3 1 4 22 5 20 6 19 7 17 8 16 9 15 10 14 11 6 12
REMARK SMILES IDX 7 13 8 14 9 15 13 16 11 17 10 18 12 20 4 22 21 24 18 26
REMARK H PARENT 10 19 12 21 4 23 21 25 18 27
REMARK Flexibility Score: inf
ROOT
ATOM      1  C   UNL     1       3.742   6.483  17.376  1.00  0.00     0.180 A 
ATOM      2  C   UNL     1       4.644   6.374  16.303  1.00  0.00     0.208 A 
ATOM      3  C   UNL     1       5.979   6.026  16.567  1.00  0.00     0.238 A 
ATOM      4  O   UNL     1       6.761   5.858  15.596  1.00  0.00    -0.285 OA
ATOM      5  C   UNL     1       6.409   5.846  17.904  1.00  0.00     0.111 A 
ATOM      6  C   UNL     1       7.748   5.536  18.292  1.00  0.00     0.134 A 
ATOM      7  C   UNL     1       8.034   5.276  19.638  1.00  0.00     0.093 A 
ATOM      8  C   UNL     1       7.047   5.377  20.617  1.00  0.00     0.123 A 
ATOM      9  C   UNL     1       5.747   5.733  20.257  1.00  0.00     0.094 A 
ATOM     10  C   UNL     1       5.422   5.961  18.918  1.00  0.00     0.146 A 
ATOM     11  O   UNL     1       4.167   6.276  18.616  1.00  0.00    -0.452 OA
ENDROOT
BRANCH   1  12
ATOM     12  C   UNL     1       2.317   6.831  17.176  1.00  0.00     0.025 A 
ATOM     13  C   UNL     1       1.877   8.165  17.219  1.00  0.00     0.016 A 
ATOM     14  C   UNL     1       0.531   8.472  17.003  1.00  0.00     0.051 A 
ATOM     15  C   UNL     1      -0.391   7.457  16.728  1.00  0.00     0.157 A 
ATOM     16  C   UNL     1       1.394   5.816  16.879  1.00  0.00     0.062 A 
ATOM     17  C   UNL     1       0.042   6.121  16.662  1.00  0.00     0.158 A 
BRANCH  15  18
ATOM     18  O   UNL     1      -1.727   7.793  16.519  1.00  0.00    -0.504 OA
ATOM     19  H   UNL     1      -2.457   7.091  16.463  1.00  0.00     0.293 HD
ENDBRANCH  15  18
BRANCH  17  20
ATOM     20  O   UNL     1      -0.869   5.105  16.381  1.00  0.00    -0.504 OA
ATOM     21  H   UNL     1      -0.570   4.210  16.013  1.00  0.00     0.293 HD
ENDBRANCH  17  20
ENDBRANCH   1  12
BRANCH   2  22
ATOM     22  O   UNL     1       4.218   6.630  14.997  1.00  0.00    -0.502 OA
ATOM     23  H   UNL     1       4.561   7.414  14.456  1.00  0.00     0.293 HD
ENDBRANCH   2  22
BRANCH   6  24
ATOM     24  O   UNL     1       8.830   5.496  17.407  1.00  0.00    -0.507 OA
ATOM     25  H   UNL     1       9.723   5.938  17.566  1.00  0.00     0.293 HD
ENDBRANCH   6  24
BRANCH   8  26
ATOM     26  O   UNL     1       7.373   5.128  21.949  1.00  0.00    -0.508 OA
ATOM     27  H   UNL     1       8.307   4.847  22.223  1.00  0.00     0.293 HD
ENDBRANCH   8  26
TORSDOF 6
ENDMDL
MODEL 6
REMARK VINA RESULT:    -6.074      2.333      7.365
REMARK INTER + INTRA:          -7.458
REMARK INTER:                  -7.445
REMARK INTRA:                  -0.014
REMARK UNBOUND:                -0.142
REMARK SMILES O=c1c(O)c(-c2ccc(O)c(O)c2)oc2cc(O)cc(O)c12
REMARK SMILES IDX 5 1 3 2 2 3 1 4 22 5 20 6 19 7 17 8 16 9 15 10 14 11 6 12
REMARK SMILES IDX 7 13 8 14 9 15 13 16 11 17 10 18 12 20 4 22 21 24 18 26
REMARK H PARENT 10 19 12 21 4 23 21 25 18 27
REMARK Flexibility Score: inf
ROOT
ATOM      1  C   UNL     1       6.167   3.829  17.971  1.00  0.00     0.180 A 
ATOM      2  C   UNL     1       7.489   4.200  18.271  1.00  0.00     0.208 A 
ATOM      3  C   UNL     1       7.792   5.560  18.443  1.00  0.00     0.238 A 
ATOM      4  O   UNL     1       8.961   5.878  18.785  1.00  0.00    -0.285 OA
ATOM      5  C   UNL     1       6.784   6.537  18.257  1.00  0.00     0.111 A 
ATOM      6  C   UNL     1       6.989   7.946  18.362  1.00  0.00     0.134 A 
ATOM      7  C   UNL     1       5.894   8.812  18.261  1.00  0.00     0.093 A 
ATOM      8  C   UNL     1       4.613   8.328  17.998  1.00  0.00     0.123 A 
ATOM      9  C   UNL     1       4.410   6.957  17.839  1.00  0.00     0.094 A 
ATOM     10  C   UNL     1       5.476   6.064  17.971  1.00  0.00     0.146 A 
ATOM     11  O   UNL     1       5.235   4.765  17.835  1.00  0.00    -0.452 OA
ENDROOT
BRANCH   1  12
ATOM     12  C   UNL     1       5.766   2.415  17.790  1.00  0.00     0.025 A 
ATOM     13  C   UNL     1       6.460   1.564  16.911  1.00  0.00     0.016 A 
ATOM     14  C   UNL     1       6.078   0.227  16.776  1.00  0.00     0.051 A 
ATOM     15  C   UNL     1       5.012  -0.284  17.522  1.00  0.00     0.157 A 
ATOM     16  C   UNL     1       4.709   1.894  18.553  1.00  0.00     0.062 A 
ATOM     17  C   UNL     1       4.324   0.552  18.418  1.00  0.00     0.158 A 
BRANCH  15  18
ATOM     18  O   UNL     1       4.653  -1.622  17.363  1.00  0.00    -0.504 OA
ATOM     19  H   UNL     1       4.414  -2.011  16.458  1.00  0.00     0.293 HD
ENDBRANCH  15  18
BRANCH  17  20
ATOM     20  O   UNL     1       3.265   0.048  19.170  1.00  0.00    -0.504 OA
ATOM     21  H   UNL     1       2.486   0.633  19.449  1.00  0.00     0.293 HD
ENDBRANCH  17  20
ENDBRANCH   1  12
BRANCH   2  22
ATOM     22  O   UNL     1       8.486   3.226  18.376  1.00  0.00    -0.502 OA
ATOM     23  H   UNL     1       8.282   2.234  18.357  1.00  0.00     0.293 HD
ENDBRANCH   2  22
BRANCH   6  24
ATOM     24  O   UNL     1       8.240   8.545  18.536  1.00  0.00    -0.507 OA
ATOM     25  H   UNL     1       9.124   8.060  18.494  1.00  0.00     0.293 HD
ENDBRANCH   6  24
BRANCH   8  26
ATOM     26  O   UNL     1       3.550   9.221  17.888  1.00  0.00    -0.508 OA
ATOM     27  H   UNL     1       3.133   9.652  18.705  1.00  0.00     0.293 HD
ENDBRANCH   8  26
TORSDOF 6
ENDMDL
MODEL 7
REMARK VINA RESULT:    -5.819      2.903      6.499
REMARK INTER + INTRA:          -7.151
REMARK INTER:                  -6.947
REMARK INTRA:                  -0.205
REMARK UNBOUND:                -0.142
REMARK SMILES O=c1c(O)c(-c2ccc(O)c(O)c2)oc2cc(O)cc(O)c12
REMARK SMILES IDX 5 1 3 2 2 3 1 4 22 5 20 6 19 7 17 8 16 9 15 10 14 11 6 12
REMARK SMILES IDX 7 13 8 14 9 15 13 16 11 17 10 18 12 20 4 22 21 24 18 26
REMARK H PARENT 10 19 12 21 4 23 21 25 18 27
REMARK Flexibility Score: inf
ROOT
ATOM      1  C   UNL     1       3.198   7.136  17.304  1.00  0.00     0.180 A 
ATOM      2  C   UNL     1       4.101   6.702  16.318  1.00  0.00     0.208 A 
ATOM      3  C   UNL     1       5.468   6.629  16.630  1.00  0.00     0.238 A 
ATOM      4  O   UNL     1       6.259   6.169  15.766  1.00  0.00    -0.285 OA
ATOM      5  C   UNL     1       5.923   7.044  17.905  1.00  0.00     0.111 A 
ATOM      6  C   UNL     1       7.291   7.056  18.314  1.00  0.00     0.134 A 
ATOM      7  C   UNL     1       7.613   7.387  19.636  1.00  0.00     0.093 A 
ATOM      8  C   UNL     1       6.627   7.768  20.545  1.00  0.00     0.123 A 
ATOM      9  C   UNL     1       5.292   7.813  20.140  1.00  0.00     0.094 A 
ATOM     10  C   UNL     1       4.935   7.452  18.839  1.00  0.00     0.146 A 
ATOM     11  O   UNL     1       3.651   7.488  18.502  1.00  0.00    -0.452 OA
ENDROOT
BRANCH   1  12
ATOM     12  C   UNL     1       1.741   7.225  17.056  1.00  0.00     0.025 A 
ATOM     13  C   UNL     1       1.094   8.468  16.935  1.00  0.00     0.016 A 
ATOM     14  C   UNL     1      -0.278   8.527  16.677  1.00  0.00     0.051 A 
ATOM     15  C   UNL     1      -1.020   7.352  16.521  1.00  0.00     0.157 A 
ATOM     16  C   UNL     1       0.998   6.048  16.879  1.00  0.00     0.062 A 
ATOM     17  C   UNL     1      -0.380   6.105  16.619  1.00  0.00     0.158 A 
BRANCH  15  18
ATOM     18  O   UNL     1      -2.387   7.443  16.266  1.00  0.00    -0.504 OA
ATOM     19  H   UNL     1      -2.856   8.335  16.154  1.00  0.00     0.293 HD
ENDBRANCH  15  18
BRANCH  17  20
ATOM     20  O   UNL     1      -1.111   4.929  16.459  1.00  0.00    -0.504 OA
ATOM     21  H   UNL     1      -2.110   4.898  16.628  1.00  0.00     0.293 HD
ENDBRANCH  17  20
ENDBRANCH   1  12
BRANCH   2  22
ATOM     22  O   UNL     1       3.640   6.368  15.041  1.00  0.00    -0.502 OA
ATOM     23  H   UNL     1       2.682   6.092  14.863  1.00  0.00     0.293 HD
ENDBRANCH   2  22
BRANCH   6  24
ATOM     24  O   UNL     1       8.366   6.778  17.464  1.00  0.00    -0.507 OA
ATOM     25  H   UNL     1       9.096   7.431  17.223  1.00  0.00     0.293 HD
ENDBRANCH   6  24
BRANCH   8  26
ATOM     26  O   UNL     1       6.986   8.107  21.847  1.00  0.00    -0.508 OA
ATOM     27  H   UNL     1       7.000   9.072  22.159  1.00  0.00     0.293 HD
ENDBRANCH   8  26
TORSDOF 6
ENDMDL
MODEL 8
REMARK VINA RESULT:    -5.807      2.965      5.129
REMARK INTER + INTRA:          -7.137
REMARK INTER:                  -6.806
REMARK INTRA:                  -0.330
REMARK UNBOUND:                -0.142
REMARK SMILES O=c1c(O)c(-c2ccc(O)c(O)c2)oc2cc(O)cc(O)c12
REMARK SMILES IDX 5 1 3 2 2 3 1 4 22 5 20 6 19 7 17 8 16 9 15 10 14 11 6 12
REMARK SMILES IDX 7 13 8 14 9 15 13 16 11 17 10 18 12 20 4 22 21 24 18 26
REMARK H PARENT 10 19 12 21 4 23 21 25 18 27
REMARK Flexibility Score: inf
ROOT
ATOM      1  C   UNL     1       3.446   7.351  17.682  1.00  0.00     0.180 A 
ATOM      2  C   UNL     1       4.653   8.047  17.868  1.00  0.00     0.208 A 
ATOM      3  C   UNL     1       5.850   7.320  17.971  1.00  0.00     0.238 A 
ATOM      4  O   UNL     1       6.933   7.953  18.063  1.00  0.00    -0.285 OA
ATOM      5  C   UNL     1       5.820   5.905  17.942  1.00  0.00     0.111 A 
ATOM      6  C   UNL     1       6.966   5.065  18.082  1.00  0.00     0.134 A 
ATOM      7  C   UNL     1       6.829   3.679  17.931  1.00  0.00     0.093 A 
ATOM      8  C   UNL     1       5.582   3.098  17.709  1.00  0.00     0.123 A 
ATOM      9  C   UNL     1       4.446   3.904  17.625  1.00  0.00     0.094 A 
ATOM     10  C   UNL     1       4.556   5.292  17.733  1.00  0.00     0.146 A 
ATOM     11  O   UNL     1       3.453   6.025  17.625  1.00  0.00    -0.452 OA
ENDROOT
BRANCH   1  12
ATOM     12  C   UNL     1       2.146   8.048  17.550  1.00  0.00     0.025 A 
ATOM     13  C   UNL     1       1.670   8.479  16.300  1.00  0.00     0.016 A 
ATOM     14  C   UNL     1       0.429   9.113  16.198  1.00  0.00     0.051 A 
ATOM     15  C   UNL     1      -0.360   9.312  17.335  1.00  0.00     0.157 A 
ATOM     16  C   UNL     1       1.343   8.230  18.687  1.00  0.00     0.062 A 
ATOM     17  C   UNL     1       0.097   8.867  18.587  1.00  0.00     0.158 A 
BRANCH  15  18
ATOM     18  O   UNL     1      -1.593   9.949  17.201  1.00  0.00    -0.504 OA
ATOM     19  H   UNL     1      -2.227   9.739  16.440  1.00  0.00     0.293 HD
ENDBRANCH  15  18
BRANCH  17  20
ATOM     20  O   UNL     1      -0.687   9.055  19.724  1.00  0.00    -0.504 OA
ATOM     21  H   UNL     1      -1.666   8.797  19.743  1.00  0.00     0.293 HD
ENDBRANCH  17  20
ENDBRANCH   1  12
BRANCH   2  22
ATOM     22  O   UNL     1       4.653   9.441  17.971  1.00  0.00    -0.502 OA
ATOM     23  H   UNL     1       3.832   9.966  18.249  1.00  0.00     0.293 HD
ENDBRANCH   2  22
BRANCH   6  24
ATOM     24  O   UNL     1       8.246   5.532  18.392  1.00  0.00    -0.507 OA
ATOM     25  H   UNL     1       8.444   6.363  18.929  1.00  0.00     0.293 HD
ENDBRANCH   6  24
BRANCH   8  26
ATOM     26  O   UNL     1       5.481   1.714  17.581  1.00  0.00    -0.508 OA
ATOM     27  H   UNL     1       4.612   1.269  17.309  1.00  0.00     0.293 HD
ENDBRANCH   8  26
TORSDOF 6
ENDMDL
