MODEL 1
REMARK VINA RESULT:    -4.485      0.000      0.000
REMARK INTER + INTRA:          -5.538
REMARK INTER:                  -5.271
REMARK INTRA:                  -0.267
REMARK UNBOUND:                -0.267
REMARK SMILES O=c1cc(-c2ccc(O)c(O)c2)oc2cc(O)cc(O)c12
REMARK SMILES IDX 4 1 3 2 2 3 1 4 21 5 19 6 18 7 16 8 15 9 14 10 13 11 5 12
REMARK SMILES IDX 6 13 7 14 8 15 12 16 10 17 9 18 11 20 20 22 17 24
REMARK H PARENT 9 19 11 21 20 23 17 25
REMARK Flexibility Score: inf
ROOT
ATOM      1  C   UNL     1      22.475 -46.277   7.080  1.00  0.00     0.138 A 
ATOM      2  C   UNL     1      21.685 -47.229   7.745  1.00  0.00     0.100 A 
ATOM      3  C   UNL     1      21.528 -48.500   7.191  1.00  0.00     0.197 A 
ATOM      4  O   UNL     1      20.815 -49.347   7.794  1.00  0.00    -0.289 OA
ATOM      5  C   UNL     1      22.161 -48.810   5.970  1.00  0.00     0.107 A 
ATOM      6  C   UNL     1      22.055 -50.073   5.341  1.00  0.00     0.134 A 
ATOM      7  C   UNL     1      22.713 -50.300   4.123  1.00  0.00     0.093 A 
ATOM      8  C   UNL     1      23.472 -49.288   3.523  1.00  0.00     0.123 A 
ATOM      9  C   UNL     1      23.579 -48.041   4.141  1.00  0.00     0.094 A 
ATOM     10  C   UNL     1      22.932 -47.794   5.355  1.00  0.00     0.146 A 
ATOM     11  O   UNL     1      23.052 -46.599   5.923  1.00  0.00    -0.456 OA
ENDROOT
BRANCH   1  12
ATOM     12  C   UNL     1      22.677 -44.910   7.621  1.00  0.00     0.021 A 
ATOM     13  C   UNL     1      23.963 -44.406   7.896  1.00  0.00     0.016 A 
ATOM     14  C   UNL     1      24.123 -43.111   8.397  1.00  0.00     0.051 A 
ATOM     15  C   UNL     1      23.008 -42.296   8.624  1.00  0.00     0.157 A 
ATOM     16  C   UNL     1      21.563 -44.080   7.840  1.00  0.00     0.062 A 
ATOM     17  C   UNL     1      21.722 -42.783   8.342  1.00  0.00     0.158 A 
BRANCH  15  18
ATOM     18  O   UNL     1      23.173 -41.005   9.125  1.00  0.00    -0.504 OA
ATOM     19  H   UNL     1      22.497 -40.591   9.756  1.00  0.00     0.293 HD
ENDBRANCH  15  18
BRANCH  17  20
ATOM     20  O   UNL     1      20.591 -41.996   8.553  1.00  0.00    -0.504 OA
ATOM     21  H   UNL     1      19.855 -42.270   9.194  1.00  0.00     0.293 HD
ENDBRANCH  17  20
ENDBRANCH   1  12
BRANCH   6  22
ATOM     22  O   UNL     1      21.304 -51.100   5.915  1.00  0.00    -0.507 OA
ATOM     23  H   UNL     1      20.315 -50.993   6.108  1.00  0.00     0.293 HD
ENDBRANCH   6  22
BRANCH   8  24
ATOM     24  O   UNL     1      24.125 -49.513   2.314  1.00  0.00    -0.508 OA
ATOM     25  H   UNL     1      24.261 -50.450   1.951  1.00  0.00     0.293 HD
ENDBRANCH   8  24
TORSDOF 5
ENDMDL
MODEL 2
REMARK VINA RESULT:    -4.041      1.742      3.293
REMARK INTER + INTRA:          -5.017
REMARK INTER:                  -4.706
REMARK INTRA:                  -0.311
REMARK UNBOUND:                -0.267
REMARK SMILES O=c1cc(-c2ccc(O)c(O)c2)oc2cc(O)cc(O)c12
REMARK SMILES IDX 4 1 3 2 2 3 1 4 21 5 19 6 18 7 16 8 15 9 14 10 13 11 5 12
REMARK SMILES IDX 6 13 7 14 8 15 12 16 10 17 9 18 11 20 20 22 17 24
REMARK H PARENT 9 19 11 21 20 23 17 25
REMARK Flexibility Score: inf
ROOT
ATOM      1  C   UNL     1      22.039 -46.102   7.664  1.00  0.00     0.138 A 
ATOM      2  C   UNL     1      22.852 -46.909   6.851  1.00  0.00     0.100 A 
ATOM      3  C   UNL     1      22.430 -48.198   6.522  1.00  0.00     0.197 A 
ATOM      4  O   UNL     1      23.168 -48.916   5.793  1.00  0.00    -0.289 OA
ATOM      5  C   UNL     1      21.198 -48.673   7.013  1.00  0.00     0.107 A 
ATOM      6  C   UNL     1      20.697 -49.965   6.727  1.00  0.00     0.134 A 
ATOM      7  C   UNL     1      19.462 -50.365   7.259  1.00  0.00     0.093 A 
ATOM      8  C   UNL     1      18.721 -49.498   8.072  1.00  0.00     0.123 A 
ATOM      9  C   UNL     1      19.212 -48.222   8.356  1.00  0.00     0.094 A 
ATOM     10  C   UNL     1      20.440 -47.804   7.835  1.00  0.00     0.146 A 
ATOM     11  O   UNL     1      20.884 -46.584   8.119  1.00  0.00    -0.456 OA
ENDROOT
BRANCH   1  12
ATOM     12  C   UNL     1      22.436 -44.723   8.047  1.00  0.00     0.021 A 
ATOM     13  C   UNL     1      23.782 -44.311   8.034  1.00  0.00     0.016 A 
ATOM     14  C   UNL     1      24.125 -43.004   8.390  1.00  0.00     0.051 A 
ATOM     15  C   UNL     1      23.134 -42.086   8.758  1.00  0.00     0.157 A 
ATOM     16  C   UNL     1      21.445 -43.792   8.404  1.00  0.00     0.062 A 
ATOM     17  C   UNL     1      21.787 -42.483   8.762  1.00  0.00     0.158 A 
BRANCH  15  18
ATOM     18  O   UNL     1      23.481 -40.784   9.114  1.00  0.00    -0.504 OA
ATOM     19  H   UNL     1      22.812 -40.155   9.543  1.00  0.00     0.293 HD
ENDBRANCH  15  18
BRANCH  17  20
ATOM     20  O   UNL     1      20.775 -41.592   9.120  1.00  0.00    -0.504 OA
ATOM     21  H   UNL     1      20.933 -40.829   9.767  1.00  0.00     0.293 HD
ENDBRANCH  17  20
ENDBRANCH   1  12
BRANCH   6  22
ATOM     22  O   UNL     1      21.413 -50.851   5.922  1.00  0.00    -0.507 OA
ATOM     23  H   UNL     1      21.632 -50.636   4.956  1.00  0.00     0.293 HD
ENDBRANCH   6  22
BRANCH   8  24
ATOM     24  O   UNL     1      17.495 -49.894   8.601  1.00  0.00    -0.508 OA
ATOM     25  H   UNL     1      17.056 -49.385   9.360  1.00  0.00     0.293 HD
ENDBRANCH   8  24
TORSDOF 5
ENDMDL
MODEL 3
REMARK VINA RESULT:    -2.813      2.831      3.561
REMARK INTER + INTRA:          -3.572
REMARK INTER:                  -3.297
REMARK INTRA:                  -0.276
REMARK UNBOUND:                -0.267
REMARK SMILES O=c1cc(-c2ccc(O)c(O)c2)oc2cc(O)cc(O)c12
REMARK SMILES IDX 4 1 3 2 2 3 1 4 21 5 19 6 18 7 16 8 15 9 14 10 13 11 5 12
REMARK SMILES IDX 6 13 7 14 8 15 12 16 10 17 9 18 11 20 20 22 17 24
REMARK H PARENT 9 19 11 21 20 23 17 25
REMARK Flexibility Score: inf
ROOT
ATOM      1  C   UNL     1      20.464 -47.537   7.376  1.00  0.00     0.138 A 
ATOM      2  C   UNL     1      21.099 -48.201   8.439  1.00  0.00     0.100 A 
ATOM      3  C   UNL     1      22.087 -49.148   8.165  1.00  0.00     0.197 A 
ATOM      4  O   UNL     1      22.651 -49.739   9.125  1.00  0.00    -0.289 OA
ATOM      5  C   UNL     1      22.431 -49.427   6.826  1.00  0.00     0.107 A 
ATOM      6  C   UNL     1      23.420 -50.371   6.462  1.00  0.00     0.134 A 
ATOM      7  C   UNL     1      23.700 -50.596   5.106  1.00  0.00     0.093 A 
ATOM      8  C   UNL     1      23.008 -49.895   4.110  1.00  0.00     0.123 A 
ATOM      9  C   UNL     1      22.031 -48.964   4.465  1.00  0.00     0.094 A 
ATOM     10  C   UNL     1      21.738 -48.725   5.811  1.00  0.00     0.146 A 
ATOM     11  O   UNL     1      20.805 -47.831   6.123  1.00  0.00    -0.456 OA
ENDROOT
BRANCH   1  12
ATOM     12  C   UNL     1      19.406 -46.521   7.607  1.00  0.00     0.021 A 
ATOM     13  C   UNL     1      18.195 -46.847   8.246  1.00  0.00     0.016 A 
ATOM     14  C   UNL     1      17.221 -45.868   8.458  1.00  0.00     0.051 A 
ATOM     15  C   UNL     1      17.440 -44.548   8.044  1.00  0.00     0.157 A 
ATOM     16  C   UNL     1      19.624 -45.191   7.207  1.00  0.00     0.062 A 
ATOM     17  C   UNL     1      18.650 -44.209   7.417  1.00  0.00     0.158 A 
BRANCH  15  18
ATOM     18  O   UNL     1      16.465 -43.575   8.257  1.00  0.00    -0.504 OA
ATOM     19  H   UNL     1      16.537 -42.653   7.844  1.00  0.00     0.293 HD
ENDBRANCH  15  18
BRANCH  17  20
ATOM     20  O   UNL     1      18.901 -42.903   6.997  1.00  0.00    -0.504 OA
ATOM     21  H   UNL     1      19.059 -42.147   7.652  1.00  0.00     0.293 HD
ENDBRANCH  17  20
ENDBRANCH   1  12
BRANCH   6  22
ATOM     22  O   UNL     1      24.125 -51.084   7.433  1.00  0.00    -0.507 OA
ATOM     23  H   UNL     1      23.684 -51.810   7.986  1.00  0.00     0.293 HD
ENDBRANCH   6  22
BRANCH   8  24
ATOM     24  O   UNL     1      23.285 -50.119   2.763  1.00  0.00    -0.508 OA
ATOM     25  H   UNL     1      23.030 -50.987   2.307  1.00  0.00     0.293 HD
ENDBRANCH   8  24
TORSDOF 5
ENDMDL
MODEL 4
REMARK VINA RESULT:    -2.231      5.618      7.590
REMARK INTER + INTRA:          -2.889
REMARK INTER:                  -2.579
REMARK INTRA:                  -0.310
REMARK UNBOUND:                -0.267
REMARK SMILES O=c1cc(-c2ccc(O)c(O)c2)oc2cc(O)cc(O)c12
REMARK SMILES IDX 4 1 3 2 2 3 1 4 21 5 19 6 18 7 16 8 15 9 14 10 13 11 5 12
REMARK SMILES IDX 6 13 7 14 8 15 12 16 10 17 9 18 11 20 20 22 17 24
REMARK H PARENT 9 19 11 21 20 23 17 25
REMARK Flexibility Score: inf
ROOT
ATOM      1  C   UNL     1      16.353 -44.853   8.264  1.00  0.00     0.138 A 
ATOM      2  C   UNL     1      16.625 -46.223   8.407  1.00  0.00     0.100 A 
ATOM      3  C   UNL     1      17.947 -46.669   8.373  1.00  0.00     0.197 A 
ATOM      4  O   UNL     1      18.181 -47.901   8.500  1.00  0.00    -0.289 OA
ATOM      5  C   UNL     1      18.990 -45.737   8.193  1.00  0.00     0.107 A 
ATOM      6  C   UNL     1      20.356 -46.104   8.148  1.00  0.00     0.134 A 
ATOM      7  C   UNL     1      21.335 -45.117   7.960  1.00  0.00     0.093 A 
ATOM      8  C   UNL     1      20.972 -43.772   7.815  1.00  0.00     0.123 A 
ATOM      9  C   UNL     1      19.625 -43.406   7.859  1.00  0.00     0.094 A 
ATOM     10  C   UNL     1      18.635 -44.375   8.046  1.00  0.00     0.146 A 
ATOM     11  O   UNL     1      17.360 -44.000   8.086  1.00  0.00    -0.456 OA
ENDROOT
BRANCH   1  12
ATOM     12  C   UNL     1      14.967 -44.322   8.292  1.00  0.00     0.021 A 
ATOM     13  C   UNL     1      13.860 -45.125   7.956  1.00  0.00     0.016 A 
ATOM     14  C   UNL     1      12.566 -44.601   8.000  1.00  0.00     0.051 A 
ATOM     15  C   UNL     1      12.352 -43.272   8.384  1.00  0.00     0.157 A 
ATOM     16  C   UNL     1      14.742 -42.992   8.690  1.00  0.00     0.062 A 
ATOM     17  C   UNL     1      13.447 -42.465   8.733  1.00  0.00     0.158 A 
BRANCH  15  18
ATOM     18  O   UNL     1      11.059 -42.753   8.425  1.00  0.00    -0.504 OA
ATOM     19  H   UNL     1      10.349 -43.144   9.034  1.00  0.00     0.293 HD
ENDBRANCH  15  18
BRANCH  17  20
ATOM     20  O   UNL     1      13.268 -41.138   9.124  1.00  0.00    -0.504 OA
ATOM     21  H   UNL     1      12.468 -40.841   9.671  1.00  0.00     0.293 HD
ENDBRANCH  17  20
ENDBRANCH   1  12
BRANCH   6  22
ATOM     22  O   UNL     1      20.747 -47.436   8.288  1.00  0.00    -0.507 OA
ATOM     23  H   UNL     1      20.748 -47.900   9.189  1.00  0.00     0.293 HD
ENDBRANCH   6  22
BRANCH   8  24
ATOM     24  O   UNL     1      21.943 -42.791   7.627  1.00  0.00    -0.508 OA
ATOM     25  H   UNL     1      22.754 -42.954   7.042  1.00  0.00     0.293 HD
ENDBRANCH   8  24
TORSDOF 5
ENDMDL
MODEL 5
REMARK VINA RESULT:    -1.577      5.747      7.634
REMARK INTER + INTRA:          -2.121
REMARK INTER:                  -1.829
REMARK INTRA:                  -0.291
REMARK UNBOUND:                -0.267
REMARK SMILES O=c1cc(-c2ccc(O)c(O)c2)oc2cc(O)cc(O)c12
REMARK SMILES IDX 4 1 3 2 2 3 1 4 21 5 19 6 18 7 16 8 15 9 14 10 13 11 5 12
REMARK SMILES IDX 6 13 7 14 8 15 12 16 10 17 9 18 11 20 20 22 17 24
REMARK H PARENT 9 19 11 21 20 23 17 25
REMARK Flexibility Score: inf
ROOT
ATOM      1  C   UNL     1      16.335 -44.851   8.357  1.00  0.00     0.138 A 
ATOM      2  C   UNL     1      17.456 -44.004   8.370  1.00  0.00     0.100 A 
ATOM      3  C   UNL     1      18.736 -44.559   8.384  1.00  0.00     0.197 A 
ATOM      4  O   UNL     1      19.736 -43.790   8.397  1.00  0.00    -0.289 OA
ATOM      5  C   UNL     1      18.887 -45.960   8.390  1.00  0.00     0.107 A 
ATOM      6  C   UNL     1      20.147 -46.603   8.403  1.00  0.00     0.134 A 
ATOM      7  C   UNL     1      20.212 -48.004   8.413  1.00  0.00     0.093 A 
ATOM      8  C   UNL     1      19.041 -48.772   8.411  1.00  0.00     0.123 A 
ATOM      9  C   UNL     1      17.796 -48.142   8.397  1.00  0.00     0.094 A 
ATOM     10  C   UNL     1      17.710 -46.747   8.387  1.00  0.00     0.146 A 
ATOM     11  O   UNL     1      16.512 -46.171   8.372  1.00  0.00    -0.456 OA
ENDROOT
BRANCH   1  12
ATOM     12  C   UNL     1      14.949 -44.318   8.341  1.00  0.00     0.021 A 
ATOM     13  C   UNL     1      13.853 -45.119   7.970  1.00  0.00     0.016 A 
ATOM     14  C   UNL     1      12.559 -44.593   7.974  1.00  0.00     0.051 A 
ATOM     15  C   UNL     1      12.335 -43.264   8.354  1.00  0.00     0.157 A 
ATOM     16  C   UNL     1      14.715 -42.988   8.734  1.00  0.00     0.062 A 
ATOM     17  C   UNL     1      13.419 -42.459   8.738  1.00  0.00     0.158 A 
BRANCH  15  18
ATOM     18  O   UNL     1      11.042 -42.743   8.355  1.00  0.00    -0.504 OA
ATOM     19  H   UNL     1      10.421 -42.862   7.563  1.00  0.00     0.293 HD
ENDBRANCH  15  18
BRANCH  17  20
ATOM     20  O   UNL     1      13.230 -41.132   9.125  1.00  0.00    -0.504 OA
ATOM     21  H   UNL     1      14.004 -40.488   9.234  1.00  0.00     0.293 HD
ENDBRANCH  17  20
ENDBRANCH   1  12
BRANCH   6  22
ATOM     22  O   UNL     1      21.331 -45.863   8.407  1.00  0.00    -0.507 OA
ATOM     23  H   UNL     1      21.363 -44.911   8.754  1.00  0.00     0.293 HD
ENDBRANCH   6  22
BRANCH   8  24
ATOM     24  O   UNL     1      19.105 -50.164   8.421  1.00  0.00    -0.508 OA
ATOM     25  H   UNL     1      19.741 -50.669   7.815  1.00  0.00     0.293 HD
ENDBRANCH   8  24
TORSDOF 5
ENDMDL
