MODEL 1
REMARK VINA RESULT:    -4.831      0.000      0.000
REMARK INTER + INTRA:         -14.184
REMARK INTER:                 -11.045
REMARK INTRA:                  -3.140
REMARK UNBOUND:                -3.140
REMARK SMILES CCCCCCCCCCCCCCCCCCCCCCCC(=O)[O-]
REMARK SMILES IDX 13 1 14 2 15 3 16 4 17 5 18 6 19 7 20 8 21 9 22 10 23 11
REMARK SMILES IDX 24 12 25 13 26 14 12 15 11 16 10 17 9 18 8 19 7 20 6 21 5 22
REMARK SMILES IDX 4 23 3 24 2 25 1 26
REMARK H PARENT
REMARK Flexibility Score: inf
ROOT
ATOM      1  C   UNL     1       5.604 -12.153   6.708  1.00  0.00     0.000 C 
ENDROOT
BRANCH   1   2
ATOM      2  C   UNL     1       4.892 -13.452   6.284  1.00  0.00     0.000 C 
BRANCH   2   3
ATOM      3  C   UNL     1       4.854 -13.705   4.766  1.00  0.00     0.000 C 
BRANCH   3   4
ATOM      4  C   UNL     1       3.443 -13.827   4.157  1.00  0.00     0.000 C 
BRANCH   4   5
ATOM      5  C   UNL     1       2.636 -12.511   4.180  1.00  0.00     0.000 C 
BRANCH   5   6
ATOM      6  C   UNL     1       2.355 -11.968   2.768  1.00  0.00     0.000 C 
BRANCH   6   7
ATOM      7  C   UNL     1       3.456 -11.017   2.272  1.00  0.00     0.000 C 
BRANCH   7   8
ATOM      8  C   UNL     1       4.071 -11.470   0.937  1.00  0.00     0.000 C 
BRANCH   8   9
ATOM      9  C   UNL     1       5.142 -12.565   1.128  1.00  0.00     0.000 C 
BRANCH   9  10
ATOM     10  C   UNL     1       6.344 -12.426   0.173  1.00  0.00     0.006 C 
BRANCH  10  11
ATOM     11  C   UNL     1       7.688 -12.841   0.790  1.00  0.00     0.053 C 
BRANCH  11  12
ATOM     12  C   UNL     1       8.206 -14.124   0.213  1.00  0.00     0.041 C 
ATOM     13  O   UNL     1       7.519 -14.767  -0.626  1.00  0.00    -0.550 OA
ATOM     14  O   UNL     1       9.453 -14.605   0.590  1.00  0.00    -0.550 OA
ENDBRANCH  11  12
ENDBRANCH  10  11
ENDBRANCH   9  10
ENDBRANCH   8   9
ENDBRANCH   7   8
ENDBRANCH   6   7
ENDBRANCH   5   6
ENDBRANCH   4   5
ENDBRANCH   3   4
ENDBRANCH   2   3
ENDBRANCH   1   2
BRANCH   1  15
ATOM     15  C   UNL     1       4.629 -10.985   6.941  1.00  0.00     0.000 C 
BRANCH  15  16
ATOM     16  C   UNL     1       5.329  -9.617   6.895  1.00  0.00     0.000 C 
BRANCH  16  17
ATOM     17  C   UNL     1       4.398  -8.499   6.392  1.00  0.00     0.000 C 
BRANCH  17  18
ATOM     18  C   UNL     1       3.616  -8.903   5.133  1.00  0.00    -0.000 C 
BRANCH  18  19
ATOM     19  C   UNL     1       2.134  -8.493   5.203  1.00  0.00    -0.000 C 
BRANCH  19  20
ATOM     20  C   UNL     1       1.419  -9.075   6.432  1.00  0.00    -0.000 C 
BRANCH  20  21
ATOM     21  C   UNL     1       0.603  -8.020   7.199  1.00  0.00    -0.000 C 
BRANCH  21  22
ATOM     22  C   UNL     1       1.238  -7.656   8.550  1.00  0.00    -0.000 C 
BRANCH  22  23
ATOM     23  C   UNL     1       1.525  -6.151   8.682  1.00  0.00    -0.000 C 
BRANCH  23  24
ATOM     24  C   UNL     1       2.960  -5.781   8.272  1.00  0.00    -0.000 C 
BRANCH  24  25
ATOM     25  C   UNL     1       3.045  -5.080   6.900  1.00  0.00    -0.003 C 
ATOM     26  C   UNL     1       1.743  -4.373   6.525  1.00  0.00     0.004 C 
ENDBRANCH  24  25
ENDBRANCH  23  24
ENDBRANCH  22  23
ENDBRANCH  21  22
ENDBRANCH  20  21
ENDBRANCH  19  20
ENDBRANCH  18  19
ENDBRANCH  17  18
ENDBRANCH  16  17
ENDBRANCH  15  16
ENDBRANCH   1  15
TORSDOF 22
ENDMDL
MODEL 2
REMARK VINA RESULT:    -4.768      0.811      2.512
REMARK INTER + INTRA:         -14.040
REMARK INTER:                 -10.626
REMARK INTRA:                  -3.414
REMARK UNBOUND:                -3.140
REMARK SMILES CCCCCCCCCCCCCCCCCCCCCCCC(=O)[O-]
REMARK SMILES IDX 13 1 14 2 15 3 16 4 17 5 18 6 19 7 20 8 21 9 22 10 23 11
REMARK SMILES IDX 24 12 25 13 26 14 12 15 11 16 10 17 9 18 8 19 7 20 6 21 5 22
REMARK SMILES IDX 4 23 3 24 2 25 1 26
REMARK H PARENT
REMARK Flexibility Score: inf
ROOT
ATOM      1  C   UNL     1       4.034 -14.223   4.419  1.00  0.00     0.000 C 
ENDROOT
BRANCH   1   2
ATOM      2  C   UNL     1       2.751 -13.557   3.887  1.00  0.00     0.000 C 
BRANCH   2   3
ATOM      3  C   UNL     1       2.622 -12.055   4.198  1.00  0.00     0.000 C 
BRANCH   3   4
ATOM      4  C   UNL     1       1.649 -11.278   3.290  1.00  0.00     0.000 C 
BRANCH   4   5
ATOM      5  C   UNL     1       2.305 -10.106   2.529  1.00  0.00     0.000 C 
BRANCH   5   6
ATOM      6  C   UNL     1       3.455 -10.566   1.616  1.00  0.00     0.000 C 
BRANCH   6   7
ATOM      7  C   UNL     1       2.991 -11.553   0.533  1.00  0.00     0.000 C 
BRANCH   7   8
ATOM      8  C   UNL     1       3.975 -12.718   0.333  1.00  0.00     0.000 C 
BRANCH   8   9
ATOM      9  C   UNL     1       5.289 -12.514   1.118  1.00  0.00     0.000 C 
BRANCH   9  10
ATOM     10  C   UNL     1       6.517 -12.284   0.214  1.00  0.00     0.006 C 
BRANCH  10  11
ATOM     11  C   UNL     1       7.760 -13.085   0.628  1.00  0.00     0.053 C 
BRANCH  11  12
ATOM     12  C   UNL     1       7.868 -14.387  -0.108  1.00  0.00     0.041 C 
ATOM     13  O   UNL     1       8.640 -15.291   0.310  1.00  0.00    -0.550 OA
ATOM     14  O   UNL     1       7.110 -14.608  -1.250  1.00  0.00    -0.550 OA
ENDBRANCH  11  12
ENDBRANCH  10  11
ENDBRANCH   9  10
ENDBRANCH   8   9
ENDBRANCH   7   8
ENDBRANCH   6   7
ENDBRANCH   5   6
ENDBRANCH   4   5
ENDBRANCH   3   4
ENDBRANCH   2   3
ENDBRANCH   1   2
BRANCH   1  15
ATOM     15  C   UNL     1       5.058 -13.207   4.953  1.00  0.00     0.000 C 
BRANCH  15  16
ATOM     16  C   UNL     1       5.263 -13.321   6.473  1.00  0.00     0.000 C 
BRANCH  16  17
ATOM     17  C   UNL     1       5.712 -11.992   7.105  1.00  0.00     0.000 C 
BRANCH  17  18
ATOM     18  C   UNL     1       4.599 -10.933   7.106  1.00  0.00    -0.000 C 
BRANCH  18  19
ATOM     19  C   UNL     1       5.083  -9.569   6.579  1.00  0.00    -0.000 C 
BRANCH  19  20
ATOM     20  C   UNL     1       3.988  -8.811   5.814  1.00  0.00    -0.000 C 
BRANCH  20  21
ATOM     21  C   UNL     1       2.576  -9.113   6.346  1.00  0.00    -0.000 C 
BRANCH  21  22
ATOM     22  C   UNL     1       1.497  -8.258   5.664  1.00  0.00    -0.000 C 
BRANCH  22  23
ATOM     23  C   UNL     1       1.024  -7.091   6.547  1.00  0.00    -0.000 C 
BRANCH  23  24
ATOM     24  C   UNL     1       1.690  -7.083   7.932  1.00  0.00    -0.000 C 
BRANCH  24  25
ATOM     25  C   UNL     1       2.720  -5.947   8.112  1.00  0.00    -0.003 C 
ATOM     26  C   UNL     1       2.821  -5.052   6.878  1.00  0.00     0.004 C 
ENDBRANCH  24  25
ENDBRANCH  23  24
ENDBRANCH  22  23
ENDBRANCH  21  22
ENDBRANCH  20  21
ENDBRANCH  19  20
ENDBRANCH  18  19
ENDBRANCH  17  18
ENDBRANCH  16  17
ENDBRANCH  15  16
ENDBRANCH   1  15
TORSDOF 22
ENDMDL
MODEL 3
REMARK VINA RESULT:    -4.723      4.250      8.836
REMARK INTER + INTRA:         -13.938
REMARK INTER:                 -11.087
REMARK INTRA:                  -2.851
REMARK UNBOUND:                -3.140
REMARK SMILES CCCCCCCCCCCCCCCCCCCCCCCC(=O)[O-]
REMARK SMILES IDX 13 1 14 2 15 3 16 4 17 5 18 6 19 7 20 8 21 9 22 10 23 11
REMARK SMILES IDX 24 12 25 13 26 14 12 15 11 16 10 17 9 18 8 19 7 20 6 21 5 22
REMARK SMILES IDX 4 23 3 24 2 25 1 26
REMARK H PARENT
REMARK Flexibility Score: inf
ROOT
ATOM      1  C   UNL     1       5.235 -13.544   6.496  1.00  0.00     0.000 C 
ENDROOT
BRANCH   1   2
ATOM      2  C   UNL     1       5.966 -12.192   6.406  1.00  0.00     0.000 C 
BRANCH   2   3
ATOM      3  C   UNL     1       5.392 -11.082   7.305  1.00  0.00     0.000 C 
BRANCH   3   4
ATOM      4  C   UNL     1       4.231 -10.275   6.690  1.00  0.00     0.000 C 
BRANCH   4   5
ATOM      5  C   UNL     1       4.631  -8.857   6.229  1.00  0.00     0.000 C 
BRANCH   5   6
ATOM      6  C   UNL     1       3.502  -8.146   5.463  1.00  0.00     0.000 C 
BRANCH   6   7
ATOM      7  C   UNL     1       2.105  -8.543   5.968  1.00  0.00     0.000 C 
BRANCH   7   8
ATOM      8  C   UNL     1       1.254  -7.326   6.372  1.00  0.00     0.000 C 
BRANCH   8   9
ATOM      9  C   UNL     1       1.461  -6.933   7.851  1.00  0.00     0.000 C 
BRANCH   9  10
ATOM     10  C   UNL     1       1.889  -5.465   8.043  1.00  0.00     0.006 C 
BRANCH  10  11
ATOM     11  C   UNL     1       2.248  -4.739   6.738  1.00  0.00     0.053 C 
BRANCH  11  12
ATOM     12  C   UNL     1       1.231  -3.703   6.365  1.00  0.00     0.041 C 
ATOM     13  O   UNL     1       1.478  -2.869   5.452  1.00  0.00    -0.550 OA
ATOM     14  O   UNL     1       0.004  -3.663   7.015  1.00  0.00    -0.550 OA
ENDBRANCH  11  12
ENDBRANCH  10  11
ENDBRANCH   9  10
ENDBRANCH   8   9
ENDBRANCH   7   8
ENDBRANCH   6   7
ENDBRANCH   5   6
ENDBRANCH   4   5
ENDBRANCH   3   4
ENDBRANCH   2   3
ENDBRANCH   1   2
BRANCH   1  15
ATOM     15  C   UNL     1       4.797 -14.081   5.122  1.00  0.00     0.000 C 
BRANCH  15  16
ATOM     16  C   UNL     1       4.385 -12.957   4.157  1.00  0.00     0.000 C 
BRANCH  16  17
ATOM     17  C   UNL     1       2.864 -12.919   3.917  1.00  0.00     0.000 C 
BRANCH  17  18
ATOM     18  C   UNL     1       2.332 -11.490   3.731  1.00  0.00    -0.000 C 
BRANCH  18  19
ATOM     19  C   UNL     1       3.262 -10.624   2.860  1.00  0.00    -0.000 C 
BRANCH  19  20
ATOM     20  C   UNL     1       3.077 -10.890   1.358  1.00  0.00    -0.000 C 
BRANCH  20  21
ATOM     21  C   UNL     1       4.353 -11.433   0.691  1.00  0.00    -0.000 C 
BRANCH  21  22
ATOM     22  C   UNL     1       4.267 -12.939   0.401  1.00  0.00    -0.000 C 
BRANCH  22  23
ATOM     23  C   UNL     1       5.629 -13.548   0.028  1.00  0.00    -0.000 C 
BRANCH  23  24
ATOM     24  C   UNL     1       6.758 -12.505  -0.006  1.00  0.00    -0.000 C 
BRANCH  24  25
ATOM     25  C   UNL     1       7.934 -12.843   0.935  1.00  0.00    -0.003 C 
ATOM     26  C   UNL     1       8.689 -14.098   0.497  1.00  0.00     0.004 C 
ENDBRANCH  24  25
ENDBRANCH  23  24
ENDBRANCH  22  23
ENDBRANCH  21  22
ENDBRANCH  20  21
ENDBRANCH  19  20
ENDBRANCH  18  19
ENDBRANCH  17  18
ENDBRANCH  16  17
ENDBRANCH  15  16
ENDBRANCH   1  15
TORSDOF 22
ENDMDL
MODEL 4
REMARK VINA RESULT:    -4.707      1.297      2.338
REMARK INTER + INTRA:         -13.900
REMARK INTER:                 -10.684
REMARK INTRA:                  -3.217
REMARK UNBOUND:                -3.140
REMARK SMILES CCCCCCCCCCCCCCCCCCCCCCCC(=O)[O-]
REMARK SMILES IDX 13 1 14 2 15 3 16 4 17 5 18 6 19 7 20 8 21 9 22 10 23 11
REMARK SMILES IDX 24 12 25 13 26 14 12 15 11 16 10 17 9 18 8 19 7 20 6 21 5 22
REMARK SMILES IDX 4 23 3 24 2 25 1 26
REMARK H PARENT
REMARK Flexibility Score: inf
ROOT
ATOM      1  C   UNL     1       5.954 -12.258   6.884  1.00  0.00     0.000 C 
ENDROOT
BRANCH   1   2
ATOM      2  C   UNL     1       4.961 -13.390   6.560  1.00  0.00     0.000 C 
BRANCH   2   3
ATOM      3  C   UNL     1       4.865 -13.761   5.069  1.00  0.00     0.000 C 
BRANCH   3   4
ATOM      4  C   UNL     1       3.454 -14.143   4.578  1.00  0.00     0.000 C 
BRANCH   4   5
ATOM      5  C   UNL     1       2.802 -13.085   3.663  1.00  0.00     0.000 C 
BRANCH   5   6
ATOM      6  C   UNL     1       3.736 -11.896   3.378  1.00  0.00     0.000 C 
BRANCH   6   7
ATOM      7  C   UNL     1       3.185 -10.962   2.288  1.00  0.00     0.000 C 
BRANCH   7   8
ATOM      8  C   UNL     1       3.864 -11.178   0.925  1.00  0.00     0.000 C 
BRANCH   8   9
ATOM      9  C   UNL     1       3.294 -12.402   0.175  1.00  0.00     0.000 C 
BRANCH   9  10
ATOM     10  C   UNL     1       4.304 -13.557   0.023  1.00  0.00     0.006 C 
BRANCH  10  11
ATOM     11  C   UNL     1       5.715 -13.106  -0.384  1.00  0.00     0.053 C 
BRANCH  11  12
ATOM     12  C   UNL     1       6.681 -13.160   0.762  1.00  0.00     0.041 C 
ATOM     13  O   UNL     1       6.358 -13.728   1.840  1.00  0.00    -0.550 OA
ATOM     14  O   UNL     1       7.942 -12.593   0.638  1.00  0.00    -0.550 OA
ENDBRANCH  11  12
ENDBRANCH  10  11
ENDBRANCH   9  10
ENDBRANCH   8   9
ENDBRANCH   7   8
ENDBRANCH   6   7
ENDBRANCH   5   6
ENDBRANCH   4   5
ENDBRANCH   3   4
ENDBRANCH   2   3
ENDBRANCH   1   2
BRANCH   1  15
ATOM     15  C   UNL     1       5.306 -10.863   6.841  1.00  0.00     0.000 C 
BRANCH  15  16
ATOM     16  C   UNL     1       3.773 -10.924   6.949  1.00  0.00     0.000 C 
BRANCH  16  17
ATOM     17  C   UNL     1       3.105  -9.588   6.573  1.00  0.00     0.000 C 
BRANCH  17  18
ATOM     18  C   UNL     1       3.774  -8.914   5.366  1.00  0.00    -0.000 C 
BRANCH  18  19
ATOM     19  C   UNL     1       4.064  -7.422   5.611  1.00  0.00    -0.000 C 
BRANCH  19  20
ATOM     20  C   UNL     1       3.981  -7.042   7.097  1.00  0.00    -0.000 C 
BRANCH  20  21
ATOM     21  C   UNL     1       3.458  -5.611   7.314  1.00  0.00    -0.000 C 
BRANCH  21  22
ATOM     22  C   UNL     1       2.026  -5.589   7.871  1.00  0.00    -0.000 C 
BRANCH  22  23
ATOM     23  C   UNL     1       0.963  -5.751   6.772  1.00  0.00    -0.000 C 
BRANCH  23  24
ATOM     24  C   UNL     1       0.314  -7.145   6.770  1.00  0.00    -0.000 C 
BRANCH  24  25
ATOM     25  C   UNL     1       0.395  -7.861   8.135  1.00  0.00    -0.003 C 
ATOM     26  C   UNL     1      -0.412  -9.158   8.163  1.00  0.00     0.004 C 
ENDBRANCH  24  25
ENDBRANCH  23  24
ENDBRANCH  22  23
ENDBRANCH  21  22
ENDBRANCH  20  21
ENDBRANCH  19  20
ENDBRANCH  18  19
ENDBRANCH  17  18
ENDBRANCH  16  17
ENDBRANCH  15  16
ENDBRANCH   1  15
TORSDOF 22
ENDMDL
MODEL 5
REMARK VINA RESULT:    -4.701      3.765      8.681
REMARK INTER + INTRA:         -13.886
REMARK INTER:                 -10.243
REMARK INTRA:                  -3.643
REMARK UNBOUND:                -3.140
REMARK SMILES CCCCCCCCCCCCCCCCCCCCCCCC(=O)[O-]
REMARK SMILES IDX 13 1 14 2 15 3 16 4 17 5 18 6 19 7 20 8 21 9 22 10 23 11
REMARK SMILES IDX 24 12 25 13 26 14 12 15 11 16 10 17 9 18 8 19 7 20 6 21 5 22
REMARK SMILES IDX 4 23 3 24 2 25 1 26
REMARK H PARENT
REMARK Flexibility Score: inf
ROOT
ATOM      1  C   UNL     1       3.159 -10.594   3.242  1.00  0.00     0.000 C 
ENDROOT
BRANCH   1   2
ATOM      2  C   UNL     1       2.241 -11.770   3.622  1.00  0.00     0.000 C 
BRANCH   2   3
ATOM      3  C   UNL     1       2.972 -13.029   4.123  1.00  0.00     0.000 C 
BRANCH   3   4
ATOM      4  C   UNL     1       4.500 -12.887   4.266  1.00  0.00     0.000 C 
BRANCH   4   5
ATOM      5  C   UNL     1       5.087 -13.641   5.479  1.00  0.00     0.000 C 
BRANCH   5   6
ATOM      6  C   UNL     1       4.961 -12.842   6.787  1.00  0.00     0.000 C 
BRANCH   6   7
ATOM      7  C   UNL     1       5.851 -11.589   6.801  1.00  0.00     0.000 C 
BRANCH   7   8
ATOM      8  C   UNL     1       5.037 -10.285   6.866  1.00  0.00     0.000 C 
BRANCH   8   9
ATOM      9  C   UNL     1       3.521 -10.549   6.999  1.00  0.00     0.000 C 
BRANCH   9  10
ATOM     10  C   UNL     1       2.650  -9.329   6.641  1.00  0.00     0.006 C 
BRANCH  10  11
ATOM     11  C   UNL     1       3.446  -8.035   6.411  1.00  0.00     0.053 C 
BRANCH  11  12
ATOM     12  C   UNL     1       3.006  -6.928   7.321  1.00  0.00     0.041 C 
ATOM     13  O   UNL     1       1.819  -6.886   7.743  1.00  0.00    -0.550 OA
ATOM     14  O   UNL     1       3.908  -5.948   7.715  1.00  0.00    -0.550 OA
ENDBRANCH  11  12
ENDBRANCH  10  11
ENDBRANCH   9  10
ENDBRANCH   8   9
ENDBRANCH   7   8
ENDBRANCH   6   7
ENDBRANCH   5   6
ENDBRANCH   4   5
ENDBRANCH   3   4
ENDBRANCH   2   3
ENDBRANCH   1   2
BRANCH   1  15
ATOM     15  C   UNL     1       3.071 -10.224   1.751  1.00  0.00     0.000 C 
BRANCH  15  16
ATOM     16  C   UNL     1       1.626 -10.248   1.224  1.00  0.00     0.000 C 
BRANCH  16  17
ATOM     17  C   UNL     1       1.418 -11.311   0.131  1.00  0.00     0.000 C 
BRANCH  17  18
ATOM     18  C   UNL     1       2.725 -12.015  -0.264  1.00  0.00    -0.000 C 
BRANCH  18  19
ATOM     19  C   UNL     1       2.723 -13.511   0.101  1.00  0.00    -0.000 C 
BRANCH  19  20
ATOM     20  C   UNL     1       4.067 -13.977   0.681  1.00  0.00    -0.000 C 
BRANCH  20  21
ATOM     21  C   UNL     1       5.137 -12.872   0.661  1.00  0.00    -0.000 C 
BRANCH  21  22
ATOM     22  C   UNL     1       6.434 -13.299   1.364  1.00  0.00    -0.000 C 
BRANCH  22  23
ATOM     23  C   UNL     1       7.693 -12.834   0.613  1.00  0.00    -0.000 C 
BRANCH  23  24
ATOM     24  C   UNL     1       8.824 -13.876   0.644  1.00  0.00    -0.000 C 
BRANCH  24  25
ATOM     25  C   UNL     1       8.378 -15.280   0.184  1.00  0.00    -0.003 C 
ATOM     26  C   UNL     1       8.060 -15.329  -1.310  1.00  0.00     0.004 C 
ENDBRANCH  24  25
ENDBRANCH  23  24
ENDBRANCH  22  23
ENDBRANCH  21  22
ENDBRANCH  20  21
ENDBRANCH  19  20
ENDBRANCH  18  19
ENDBRANCH  17  18
ENDBRANCH  16  17
ENDBRANCH  15  16
ENDBRANCH   1  15
TORSDOF 22
ENDMDL
MODEL 6
REMARK VINA RESULT:    -4.670      3.899      8.068
REMARK INTER + INTRA:         -13.817
REMARK INTER:                 -10.228
REMARK INTRA:                  -3.588
REMARK UNBOUND:                -3.140
REMARK SMILES CCCCCCCCCCCCCCCCCCCCCCCC(=O)[O-]
REMARK SMILES IDX 13 1 14 2 15 3 16 4 17 5 18 6 19 7 20 8 21 9 22 10 23 11
REMARK SMILES IDX 24 12 25 13 26 14 12 15 11 16 10 17 9 18 8 19 7 20 6 21 5 22
REMARK SMILES IDX 4 23 3 24 2 25 1 26
REMARK H PARENT
REMARK Flexibility Score: inf
ROOT
ATOM      1  C   UNL     1       2.381 -13.347   3.697  1.00  0.00     0.000 C 
ENDROOT
BRANCH   1   2
ATOM      2  C   UNL     1       3.640 -12.514   4.003  1.00  0.00     0.000 C 
BRANCH   2   3
ATOM      3  C   UNL     1       4.893 -13.337   4.355  1.00  0.00     0.000 C 
BRANCH   3   4
ATOM      4  C   UNL     1       4.991 -13.783   5.828  1.00  0.00     0.000 C 
BRANCH   4   5
ATOM      5  C   UNL     1       4.717 -12.654   6.844  1.00  0.00     0.000 C 
BRANCH   5   6
ATOM      6  C   UNL     1       5.980 -11.841   7.176  1.00  0.00     0.000 C 
BRANCH   6   7
ATOM      7  C   UNL     1       5.744 -10.324   7.094  1.00  0.00     0.000 C 
BRANCH   7   8
ATOM      8  C   UNL     1       4.290  -9.970   6.737  1.00  0.00     0.000 C 
BRANCH   8   9
ATOM      9  C   UNL     1       4.191  -9.155   5.429  1.00  0.00     0.000 C 
BRANCH   9  10
ATOM     10  C   UNL     1       3.636  -7.732   5.631  1.00  0.00     0.006 C 
BRANCH  10  11
ATOM     11  C   UNL     1       2.828  -7.551   6.925  1.00  0.00     0.053 C 
BRANCH  11  12
ATOM     12  C   UNL     1       2.899  -6.148   7.448  1.00  0.00     0.041 C 
ATOM     13  O   UNL     1       3.368  -5.225   6.729  1.00  0.00    -0.550 OA
ATOM     14  O   UNL     1       2.437  -5.855   8.724  1.00  0.00    -0.550 OA
ENDBRANCH  11  12
ENDBRANCH  10  11
ENDBRANCH   9  10
ENDBRANCH   8   9
ENDBRANCH   7   8
ENDBRANCH   6   7
ENDBRANCH   5   6
ENDBRANCH   4   5
ENDBRANCH   3   4
ENDBRANCH   2   3
ENDBRANCH   1   2
BRANCH   1  15
ATOM     15  C   UNL     1       1.078 -12.548   3.873  1.00  0.00     0.000 C 
BRANCH  15  16
ATOM     16  C   UNL     1       1.335 -11.054   4.130  1.00  0.00     0.000 C 
BRANCH  16  17
ATOM     17  C   UNL     1       0.835 -10.166   2.976  1.00  0.00     0.000 C 
BRANCH  17  18
ATOM     18  C   UNL     1       1.930  -9.237   2.429  1.00  0.00    -0.000 C 
BRANCH  18  19
ATOM     19  C   UNL     1       2.897  -9.964   1.477  1.00  0.00    -0.000 C 
BRANCH  19  20
ATOM     20  C   UNL     1       2.214 -11.098   0.696  1.00  0.00    -0.000 C 
BRANCH  20  21
ATOM     21  C   UNL     1       3.215 -12.139   0.167  1.00  0.00    -0.000 C 
BRANCH  21  22
ATOM     22  C   UNL     1       4.660 -11.830   0.588  1.00  0.00    -0.000 C 
BRANCH  22  23
ATOM     23  C   UNL     1       5.648 -12.928   0.161  1.00  0.00    -0.000 C 
BRANCH  23  24
ATOM     24  C   UNL     1       6.653 -13.288   1.267  1.00  0.00    -0.000 C 
BRANCH  24  25
ATOM     25  C   UNL     1       8.118 -12.985   0.888  1.00  0.00    -0.003 C 
ATOM     26  C   UNL     1       8.870 -14.231   0.423  1.00  0.00     0.004 C 
ENDBRANCH  24  25
ENDBRANCH  23  24
ENDBRANCH  22  23
ENDBRANCH  21  22
ENDBRANCH  20  21
ENDBRANCH  19  20
ENDBRANCH  18  19
ENDBRANCH  17  18
ENDBRANCH  16  17
ENDBRANCH  15  16
ENDBRANCH   1  15
TORSDOF 22
ENDMDL
MODEL 7
REMARK VINA RESULT:    -4.645      3.691      8.074
REMARK INTER + INTRA:         -13.759
REMARK INTER:                 -10.260
REMARK INTRA:                  -3.500
REMARK UNBOUND:                -3.140
REMARK SMILES CCCCCCCCCCCCCCCCCCCCCCCC(=O)[O-]
REMARK SMILES IDX 13 1 14 2 15 3 16 4 17 5 18 6 19 7 20 8 21 9 22 10 23 11
REMARK SMILES IDX 24 12 25 13 26 14 12 15 11 16 10 17 9 18 8 19 7 20 6 21 5 22
REMARK SMILES IDX 4 23 3 24 2 25 1 26
REMARK H PARENT
REMARK Flexibility Score: inf
ROOT
ATOM      1  C   UNL     1       5.851 -11.047   7.117  1.00  0.00     0.000 C 
ENDROOT
BRANCH   1   2
ATOM      2  C   UNL     1       4.492 -10.336   6.977  1.00  0.00     0.000 C 
BRANCH   2   3
ATOM      3  C   UNL     1       4.571  -8.871   6.510  1.00  0.00     0.000 C 
BRANCH   3   4
ATOM      4  C   UNL     1       3.727  -8.532   5.265  1.00  0.00     0.000 C 
BRANCH   4   5
ATOM      5  C   UNL     1       3.363  -9.760   4.403  1.00  0.00     0.000 C 
BRANCH   5   6
ATOM      6  C   UNL     1       1.843  -9.950   4.259  1.00  0.00     0.000 C 
BRANCH   6   7
ATOM      7  C   UNL     1       1.041  -8.873   5.008  1.00  0.00     0.000 C 
BRANCH   7   8
ATOM      8  C   UNL     1       0.289  -9.435   6.226  1.00  0.00     0.000 C 
BRANCH   8   9
ATOM      9  C   UNL     1       0.066  -8.368   7.319  1.00  0.00     0.000 C 
BRANCH   9  10
ATOM     10  C   UNL     1       1.339  -8.034   8.122  1.00  0.00     0.006 C 
BRANCH  10  11
ATOM     11  C   UNL     1       1.493  -6.544   8.463  1.00  0.00     0.053 C 
BRANCH  11  12
ATOM     12  C   UNL     1       2.530  -5.871   7.615  1.00  0.00     0.041 C 
ATOM     13  O   UNL     1       2.232  -5.439   6.469  1.00  0.00    -0.550 OA
ATOM     14  O   UNL     1       3.824  -5.709   8.093  1.00  0.00    -0.550 OA
ENDBRANCH  11  12
ENDBRANCH  10  11
ENDBRANCH   9  10
ENDBRANCH   8   9
ENDBRANCH   7   8
ENDBRANCH   6   7
ENDBRANCH   5   6
ENDBRANCH   4   5
ENDBRANCH   3   4
ENDBRANCH   2   3
ENDBRANCH   1   2
BRANCH   1  15
ATOM     15  C   UNL     1       5.744 -12.575   6.974  1.00  0.00     0.000 C 
BRANCH  15  16
ATOM     16  C   UNL     1       4.495 -13.006   6.187  1.00  0.00     0.000 C 
BRANCH  16  17
ATOM     17  C   UNL     1       4.787 -13.210   4.690  1.00  0.00     0.000 C 
BRANCH  17  18
ATOM     18  C   UNL     1       4.066 -14.436   4.110  1.00  0.00    -0.000 C 
BRANCH  18  19
ATOM     19  C   UNL     1       2.534 -14.284   4.133  1.00  0.00    -0.000 C 
BRANCH  19  20
ATOM     20  C   UNL     1       2.027 -13.264   3.103  1.00  0.00    -0.000 C 
BRANCH  20  21
ATOM     21  C   UNL     1       2.593 -13.514   1.694  1.00  0.00    -0.000 C 
BRANCH  21  22
ATOM     22  C   UNL     1       2.786 -12.213   0.901  1.00  0.00    -0.000 C 
BRANCH  22  23
ATOM     23  C   UNL     1       4.174 -11.588   1.119  1.00  0.00    -0.000 C 
BRANCH  23  24
ATOM     24  C   UNL     1       5.302 -12.633   1.129  1.00  0.00    -0.000 C 
BRANCH  24  25
ATOM     25  C   UNL     1       6.437 -12.321   0.132  1.00  0.00    -0.003 C 
ATOM     26  C   UNL     1       7.783 -12.886   0.585  1.00  0.00     0.004 C 
ENDBRANCH  24  25
ENDBRANCH  23  24
ENDBRANCH  22  23
ENDBRANCH  21  22
ENDBRANCH  20  21
ENDBRANCH  19  20
ENDBRANCH  18  19
ENDBRANCH  17  18
ENDBRANCH  16  17
ENDBRANCH  15  16
ENDBRANCH   1  15
TORSDOF 22
ENDMDL
MODEL 8
REMARK VINA RESULT:    -4.625      3.921      8.903
REMARK INTER + INTRA:         -13.712
REMARK INTER:                 -10.445
REMARK INTRA:                  -3.267
REMARK UNBOUND:                -3.140
REMARK SMILES CCCCCCCCCCCCCCCCCCCCCCCC(=O)[O-]
REMARK SMILES IDX 13 1 14 2 15 3 16 4 17 5 18 6 19 7 20 8 21 9 22 10 23 11
REMARK SMILES IDX 24 12 25 13 26 14 12 15 11 16 10 17 9 18 8 19 7 20 6 21 5 22
REMARK SMILES IDX 4 23 3 24 2 25 1 26
REMARK H PARENT
REMARK Flexibility Score: inf
ROOT
ATOM      1  C   UNL     1       4.609 -12.790   3.945  1.00  0.00     0.000 C 
ENDROOT
BRANCH   1   2
ATOM      2  C   UNL     1       4.452 -13.867   5.034  1.00  0.00     0.000 C 
BRANCH   2   3
ATOM      3  C   UNL     1       4.779 -13.398   6.464  1.00  0.00     0.000 C 
BRANCH   3   4
ATOM      4  C   UNL     1       5.978 -12.436   6.581  1.00  0.00     0.000 C 
BRANCH   4   5
ATOM      5  C   UNL     1       5.680 -11.163   7.401  1.00  0.00     0.000 C 
BRANCH   5   6
ATOM      6  C   UNL     1       4.444 -10.406   6.887  1.00  0.00     0.000 C 
BRANCH   6   7
ATOM      7  C   UNL     1       4.792  -9.012   6.339  1.00  0.00     0.000 C 
BRANCH   7   8
ATOM      8  C   UNL     1       3.734  -8.481   5.357  1.00  0.00     0.000 C 
BRANCH   8   9
ATOM      9  C   UNL     1       2.311  -8.966   5.712  1.00  0.00     0.000 C 
BRANCH   9  10
ATOM     10  C   UNL     1       1.569  -8.034   6.689  1.00  0.00     0.006 C 
BRANCH  10  11
ATOM     11  C   UNL     1       1.931  -6.549   6.537  1.00  0.00     0.053 C 
BRANCH  11  12
ATOM     12  C   UNL     1       2.514  -5.975   7.794  1.00  0.00     0.041 C 
ATOM     13  O   UNL     1       1.761  -5.629   8.744  1.00  0.00    -0.550 OA
ATOM     14  O   UNL     1       3.889  -5.831   7.923  1.00  0.00    -0.550 OA
ENDBRANCH  11  12
ENDBRANCH  10  11
ENDBRANCH   9  10
ENDBRANCH   8   9
ENDBRANCH   7   8
ENDBRANCH   6   7
ENDBRANCH   5   6
ENDBRANCH   4   5
ENDBRANCH   3   4
ENDBRANCH   2   3
ENDBRANCH   1   2
BRANCH   1  15
ATOM     15  C   UNL     1       3.324 -11.974   3.721  1.00  0.00     0.000 C 
BRANCH  15  16
ATOM     16  C   UNL     1       3.425 -11.041   2.503  1.00  0.00     0.000 C 
BRANCH  16  17
ATOM     17  C   UNL     1       2.399 -11.391   1.410  1.00  0.00     0.000 C 
BRANCH  17  18
ATOM     18  C   UNL     1       3.043 -12.068   0.190  1.00  0.00    -0.000 C 
BRANCH  18  19
ATOM     19  C   UNL     1       3.195 -13.589   0.373  1.00  0.00    -0.000 C 
BRANCH  19  20
ATOM     20  C   UNL     1       4.650 -14.058   0.218  1.00  0.00    -0.000 C 
BRANCH  20  21
ATOM     21  C   UNL     1       5.580 -12.944  -0.293  1.00  0.00    -0.000 C 
BRANCH  21  22
ATOM     22  C   UNL     1       6.685 -12.596   0.716  1.00  0.00    -0.000 C 
BRANCH  22  23
ATOM     23  C   UNL     1       7.502 -13.827   1.145  1.00  0.00    -0.000 C 
BRANCH  23  24
ATOM     24  C   UNL     1       8.881 -13.892   0.469  1.00  0.00    -0.000 C 
BRANCH  24  25
ATOM     25  C   UNL     1       9.030 -15.077  -0.508  1.00  0.00    -0.003 C 
ATOM     26  C   UNL     1       7.921 -16.114  -0.340  1.00  0.00     0.004 C 
ENDBRANCH  24  25
ENDBRANCH  23  24
ENDBRANCH  22  23
ENDBRANCH  21  22
ENDBRANCH  20  21
ENDBRANCH  19  20
ENDBRANCH  18  19
ENDBRANCH  17  18
ENDBRANCH  16  17
ENDBRANCH  15  16
ENDBRANCH   1  15
TORSDOF 22
ENDMDL
MODEL 9
REMARK VINA RESULT:    -4.616      3.741      8.495
REMARK INTER + INTRA:         -13.692
REMARK INTER:                 -10.440
REMARK INTRA:                  -3.252
REMARK UNBOUND:                -3.140
REMARK SMILES CCCCCCCCCCCCCCCCCCCCCCCC(=O)[O-]
REMARK SMILES IDX 13 1 14 2 15 3 16 4 17 5 18 6 19 7 20 8 21 9 22 10 23 11
REMARK SMILES IDX 24 12 25 13 26 14 12 15 11 16 10 17 9 18 8 19 7 20 6 21 5 22
REMARK SMILES IDX 4 23 3 24 2 25 1 26
REMARK H PARENT
REMARK Flexibility Score: inf
ROOT
ATOM      1  C   UNL     1       5.867 -12.368   6.722  1.00  0.00     0.000 C 
ENDROOT
BRANCH   1   2
ATOM      2  C   UNL     1       5.711 -10.930   7.252  1.00  0.00     0.000 C 
BRANCH   2   3
ATOM      3  C   UNL     1       4.367 -10.258   6.919  1.00  0.00     0.000 C 
BRANCH   3   4
ATOM      4  C   UNL     1       4.466  -8.991   6.045  1.00  0.00     0.000 C 
BRANCH   4   5
ATOM      5  C   UNL     1       3.331  -8.858   5.008  1.00  0.00     0.000 C 
BRANCH   5   6
ATOM      6  C   UNL     1       2.116  -9.740   5.345  1.00  0.00     0.000 C 
BRANCH   6   7
ATOM      7  C   UNL     1       0.906  -9.447   4.443  1.00  0.00     0.000 C 
BRANCH   7   8
ATOM      8  C   UNL     1      -0.216  -8.699   5.183  1.00  0.00     0.000 C 
BRANCH   8   9
ATOM      9  C   UNL     1      -0.116  -7.168   5.003  1.00  0.00     0.000 C 
BRANCH   9  10
ATOM     10  C   UNL     1       0.044  -6.401   6.330  1.00  0.00     0.006 C 
BRANCH  10  11
ATOM     11  C   UNL     1       1.422  -5.748   6.515  1.00  0.00     0.053 C 
BRANCH  11  12
ATOM     12  C   UNL     1       2.239  -6.434   7.569  1.00  0.00     0.041 C 
ATOM     13  O   UNL     1       1.821  -7.494   8.108  1.00  0.00    -0.550 OA
ATOM     14  O   UNL     1       3.468  -5.911   7.949  1.00  0.00    -0.550 OA
ENDBRANCH  11  12
ENDBRANCH  10  11
ENDBRANCH   9  10
ENDBRANCH   8   9
ENDBRANCH   7   8
ENDBRANCH   6   7
ENDBRANCH   5   6
ENDBRANCH   4   5
ENDBRANCH   3   4
ENDBRANCH   2   3
ENDBRANCH   1   2
BRANCH   1  15
ATOM     15  C   UNL     1       4.591 -12.898   6.046  1.00  0.00     0.000 C 
BRANCH  15  16
ATOM     16  C   UNL     1       4.886 -14.000   5.015  1.00  0.00     0.000 C 
BRANCH  16  17
ATOM     17  C   UNL     1       4.432 -13.613   3.597  1.00  0.00     0.000 C 
BRANCH  17  18
ATOM     18  C   UNL     1       4.099 -12.118   3.471  1.00  0.00    -0.000 C 
BRANCH  18  19
ATOM     19  C   UNL     1       3.138 -11.824   2.305  1.00  0.00    -0.000 C 
BRANCH  19  20
ATOM     20  C   UNL     1       3.879 -11.542   0.989  1.00  0.00    -0.000 C 
BRANCH  20  21
ATOM     21  C   UNL     1       3.842 -12.736   0.020  1.00  0.00    -0.000 C 
BRANCH  21  22
ATOM     22  C   UNL     1       5.244 -13.284  -0.288  1.00  0.00    -0.000 C 
BRANCH  22  23
ATOM     23  C   UNL     1       6.362 -12.310   0.118  1.00  0.00    -0.000 C 
BRANCH  23  24
ATOM     24  C   UNL     1       7.434 -12.968   1.002  1.00  0.00    -0.000 C 
BRANCH  24  25
ATOM     25  C   UNL     1       7.882 -14.354   0.493  1.00  0.00    -0.003 C 
ATOM     26  C   UNL     1       9.396 -14.444   0.304  1.00  0.00     0.004 C 
ENDBRANCH  24  25
ENDBRANCH  23  24
ENDBRANCH  22  23
ENDBRANCH  21  22
ENDBRANCH  20  21
ENDBRANCH  19  20
ENDBRANCH  18  19
ENDBRANCH  17  18
ENDBRANCH  16  17
ENDBRANCH  15  16
ENDBRANCH   1  15
TORSDOF 22
ENDMDL
