MODEL 1
REMARK VINA RESULT:    -2.851      0.000      0.000
REMARK INTER + INTRA:         -12.246
REMARK INTER:                  -7.186
REMARK INTRA:                  -5.061
REMARK UNBOUND:                -5.061
REMARK SMILES CCCCCCCCCCCCCCCCCCCCCCCCCCCC(=O)[O-]
REMARK SMILES IDX 15 1 16 2 17 3 18 4 19 5 20 6 21 7 22 8 23 9 24 10 25 11
REMARK SMILES IDX 26 12 27 13 28 14 29 15 30 16 14 17 13 18 12 19 11 20 10 21
REMARK SMILES IDX 9 22 8 23 7 24 6 25 5 26 4 27 3 28 2 29 1 30
REMARK H PARENT
REMARK Flexibility Score: inf
ROOT
ATOM      1  C   UNL     1     145.204 141.374 147.161  1.00  0.00     0.000 C 
ENDROOT
BRANCH   1   2
ATOM      2  C   UNL     1     145.072 140.915 148.624  1.00  0.00     0.000 C 
BRANCH   2   3
ATOM      3  C   UNL     1     143.877 139.984 148.914  1.00  0.00     0.000 C 
BRANCH   3   4
ATOM      4  C   UNL     1     142.835 140.545 149.898  1.00  0.00     0.000 C 
BRANCH   4   5
ATOM      5  C   UNL     1     143.396 141.669 150.781  1.00  0.00     0.000 C 
BRANCH   5   6
ATOM      6  C   UNL     1     142.272 142.597 151.266  1.00  0.00     0.000 C 
BRANCH   6   7
ATOM      7  C   UNL     1     140.885 142.126 150.802  1.00  0.00     0.000 C 
BRANCH   7   8
ATOM      8  C   UNL     1     139.876 142.054 151.958  1.00  0.00     0.000 C 
BRANCH   8   9
ATOM      9  C   UNL     1     140.595 142.052 153.315  1.00  0.00     0.000 C 
BRANCH   9  10
ATOM     10  C   UNL     1     139.905 142.964 154.344  1.00  0.00     0.000 C 
BRANCH  10  11
ATOM     11  C   UNL     1     140.849 144.050 154.888  1.00  0.00     0.000 C 
BRANCH  11  12
ATOM     12  C   UNL     1     140.574 145.433 154.277  1.00  0.00     0.006 C 
BRANCH  12  13
ATOM     13  C   UNL     1     141.815 146.049 153.618  1.00  0.00     0.053 C 
BRANCH  13  14
ATOM     14  C   UNL     1     141.659 146.079 152.131  1.00  0.00     0.041 C 
ATOM     15  O   UNL     1     142.604 146.478 151.401  1.00  0.00    -0.550 OA
ATOM     16  O   UNL     1     140.455 145.695 151.552  1.00  0.00    -0.550 OA
ENDBRANCH  13  14
ENDBRANCH  12  13
ENDBRANCH  11  12
ENDBRANCH  10  11
ENDBRANCH   9  10
ENDBRANCH   8   9
ENDBRANCH   7   8
ENDBRANCH   6   7
ENDBRANCH   5   6
ENDBRANCH   4   5
ENDBRANCH   3   4
ENDBRANCH   2   3
ENDBRANCH   1   2
BRANCH   1  17
ATOM     17  C   UNL     1     144.909 140.253 146.154  1.00  0.00     0.000 C 
BRANCH  17  18
ATOM     18  C   UNL     1     143.821 140.680 145.160  1.00  0.00     0.000 C 
BRANCH  18  19
ATOM     19  C   UNL     1     142.471 139.998 145.440  1.00  0.00     0.000 C 
BRANCH  19  20
ATOM     20  C   UNL     1     141.306 141.002 145.488  1.00  0.00     0.000 C 
BRANCH  20  21
ATOM     21  C   UNL     1     141.166 141.695 146.856  1.00  0.00     0.000 C 
BRANCH  21  22
ATOM     22  C   UNL     1     141.322 143.227 146.832  1.00  0.00    -0.000 C 
BRANCH  22  23
ATOM     23  C   UNL     1     142.494 143.727 147.697  1.00  0.00    -0.000 C 
BRANCH  23  24
ATOM     24  C   UNL     1     143.543 144.505 146.874  1.00  0.00    -0.000 C 
BRANCH  24  25
ATOM     25  C   UNL     1     143.097 144.813 145.434  1.00  0.00    -0.000 C 
BRANCH  25  26
ATOM     26  C   UNL     1     143.969 144.117 144.379  1.00  0.00    -0.000 C 
BRANCH  26  27
ATOM     27  C   UNL     1     145.458 144.228 144.729  1.00  0.00    -0.000 C 
BRANCH  27  28
ATOM     28  C   UNL     1     146.357 144.223 143.481  1.00  0.00    -0.000 C 
BRANCH  28  29
ATOM     29  C   UNL     1     146.708 142.804 143.010  1.00  0.00    -0.003 C 
ATOM     30  C   UNL     1     147.382 142.006 144.123  1.00  0.00     0.004 C 
ENDBRANCH  28  29
ENDBRANCH  27  28
ENDBRANCH  26  27
ENDBRANCH  25  26
ENDBRANCH  24  25
ENDBRANCH  23  24
ENDBRANCH  22  23
ENDBRANCH  21  22
ENDBRANCH  20  21
ENDBRANCH  19  20
ENDBRANCH  18  19
ENDBRANCH  17  18
ENDBRANCH   1  17
TORSDOF 26
ENDMDL
MODEL 2
REMARK VINA RESULT:    -2.707      2.667      4.526
REMARK INTER + INTRA:         -11.883
REMARK INTER:                  -7.326
REMARK INTRA:                  -4.557
REMARK UNBOUND:                -5.061
REMARK SMILES CCCCCCCCCCCCCCCCCCCCCCCCCCCC(=O)[O-]
REMARK SMILES IDX 15 1 16 2 17 3 18 4 19 5 20 6 21 7 22 8 23 9 24 10 25 11
REMARK SMILES IDX 26 12 27 13 28 14 29 15 30 16 14 17 13 18 12 19 11 20 10 21
REMARK SMILES IDX 9 22 8 23 7 24 6 25 5 26 4 27 3 28 2 29 1 30
REMARK H PARENT
REMARK Flexibility Score: inf
ROOT
ATOM      1  C   UNL     1     141.364 142.095 150.430  1.00  0.00     0.000 C 
ENDROOT
BRANCH   1   2
ATOM      2  C   UNL     1     140.621 143.077 151.353  1.00  0.00     0.000 C 
BRANCH   2   3
ATOM      3  C   UNL     1     141.519 143.884 152.313  1.00  0.00     0.000 C 
BRANCH   3   4
ATOM      4  C   UNL     1     141.935 145.276 151.803  1.00  0.00     0.000 C 
BRANCH   4   5
ATOM      5  C   UNL     1     143.451 145.403 151.591  1.00  0.00     0.000 C 
BRANCH   5   6
ATOM      6  C   UNL     1     144.160 144.075 151.894  1.00  0.00     0.000 C 
BRANCH   6   7
ATOM      7  C   UNL     1     145.098 144.179 153.108  1.00  0.00     0.000 C 
BRANCH   7   8
ATOM      8  C   UNL     1     144.707 143.208 154.232  1.00  0.00     0.000 C 
BRANCH   8   9
ATOM      9  C   UNL     1     145.231 143.700 155.589  1.00  0.00     0.000 C 
BRANCH   9  10
ATOM     10  C   UNL     1     144.128 144.355 156.439  1.00  0.00     0.000 C 
BRANCH  10  11
ATOM     11  C   UNL     1     142.773 144.391 155.711  1.00  0.00     0.000 C 
BRANCH  11  12
ATOM     12  C   UNL     1     142.252 145.821 155.501  1.00  0.00     0.006 C 
BRANCH  12  13
ATOM     13  C   UNL     1     143.201 146.888 156.064  1.00  0.00     0.053 C 
BRANCH  13  14
ATOM     14  C   UNL     1     142.553 147.622 157.194  1.00  0.00     0.041 C 
ATOM     15  O   UNL     1     141.898 148.675 156.974  1.00  0.00    -0.550 OA
ATOM     16  O   UNL     1     142.699 147.161 158.496  1.00  0.00    -0.550 OA
ENDBRANCH  13  14
ENDBRANCH  12  13
ENDBRANCH  11  12
ENDBRANCH  10  11
ENDBRANCH   9  10
ENDBRANCH   8   9
ENDBRANCH   7   8
ENDBRANCH   6   7
ENDBRANCH   5   6
ENDBRANCH   4   5
ENDBRANCH   3   4
ENDBRANCH   2   3
ENDBRANCH   1   2
BRANCH   1  17
ATOM     17  C   UNL     1     141.623 142.671 149.030  1.00  0.00     0.000 C 
BRANCH  17  18
ATOM     18  C   UNL     1     141.539 141.573 147.961  1.00  0.00     0.000 C 
BRANCH  18  19
ATOM     19  C   UNL     1     140.863 142.063 146.668  1.00  0.00     0.000 C 
BRANCH  19  20
ATOM     20  C   UNL     1     141.165 141.150 145.468  1.00  0.00     0.000 C 
BRANCH  20  21
ATOM     21  C   UNL     1     142.348 140.196 145.719  1.00  0.00     0.000 C 
BRANCH  21  22
ATOM     22  C   UNL     1     143.490 140.287 144.691  1.00  0.00    -0.000 C 
BRANCH  22  23
ATOM     23  C   UNL     1     144.883 140.373 145.343  1.00  0.00    -0.000 C 
BRANCH  23  24
ATOM     24  C   UNL     1     144.809 140.414 146.884  1.00  0.00    -0.000 C 
BRANCH  24  25
ATOM     25  C   UNL     1     145.271 141.750 147.492  1.00  0.00    -0.000 C 
BRANCH  25  26
ATOM     26  C   UNL     1     145.383 142.872 146.450  1.00  0.00    -0.000 C 
BRANCH  26  27
ATOM     27  C   UNL     1     144.180 143.821 146.526  1.00  0.00    -0.000 C 
BRANCH  27  28
ATOM     28  C   UNL     1     143.532 144.059 145.152  1.00  0.00    -0.000 C 
BRANCH  28  29
ATOM     29  C   UNL     1     142.386 145.080 145.206  1.00  0.00    -0.003 C 
ATOM     30  C   UNL     1     142.145 145.561 146.634  1.00  0.00     0.004 C 
ENDBRANCH  28  29
ENDBRANCH  27  28
ENDBRANCH  26  27
ENDBRANCH  25  26
ENDBRANCH  24  25
ENDBRANCH  23  24
ENDBRANCH  22  23
ENDBRANCH  21  22
ENDBRANCH  20  21
ENDBRANCH  19  20
ENDBRANCH  18  19
ENDBRANCH  17  18
ENDBRANCH   1  17
TORSDOF 26
ENDMDL
MODEL 3
REMARK VINA RESULT:    -2.686     10.353     14.692
REMARK INTER + INTRA:         -11.829
REMARK INTER:                  -7.058
REMARK INTRA:                  -4.771
REMARK UNBOUND:                -5.061
REMARK SMILES CCCCCCCCCCCCCCCCCCCCCCCCCCCC(=O)[O-]
REMARK SMILES IDX 15 1 16 2 17 3 18 4 19 5 20 6 21 7 22 8 23 9 24 10 25 11
REMARK SMILES IDX 26 12 27 13 28 14 29 15 30 16 14 17 13 18 12 19 11 20 10 21
REMARK SMILES IDX 9 22 8 23 7 24 6 25 5 26 4 27 3 28 2 29 1 30
REMARK H PARENT
REMARK Flexibility Score: inf
ROOT
ATOM      1  C   UNL     1     144.526 152.578 151.886  1.00  0.00     0.000 C 
ENDROOT
BRANCH   1   2
ATOM      2  C   UNL     1     145.202 153.890 152.325  1.00  0.00     0.000 C 
BRANCH   2   3
ATOM      3  C   UNL     1     144.706 155.157 151.600  1.00  0.00     0.000 C 
BRANCH   3   4
ATOM      4  C   UNL     1     144.057 156.217 152.509  1.00  0.00     0.000 C 
BRANCH   4   5
ATOM      5  C   UNL     1     143.221 155.600 153.640  1.00  0.00     0.000 C 
BRANCH   5   6
ATOM      6  C   UNL     1     141.837 156.261 153.722  1.00  0.00     0.000 C 
BRANCH   6   7
ATOM      7  C   UNL     1     141.402 156.873 152.381  1.00  0.00     0.000 C 
BRANCH   7   8
ATOM      8  C   UNL     1     140.852 158.298 152.542  1.00  0.00     0.000 C 
BRANCH   8   9
ATOM      9  C   UNL     1     141.656 159.082 153.590  1.00  0.00     0.000 C 
BRANCH   9  10
ATOM     10  C   UNL     1     142.791 159.907 152.958  1.00  0.00     0.000 C 
BRANCH  10  11
ATOM     11  C   UNL     1     144.123 159.740 153.709  1.00  0.00     0.000 C 
BRANCH  11  12
ATOM     12  C   UNL     1     143.952 159.049 155.071  1.00  0.00     0.006 C 
BRANCH  12  13
ATOM     13  C   UNL     1     145.147 158.160 155.440  1.00  0.00     0.053 C 
BRANCH  13  14
ATOM     14  C   UNL     1     144.913 157.486 156.755  1.00  0.00     0.041 C 
ATOM     15  O   UNL     1     143.911 156.742 156.916  1.00  0.00    -0.550 OA
ATOM     16  O   UNL     1     145.786 157.707 157.813  1.00  0.00    -0.550 OA
ENDBRANCH  13  14
ENDBRANCH  12  13
ENDBRANCH  11  12
ENDBRANCH  10  11
ENDBRANCH   9  10
ENDBRANCH   8   9
ENDBRANCH   7   8
ENDBRANCH   6   7
ENDBRANCH   5   6
ENDBRANCH   4   5
ENDBRANCH   3   4
ENDBRANCH   2   3
ENDBRANCH   1   2
BRANCH   1  17
ATOM     17  C   UNL     1     143.134 152.799 151.274  1.00  0.00     0.000 C 
BRANCH  17  18
ATOM     18  C   UNL     1     142.087 151.908 151.953  1.00  0.00     0.000 C 
BRANCH  18  19
ATOM     19  C   UNL     1     141.069 152.719 152.773  1.00  0.00     0.000 C 
BRANCH  19  20
ATOM     20  C   UNL     1     141.211 152.480 154.286  1.00  0.00     0.000 C 
BRANCH  20  21
ATOM     21  C   UNL     1     139.978 152.938 155.087  1.00  0.00     0.000 C 
BRANCH  21  22
ATOM     22  C   UNL     1     140.286 153.804 156.322  1.00  0.00    -0.000 C 
BRANCH  22  23
ATOM     23  C   UNL     1     141.792 153.904 156.629  1.00  0.00    -0.000 C 
BRANCH  23  24
ATOM     24  C   UNL     1     142.142 153.377 158.037  1.00  0.00    -0.000 C 
BRANCH  24  25
ATOM     25  C   UNL     1     142.522 151.886 158.064  1.00  0.00    -0.000 C 
BRANCH  25  26
ATOM     26  C   UNL     1     141.882 151.129 159.236  1.00  0.00    -0.000 C 
BRANCH  26  27
ATOM     27  C   UNL     1     140.846 150.112 158.740  1.00  0.00    -0.000 C 
BRANCH  27  28
ATOM     28  C   UNL     1     140.604 150.212 157.224  1.00  0.00    -0.000 C 
BRANCH  28  29
ATOM     29  C   UNL     1     140.746 148.859 156.511  1.00  0.00    -0.003 C 
ATOM     30  C   UNL     1     142.018 148.138 156.947  1.00  0.00     0.004 C 
ENDBRANCH  28  29
ENDBRANCH  27  28
ENDBRANCH  26  27
ENDBRANCH  25  26
ENDBRANCH  24  25
ENDBRANCH  23  24
ENDBRANCH  22  23
ENDBRANCH  21  22
ENDBRANCH  20  21
ENDBRANCH  19  20
ENDBRANCH  18  19
ENDBRANCH  17  18
ENDBRANCH   1  17
TORSDOF 26
ENDMDL
MODEL 4
REMARK VINA RESULT:    -2.654      2.237      3.901
REMARK INTER + INTRA:         -11.748
REMARK INTER:                  -6.468
REMARK INTRA:                  -5.280
REMARK UNBOUND:                -5.061
REMARK SMILES CCCCCCCCCCCCCCCCCCCCCCCCCCCC(=O)[O-]
REMARK SMILES IDX 15 1 16 2 17 3 18 4 19 5 20 6 21 7 22 8 23 9 24 10 25 11
REMARK SMILES IDX 26 12 27 13 28 14 29 15 30 16 14 17 13 18 12 19 11 20 10 21
REMARK SMILES IDX 9 22 8 23 7 24 6 25 5 26 4 27 3 28 2 29 1 30
REMARK H PARENT
REMARK Flexibility Score: inf
ROOT
ATOM      1  C   UNL     1     143.988 141.242 148.997  1.00  0.00     0.000 C 
ENDROOT
BRANCH   1   2
ATOM      2  C   UNL     1     145.251 140.619 149.619  1.00  0.00     0.000 C 
BRANCH   2   3
ATOM      3  C   UNL     1     146.555 141.408 149.384  1.00  0.00     0.000 C 
BRANCH   3   4
ATOM      4  C   UNL     1     147.199 141.997 150.652  1.00  0.00     0.000 C 
BRANCH   4   5
ATOM      5  C   UNL     1     146.204 142.793 151.510  1.00  0.00     0.000 C 
BRANCH   5   6
ATOM      6  C   UNL     1     146.461 142.561 153.006  1.00  0.00     0.000 C 
BRANCH   6   7
ATOM      7  C   UNL     1     145.254 141.923 153.713  1.00  0.00     0.000 C 
BRANCH   7   8
ATOM      8  C   UNL     1     145.064 140.449 153.327  1.00  0.00     0.000 C 
BRANCH   8   9
ATOM      9  C   UNL     1     143.627 140.187 152.853  1.00  0.00     0.000 C 
BRANCH   9  10
ATOM     10  C   UNL     1     142.801 141.481 152.747  1.00  0.00     0.000 C 
BRANCH  10  11
ATOM     11  C   UNL     1     141.574 141.469 153.674  1.00  0.00     0.000 C 
BRANCH  11  12
ATOM     12  C   UNL     1     141.055 142.880 153.988  1.00  0.00     0.006 C 
BRANCH  12  13
ATOM     13  C   UNL     1     142.068 143.978 153.632  1.00  0.00     0.053 C 
BRANCH  13  14
ATOM     14  C   UNL     1     142.172 144.975 154.742  1.00  0.00     0.041 C 
ATOM     15  O   UNL     1     141.332 144.971 155.680  1.00  0.00    -0.550 OA
ATOM     16  O   UNL     1     143.180 145.931 154.723  1.00  0.00    -0.550 OA
ENDBRANCH  13  14
ENDBRANCH  12  13
ENDBRANCH  11  12
ENDBRANCH  10  11
ENDBRANCH   9  10
ENDBRANCH   8   9
ENDBRANCH   7   8
ENDBRANCH   6   7
ENDBRANCH   5   6
ENDBRANCH   4   5
ENDBRANCH   3   4
ENDBRANCH   2   3
ENDBRANCH   1   2
BRANCH   1  17
ATOM     17  C   UNL     1     142.760 140.325 149.091  1.00  0.00     0.000 C 
BRANCH  17  18
ATOM     18  C   UNL     1     141.522 141.109 149.544  1.00  0.00     0.000 C 
BRANCH  18  19
ATOM     19  C   UNL     1     141.464 142.519 148.931  1.00  0.00     0.000 C 
BRANCH  19  20
ATOM     20  C   UNL     1     141.514 143.624 150.000  1.00  0.00     0.000 C 
BRANCH  20  21
ATOM     21  C   UNL     1     142.737 144.548 149.853  1.00  0.00     0.000 C 
BRANCH  21  22
ATOM     22  C   UNL     1     142.506 145.808 149.000  1.00  0.00    -0.000 C 
BRANCH  22  23
ATOM     23  C   UNL     1     143.620 146.048 147.964  1.00  0.00    -0.000 C 
BRANCH  23  24
ATOM     24  C   UNL     1     144.848 145.144 148.201  1.00  0.00    -0.000 C 
BRANCH  24  25
ATOM     25  C   UNL     1     144.991 144.010 147.171  1.00  0.00    -0.000 C 
BRANCH  25  26
ATOM     26  C   UNL     1     144.069 144.189 145.956  1.00  0.00    -0.000 C 
BRANCH  26  27
ATOM     27  C   UNL     1     142.957 143.132 145.944  1.00  0.00    -0.000 C 
BRANCH  27  28
ATOM     28  C   UNL     1     143.315 141.914 145.076  1.00  0.00    -0.000 C 
BRANCH  28  29
ATOM     29  C   UNL     1     142.320 140.756 145.241  1.00  0.00    -0.003 C 
ATOM     30  C   UNL     1     140.904 141.275 145.473  1.00  0.00     0.004 C 
ENDBRANCH  28  29
ENDBRANCH  27  28
ENDBRANCH  26  27
ENDBRANCH  25  26
ENDBRANCH  24  25
ENDBRANCH  23  24
ENDBRANCH  22  23
ENDBRANCH  21  22
ENDBRANCH  20  21
ENDBRANCH  19  20
ENDBRANCH  18  19
ENDBRANCH  17  18
ENDBRANCH   1  17
TORSDOF 26
ENDMDL
MODEL 5
REMARK VINA RESULT:    -2.628      3.350      8.743
REMARK INTER + INTRA:         -11.683
REMARK INTER:                  -7.408
REMARK INTRA:                  -4.275
REMARK UNBOUND:                -5.061
REMARK SMILES CCCCCCCCCCCCCCCCCCCCCCCCCCCC(=O)[O-]
REMARK SMILES IDX 15 1 16 2 17 3 18 4 19 5 20 6 21 7 22 8 23 9 24 10 25 11
REMARK SMILES IDX 26 12 27 13 28 14 29 15 30 16 14 17 13 18 12 19 11 20 10 21
REMARK SMILES IDX 9 22 8 23 7 24 6 25 5 26 4 27 3 28 2 29 1 30
REMARK H PARENT
REMARK Flexibility Score: inf
ROOT
ATOM      1  C   UNL     1     143.280 145.044 147.585  1.00  0.00     0.000 C 
ENDROOT
BRANCH   1   2
ATOM      2  C   UNL     1     142.210 144.938 146.484  1.00  0.00     0.000 C 
BRANCH   2   3
ATOM      3  C   UNL     1     142.138 143.574 145.768  1.00  0.00     0.000 C 
BRANCH   3   4
ATOM      4  C   UNL     1     141.129 142.576 146.365  1.00  0.00     0.000 C 
BRANCH   4   5
ATOM      5  C   UNL     1     140.996 141.294 145.531  1.00  0.00     0.000 C 
BRANCH   5   6
ATOM      6  C   UNL     1     142.377 140.734 145.161  1.00  0.00     0.000 C 
BRANCH   6   7
ATOM      7  C   UNL     1     143.041 139.996 146.335  1.00  0.00     0.000 C 
BRANCH   7   8
ATOM      8  C   UNL     1     144.547 140.282 146.427  1.00  0.00     0.000 C 
BRANCH   8   9
ATOM      9  C   UNL     1     144.810 141.620 147.135  1.00  0.00     0.000 C 
BRANCH   9  10
ATOM     10  C   UNL     1     145.799 142.507 146.359  1.00  0.00     0.000 C 
BRANCH  10  11
ATOM     11  C   UNL     1     146.576 141.720 145.290  1.00  0.00     0.000 C 
BRANCH  11  12
ATOM     12  C   UNL     1     146.224 142.158 143.860  1.00  0.00     0.006 C 
BRANCH  12  13
ATOM     13  C   UNL     1     147.433 142.126 142.914  1.00  0.00     0.053 C 
BRANCH  13  14
ATOM     14  C   UNL     1     147.300 143.177 141.859  1.00  0.00     0.041 C 
ATOM     15  O   UNL     1     147.765 144.331 142.051  1.00  0.00    -0.550 OA
ATOM     16  O   UNL     1     146.634 142.890 140.674  1.00  0.00    -0.550 OA
ENDBRANCH  13  14
ENDBRANCH  12  13
ENDBRANCH  11  12
ENDBRANCH  10  11
ENDBRANCH   9  10
ENDBRANCH   8   9
ENDBRANCH   7   8
ENDBRANCH   6   7
ENDBRANCH   5   6
ENDBRANCH   4   5
ENDBRANCH   3   4
ENDBRANCH   2   3
ENDBRANCH   1   2
BRANCH   1  17
ATOM     17  C   UNL     1     142.689 144.963 149.001  1.00  0.00     0.000 C 
BRANCH  17  18
ATOM     18  C   UNL     1     142.780 143.534 149.553  1.00  0.00     0.000 C 
BRANCH  18  19
ATOM     19  C   UNL     1     141.397 142.936 149.863  1.00  0.00     0.000 C 
BRANCH  19  20
ATOM     20  C   UNL     1     141.487 141.491 150.383  1.00  0.00     0.000 C 
BRANCH  20  21
ATOM     21  C   UNL     1     142.786 140.779 149.961  1.00  0.00     0.000 C 
BRANCH  21  22
ATOM     22  C   UNL     1     143.662 140.275 151.122  1.00  0.00    -0.000 C 
BRANCH  22  23
ATOM     23  C   UNL     1     143.284 140.899 152.478  1.00  0.00    -0.000 C 
BRANCH  23  24
ATOM     24  C   UNL     1     144.290 141.980 152.929  1.00  0.00    -0.000 C 
BRANCH  24  25
ATOM     25  C   UNL     1     143.628 143.298 153.369  1.00  0.00    -0.000 C 
BRANCH  25  26
ATOM     26  C   UNL     1     142.114 143.161 153.583  1.00  0.00    -0.000 C 
BRANCH  26  27
ATOM     27  C   UNL     1     141.654 143.961 154.809  1.00  0.00    -0.000 C 
BRANCH  27  28
ATOM     28  C   UNL     1     142.835 144.489 155.643  1.00  0.00    -0.000 C 
BRANCH  28  29
ATOM     29  C   UNL     1     142.731 145.994 155.931  1.00  0.00    -0.003 C 
ATOM     30  C   UNL     1     143.402 146.812 154.832  1.00  0.00     0.004 C 
ENDBRANCH  28  29
ENDBRANCH  27  28
ENDBRANCH  26  27
ENDBRANCH  25  26
ENDBRANCH  24  25
ENDBRANCH  23  24
ENDBRANCH  22  23
ENDBRANCH  21  22
ENDBRANCH  20  21
ENDBRANCH  19  20
ENDBRANCH  18  19
ENDBRANCH  17  18
ENDBRANCH   1  17
TORSDOF 26
ENDMDL
MODEL 6
REMARK VINA RESULT:    -2.628      4.687      8.433
REMARK INTER + INTRA:         -11.683
REMARK INTER:                  -6.577
REMARK INTRA:                  -5.105
REMARK UNBOUND:                -5.061
REMARK SMILES CCCCCCCCCCCCCCCCCCCCCCCCCCCC(=O)[O-]
REMARK SMILES IDX 15 1 16 2 17 3 18 4 19 5 20 6 21 7 22 8 23 9 24 10 25 11
REMARK SMILES IDX 26 12 27 13 28 14 29 15 30 16 14 17 13 18 12 19 11 20 10 21
REMARK SMILES IDX 9 22 8 23 7 24 6 25 5 26 4 27 3 28 2 29 1 30
REMARK H PARENT
REMARK Flexibility Score: inf
ROOT
ATOM      1  C   UNL     1     142.826 143.575 148.015  1.00  0.00     0.000 C 
ENDROOT
BRANCH   1   2
ATOM      2  C   UNL     1     141.925 142.335 148.160  1.00  0.00     0.000 C 
BRANCH   2   3
ATOM      3  C   UNL     1     140.969 142.078 146.977  1.00  0.00     0.000 C 
BRANCH   3   4
ATOM      4  C   UNL     1     141.658 141.773 145.635  1.00  0.00     0.000 C 
BRANCH   4   5
ATOM      5  C   UNL     1     142.181 140.332 145.548  1.00  0.00     0.000 C 
BRANCH   5   6
ATOM      6  C   UNL     1     143.561 140.289 144.874  1.00  0.00     0.000 C 
BRANCH   6   7
ATOM      7  C   UNL     1     144.706 140.189 145.895  1.00  0.00     0.000 C 
BRANCH   7   8
ATOM      8  C   UNL     1     146.085 140.141 145.221  1.00  0.00     0.000 C 
BRANCH   8   9
ATOM      9  C   UNL     1     146.785 141.505 145.304  1.00  0.00     0.000 C 
BRANCH   9  10
ATOM     10  C   UNL     1     148.194 141.478 144.686  1.00  0.00     0.000 C 
BRANCH  10  11
ATOM     11  C   UNL     1     148.332 140.406 143.592  1.00  0.00     0.000 C 
BRANCH  11  12
ATOM     12  C   UNL     1     148.915 140.964 142.286  1.00  0.00     0.006 C 
BRANCH  12  13
ATOM     13  C   UNL     1     149.293 142.448 142.390  1.00  0.00     0.053 C 
BRANCH  13  14
ATOM     14  C   UNL     1     149.231 143.101 141.046  1.00  0.00     0.041 C 
ATOM     15  O   UNL     1     148.312 142.804 140.238  1.00  0.00    -0.550 OA
ATOM     16  O   UNL     1     150.208 144.016 140.673  1.00  0.00    -0.550 OA
ENDBRANCH  13  14
ENDBRANCH  12  13
ENDBRANCH  11  12
ENDBRANCH  10  11
ENDBRANCH   9  10
ENDBRANCH   8   9
ENDBRANCH   7   8
ENDBRANCH   6   7
ENDBRANCH   5   6
ENDBRANCH   4   5
ENDBRANCH   3   4
ENDBRANCH   2   3
ENDBRANCH   1   2
BRANCH   1  17
ATOM     17  C   UNL     1     142.068 144.893 148.234  1.00  0.00     0.000 C 
BRANCH  17  18
ATOM     18  C   UNL     1     141.784 145.592 146.897  1.00  0.00     0.000 C 
BRANCH  18  19
ATOM     19  C   UNL     1     143.058 145.790 146.057  1.00  0.00     0.000 C 
BRANCH  19  20
ATOM     20  C   UNL     1     143.014 145.008 144.733  1.00  0.00     0.000 C 
BRANCH  20  21
ATOM     21  C   UNL     1     144.249 144.114 144.521  1.00  0.00     0.000 C 
BRANCH  21  22
ATOM     22  C   UNL     1     144.318 143.409 143.154  1.00  0.00    -0.000 C 
BRANCH  22  23
ATOM     23  C   UNL     1     145.677 143.586 142.452  1.00  0.00    -0.000 C 
BRANCH  23  24
ATOM     24  C   UNL     1     146.417 144.860 142.915  1.00  0.00    -0.000 C 
BRANCH  24  25
ATOM     25  C   UNL     1     146.791 145.812 141.766  1.00  0.00    -0.000 C 
BRANCH  25  26
ATOM     26  C   UNL     1     146.438 147.276 142.066  1.00  0.00    -0.000 C 
BRANCH  26  27
ATOM     27  C   UNL     1     145.231 147.373 143.008  1.00  0.00    -0.000 C 
BRANCH  27  28
ATOM     28  C   UNL     1     143.948 147.803 142.277  1.00  0.00    -0.000 C 
BRANCH  28  29
ATOM     29  C   UNL     1     143.279 146.643 141.524  1.00  0.00    -0.003 C 
ATOM     30  C   UNL     1     141.759 146.734 141.613  1.00  0.00     0.004 C 
ENDBRANCH  28  29
ENDBRANCH  27  28
ENDBRANCH  26  27
ENDBRANCH  25  26
ENDBRANCH  24  25
ENDBRANCH  23  24
ENDBRANCH  22  23
ENDBRANCH  21  22
ENDBRANCH  20  21
ENDBRANCH  19  20
ENDBRANCH  18  19
ENDBRANCH  17  18
ENDBRANCH   1  17
TORSDOF 26
ENDMDL
MODEL 7
REMARK VINA RESULT:    -2.622      5.135      9.371
REMARK INTER + INTRA:         -11.668
REMARK INTER:                  -6.414
REMARK INTRA:                  -5.254
REMARK UNBOUND:                -5.061
REMARK SMILES CCCCCCCCCCCCCCCCCCCCCCCCCCCC(=O)[O-]
REMARK SMILES IDX 15 1 16 2 17 3 18 4 19 5 20 6 21 7 22 8 23 9 24 10 25 11
REMARK SMILES IDX 26 12 27 13 28 14 29 15 30 16 14 17 13 18 12 19 11 20 10 21
REMARK SMILES IDX 9 22 8 23 7 24 6 25 5 26 4 27 3 28 2 29 1 30
REMARK H PARENT
REMARK Flexibility Score: inf
ROOT
ATOM      1  C   UNL     1     143.659 147.019 145.062  1.00  0.00     0.000 C 
ENDROOT
BRANCH   1   2
ATOM      2  C   UNL     1     145.032 146.956 144.369  1.00  0.00     0.000 C 
BRANCH   2   3
ATOM      3  C   UNL     1     146.248 147.064 145.311  1.00  0.00     0.000 C 
BRANCH   3   4
ATOM      4  C   UNL     1     146.186 146.169 146.563  1.00  0.00     0.000 C 
BRANCH   4   5
ATOM      5  C   UNL     1     146.257 144.672 146.228  1.00  0.00     0.000 C 
BRANCH   5   6
ATOM      6  C   UNL     1     147.565 144.335 145.498  1.00  0.00     0.000 C 
BRANCH   6   7
ATOM      7  C   UNL     1     148.139 142.975 145.927  1.00  0.00     0.000 C 
BRANCH   7   8
ATOM      8  C   UNL     1     148.209 141.977 144.762  1.00  0.00     0.000 C 
BRANCH   8   9
ATOM      9  C   UNL     1     148.846 142.623 143.523  1.00  0.00     0.000 C 
BRANCH   9  10
ATOM     10  C   UNL     1     148.450 141.905 142.221  1.00  0.00     0.000 C 
BRANCH  10  11
ATOM     11  C   UNL     1     149.262 142.399 141.012  1.00  0.00     0.000 C 
BRANCH  11  12
ATOM     12  C   UNL     1     150.401 141.439 140.632  1.00  0.00     0.006 C 
BRANCH  12  13
ATOM     13  C   UNL     1     151.769 141.909 141.144  1.00  0.00     0.053 C 
BRANCH  13  14
ATOM     14  C   UNL     1     152.277 140.984 142.205  1.00  0.00     0.041 C 
ATOM     15  O   UNL     1     153.397 141.190 142.743  1.00  0.00    -0.550 OA
ATOM     16  O   UNL     1     151.528 139.875 142.576  1.00  0.00    -0.550 OA
ENDBRANCH  13  14
ENDBRANCH  12  13
ENDBRANCH  11  12
ENDBRANCH  10  11
ENDBRANCH   9  10
ENDBRANCH   8   9
ENDBRANCH   7   8
ENDBRANCH   6   7
ENDBRANCH   5   6
ENDBRANCH   4   5
ENDBRANCH   3   4
ENDBRANCH   2   3
ENDBRANCH   1   2
BRANCH   1  17
ATOM     17  C   UNL     1     142.632 146.062 144.441  1.00  0.00     0.000 C 
BRANCH  17  18
ATOM     18  C   UNL     1     141.870 145.292 145.529  1.00  0.00     0.000 C 
BRANCH  18  19
ATOM     19  C   UNL     1     142.519 145.441 146.916  1.00  0.00     0.000 C 
BRANCH  19  20
ATOM     20  C   UNL     1     142.689 144.090 147.631  1.00  0.00     0.000 C 
BRANCH  20  21
ATOM     21  C   UNL     1     141.353 143.362 147.868  1.00  0.00     0.000 C 
BRANCH  21  22
ATOM     22  C   UNL     1     141.337 141.876 147.465  1.00  0.00    -0.000 C 
BRANCH  22  23
ATOM     23  C   UNL     1     140.897 141.651 146.007  1.00  0.00    -0.000 C 
BRANCH  23  24
ATOM     24  C   UNL     1     141.977 140.935 145.170  1.00  0.00    -0.000 C 
BRANCH  24  25
ATOM     25  C   UNL     1     143.285 140.673 145.938  1.00  0.00    -0.000 C 
BRANCH  25  26
ATOM     26  C   UNL     1     144.428 141.602 145.503  1.00  0.00    -0.000 C 
BRANCH  26  27
ATOM     27  C   UNL     1     143.967 142.572 144.407  1.00  0.00    -0.000 C 
BRANCH  27  28
ATOM     28  C   UNL     1     144.994 142.705 143.271  1.00  0.00    -0.000 C 
BRANCH  28  29
ATOM     29  C   UNL     1     144.726 143.919 142.368  1.00  0.00    -0.003 C 
ATOM     30  C   UNL     1     146.031 144.557 141.903  1.00  0.00     0.004 C 
ENDBRANCH  28  29
ENDBRANCH  27  28
ENDBRANCH  26  27
ENDBRANCH  25  26
ENDBRANCH  24  25
ENDBRANCH  23  24
ENDBRANCH  22  23
ENDBRANCH  21  22
ENDBRANCH  20  21
ENDBRANCH  19  20
ENDBRANCH  18  19
ENDBRANCH  17  18
ENDBRANCH   1  17
TORSDOF 26
ENDMDL
MODEL 8
REMARK VINA RESULT:    -2.594      2.569      6.446
REMARK INTER + INTRA:         -11.597
REMARK INTER:                  -6.194
REMARK INTRA:                  -5.403
REMARK UNBOUND:                -5.061
REMARK SMILES CCCCCCCCCCCCCCCCCCCCCCCCCCCC(=O)[O-]
REMARK SMILES IDX 15 1 16 2 17 3 18 4 19 5 20 6 21 7 22 8 23 9 24 10 25 11
REMARK SMILES IDX 26 12 27 13 28 14 29 15 30 16 14 17 13 18 12 19 11 20 10 21
REMARK SMILES IDX 9 22 8 23 7 24 6 25 5 26 4 27 3 28 2 29 1 30
REMARK H PARENT
REMARK Flexibility Score: inf
ROOT
ATOM      1  C   UNL     1     147.551 144.662 144.356  1.00  0.00     0.000 C 
ENDROOT
BRANCH   1   2
ATOM      2  C   UNL     1     147.812 144.327 142.877  1.00  0.00     0.000 C 
BRANCH   2   3
ATOM      3  C   UNL     1     148.863 143.227 142.629  1.00  0.00     0.000 C 
BRANCH   3   4
ATOM      4  C   UNL     1     148.300 141.890 142.112  1.00  0.00     0.000 C 
BRANCH   4   5
ATOM      5  C   UNL     1     148.741 140.690 142.962  1.00  0.00     0.000 C 
BRANCH   5   6
ATOM      6  C   UNL     1     147.664 140.322 143.992  1.00  0.00     0.000 C 
BRANCH   6   7
ATOM      7  C   UNL     1     148.195 140.369 145.434  1.00  0.00     0.000 C 
BRANCH   7   8
ATOM      8  C   UNL     1     147.135 139.942 146.460  1.00  0.00     0.000 C 
BRANCH   8   9
ATOM      9  C   UNL     1     147.247 140.777 147.744  1.00  0.00     0.000 C 
BRANCH   9  10
ATOM     10  C   UNL     1     145.949 141.540 148.060  1.00  0.00     0.000 C 
BRANCH  10  11
ATOM     11  C   UNL     1     144.771 140.594 148.352  1.00  0.00     0.000 C 
BRANCH  11  12
ATOM     12  C   UNL     1     144.398 140.555 149.842  1.00  0.00     0.006 C 
BRANCH  12  13
ATOM     13  C   UNL     1     143.428 141.676 150.240  1.00  0.00     0.053 C 
BRANCH  13  14
ATOM     14  C   UNL     1     142.950 141.481 151.644  1.00  0.00     0.041 C 
ATOM     15  O   UNL     1     143.700 140.943 152.501  1.00  0.00    -0.550 OA
ATOM     16  O   UNL     1     141.662 141.865 151.999  1.00  0.00    -0.550 OA
ENDBRANCH  13  14
ENDBRANCH  12  13
ENDBRANCH  11  12
ENDBRANCH  10  11
ENDBRANCH   9  10
ENDBRANCH   8   9
ENDBRANCH   7   8
ENDBRANCH   6   7
ENDBRANCH   5   6
ENDBRANCH   4   5
ENDBRANCH   3   4
ENDBRANCH   2   3
ENDBRANCH   1   2
BRANCH   1  17
ATOM     17  C   UNL     1     146.347 143.905 144.937  1.00  0.00     0.000 C 
BRANCH  17  18
ATOM     18  C   UNL     1     145.150 143.957 143.979  1.00  0.00     0.000 C 
BRANCH  18  19
ATOM     19  C   UNL     1     144.629 142.556 143.615  1.00  0.00     0.000 C 
BRANCH  19  20
ATOM     20  C   UNL     1     144.426 141.667 144.855  1.00  0.00     0.000 C 
BRANCH  20  21
ATOM     21  C   UNL     1     143.850 140.280 144.514  1.00  0.00     0.000 C 
BRANCH  21  22
ATOM     22  C   UNL     1     142.521 139.935 145.210  1.00  0.00    -0.000 C 
BRANCH  22  23
ATOM     23  C   UNL     1     141.664 141.176 145.523  1.00  0.00    -0.000 C 
BRANCH  23  24
ATOM     24  C   UNL     1     141.504 141.414 147.040  1.00  0.00    -0.000 C 
BRANCH  24  25
ATOM     25  C   UNL     1     141.209 142.878 147.410  1.00  0.00    -0.000 C 
BRANCH  25  26
ATOM     26  C   UNL     1     142.021 143.879 146.575  1.00  0.00    -0.000 C 
BRANCH  26  27
ATOM     27  C   UNL     1     143.370 144.188 147.237  1.00  0.00    -0.000 C 
BRANCH  27  28
ATOM     28  C   UNL     1     143.271 145.324 148.269  1.00  0.00    -0.000 C 
BRANCH  28  29
ATOM     29  C   UNL     1     144.248 145.147 149.441  1.00  0.00    -0.003 C 
ATOM     30  C   UNL     1     145.691 145.092 148.950  1.00  0.00     0.004 C 
ENDBRANCH  28  29
ENDBRANCH  27  28
ENDBRANCH  26  27
ENDBRANCH  25  26
ENDBRANCH  24  25
ENDBRANCH  23  24
ENDBRANCH  22  23
ENDBRANCH  21  22
ENDBRANCH  20  21
ENDBRANCH  19  20
ENDBRANCH  18  19
ENDBRANCH  17  18
ENDBRANCH   1  17
TORSDOF 26
ENDMDL
MODEL 9
REMARK VINA RESULT:    -2.518      2.258      8.201
REMARK INTER + INTRA:         -11.405
REMARK INTER:                  -6.600
REMARK INTRA:                  -4.805
REMARK UNBOUND:                -5.061
REMARK SMILES CCCCCCCCCCCCCCCCCCCCCCCCCCCC(=O)[O-]
REMARK SMILES IDX 15 1 16 2 17 3 18 4 19 5 20 6 21 7 22 8 23 9 24 10 25 11
REMARK SMILES IDX 26 12 27 13 28 14 29 15 30 16 14 17 13 18 12 19 11 20 10 21
REMARK SMILES IDX 9 22 8 23 7 24 6 25 5 26 4 27 3 28 2 29 1 30
REMARK H PARENT
REMARK Flexibility Score: inf
ROOT
ATOM      1  C   UNL     1     141.901 143.505 146.191  1.00  0.00     0.000 C 
ENDROOT
BRANCH   1   2
ATOM      2  C   UNL     1     142.178 142.385 145.172  1.00  0.00     0.000 C 
BRANCH   2   3
ATOM      3  C   UNL     1     141.537 141.022 145.504  1.00  0.00     0.000 C 
BRANCH   3   4
ATOM      4  C   UNL     1     142.533 139.875 145.750  1.00  0.00     0.000 C 
BRANCH   4   5
ATOM      5  C   UNL     1     143.940 140.184 145.217  1.00  0.00     0.000 C 
BRANCH   5   6
ATOM      6  C   UNL     1     144.980 140.117 146.345  1.00  0.00     0.000 C 
BRANCH   6   7
ATOM      7  C   UNL     1     146.251 140.915 146.013  1.00  0.00     0.000 C 
BRANCH   7   8
ATOM      8  C   UNL     1     145.936 142.275 145.373  1.00  0.00     0.000 C 
BRANCH   8   9
ATOM      9  C   UNL     1     146.977 142.632 144.302  1.00  0.00     0.000 C 
BRANCH   9  10
ATOM     10  C   UNL     1     146.327 143.075 142.980  1.00  0.00     0.000 C 
BRANCH  10  11
ATOM     11  C   UNL     1     144.805 143.251 143.107  1.00  0.00     0.000 C 
BRANCH  11  12
ATOM     12  C   UNL     1     144.336 144.660 142.714  1.00  0.00     0.006 C 
BRANCH  12  13
ATOM     13  C   UNL     1     145.240 145.765 143.279  1.00  0.00     0.053 C 
BRANCH  13  14
ATOM     14  C   UNL     1     144.595 146.417 144.460  1.00  0.00     0.041 C 
ATOM     15  O   UNL     1     143.552 147.108 144.314  1.00  0.00    -0.550 OA
ATOM     16  O   UNL     1     145.165 146.289 145.721  1.00  0.00    -0.550 OA
ENDBRANCH  13  14
ENDBRANCH  12  13
ENDBRANCH  11  12
ENDBRANCH  10  11
ENDBRANCH   9  10
ENDBRANCH   8   9
ENDBRANCH   7   8
ENDBRANCH   6   7
ENDBRANCH   5   6
ENDBRANCH   4   5
ENDBRANCH   3   4
ENDBRANCH   2   3
ENDBRANCH   1   2
BRANCH   1  17
ATOM     17  C   UNL     1     143.129 143.852 147.045  1.00  0.00     0.000 C 
BRANCH  17  18
ATOM     18  C   UNL     1     142.713 144.538 148.353  1.00  0.00     0.000 C 
BRANCH  18  19
ATOM     19  C   UNL     1     141.328 144.079 148.841  1.00  0.00     0.000 C 
BRANCH  19  20
ATOM     20  C   UNL     1     141.398 143.339 150.188  1.00  0.00     0.000 C 
BRANCH  20  21
ATOM     21  C   UNL     1     141.066 141.840 150.070  1.00  0.00     0.000 C 
BRANCH  21  22
ATOM     22  C   UNL     1     142.052 141.018 149.219  1.00  0.00    -0.000 C 
BRANCH  22  23
ATOM     23  C   UNL     1     143.515 141.175 149.672  1.00  0.00    -0.000 C 
BRANCH  23  24
ATOM     24  C   UNL     1     143.729 140.730 151.134  1.00  0.00    -0.000 C 
BRANCH  24  25
ATOM     25  C   UNL     1     144.354 141.817 152.027  1.00  0.00    -0.000 C 
BRANCH  25  26
ATOM     26  C   UNL     1     143.564 142.051 153.323  1.00  0.00    -0.000 C 
BRANCH  26  27
ATOM     27  C   UNL     1     142.357 141.108 153.413  1.00  0.00    -0.000 C 
BRANCH  27  28
ATOM     28  C   UNL     1     141.088 141.824 153.907  1.00  0.00    -0.000 C 
BRANCH  28  29
ATOM     29  C   UNL     1     141.113 143.334 153.626  1.00  0.00    -0.003 C 
ATOM     30  C   UNL     1     140.929 144.136 154.911  1.00  0.00     0.004 C 
ENDBRANCH  28  29
ENDBRANCH  27  28
ENDBRANCH  26  27
ENDBRANCH  25  26
ENDBRANCH  24  25
ENDBRANCH  23  24
ENDBRANCH  22  23
ENDBRANCH  21  22
ENDBRANCH  20  21
ENDBRANCH  19  20
ENDBRANCH  18  19
ENDBRANCH  17  18
ENDBRANCH   1  17
TORSDOF 26
ENDMDL
