MODEL 1
REMARK VINA RESULT:    -5.163      0.000      0.000
REMARK INTER + INTRA:          -6.324
REMARK INTER:                  -6.068
REMARK INTRA:                  -0.256
REMARK UNBOUND:                -0.256
REMARK SMILES O=C([O-])C=Cc1ccc(O)c(O)c1
REMARK SMILES IDX 6 1 13 2 7 3 11 4 8 5 9 6 5 7 4 8 2 9 1 10 3 11 12 12 10 14
REMARK H PARENT 12 13 10 15
REMARK Flexibility Score: inf
ROOT
ATOM      1  C   UNL     1       8.411  -7.874  -9.284  1.00  0.00    -0.022 A 
ATOM      2  C   UNL     1       7.852  -6.654  -8.877  1.00  0.00     0.058 A 
ATOM      3  C   UNL     1       9.700  -8.220  -8.845  1.00  0.00     0.012 A 
ATOM      4  C   UNL     1       8.545  -5.810  -8.001  1.00  0.00     0.157 A 
ATOM      5  C   UNL     1      10.396  -7.381  -7.970  1.00  0.00     0.051 A 
ATOM      6  C   UNL     1       9.822  -6.176  -7.542  1.00  0.00     0.157 A 
ENDROOT
BRANCH   1   7
ATOM      7  C   UNL     1       7.680  -8.720 -10.249  1.00  0.00     0.010 C 
ATOM      8  C   UNL     1       7.587  -8.492 -11.568  1.00  0.00     0.025 C 
BRANCH   8   9
ATOM      9  C   UNL     1       8.349  -7.473 -12.315  1.00  0.00     0.064 C 
ATOM     10  O   UNL     1       9.540  -7.712 -12.640  1.00  0.00    -0.545 OA
ATOM     11  O   UNL     1       7.805  -6.226 -12.604  1.00  0.00    -0.545 OA
ENDBRANCH   8   9
ENDBRANCH   1   7
BRANCH   4  12
ATOM     12  O   UNL     1       7.951  -4.613  -7.602  1.00  0.00    -0.504 OA
ATOM     13  H   UNL     1       6.954  -4.535  -7.441  1.00  0.00     0.293 HD
ENDBRANCH   4  12
BRANCH   6  14
ATOM     14  O   UNL     1      10.516  -5.341  -6.667  1.00  0.00    -0.504 OA
ATOM     15  H   UNL     1      10.348  -4.342  -6.642  1.00  0.00     0.293 HD
ENDBRANCH   6  14
TORSDOF 4
ENDMDL
MODEL 2
REMARK VINA RESULT:    -5.099      1.892      2.613
REMARK INTER + INTRA:          -6.249
REMARK INTER:                  -5.955
REMARK INTRA:                  -0.294
REMARK UNBOUND:                -0.256
REMARK SMILES O=C([O-])C=Cc1ccc(O)c(O)c1
REMARK SMILES IDX 6 1 13 2 7 3 11 4 8 5 9 6 5 7 4 8 2 9 1 10 3 11 12 12 10 14
REMARK H PARENT 12 13 10 15
REMARK Flexibility Score: inf
ROOT
ATOM      1  C   UNL     1       9.300  -6.990  -8.170  1.00  0.00    -0.022 A 
ATOM      2  C   UNL     1      10.155  -6.167  -7.422  1.00  0.00     0.058 A 
ATOM      3  C   UNL     1       7.983  -7.197  -7.726  1.00  0.00     0.012 A 
ATOM      4  C   UNL     1       9.690  -5.514  -6.274  1.00  0.00     0.157 A 
ATOM      5  C   UNL     1       7.515  -6.547  -6.582  1.00  0.00     0.051 A 
ATOM      6  C   UNL     1       8.363  -5.701  -5.853  1.00  0.00     0.157 A 
ENDROOT
BRANCH   1   7
ATOM      7  C   UNL     1       9.833  -7.707  -9.347  1.00  0.00     0.010 C 
ATOM      8  C   UNL     1       9.767  -7.275 -10.615  1.00  0.00     0.025 C 
BRANCH   8   9
ATOM      9  C   UNL     1       9.326  -5.933 -11.040  1.00  0.00     0.064 C 
ATOM     10  O   UNL     1      10.157  -4.988 -11.050  1.00  0.00    -0.545 OA
ATOM     11  O   UNL     1       7.998  -5.671 -11.359  1.00  0.00    -0.545 OA
ENDBRANCH   8   9
ENDBRANCH   1   7
BRANCH   4  12
ATOM     12  O   UNL     1      10.562  -4.688  -5.565  1.00  0.00    -0.504 OA
ATOM     13  H   UNL     1      11.019  -4.993  -4.714  1.00  0.00     0.293 HD
ENDBRANCH   4  12
BRANCH   6  14
ATOM     14  O   UNL     1       7.894  -5.052  -4.712  1.00  0.00    -0.504 OA
ATOM     15  H   UNL     1       8.271  -5.254  -3.794  1.00  0.00     0.293 HD
ENDBRANCH   6  14
TORSDOF 4
ENDMDL
MODEL 3
REMARK VINA RESULT:    -4.993      0.780      1.871
REMARK INTER + INTRA:          -6.125
REMARK INTER:                  -5.828
REMARK INTRA:                  -0.296
REMARK UNBOUND:                -0.256
REMARK SMILES O=C([O-])C=Cc1ccc(O)c(O)c1
REMARK SMILES IDX 6 1 13 2 7 3 11 4 8 5 9 6 5 7 4 8 2 9 1 10 3 11 12 12 10 14
REMARK H PARENT 12 13 10 15
REMARK Flexibility Score: inf
ROOT
ATOM      1  C   UNL     1       8.301  -7.625  -9.233  1.00  0.00    -0.022 A 
ATOM      2  C   UNL     1       9.598  -7.949  -8.811  1.00  0.00     0.058 A 
ATOM      3  C   UNL     1       7.661  -6.500  -8.685  1.00  0.00     0.012 A 
ATOM      4  C   UNL     1      10.274  -7.134  -7.895  1.00  0.00     0.157 A 
ATOM      5  C   UNL     1       8.332  -5.683  -7.771  1.00  0.00     0.051 A 
ATOM      6  C   UNL     1       9.640  -5.993  -7.375  1.00  0.00     0.157 A 
ENDROOT
BRANCH   1   7
ATOM      7  C   UNL     1       7.593  -8.531 -10.160  1.00  0.00     0.010 C 
ATOM      8  C   UNL     1       7.534  -8.389 -11.493  1.00  0.00     0.025 C 
BRANCH   8   9
ATOM      9  C   UNL     1       8.315  -7.420 -12.284  1.00  0.00     0.064 C 
ATOM     10  O   UNL     1       9.485  -7.718 -12.641  1.00  0.00    -0.545 OA
ATOM     11  O   UNL     1       7.818  -6.156 -12.584  1.00  0.00    -0.545 OA
ENDBRANCH   8   9
ENDBRANCH   1   7
BRANCH   4  12
ATOM     12  O   UNL     1      11.571  -7.476  -7.513  1.00  0.00    -0.504 OA
ATOM     13  H   UNL     1      12.374  -6.918  -7.777  1.00  0.00     0.293 HD
ENDBRANCH   4  12
BRANCH   6  14
ATOM     14  O   UNL     1      10.309  -5.176  -6.465  1.00  0.00    -0.504 OA
ATOM     15  H   UNL     1       9.939  -4.274  -6.191  1.00  0.00     0.293 HD
ENDBRANCH   6  14
TORSDOF 4
ENDMDL
MODEL 4
REMARK VINA RESULT:    -4.850      1.623      2.473
REMARK INTER + INTRA:          -5.956
REMARK INTER:                  -5.678
REMARK INTRA:                  -0.278
REMARK UNBOUND:                -0.256
REMARK SMILES O=C([O-])C=Cc1ccc(O)c(O)c1
REMARK SMILES IDX 6 1 13 2 7 3 11 4 8 5 9 6 5 7 4 8 2 9 1 10 3 11 12 12 10 14
REMARK H PARENT 12 13 10 15
REMARK Flexibility Score: inf
ROOT
ATOM      1  C   UNL     1       9.871  -7.787  -8.546  1.00  0.00    -0.022 A 
ATOM      2  C   UNL     1      10.520  -6.783  -7.813  1.00  0.00     0.058 A 
ATOM      3  C   UNL     1       8.491  -7.986  -8.366  1.00  0.00     0.012 A 
ATOM      4  C   UNL     1       9.797  -5.950  -6.950  1.00  0.00     0.157 A 
ATOM      5  C   UNL     1       7.765  -7.157  -7.508  1.00  0.00     0.051 A 
ATOM      6  C   UNL     1       8.412  -6.134  -6.799  1.00  0.00     0.157 A 
ENDROOT
BRANCH   1   7
ATOM      7  C   UNL     1      10.667  -8.684  -9.408  1.00  0.00     0.010 C 
ATOM      8  C   UNL     1      10.904  -8.498 -10.715  1.00  0.00     0.025 C 
BRANCH   8   9
ATOM      9  C   UNL     1      10.576  -7.279 -11.478  1.00  0.00     0.064 C 
ATOM     10  O   UNL     1      11.322  -6.271 -11.378  1.00  0.00    -0.545 OA
ATOM     11  O   UNL     1       9.421  -7.193 -12.248  1.00  0.00    -0.545 OA
ENDBRANCH   8   9
ENDBRANCH   1   7
BRANCH   4  12
ATOM     12  O   UNL     1      10.472  -4.949  -6.252  1.00  0.00    -0.504 OA
ATOM     13  H   UNL     1      10.937  -5.129  -5.370  1.00  0.00     0.293 HD
ENDBRANCH   4  12
BRANCH   6  14
ATOM     14  O   UNL     1       7.686  -5.306  -5.945  1.00  0.00    -0.504 OA
ATOM     15  H   UNL     1       7.076  -4.580  -6.302  1.00  0.00     0.293 HD
ENDBRANCH   6  14
TORSDOF 4
ENDMDL
MODEL 5
REMARK VINA RESULT:    -4.806     16.644     18.168
REMARK INTER + INTRA:          -5.904
REMARK INTER:                  -6.290
REMARK INTRA:                   0.385
REMARK UNBOUND:                -0.256
REMARK SMILES O=C([O-])C=Cc1ccc(O)c(O)c1
REMARK SMILES IDX 6 1 13 2 7 3 11 4 8 5 9 6 5 7 4 8 2 9 1 10 3 11 12 12 10 14
REMARK H PARENT 12 13 10 15
REMARK Flexibility Score: inf
ROOT
ATOM      1  C   UNL     1      20.091  -0.203 -20.580  1.00  0.00    -0.022 A 
ATOM      2  C   UNL     1      20.443   1.149 -20.450  1.00  0.00     0.058 A 
ATOM      3  C   UNL     1      20.679  -0.972 -21.598  1.00  0.00     0.012 A 
ATOM      4  C   UNL     1      21.410   1.716 -21.290  1.00  0.00     0.157 A 
ATOM      5  C   UNL     1      21.644  -0.410 -22.437  1.00  0.00     0.051 A 
ATOM      6  C   UNL     1      22.017   0.933 -22.286  1.00  0.00     0.157 A 
ENDROOT
BRANCH   1   7
ATOM      7  C   UNL     1      19.031  -0.760 -19.715  1.00  0.00     0.010 C 
ATOM      8  C   UNL     1      19.026  -0.729 -18.374  1.00  0.00     0.025 C 
BRANCH   8   9
ATOM      9  C   UNL     1      19.972   0.029 -17.532  1.00  0.00     0.064 C 
ATOM     10  O   UNL     1      19.528   0.891 -16.731  1.00  0.00    -0.545 OA
ATOM     11  O   UNL     1      21.347  -0.136 -17.657  1.00  0.00    -0.545 OA
ENDBRANCH   8   9
ENDBRANCH   1   7
BRANCH   4  12
ATOM     12  O   UNL     1      21.750   3.058 -21.120  1.00  0.00    -0.504 OA
ATOM     13  H   UNL     1      22.603   3.449 -21.503  1.00  0.00     0.293 HD
ENDBRANCH   4  12
BRANCH   6  14
ATOM     14  O   UNL     1      22.982   1.491 -23.123  1.00  0.00    -0.504 OA
ATOM     15  H   UNL     1      23.258   1.041 -23.988  1.00  0.00     0.293 HD
ENDBRANCH   6  14
TORSDOF 4
ENDMDL
MODEL 6
REMARK VINA RESULT:    -4.765      2.171      2.918
REMARK INTER + INTRA:          -5.857
REMARK INTER:                  -5.568
REMARK INTRA:                  -0.289
REMARK UNBOUND:                -0.256
REMARK SMILES O=C([O-])C=Cc1ccc(O)c(O)c1
REMARK SMILES IDX 6 1 13 2 7 3 11 4 8 5 9 6 5 7 4 8 2 9 1 10 3 11 12 12 10 14
REMARK H PARENT 12 13 10 15
REMARK Flexibility Score: inf
ROOT
ATOM      1  C   UNL     1      10.132  -6.948  -8.151  1.00  0.00    -0.022 A 
ATOM      2  C   UNL     1       9.395  -6.069  -7.344  1.00  0.00     0.058 A 
ATOM      3  C   UNL     1       9.793  -8.311  -8.171  1.00  0.00     0.012 A 
ATOM      4  C   UNL     1       8.298  -6.531  -6.605  1.00  0.00     0.157 A 
ATOM      5  C   UNL     1       8.700  -8.777  -7.437  1.00  0.00     0.051 A 
ATOM      6  C   UNL     1       7.946  -7.891  -6.654  1.00  0.00     0.157 A 
ENDROOT
BRANCH   1   7
ATOM      7  C   UNL     1      11.315  -6.442  -8.878  1.00  0.00     0.010 C 
ATOM      8  C   UNL     1      11.338  -6.083 -10.170  1.00  0.00     0.025 C 
BRANCH   8   9
ATOM      9  C   UNL     1      10.155  -5.946 -11.041  1.00  0.00     0.064 C 
ATOM     10  O   UNL     1       9.855  -6.885 -11.822  1.00  0.00    -0.545 OA
ATOM     11  O   UNL     1       9.406  -4.775 -11.070  1.00  0.00    -0.545 OA
ENDBRANCH   8   9
ENDBRANCH   1   7
BRANCH   4  12
ATOM     12  O   UNL     1       7.576  -5.626  -5.828  1.00  0.00    -0.504 OA
ATOM     13  H   UNL     1       6.889  -5.000  -6.231  1.00  0.00     0.293 HD
ENDBRANCH   4  12
BRANCH   6  14
ATOM     14  O   UNL     1       6.854  -8.356  -5.924  1.00  0.00    -0.504 OA
ATOM     15  H   UNL     1       6.886  -9.239  -5.426  1.00  0.00     0.293 HD
ENDBRANCH   6  14
TORSDOF 4
ENDMDL
MODEL 7
REMARK VINA RESULT:    -4.731      2.748      3.505
REMARK INTER + INTRA:          -5.816
REMARK INTER:                  -5.554
REMARK INTRA:                  -0.262
REMARK UNBOUND:                -0.256
REMARK SMILES O=C([O-])C=Cc1ccc(O)c(O)c1
REMARK SMILES IDX 6 1 13 2 7 3 11 4 8 5 9 6 5 7 4 8 2 9 1 10 3 11 12 12 10 14
REMARK H PARENT 12 13 10 15
REMARK Flexibility Score: inf
ROOT
ATOM      1  C   UNL     1       7.983  -6.861  -7.722  1.00  0.00    -0.022 A 
ATOM      2  C   UNL     1       8.089  -5.780  -6.835  1.00  0.00     0.058 A 
ATOM      3  C   UNL     1       7.744  -8.148  -7.211  1.00  0.00     0.012 A 
ATOM      4  C   UNL     1       7.906  -5.966  -5.459  1.00  0.00     0.157 A 
ATOM      5  C   UNL     1       7.560  -8.339  -5.839  1.00  0.00     0.051 A 
ATOM      6  C   UNL     1       7.637  -7.251  -4.958  1.00  0.00     0.157 A 
ENDROOT
BRANCH   1   7
ATOM      7  C   UNL     1       8.232  -6.644  -9.161  1.00  0.00     0.010 C 
ATOM      8  C   UNL     1       9.423  -6.748  -9.769  1.00  0.00     0.025 C 
BRANCH   8   9
ATOM      9  C   UNL     1      10.653  -7.279  -9.152  1.00  0.00     0.064 C 
ATOM     10  O   UNL     1      11.563  -6.481  -8.806  1.00  0.00    -0.545 OA
ATOM     11  O   UNL     1      10.863  -8.647  -9.009  1.00  0.00    -0.545 OA
ENDBRANCH   8   9
ENDBRANCH   1   7
BRANCH   4  12
ATOM     12  O   UNL     1       8.000  -4.865  -4.609  1.00  0.00    -0.504 OA
ATOM     13  H   UNL     1       7.586  -4.863  -3.684  1.00  0.00     0.293 HD
ENDBRANCH   4  12
BRANCH   6  14
ATOM     14  O   UNL     1       7.451  -7.442  -3.590  1.00  0.00    -0.504 OA
ATOM     15  H   UNL     1       7.240  -6.669  -2.970  1.00  0.00     0.293 HD
ENDBRANCH   6  14
TORSDOF 4
ENDMDL
MODEL 8
REMARK VINA RESULT:    -4.517      1.803      4.761
REMARK INTER + INTRA:          -5.565
REMARK INTER:                  -5.304
REMARK INTRA:                  -0.261
REMARK UNBOUND:                -0.256
REMARK SMILES O=C([O-])C=Cc1ccc(O)c(O)c1
REMARK SMILES IDX 6 1 13 2 7 3 11 4 8 5 9 6 5 7 4 8 2 9 1 10 3 11 12 12 10 14
REMARK H PARENT 12 13 10 15
REMARK Flexibility Score: inf
ROOT
ATOM      1  C   UNL     1       8.231  -6.813  -9.753  1.00  0.00    -0.022 A 
ATOM      2  C   UNL     1       8.227  -6.187 -11.008  1.00  0.00     0.058 A 
ATOM      3  C   UNL     1       7.823  -8.153  -9.652  1.00  0.00     0.012 A 
ATOM      4  C   UNL     1       7.872  -6.901 -12.159  1.00  0.00     0.157 A 
ATOM      5  C   UNL     1       7.468  -8.870 -10.798  1.00  0.00     0.051 A 
ATOM      6  C   UNL     1       7.495  -8.251 -12.055  1.00  0.00     0.157 A 
ENDROOT
BRANCH   1   7
ATOM      7  C   UNL     1       8.559  -6.020  -8.550  1.00  0.00     0.010 C 
ATOM      8  C   UNL     1       9.698  -6.109  -7.848  1.00  0.00     0.025 C 
BRANCH   8   9
ATOM      9  C   UNL     1      10.896  -6.867  -8.255  1.00  0.00     0.064 C 
ATOM     10  O   UNL     1      11.127  -7.984  -7.723  1.00  0.00    -0.545 OA
ATOM     11  O   UNL     1      11.815  -6.345  -9.158  1.00  0.00    -0.545 OA
ENDBRANCH   8   9
ENDBRANCH   1   7
BRANCH   4  12
ATOM     12  O   UNL     1       7.898  -6.253 -13.393  1.00  0.00    -0.504 OA
ATOM     13  H   UNL     1       7.949  -5.244 -13.469  1.00  0.00     0.293 HD
ENDBRANCH   4  12
BRANCH   6  14
ATOM     14  O   UNL     1       7.143  -8.968 -13.197  1.00  0.00    -0.504 OA
ATOM     15  H   UNL     1       7.717  -8.950 -14.032  1.00  0.00     0.293 HD
ENDBRANCH   6  14
TORSDOF 4
ENDMDL
MODEL 9
REMARK VINA RESULT:    -4.506      1.590      4.859
REMARK INTER + INTRA:          -5.552
REMARK INTER:                  -5.334
REMARK INTRA:                  -0.218
REMARK UNBOUND:                -0.256
REMARK SMILES O=C([O-])C=Cc1ccc(O)c(O)c1
REMARK SMILES IDX 6 1 13 2 7 3 11 4 8 5 9 6 5 7 4 8 2 9 1 10 3 11 12 12 10 14
REMARK H PARENT 12 13 10 15
REMARK Flexibility Score: inf
ROOT
ATOM      1  C   UNL     1       9.031  -7.014 -10.114  1.00  0.00    -0.022 A 
ATOM      2  C   UNL     1       8.656  -6.236 -11.219  1.00  0.00     0.058 A 
ATOM      3  C   UNL     1       8.612  -8.352 -10.041  1.00  0.00     0.012 A 
ATOM      4  C   UNL     1       7.915  -6.799 -12.267  1.00  0.00     0.157 A 
ATOM      5  C   UNL     1       7.874  -8.918 -11.084  1.00  0.00     0.051 A 
ATOM      6  C   UNL     1       7.525  -8.147 -12.202  1.00  0.00     0.157 A 
ENDROOT
BRANCH   1   7
ATOM      7  C   UNL     1       9.767  -6.380  -9.001  1.00  0.00     0.010 C 
ATOM      8  C   UNL     1       9.214  -5.906  -7.874  1.00  0.00     0.025 C 
BRANCH   8   9
ATOM      9  C   UNL     1       7.811  -6.100  -7.463  1.00  0.00     0.064 C 
ATOM     10  O   UNL     1       7.541  -6.957  -6.583  1.00  0.00    -0.545 OA
ATOM     11  O   UNL     1       6.771  -5.410  -8.077  1.00  0.00    -0.545 OA
ENDBRANCH   8   9
ENDBRANCH   1   7
BRANCH   4  12
ATOM     12  O   UNL     1       7.575  -6.002 -13.360  1.00  0.00    -0.504 OA
ATOM     13  H   UNL     1       7.718  -4.999 -13.359  1.00  0.00     0.293 HD
ENDBRANCH   4  12
BRANCH   6  14
ATOM     14  O   UNL     1       6.791  -8.713 -13.242  1.00  0.00    -0.504 OA
ATOM     15  H   UNL     1       6.888  -8.389 -14.197  1.00  0.00     0.293 HD
ENDBRANCH   6  14
TORSDOF 4
ENDMDL
