MODEL 1
REMARK VINA RESULT:    -4.873      0.000      0.000
REMARK INTER + INTRA:          -9.390
REMARK INTER:                  -8.291
REMARK INTRA:                  -1.098
REMARK UNBOUND:                -1.098
REMARK SMILES CCCCCCCCCCCCCC(=O)[O-]
REMARK SMILES IDX 8 1 9 2 10 3 11 4 12 5 13 6 14 7 15 8 16 9 7 10 6 11 5 12
REMARK SMILES IDX 4 13 3 14 2 15 1 16
REMARK H PARENT
REMARK Flexibility Score: inf
ROOT
ATOM      1  C   UNL     1      48.488  19.781  50.325  1.00  0.00     0.000 C 
ENDROOT
BRANCH   1   2
ATOM      2  C   UNL     1      48.197  21.273  50.553  1.00  0.00     0.000 C 
BRANCH   2   3
ATOM      3  C   UNL     1      47.920  21.606  52.029  1.00  0.00     0.000 C 
BRANCH   3   4
ATOM      4  C   UNL     1      47.953  23.118  52.309  1.00  0.00     0.000 C 
BRANCH   4   5
ATOM      5  C   UNL     1      49.385  23.662  52.445  1.00  0.00     0.006 C 
BRANCH   5   6
ATOM      6  C   UNL     1      49.817  23.834  53.906  1.00  0.00     0.053 C 
BRANCH   6   7
ATOM      7  C   UNL     1      50.851  22.816  54.268  1.00  0.00     0.041 C 
ATOM      8  O   UNL     1      52.073  23.063  54.091  1.00  0.00    -0.550 OA
ATOM      9  O   UNL     1      50.464  21.574  54.756  1.00  0.00    -0.550 OA
ENDBRANCH   6   7
ENDBRANCH   5   6
ENDBRANCH   4   5
ENDBRANCH   3   4
ENDBRANCH   2   3
ENDBRANCH   1   2
BRANCH   1  10
ATOM     10  C   UNL     1      50.000  19.526  50.247  1.00  0.00     0.000 C 
BRANCH  10  11
ATOM     11  C   UNL     1      50.807  20.800  49.940  1.00  0.00    -0.000 C 
BRANCH  11  12
ATOM     12  C   UNL     1      51.802  21.225  51.040  1.00  0.00    -0.000 C 
BRANCH  12  13
ATOM     13  C   UNL     1      53.288  21.052  50.675  1.00  0.00    -0.000 C 
BRANCH  13  14
ATOM     14  C   UNL     1      53.491  20.263  49.370  1.00  0.00    -0.000 C 
BRANCH  14  15
ATOM     15  C   UNL     1      54.958  20.250  48.913  1.00  0.00    -0.003 C 
ATOM     16  C   UNL     1      55.286  21.395  47.954  1.00  0.00     0.004 C 
ENDBRANCH  14  15
ENDBRANCH  13  14
ENDBRANCH  12  13
ENDBRANCH  11  12
ENDBRANCH  10  11
ENDBRANCH   1  10
TORSDOF 12
ENDMDL
MODEL 2
REMARK VINA RESULT:    -4.823      1.747      2.197
REMARK INTER + INTRA:          -9.305
REMARK INTER:                  -8.542
REMARK INTRA:                  -0.763
REMARK UNBOUND:                -1.098
REMARK SMILES CCCCCCCCCCCCCC(=O)[O-]
REMARK SMILES IDX 8 1 9 2 10 3 11 4 12 5 13 6 14 7 15 8 16 9 7 10 6 11 5 12
REMARK SMILES IDX 4 13 3 14 2 15 1 16
REMARK H PARENT
REMARK Flexibility Score: inf
ROOT
ATOM      1  C   UNL     1      48.658  19.524  50.050  1.00  0.00     0.000 C 
ENDROOT
BRANCH   1   2
ATOM      2  C   UNL     1      48.092  20.943  50.219  1.00  0.00     0.000 C 
BRANCH   2   3
ATOM      3  C   UNL     1      47.828  21.307  51.689  1.00  0.00     0.000 C 
BRANCH   3   4
ATOM      4  C   UNL     1      48.060  22.800  51.979  1.00  0.00     0.000 C 
BRANCH   4   5
ATOM      5  C   UNL     1      48.293  23.081  53.472  1.00  0.00     0.006 C 
BRANCH   5   6
ATOM      6  C   UNL     1      46.987  23.143  54.274  1.00  0.00     0.053 C 
BRANCH   6   7
ATOM      7  C   UNL     1      47.070  22.257  55.475  1.00  0.00     0.041 C 
ATOM      8  O   UNL     1      46.379  21.205  55.536  1.00  0.00    -0.550 OA
ATOM      9  O   UNL     1      47.873  22.615  56.551  1.00  0.00    -0.550 OA
ENDBRANCH   6   7
ENDBRANCH   5   6
ENDBRANCH   4   5
ENDBRANCH   3   4
ENDBRANCH   2   3
ENDBRANCH   1   2
BRANCH   1  10
ATOM     10  C   UNL     1      50.150  19.485  50.409  1.00  0.00     0.000 C 
BRANCH  10  11
ATOM     11  C   UNL     1      50.888  20.786  50.044  1.00  0.00    -0.000 C 
BRANCH  11  12
ATOM     12  C   UNL     1      51.919  21.268  51.086  1.00  0.00    -0.000 C 
BRANCH  12  13
ATOM     13  C   UNL     1      53.388  21.178  50.637  1.00  0.00    -0.000 C 
BRANCH  13  14
ATOM     14  C   UNL     1      53.572  20.328  49.367  1.00  0.00    -0.000 C 
BRANCH  14  15
ATOM     15  C   UNL     1      55.038  20.255  48.915  1.00  0.00    -0.003 C 
ATOM     16  C   UNL     1      55.421  21.399  47.975  1.00  0.00     0.004 C 
ENDBRANCH  14  15
ENDBRANCH  13  14
ENDBRANCH  12  13
ENDBRANCH  11  12
ENDBRANCH  10  11
ENDBRANCH   1  10
TORSDOF 12
ENDMDL
MODEL 3
REMARK VINA RESULT:    -4.799      1.497      2.480
REMARK INTER + INTRA:          -9.264
REMARK INTER:                  -7.819
REMARK INTRA:                  -1.446
REMARK UNBOUND:                -1.098
REMARK SMILES CCCCCCCCCCCCCC(=O)[O-]
REMARK SMILES IDX 8 1 9 2 10 3 11 4 12 5 13 6 14 7 15 8 16 9 7 10 6 11 5 12
REMARK SMILES IDX 4 13 3 14 2 15 1 16
REMARK H PARENT
REMARK Flexibility Score: inf
ROOT
ATOM      1  C   UNL     1      47.891  21.189  51.578  1.00  0.00     0.000 C 
ENDROOT
BRANCH   1   2
ATOM      2  C   UNL     1      48.305  22.552  52.156  1.00  0.00     0.000 C 
BRANCH   2   3
ATOM      3  C   UNL     1      49.798  22.616  52.519  1.00  0.00     0.000 C 
BRANCH   3   4
ATOM      4  C   UNL     1      50.143  21.761  53.751  1.00  0.00     0.000 C 
BRANCH   4   5
ATOM      5  C   UNL     1      51.334  20.821  53.501  1.00  0.00     0.006 C 
BRANCH   5   6
ATOM      6  C   UNL     1      52.302  20.762  54.690  1.00  0.00     0.053 C 
BRANCH   6   7
ATOM      7  C   UNL     1      53.360  21.809  54.554  1.00  0.00     0.041 C 
ATOM      8  O   UNL     1      54.047  22.150  55.554  1.00  0.00    -0.550 OA
ATOM      9  O   UNL     1      53.557  22.446  53.335  1.00  0.00    -0.550 OA
ENDBRANCH   6   7
ENDBRANCH   5   6
ENDBRANCH   4   5
ENDBRANCH   3   4
ENDBRANCH   2   3
ENDBRANCH   1   2
BRANCH   1  10
ATOM     10  C   UNL     1      48.572  20.941  50.224  1.00  0.00     0.000 C 
BRANCH  10  11
ATOM     11  C   UNL     1      49.218  19.548  50.126  1.00  0.00    -0.000 C 
BRANCH  11  12
ATOM     12  C   UNL     1      50.760  19.545  50.060  1.00  0.00    -0.000 C 
BRANCH  12  13
ATOM     13  C   UNL     1      51.404  20.928  49.852  1.00  0.00    -0.000 C 
BRANCH  13  14
ATOM     14  C   UNL     1      52.915  20.929  50.141  1.00  0.00    -0.000 C 
BRANCH  14  15
ATOM     15  C   UNL     1      53.712  20.113  49.112  1.00  0.00    -0.003 C 
ATOM     16  C   UNL     1      54.881  20.898  48.515  1.00  0.00     0.004 C 
ENDBRANCH  14  15
ENDBRANCH  13  14
ENDBRANCH  12  13
ENDBRANCH  11  12
ENDBRANCH  10  11
ENDBRANCH   1  10
TORSDOF 12
ENDMDL
MODEL 4
REMARK VINA RESULT:    -4.744      4.008      5.144
REMARK INTER + INTRA:          -9.171
REMARK INTER:                  -8.710
REMARK INTRA:                  -0.461
REMARK UNBOUND:                -1.098
REMARK SMILES CCCCCCCCCCCCCC(=O)[O-]
REMARK SMILES IDX 8 1 9 2 10 3 11 4 12 5 13 6 14 7 15 8 16 9 7 10 6 11 5 12
REMARK SMILES IDX 4 13 3 14 2 15 1 16
REMARK H PARENT
REMARK Flexibility Score: inf
ROOT
ATOM      1  C   UNL     1      48.273  19.511  50.362  1.00  0.00     0.000 C 
ENDROOT
BRANCH   1   2
ATOM      2  C   UNL     1      47.003  20.032  51.054  1.00  0.00     0.000 C 
BRANCH   2   3
ATOM      3  C   UNL     1      46.166  18.907  51.686  1.00  0.00     0.000 C 
BRANCH   3   4
ATOM      4  C   UNL     1      44.788  18.750  51.020  1.00  0.00     0.000 C 
BRANCH   4   5
ATOM      5  C   UNL     1      43.750  18.112  51.957  1.00  0.00     0.006 C 
BRANCH   5   6
ATOM      6  C   UNL     1      44.173  18.160  53.431  1.00  0.00     0.053 C 
BRANCH   6   7
ATOM      7  C   UNL     1      43.150  18.886  54.244  1.00  0.00     0.041 C 
ATOM      8  O   UNL     1      42.209  19.502  53.677  1.00  0.00    -0.550 OA
ATOM      9  O   UNL     1      43.262  18.926  55.629  1.00  0.00    -0.550 OA
ENDBRANCH   6   7
ENDBRANCH   5   6
ENDBRANCH   4   5
ENDBRANCH   3   4
ENDBRANCH   2   3
ENDBRANCH   1   2
BRANCH   1  10
ATOM     10  C   UNL     1      49.253  20.659  50.084  1.00  0.00     0.000 C 
BRANCH  10  11
ATOM     11  C   UNL     1      50.102  21.032  51.312  1.00  0.00    -0.000 C 
BRANCH  11  12
ATOM     12  C   UNL     1      51.552  21.458  51.001  1.00  0.00    -0.000 C 
BRANCH  12  13
ATOM     13  C   UNL     1      52.249  20.636  49.901  1.00  0.00    -0.000 C 
BRANCH  13  14
ATOM     14  C   UNL     1      53.782  20.667  50.017  1.00  0.00    -0.000 C 
BRANCH  14  15
ATOM     15  C   UNL     1      54.479  20.189  48.734  1.00  0.00    -0.003 C 
ATOM     16  C   UNL     1      55.263  21.303  48.040  1.00  0.00     0.004 C 
ENDBRANCH  14  15
ENDBRANCH  13  14
ENDBRANCH  12  13
ENDBRANCH  11  12
ENDBRANCH  10  11
ENDBRANCH   1  10
TORSDOF 12
ENDMDL
MODEL 5
REMARK VINA RESULT:    -4.739      2.364      3.609
REMARK INTER + INTRA:          -9.162
REMARK INTER:                  -7.969
REMARK INTRA:                  -1.193
REMARK UNBOUND:                -1.098
REMARK SMILES CCCCCCCCCCCCCC(=O)[O-]
REMARK SMILES IDX 8 1 9 2 10 3 11 4 12 5 13 6 14 7 15 8 16 9 7 10 6 11 5 12
REMARK SMILES IDX 4 13 3 14 2 15 1 16
REMARK H PARENT
REMARK Flexibility Score: inf
ROOT
ATOM      1  C   UNL     1      51.213  23.526  52.155  1.00  0.00     0.000 C 
ENDROOT
BRANCH   1   2
ATOM      2  C   UNL     1      50.190  24.271  53.027  1.00  0.00     0.000 C 
BRANCH   2   3
ATOM      3  C   UNL     1      48.777  24.270  52.419  1.00  0.00     0.000 C 
BRANCH   3   4
ATOM      4  C   UNL     1      47.839  23.264  53.108  1.00  0.00     0.000 C 
BRANCH   4   5
ATOM      5  C   UNL     1      48.065  21.822  52.625  1.00  0.00     0.006 C 
BRANCH   5   6
ATOM      6  C   UNL     1      48.033  21.697  51.096  1.00  0.00     0.053 C 
BRANCH   6   7
ATOM      7  C   UNL     1      47.780  20.279  50.694  1.00  0.00     0.041 C 
ATOM      8  O   UNL     1      48.500  19.729  49.819  1.00  0.00    -0.550 OA
ATOM      9  O   UNL     1      46.716  19.577  51.249  1.00  0.00    -0.550 OA
ENDBRANCH   6   7
ENDBRANCH   5   6
ENDBRANCH   4   5
ENDBRANCH   3   4
ENDBRANCH   2   3
ENDBRANCH   1   2
BRANCH   1  10
ATOM     10  C   UNL     1      52.138  22.658  53.021  1.00  0.00     0.000 C 
BRANCH  10  11
ATOM     11  C   UNL     1      52.498  21.318  52.354  1.00  0.00    -0.000 C 
BRANCH  11  12
ATOM     12  C   UNL     1      51.580  20.901  51.186  1.00  0.00    -0.000 C 
BRANCH  12  13
ATOM     13  C   UNL     1      52.296  20.689  49.840  1.00  0.00    -0.000 C 
BRANCH  13  14
ATOM     14  C   UNL     1      53.829  20.680  49.976  1.00  0.00    -0.000 C 
BRANCH  14  15
ATOM     15  C   UNL     1      54.529  20.168  48.708  1.00  0.00    -0.003 C 
ATOM     16  C   UNL     1      55.272  21.275  47.959  1.00  0.00     0.004 C 
ENDBRANCH  14  15
ENDBRANCH  13  14
ENDBRANCH  12  13
ENDBRANCH  11  12
ENDBRANCH  10  11
ENDBRANCH   1  10
TORSDOF 12
ENDMDL
MODEL 6
REMARK VINA RESULT:    -4.717      3.599      4.898
REMARK INTER + INTRA:          -9.125
REMARK INTER:                  -8.544
REMARK INTRA:                  -0.581
REMARK UNBOUND:                -1.098
REMARK SMILES CCCCCCCCCCCCCC(=O)[O-]
REMARK SMILES IDX 8 1 9 2 10 3 11 4 12 5 13 6 14 7 15 8 16 9 7 10 6 11 5 12
REMARK SMILES IDX 4 13 3 14 2 15 1 16
REMARK H PARENT
REMARK Flexibility Score: inf
ROOT
ATOM      1  C   UNL     1      49.825  20.478  50.275  1.00  0.00     0.000 C 
ENDROOT
BRANCH   1   2
ATOM      2  C   UNL     1      49.197  21.465  51.272  1.00  0.00     0.000 C 
BRANCH   2   3
ATOM      3  C   UNL     1      47.724  21.146  51.576  1.00  0.00     0.000 C 
BRANCH   3   4
ATOM      4  C   UNL     1      47.171  20.012  50.696  1.00  0.00     0.000 C 
BRANCH   4   5
ATOM      5  C   UNL     1      46.390  18.964  51.506  1.00  0.00     0.006 C 
BRANCH   5   6
ATOM      6  C   UNL     1      44.937  18.814  51.035  1.00  0.00     0.053 C 
BRANCH   6   7
ATOM      7  C   UNL     1      44.313  17.601  51.648  1.00  0.00     0.041 C 
ATOM      8  O   UNL     1      43.755  17.676  52.775  1.00  0.00    -0.550 OA
ATOM      9  O   UNL     1      44.390  16.375  50.999  1.00  0.00    -0.550 OA
ENDBRANCH   6   7
ENDBRANCH   5   6
ENDBRANCH   4   5
ENDBRANCH   3   4
ENDBRANCH   2   3
ENDBRANCH   1   2
BRANCH   1  10
ATOM     10  C   UNL     1      51.159  21.018  49.739  1.00  0.00     0.000 C 
BRANCH  10  11
ATOM     11  C   UNL     1      52.207  21.229  50.847  1.00  0.00    -0.000 C 
BRANCH  11  12
ATOM     12  C   UNL     1      53.675  21.107  50.389  1.00  0.00    -0.000 C 
BRANCH  12  13
ATOM     13  C   UNL     1      53.958  19.954  49.410  1.00  0.00    -0.000 C 
BRANCH  13  14
ATOM     14  C   UNL     1      55.137  20.250  48.466  1.00  0.00    -0.000 C 
BRANCH  14  15
ATOM     15  C   UNL     1      55.233  21.737  48.094  1.00  0.00    -0.003 C 
ATOM     16  C   UNL     1      56.182  21.990  46.922  1.00  0.00     0.004 C 
ENDBRANCH  14  15
ENDBRANCH  13  14
ENDBRANCH  12  13
ENDBRANCH  11  12
ENDBRANCH  10  11
ENDBRANCH   1  10
TORSDOF 12
ENDMDL
MODEL 7
REMARK VINA RESULT:    -4.680      2.822      5.637
REMARK INTER + INTRA:          -9.061
REMARK INTER:                  -7.770
REMARK INTRA:                  -1.291
REMARK UNBOUND:                -1.098
REMARK SMILES CCCCCCCCCCCCCC(=O)[O-]
REMARK SMILES IDX 8 1 9 2 10 3 11 4 12 5 13 6 14 7 15 8 16 9 7 10 6 11 5 12
REMARK SMILES IDX 4 13 3 14 2 15 1 16
REMARK H PARENT
REMARK Flexibility Score: inf
ROOT
ATOM      1  C   UNL     1      48.843  19.631  49.988  1.00  0.00     0.000 C 
ENDROOT
BRANCH   1   2
ATOM      2  C   UNL     1      50.286  19.737  50.508  1.00  0.00     0.000 C 
BRANCH   2   3
ATOM      3  C   UNL     1      51.062  20.904  49.876  1.00  0.00     0.000 C 
BRANCH   3   4
ATOM      4  C   UNL     1      52.063  21.545  50.852  1.00  0.00     0.000 C 
BRANCH   4   5
ATOM      5  C   UNL     1      53.511  21.098  50.591  1.00  0.00     0.006 C 
BRANCH   5   6
ATOM      6  C   UNL     1      53.650  20.258  49.315  1.00  0.00     0.053 C 
BRANCH   6   7
ATOM      7  C   UNL     1      55.006  20.445  48.712  1.00  0.00     0.041 C 
ATOM      8  O   UNL     1      55.237  21.432  47.965  1.00  0.00    -0.550 OA
ATOM      9  O   UNL     1      56.002  19.503  48.936  1.00  0.00    -0.550 OA
ENDBRANCH   6   7
ENDBRANCH   5   6
ENDBRANCH   4   5
ENDBRANCH   3   4
ENDBRANCH   2   3
ENDBRANCH   1   2
BRANCH   1  10
ATOM     10  C   UNL     1      48.087  20.950  50.203  1.00  0.00     0.000 C 
BRANCH  10  11
ATOM     11  C   UNL     1      47.804  21.243  51.687  1.00  0.00    -0.000 C 
BRANCH  11  12
ATOM     12  C   UNL     1      47.960  22.720  52.104  1.00  0.00    -0.000 C 
BRANCH  12  13
ATOM     13  C   UNL     1      48.560  22.941  53.504  1.00  0.00    -0.000 C 
BRANCH  13  14
ATOM     14  C   UNL     1      50.052  22.571  53.577  1.00  0.00    -0.000 C 
BRANCH  14  15
ATOM     15  C   UNL     1      50.351  21.547  54.683  1.00  0.00    -0.003 C 
ATOM     16  C   UNL     1      51.530  20.636  54.339  1.00  0.00     0.004 C 
ENDBRANCH  14  15
ENDBRANCH  13  14
ENDBRANCH  12  13
ENDBRANCH  11  12
ENDBRANCH  10  11
ENDBRANCH   1  10
TORSDOF 12
ENDMDL
MODEL 8
REMARK VINA RESULT:    -4.601      2.799      4.148
REMARK INTER + INTRA:          -8.926
REMARK INTER:                  -7.666
REMARK INTRA:                  -1.261
REMARK UNBOUND:                -1.098
REMARK SMILES CCCCCCCCCCCCCC(=O)[O-]
REMARK SMILES IDX 8 1 9 2 10 3 11 4 12 5 13 6 14 7 15 8 16 9 7 10 6 11 5 12
REMARK SMILES IDX 4 13 3 14 2 15 1 16
REMARK H PARENT
REMARK Flexibility Score: inf
ROOT
ATOM      1  C   UNL     1      50.059  22.004  53.350  1.00  0.00     0.000 C 
ENDROOT
BRANCH   1   2
ATOM      2  C   UNL     1      51.018  21.853  54.541  1.00  0.00     0.000 C 
BRANCH   2   3
ATOM      3  C   UNL     1      51.898  20.596  54.442  1.00  0.00     0.000 C 
BRANCH   3   4
ATOM      4  C   UNL     1      53.380  20.929  54.201  1.00  0.00     0.000 C 
BRANCH   4   5
ATOM      5  C   UNL     1      53.737  22.366  54.618  1.00  0.00     0.006 C 
BRANCH   5   6
ATOM      6  C   UNL     1      54.603  22.417  55.883  1.00  0.00     0.053 C 
BRANCH   6   7
ATOM      7  C   UNL     1      55.967  22.939  55.561  1.00  0.00     0.041 C 
ATOM      8  O   UNL     1      56.926  22.737  56.352  1.00  0.00    -0.550 OA
ATOM      9  O   UNL     1      56.170  23.691  54.410  1.00  0.00    -0.550 OA
ENDBRANCH   6   7
ENDBRANCH   5   6
ENDBRANCH   4   5
ENDBRANCH   3   4
ENDBRANCH   2   3
ENDBRANCH   1   2
BRANCH   1  10
ATOM     10  C   UNL     1      50.608  23.011  52.330  1.00  0.00     0.000 C 
BRANCH  10  11
ATOM     11  C   UNL     1      51.578  22.372  51.320  1.00  0.00    -0.000 C 
BRANCH  11  12
ATOM     12  C   UNL     1      51.115  21.022  50.733  1.00  0.00    -0.000 C 
BRANCH  12  13
ATOM     13  C   UNL     1      52.140  20.324  49.821  1.00  0.00    -0.000 C 
BRANCH  13  14
ATOM     14  C   UNL     1      53.588  20.747  50.120  1.00  0.00    -0.000 C 
BRANCH  14  15
ATOM     15  C   UNL     1      54.585  20.206  49.084  1.00  0.00    -0.003 C 
ATOM     16  C   UNL     1      55.100  21.293  48.140  1.00  0.00     0.004 C 
ENDBRANCH  14  15
ENDBRANCH  13  14
ENDBRANCH  12  13
ENDBRANCH  11  12
ENDBRANCH  10  11
ENDBRANCH   1  10
TORSDOF 12
ENDMDL
MODEL 9
REMARK VINA RESULT:    -4.414      3.916      5.269
REMARK INTER + INTRA:          -8.609
REMARK INTER:                  -7.959
REMARK INTRA:                  -0.651
REMARK UNBOUND:                -1.098
REMARK SMILES CCCCCCCCCCCCCC(=O)[O-]
REMARK SMILES IDX 8 1 9 2 10 3 11 4 12 5 13 6 14 7 15 8 16 9 7 10 6 11 5 12
REMARK SMILES IDX 4 13 3 14 2 15 1 16
REMARK H PARENT
REMARK Flexibility Score: inf
ROOT
ATOM      1  C   UNL     1      51.994  20.751  53.871  1.00  0.00     0.000 C 
ENDROOT
BRANCH   1   2
ATOM      2  C   UNL     1      52.924  21.282  54.973  1.00  0.00     0.000 C 
BRANCH   2   3
ATOM      3  C   UNL     1      54.087  22.121  54.417  1.00  0.00     0.000 C 
BRANCH   3   4
ATOM      4  C   UNL     1      54.253  23.462  55.152  1.00  0.00     0.000 C 
BRANCH   4   5
ATOM      5  C   UNL     1      55.066  23.327  56.450  1.00  0.00     0.006 C 
BRANCH   5   6
ATOM      6  C   UNL     1      56.361  22.528  56.257  1.00  0.00     0.053 C 
BRANCH   6   7
ATOM      7  C   UNL     1      57.385  22.943  57.264  1.00  0.00     0.041 C 
ATOM      8  O   UNL     1      58.272  22.131  57.638  1.00  0.00    -0.550 OA
ATOM      9  O   UNL     1      57.333  24.212  57.828  1.00  0.00    -0.550 OA
ENDBRANCH   6   7
ENDBRANCH   5   6
ENDBRANCH   4   5
ENDBRANCH   3   4
ENDBRANCH   2   3
ENDBRANCH   1   2
BRANCH   1  10
ATOM     10  C   UNL     1      52.115  21.601  52.598  1.00  0.00     0.000 C 
BRANCH  10  11
ATOM     11  C   UNL     1      51.054  21.248  51.540  1.00  0.00    -0.000 C 
BRANCH  11  12
ATOM     12  C   UNL     1      51.613  20.883  50.149  1.00  0.00    -0.000 C 
BRANCH  12  13
ATOM     13  C   UNL     1      53.143  20.987  50.016  1.00  0.00    -0.000 C 
BRANCH  13  14
ATOM     14  C   UNL     1      53.741  19.870  49.144  1.00  0.00    -0.000 C 
BRANCH  14  15
ATOM     15  C   UNL     1      55.204  20.143  48.760  1.00  0.00    -0.003 C 
ATOM     16  C   UNL     1      55.370  21.429  47.951  1.00  0.00     0.004 C 
ENDBRANCH  14  15
ENDBRANCH  13  14
ENDBRANCH  12  13
ENDBRANCH  11  12
ENDBRANCH  10  11
ENDBRANCH   1  10
TORSDOF 12
ENDMDL
