MODEL 1
REMARK VINA RESULT:    71.562      0.000      0.000
REMARK INTER + INTRA:         105.375
REMARK INTER:                 105.030
REMARK INTRA:                   0.345
REMARK UNBOUND:                 0.345
REMARK SMILES O=c1c(O[C@@H]2O[C@@H](CO)[C@H](O)[C@@H](O)[C@@H]2O)c(-c2ccc(O)c(O)c2)oc2cc(O)cc(O)c12
REMARK SMILES IDX 4 1 3 2 16 3 25 4 2 5 26 6 1 7 33 8 27 9 31 10 28 11 30 12
REMARK SMILES IDX 17 13 18 14 19 15 20 16 24 17 22 18 21 19 23 21 32 23 29 25
REMARK SMILES IDX 5 27 14 28 6 29 12 30 7 31 10 32 15 33 13 35 8 37 9 38 11 40
REMARK H PARENT 21 20 23 22 32 24 29 26 15 34 13 36 9 39 11 41
REMARK Flexibility Score: inf
ROOT
ATOM      1  O   UNL     1       3.920  -5.841   9.585  1.00  0.00    -0.454 OA
ENDROOT
BRANCH   1   2
ATOM      2  C   UNL     1       4.384  -6.282  10.828  1.00  0.00     0.214 A 
ATOM      3  C   UNL     1       3.980  -5.636  12.007  1.00  0.00     0.180 A 
ATOM      4  O   UNL     1       4.138  -6.240  13.180  1.00  0.00    -0.452 OA
ATOM      5  C   UNL     1       5.137  -7.458  10.918  1.00  0.00     0.239 A 
ATOM      6  C   UNL     1       4.756  -7.412  13.306  1.00  0.00     0.146 A 
ATOM      7  O   UNL     1       5.504  -8.033   9.861  1.00  0.00    -0.285 OA
ATOM      8  C   UNL     1       5.378  -8.032  12.189  1.00  0.00     0.111 A 
ATOM      9  C   UNL     1       4.775  -8.038  14.557  1.00  0.00     0.094 A 
ATOM     10  C   UNL     1       6.120  -9.228  12.400  1.00  0.00     0.134 A 
ATOM     11  C   UNL     1       5.412  -9.264  14.729  1.00  0.00     0.123 A 
ATOM     12  C   UNL     1       6.099  -9.850  13.655  1.00  0.00     0.093 A 
BRANCH   3  13
ATOM     13  C   UNL     1       3.345  -4.301  11.953  1.00  0.00     0.025 A 
ATOM     14  C   UNL     1       1.999  -4.174  11.601  1.00  0.00     0.016 A 
ATOM     15  C   UNL     1       1.394  -2.917  11.558  1.00  0.00     0.051 A 
ATOM     16  C   UNL     1       2.114  -1.768  11.903  1.00  0.00     0.157 A 
ATOM     17  C   UNL     1       4.082  -3.153  12.262  1.00  0.00     0.062 A 
ATOM     18  C   UNL     1       3.482  -1.884  12.245  1.00  0.00     0.158 A 
BRANCH  16  19
ATOM     19  O   UNL     1       1.440  -0.542  11.908  1.00  0.00    -0.504 OA
ATOM     20  H   UNL     1       0.579  -0.393  12.413  1.00  0.00     0.293 HD
ENDBRANCH  16  19
BRANCH  18  21
ATOM     21  O   UNL     1       4.277  -0.777  12.552  1.00  0.00    -0.504 OA
ATOM     22  H   UNL     1       4.915  -0.760  13.331  1.00  0.00     0.293 HD
ENDBRANCH  18  21
ENDBRANCH   3  13
BRANCH  10  23
ATOM     23  O   UNL     1       6.933  -9.793  11.415  1.00  0.00    -0.507 OA
ATOM     24  H   UNL     1       7.738  -9.316  11.020  1.00  0.00     0.293 HD
ENDBRANCH  10  23
BRANCH  11  25
ATOM     25  O   UNL     1       5.379  -9.891  15.976  1.00  0.00    -0.508 OA
ATOM     26  H   UNL     1       5.979 -10.678  16.182  1.00  0.00     0.293 HD
ENDBRANCH  11  25
ENDBRANCH   1   2
BRANCH   1  27
ATOM     27  C   UNL     1       4.075  -6.696   8.455  1.00  0.00     0.339 C 
ATOM     28  C   UNL     1       2.933  -7.729   8.374  1.00  0.00     0.214 C 
ATOM     29  O   UNL     1       4.070  -5.913   7.288  1.00  0.00    -0.332 OA
ATOM     30  C   UNL     1       2.946  -8.479   7.005  1.00  0.00     0.180 C 
ATOM     31  C   UNL     1       4.551  -6.631   6.160  1.00  0.00     0.179 C 
ATOM     32  C   UNL     1       4.227  -8.171   6.183  1.00  0.00     0.177 C 
BRANCH  28  33
ATOM     33  O   UNL     1       1.691  -7.105   8.593  1.00  0.00    -0.384 OA
ATOM     34  H   UNL     1       1.852  -6.130   8.687  1.00  0.00     0.211 HD
ENDBRANCH  28  33
BRANCH  30  35
ATOM     35  O   UNL     1       2.858  -9.863   7.246  1.00  0.00    -0.387 OA
ATOM     36  H   UNL     1       3.014 -10.005   8.218  1.00  0.00     0.211 HD
ENDBRANCH  30  35
BRANCH  31  37
ATOM     37  C   UNL     1       6.066  -6.382   5.995  1.00  0.00     0.191 C 
BRANCH  37  38
ATOM     38  O   UNL     1       6.577  -7.055   4.875  1.00  0.00    -0.394 OA
ATOM     39  H   UNL     1       5.976  -6.860   4.104  1.00  0.00     0.210 HD
ENDBRANCH  37  38
ENDBRANCH  31  37
BRANCH  32  40
ATOM     40  O   UNL     1       4.118  -8.701   4.876  1.00  0.00    -0.387 OA
ATOM     41  H   UNL     1       3.910  -9.660   4.977  1.00  0.00     0.211 HD
ENDBRANCH  32  40
ENDBRANCH   1  27
TORSDOF 12
ENDMDL
MODEL 2
REMARK VINA RESULT:    73.128     13.430     16.552
REMARK INTER + INTRA:         107.673
REMARK INTER:                  93.253
REMARK INTRA:                  14.420
REMARK UNBOUND:                 0.345
REMARK SMILES O=c1c(O[C@@H]2O[C@@H](CO)[C@H](O)[C@@H](O)[C@@H]2O)c(-c2ccc(O)c(O)c2)oc2cc(O)cc(O)c12
REMARK SMILES IDX 4 1 3 2 16 3 25 4 2 5 26 6 1 7 33 8 27 9 31 10 28 11 30 12
REMARK SMILES IDX 17 13 18 14 19 15 20 16 24 17 22 18 21 19 23 21 32 23 29 25
REMARK SMILES IDX 5 27 14 28 6 29 12 30 7 31 10 32 15 33 13 35 8 37 9 38 11 40
REMARK H PARENT 21 20 23 22 32 24 29 26 15 34 13 36 9 39 11 41
REMARK Flexibility Score: inf
ROOT
ATOM      1  O   UNL     1      -8.081  -4.650  21.821  1.00  0.00    -0.454 OA
ENDROOT
BRANCH   1   2
ATOM      2  C   UNL     1      -7.614  -4.391  20.529  1.00  0.00     0.214 A 
ATOM      3  C   UNL     1      -6.854  -3.241  20.265  1.00  0.00     0.180 A 
ATOM      4  O   UNL     1      -6.139  -3.162  19.148  1.00  0.00    -0.452 OA
ATOM      5  C   UNL     1      -7.778  -5.347  19.520  1.00  0.00     0.239 A 
ATOM      6  C   UNL     1      -6.180  -4.097  18.203  1.00  0.00     0.146 A 
ATOM      7  O   UNL     1      -8.464  -6.374  19.755  1.00  0.00    -0.285 OA
ATOM      8  C   UNL     1      -7.082  -5.191  18.297  1.00  0.00     0.111 A 
ATOM      9  C   UNL     1      -5.307  -4.000  17.113  1.00  0.00     0.094 A 
ATOM     10  C   UNL     1      -7.164  -6.103  17.208  1.00  0.00     0.134 A 
ATOM     11  C   UNL     1      -5.320  -4.960  16.104  1.00  0.00     0.123 A 
ATOM     12  C   UNL     1      -6.260  -6.001  16.143  1.00  0.00     0.093 A 
BRANCH   3  13
ATOM     13  C   UNL     1      -6.812  -2.127  21.239  1.00  0.00     0.025 A 
ATOM     14  C   UNL     1      -7.264  -0.856  20.875  1.00  0.00     0.016 A 
ATOM     15  C   UNL     1      -7.234   0.194  21.793  1.00  0.00     0.051 A 
ATOM     16  C   UNL     1      -6.787  -0.016  23.103  1.00  0.00     0.157 A 
ATOM     17  C   UNL     1      -6.328  -2.337  22.534  1.00  0.00     0.062 A 
ATOM     18  C   UNL     1      -6.313  -1.296  23.476  1.00  0.00     0.158 A 
BRANCH  16  19
ATOM     19  O   UNL     1      -6.843   1.056  24.001  1.00  0.00    -0.504 OA
ATOM     20  H   UNL     1      -7.688   1.576  24.180  1.00  0.00     0.293 HD
ENDBRANCH  16  19
BRANCH  18  21
ATOM     21  O   UNL     1      -5.805  -1.568  24.748  1.00  0.00    -0.504 OA
ATOM     22  H   UNL     1      -4.902  -1.249  25.057  1.00  0.00     0.293 HD
ENDBRANCH  18  21
ENDBRANCH   3  13
BRANCH  10  23
ATOM     23  O   UNL     1      -8.158  -7.079  17.116  1.00  0.00    -0.507 OA
ATOM     24  H   UNL     1      -8.323  -7.771  17.842  1.00  0.00     0.293 HD
ENDBRANCH  10  23
BRANCH  11  25
ATOM     25  O   UNL     1      -4.409  -4.865  15.050  1.00  0.00    -0.508 OA
ATOM     26  H   UNL     1      -3.419  -4.747  15.223  1.00  0.00     0.293 HD
ENDBRANCH  11  25
ENDBRANCH   1   2
BRANCH   1  27
ATOM     27  C   UNL     1      -8.379  -5.996  22.183  1.00  0.00     0.339 C 
ATOM     28  C   UNL     1      -8.186  -6.953  20.990  1.00  0.00     0.214 C 
ATOM     29  O   UNL     1      -7.525  -6.386  23.229  1.00  0.00    -0.332 OA
ATOM     30  C   UNL     1      -8.243  -8.444  21.447  1.00  0.00     0.180 C 
ATOM     31  C   UNL     1      -7.971  -7.571  23.871  1.00  0.00     0.179 C 
ATOM     32  C   UNL     1      -8.712  -8.586  22.921  1.00  0.00     0.177 C 
BRANCH  28  33
ATOM     33  O   UNL     1      -6.974  -6.676  20.331  1.00  0.00    -0.384 OA
ATOM     34  H   UNL     1      -7.158  -6.632  19.357  1.00  0.00     0.211 HD
ENDBRANCH  28  33
BRANCH  30  35
ATOM     35  O   UNL     1      -9.123  -9.144  20.601  1.00  0.00    -0.387 OA
ATOM     36  H   UNL     1      -9.356  -8.537  19.848  1.00  0.00     0.211 HD
ENDBRANCH  30  35
BRANCH  31  37
ATOM     37  C   UNL     1      -8.847  -7.204  25.088  1.00  0.00     0.191 C 
BRANCH  37  38
ATOM     38  O   UNL     1      -9.122  -5.829  25.125  1.00  0.00    -0.394 OA
ATOM     39  H   UNL     1      -9.069  -5.534  26.076  1.00  0.00     0.210 HD
ENDBRANCH  37  38
ENDBRANCH  31  37
BRANCH  32  40
ATOM     40  O   UNL     1      -8.563  -9.921  23.365  1.00  0.00    -0.387 OA
ATOM     41  H   UNL     1      -8.136 -10.416  22.627  1.00  0.00     0.211 HD
ENDBRANCH  32  40
ENDBRANCH   1  27
TORSDOF 12
ENDMDL
MODEL 3
REMARK VINA RESULT:    74.068     13.015     16.528
REMARK INTER + INTRA:         109.053
REMARK INTER:                 101.516
REMARK INTRA:                   7.537
REMARK UNBOUND:                 0.345
REMARK SMILES O=c1c(O[C@@H]2O[C@@H](CO)[C@H](O)[C@@H](O)[C@@H]2O)c(-c2ccc(O)c(O)c2)oc2cc(O)cc(O)c12
REMARK SMILES IDX 4 1 3 2 16 3 25 4 2 5 26 6 1 7 33 8 27 9 31 10 28 11 30 12
REMARK SMILES IDX 17 13 18 14 19 15 20 16 24 17 22 18 21 19 23 21 32 23 29 25
REMARK SMILES IDX 5 27 14 28 6 29 12 30 7 31 10 32 15 33 13 35 8 37 9 38 11 40
REMARK H PARENT 21 20 23 22 32 24 29 26 15 34 13 36 9 39 11 41
REMARK Flexibility Score: inf
ROOT
ATOM      1  O   UNL     1      -7.162  -4.860  21.576  1.00  0.00    -0.454 OA
ENDROOT
BRANCH   1   2
ATOM      2  C   UNL     1      -6.961  -5.652  20.441  1.00  0.00     0.214 A 
ATOM      3  C   UNL     1      -7.477  -6.956  20.385  1.00  0.00     0.180 A 
ATOM      4  O   UNL     1      -7.582  -7.576  19.214  1.00  0.00    -0.452 OA
ATOM      5  C   UNL     1      -6.370  -5.102  19.299  1.00  0.00     0.239 A 
ATOM      6  C   UNL     1      -7.129  -7.048  18.080  1.00  0.00     0.146 A 
ATOM      7  O   UNL     1      -5.902  -3.935  19.352  1.00  0.00    -0.285 OA
ATOM      8  C   UNL     1      -6.407  -5.825  18.082  1.00  0.00     0.111 A 
ATOM      9  C   UNL     1      -7.386  -7.709  16.874  1.00  0.00     0.094 A 
ATOM     10  C   UNL     1      -5.849  -5.360  16.858  1.00  0.00     0.134 A 
ATOM     11  C   UNL     1      -6.928  -7.188  15.666  1.00  0.00     0.123 A 
ATOM     12  C   UNL     1      -6.146  -6.023  15.661  1.00  0.00     0.093 A 
BRANCH   3  13
ATOM     13  C   UNL     1      -7.939  -7.637  21.615  1.00  0.00     0.025 A 
ATOM     14  C   UNL     1      -8.056  -9.029  21.649  1.00  0.00     0.016 A 
ATOM     15  C   UNL     1      -8.483  -9.674  22.810  1.00  0.00     0.051 A 
ATOM     16  C   UNL     1      -8.766  -8.943  23.969  1.00  0.00     0.157 A 
ATOM     17  C   UNL     1      -8.258  -6.895  22.757  1.00  0.00     0.062 A 
ATOM     18  C   UNL     1      -8.667  -7.532  23.939  1.00  0.00     0.158 A 
BRANCH  16  19
ATOM     19  O   UNL     1      -9.125  -9.647  25.124  1.00  0.00    -0.504 OA
ATOM     20  H   UNL     1      -9.969 -10.195  25.190  1.00  0.00     0.293 HD
ENDBRANCH  16  19
BRANCH  18  21
ATOM     21  O   UNL     1      -8.981  -6.733  25.041  1.00  0.00    -0.504 OA
ATOM     22  H   UNL     1      -9.133  -7.107  25.963  1.00  0.00     0.293 HD
ENDBRANCH  18  21
ENDBRANCH   3  13
BRANCH  10  23
ATOM     23  O   UNL     1      -4.955  -4.289  16.796  1.00  0.00    -0.507 OA
ATOM     24  H   UNL     1      -4.681  -3.846  15.924  1.00  0.00     0.293 HD
ENDBRANCH  10  23
BRANCH  11  25
ATOM     25  O   UNL     1      -7.235  -7.842  14.471  1.00  0.00    -0.508 OA
ATOM     26  H   UNL     1      -6.777  -7.591  13.605  1.00  0.00     0.293 HD
ENDBRANCH  11  25
ENDBRANCH   1   2
BRANCH   1  27
ATOM     27  C   UNL     1      -7.078  -3.444  21.444  1.00  0.00     0.339 C 
ATOM     28  C   UNL     1      -7.221  -2.744  22.811  1.00  0.00     0.214 C 
ATOM     29  O   UNL     1      -5.831  -3.112  20.886  1.00  0.00    -0.332 OA
ATOM     30  C   UNL     1      -6.858  -1.229  22.710  1.00  0.00     0.180 C 
ATOM     31  C   UNL     1      -5.796  -1.774  20.411  1.00  0.00     0.179 C 
ATOM     32  C   UNL     1      -6.681  -0.767  21.237  1.00  0.00     0.177 C 
BRANCH  28  33
ATOM     33  O   UNL     1      -6.426  -3.387  23.777  1.00  0.00    -0.384 OA
ATOM     34  H   UNL     1      -5.879  -2.696  24.232  1.00  0.00     0.211 HD
ENDBRANCH  28  33
BRANCH  30  35
ATOM     35  O   UNL     1      -7.879  -0.477  23.323  1.00  0.00    -0.387 OA
ATOM     36  H   UNL     1      -8.043   0.319  22.750  1.00  0.00     0.211 HD
ENDBRANCH  30  35
BRANCH  31  37
ATOM     37  C   UNL     1      -6.169  -1.745  18.913  1.00  0.00     0.191 C 
BRANCH  37  38
ATOM     38  O   UNL     1      -5.139  -2.271  18.119  1.00  0.00    -0.394 OA
ATOM     39  H   UNL     1      -5.180  -1.819  17.231  1.00  0.00     0.210 HD
ENDBRANCH  37  38
ENDBRANCH  31  37
BRANCH  32  40
ATOM     40  O   UNL     1      -6.162   0.548  21.187  1.00  0.00    -0.387 OA
ATOM     41  H   UNL     1      -5.425   0.584  21.841  1.00  0.00     0.211 HD
ENDBRANCH  32  40
ENDBRANCH   1  27
TORSDOF 12
ENDMDL
