MODEL 1
REMARK VINA RESULT:     2.234      0.000      0.000
REMARK INTER + INTRA:           2.698
REMARK INTER:                   4.192
REMARK INTRA:                  -1.495
REMARK UNBOUND:                -1.495
REMARK SMILES CCCCCCCCC=CCCCCCCCC(=O)[O-]
REMARK SMILES IDX 10 1 9 2 11 3 12 4 13 5 14 6 15 7 16 8 17 9 18 10 19 11
REMARK SMILES IDX 20 12 8 13 7 14 6 15 5 16 4 17 3 18 2 19 1 20
REMARK H PARENT
REMARK Flexibility Score: inf
ROOT
ATOM      1  C   UNL     1       4.745 132.459 153.960  1.00  0.00    -0.031 C 
ATOM      2  C   UNL     1       3.679 131.645 154.082  1.00  0.00    -0.031 C 
ENDROOT
BRANCH   1   3
ATOM      3  C   UNL     1       4.842 133.858 154.517  1.00  0.00     0.027 C 
BRANCH   3   4
ATOM      4  C   UNL     1       4.243 134.864 153.523  1.00  0.00     0.004 C 
BRANCH   4   5
ATOM      5  C   UNL     1       3.984 136.246 154.147  1.00  0.00     0.000 C 
BRANCH   5   6
ATOM      6  C   UNL     1       3.648 136.231 155.649  1.00  0.00     0.000 C 
BRANCH   6   7
ATOM      7  C   UNL     1       2.288 135.578 155.952  1.00  0.00     0.000 C 
BRANCH   7   8
ATOM      8  C   UNL     1       1.535 136.279 157.099  1.00  0.00     0.006 C 
BRANCH   8   9
ATOM      9  C   UNL     1       2.355 137.350 157.836  1.00  0.00     0.053 C 
BRANCH   9  10
ATOM     10  C   UNL     1       1.912 137.520 159.257  1.00  0.00     0.041 C 
ATOM     11  O   UNL     1       1.990 138.646 159.815  1.00  0.00    -0.550 OA
ATOM     12  O   UNL     1       1.450 136.427 159.978  1.00  0.00    -0.550 OA
ENDBRANCH   9  10
ENDBRANCH   8   9
ENDBRANCH   7   8
ENDBRANCH   6   7
ENDBRANCH   5   6
ENDBRANCH   4   5
ENDBRANCH   3   4
ENDBRANCH   1   3
BRANCH   2  13
ATOM     13  C   UNL     1       2.380 132.011 154.756  1.00  0.00     0.027 C 
BRANCH  13  14
ATOM     14  C   UNL     1       1.397 132.665 153.772  1.00  0.00     0.004 C 
BRANCH  14  15
ATOM     15  C   UNL     1       1.616 132.199 152.324  1.00  0.00     0.000 C 
BRANCH  15  16
ATOM     16  C   UNL     1       1.748 133.372 151.341  1.00  0.00     0.000 C 
BRANCH  16  17
ATOM     17  C   UNL     1       3.204 133.555 150.891  1.00  0.00    -0.000 C 
BRANCH  17  18
ATOM     18  C   UNL     1       3.705 132.316 150.135  1.00  0.00    -0.000 C 
BRANCH  18  19
ATOM     19  C   UNL     1       5.025 131.772 150.703  1.00  0.00    -0.003 C 
ATOM     20  C   UNL     1       5.994 132.880 151.113  1.00  0.00     0.004 C 
ENDBRANCH  18  19
ENDBRANCH  17  18
ENDBRANCH  16  17
ENDBRANCH  15  16
ENDBRANCH  14  15
ENDBRANCH  13  14
ENDBRANCH   2  13
TORSDOF 15
ENDMDL
MODEL 2
REMARK VINA RESULT:     2.415      3.415      7.340
REMARK INTER + INTRA:           3.038
REMARK INTER:                   4.174
REMARK INTRA:                  -1.136
REMARK UNBOUND:                -1.495
REMARK SMILES CCCCCCCCC=CCCCCCCCC(=O)[O-]
REMARK SMILES IDX 10 1 9 2 11 3 12 4 13 5 14 6 15 7 16 8 17 9 18 10 19 11
REMARK SMILES IDX 20 12 8 13 7 14 6 15 5 16 4 17 3 18 2 19 1 20
REMARK H PARENT
REMARK Flexibility Score: inf
ROOT
ATOM      1  C   UNL     1       4.034 132.639 154.597  1.00  0.00    -0.031 C 
ATOM      2  C   UNL     1       4.640 133.752 154.142  1.00  0.00    -0.031 C 
ENDROOT
BRANCH   1   3
ATOM      3  C   UNL     1       2.550 132.371 154.542  1.00  0.00     0.027 C 
BRANCH   3   4
ATOM      4  C   UNL     1       2.172 131.777 153.178  1.00  0.00     0.004 C 
BRANCH   4   5
ATOM      5  C   UNL     1       1.012 132.526 152.497  1.00  0.00     0.000 C 
BRANCH   5   6
ATOM      6  C   UNL     1       1.402 133.334 151.247  1.00  0.00     0.000 C 
BRANCH   6   7
ATOM      7  C   UNL     1       2.921 133.373 151.009  1.00  0.00     0.000 C 
BRANCH   7   8
ATOM      8  C   UNL     1       3.332 132.708 149.681  1.00  0.00     0.006 C 
BRANCH   8   9
ATOM      9  C   UNL     1       4.656 131.931 149.743  1.00  0.00     0.053 C 
BRANCH   9  10
ATOM     10  C   UNL     1       5.304 132.028 151.091  1.00  0.00     0.041 C 
ATOM     11  O   UNL     1       6.050 133.004 151.366  1.00  0.00    -0.550 OA
ATOM     12  O   UNL     1       5.116 131.021 152.028  1.00  0.00    -0.550 OA
ENDBRANCH   9  10
ENDBRANCH   8   9
ENDBRANCH   7   8
ENDBRANCH   6   7
ENDBRANCH   5   6
ENDBRANCH   4   5
ENDBRANCH   3   4
ENDBRANCH   1   3
BRANCH   2  13
ATOM     13  C   UNL     1       3.934 134.943 153.543  1.00  0.00     0.027 C 
BRANCH  13  14
ATOM     14  C   UNL     1       4.212 136.226 154.342  1.00  0.00     0.004 C 
BRANCH  14  15
ATOM     15  C   UNL     1       3.729 136.129 155.798  1.00  0.00     0.000 C 
BRANCH  15  16
ATOM     16  C   UNL     1       2.269 135.661 155.905  1.00  0.00     0.000 C 
BRANCH  16  17
ATOM     17  C   UNL     1       1.579 136.278 157.129  1.00  0.00    -0.000 C 
BRANCH  17  18
ATOM     18  C   UNL     1       2.377 137.477 157.664  1.00  0.00    -0.000 C 
BRANCH  18  19
ATOM     19  C   UNL     1       1.891 137.939 159.046  1.00  0.00    -0.003 C 
ATOM     20  C   UNL     1       1.482 136.776 159.949  1.00  0.00     0.004 C 
ENDBRANCH  18  19
ENDBRANCH  17  18
ENDBRANCH  16  17
ENDBRANCH  15  16
ENDBRANCH  14  15
ENDBRANCH  13  14
ENDBRANCH   2  13
TORSDOF 15
ENDMDL
MODEL 3
REMARK VINA RESULT:     2.450      3.494      7.387
REMARK INTER + INTRA:           3.103
REMARK INTER:                   2.174
REMARK INTRA:                   0.930
REMARK UNBOUND:                -1.495
REMARK SMILES CCCCCCCCC=CCCCCCCCC(=O)[O-]
REMARK SMILES IDX 10 1 9 2 11 3 12 4 13 5 14 6 15 7 16 8 17 9 18 10 19 11
REMARK SMILES IDX 20 12 8 13 7 14 6 15 5 16 4 17 3 18 2 19 1 20
REMARK H PARENT
REMARK Flexibility Score: inf
ROOT
ATOM      1  C   UNL     1       4.604 134.158 153.292  1.00  0.00    -0.031 C 
ATOM      2  C   UNL     1       4.285 135.466 153.259  1.00  0.00    -0.031 C 
ENDROOT
BRANCH   1   3
ATOM      3  C   UNL     1       4.639 133.301 154.534  1.00  0.00     0.027 C 
BRANCH   3   4
ATOM      4  C   UNL     1       3.875 131.992 154.292  1.00  0.00     0.004 C 
BRANCH   4   5
ATOM      5  C   UNL     1       2.358 132.130 154.512  1.00  0.00     0.000 C 
BRANCH   5   6
ATOM      6  C   UNL     1       1.586 132.775 153.348  1.00  0.00     0.000 C 
BRANCH   6   7
ATOM      7  C   UNL     1       1.931 132.153 151.984  1.00  0.00     0.000 C 
BRANCH   7   8
ATOM      8  C   UNL     1       2.765 133.096 151.095  1.00  0.00     0.006 C 
BRANCH   8   9
ATOM      9  C   UNL     1       3.799 132.383 150.209  1.00  0.00     0.053 C 
BRANCH   9  10
ATOM     10  C   UNL     1       5.078 132.112 150.941  1.00  0.00     0.041 C 
ATOM     11  O   UNL     1       5.261 131.003 151.508  1.00  0.00    -0.550 OA
ATOM     12  O   UNL     1       6.050 133.099 151.031  1.00  0.00    -0.550 OA
ENDBRANCH   9  10
ENDBRANCH   8   9
ENDBRANCH   7   8
ENDBRANCH   6   7
ENDBRANCH   5   6
ENDBRANCH   4   5
ENDBRANCH   3   4
ENDBRANCH   1   3
BRANCH   2  13
ATOM     13  C   UNL     1       3.954 136.311 154.466  1.00  0.00     0.027 C 
BRANCH  13  14
ATOM     14  C   UNL     1       3.566 135.443 155.673  1.00  0.00     0.004 C 
BRANCH  14  15
ATOM     15  C   UNL     1       2.043 135.331 155.852  1.00  0.00     0.000 C 
BRANCH  15  16
ATOM     16  C   UNL     1       1.489 136.360 156.849  1.00  0.00     0.000 C 
BRANCH  16  17
ATOM     17  C   UNL     1       2.620 137.022 157.646  1.00  0.00    -0.000 C 
BRANCH  17  18
ATOM     18  C   UNL     1       2.073 138.129 158.561  1.00  0.00    -0.000 C 
BRANCH  18  19
ATOM     19  C   UNL     1       1.605 137.591 159.921  1.00  0.00    -0.003 C 
ATOM     20  C   UNL     1       1.679 136.068 160.013  1.00  0.00     0.004 C 
ENDBRANCH  18  19
ENDBRANCH  17  18
ENDBRANCH  16  17
ENDBRANCH  15  16
ENDBRANCH  14  15
ENDBRANCH  13  14
ENDBRANCH   2  13
TORSDOF 15
ENDMDL
MODEL 4
REMARK VINA RESULT:     2.597      2.299      6.507
REMARK INTER + INTRA:           3.379
REMARK INTER:                   4.001
REMARK INTRA:                  -0.622
REMARK UNBOUND:                -1.495
REMARK SMILES CCCCCCCCC=CCCCCCCCC(=O)[O-]
REMARK SMILES IDX 10 1 9 2 11 3 12 4 13 5 14 6 15 7 16 8 17 9 18 10 19 11
REMARK SMILES IDX 20 12 8 13 7 14 6 15 5 16 4 17 3 18 2 19 1 20
REMARK H PARENT
REMARK Flexibility Score: inf
ROOT
ATOM      1  C   UNL     1       5.318 132.914 153.061  1.00  0.00    -0.031 C 
ATOM      2  C   UNL     1       4.769 133.909 153.785  1.00  0.00    -0.031 C 
ENDROOT
BRANCH   1   3
ATOM      3  C   UNL     1       5.667 132.993 151.595  1.00  0.00     0.027 C 
BRANCH   3   4
ATOM      4  C   UNL     1       5.049 131.808 150.841  1.00  0.00     0.004 C 
BRANCH   4   5
ATOM      5  C   UNL     1       3.705 132.153 150.175  1.00  0.00     0.000 C 
BRANCH   5   6
ATOM      6  C   UNL     1       2.968 133.360 150.781  1.00  0.00     0.000 C 
BRANCH   6   7
ATOM      7  C   UNL     1       1.702 132.961 151.558  1.00  0.00     0.000 C 
BRANCH   7   8
ATOM      8  C   UNL     1       2.009 132.061 152.771  1.00  0.00     0.006 C 
BRANCH   8   9
ATOM      9  C   UNL     1       1.762 132.727 154.134  1.00  0.00     0.053 C 
BRANCH   9  10
ATOM     10  C   UNL     1       2.352 131.936 155.262  1.00  0.00     0.041 C 
ATOM     11  O   UNL     1       1.688 131.740 156.314  1.00  0.00    -0.550 OA
ATOM     12  O   UNL     1       3.649 131.450 155.168  1.00  0.00    -0.550 OA
ENDBRANCH   9  10
ENDBRANCH   8   9
ENDBRANCH   7   8
ENDBRANCH   6   7
ENDBRANCH   5   6
ENDBRANCH   4   5
ENDBRANCH   3   4
ENDBRANCH   1   3
BRANCH   2  13
ATOM     13  C   UNL     1       4.366 135.258 153.242  1.00  0.00     0.027 C 
BRANCH  13  14
ATOM     14  C   UNL     1       3.945 136.217 154.366  1.00  0.00     0.004 C 
BRANCH  14  15
ATOM     15  C   UNL     1       3.444 135.475 155.616  1.00  0.00     0.000 C 
BRANCH  15  16
ATOM     16  C   UNL     1       2.330 136.239 156.348  1.00  0.00     0.000 C 
BRANCH  16  17
ATOM     17  C   UNL     1       2.904 137.116 157.468  1.00  0.00    -0.000 C 
BRANCH  17  18
ATOM     18  C   UNL     1       1.792 137.907 158.173  1.00  0.00    -0.000 C 
BRANCH  18  19
ATOM     19  C   UNL     1       1.774 137.676 159.691  1.00  0.00    -0.003 C 
ATOM     20  C   UNL     1       1.497 136.220 160.065  1.00  0.00     0.004 C 
ENDBRANCH  18  19
ENDBRANCH  17  18
ENDBRANCH  16  17
ENDBRANCH  15  16
ENDBRANCH  14  15
ENDBRANCH  13  14
ENDBRANCH   2  13
TORSDOF 15
ENDMDL
MODEL 5
REMARK VINA RESULT:     2.655      0.642      2.643
REMARK INTER + INTRA:           3.488
REMARK INTER:                   4.100
REMARK INTRA:                  -0.611
REMARK UNBOUND:                -1.495
REMARK SMILES CCCCCCCCC=CCCCCCCCC(=O)[O-]
REMARK SMILES IDX 10 1 9 2 11 3 12 4 13 5 14 6 15 7 16 8 17 9 18 10 19 11
REMARK SMILES IDX 20 12 8 13 7 14 6 15 5 16 4 17 3 18 2 19 1 20
REMARK H PARENT
REMARK Flexibility Score: inf
ROOT
ATOM      1  C   UNL     1       4.839 133.938 153.599  1.00  0.00    -0.031 C 
ATOM      2  C   UNL     1       5.394 132.878 152.981  1.00  0.00    -0.031 C 
ENDROOT
BRANCH   1   3
ATOM      3  C   UNL     1       4.256 135.144 152.906  1.00  0.00     0.027 C 
BRANCH   3   4
ATOM      4  C   UNL     1       4.157 136.320 153.887  1.00  0.00     0.004 C 
BRANCH   4   5
ATOM      5  C   UNL     1       3.868 135.876 155.332  1.00  0.00     0.000 C 
BRANCH   5   6
ATOM      6  C   UNL     1       2.448 135.336 155.576  1.00  0.00     0.000 C 
BRANCH   6   7
ATOM      7  C   UNL     1       1.756 135.993 156.783  1.00  0.00     0.000 C 
BRANCH   7   8
ATOM      8  C   UNL     1       2.664 137.001 157.512  1.00  0.00     0.006 C 
BRANCH   8   9
ATOM      9  C   UNL     1       1.910 138.124 158.241  1.00  0.00     0.053 C 
BRANCH   9  10
ATOM     10  C   UNL     1       1.860 137.902 159.722  1.00  0.00     0.041 C 
ATOM     11  O   UNL     1       2.104 138.850 160.514  1.00  0.00    -0.550 OA
ATOM     12  O   UNL     1       1.584 136.638 160.227  1.00  0.00    -0.550 OA
ENDBRANCH   9  10
ENDBRANCH   8   9
ENDBRANCH   7   8
ENDBRANCH   6   7
ENDBRANCH   5   6
ENDBRANCH   4   5
ENDBRANCH   3   4
ENDBRANCH   1   3
BRANCH   2  13
ATOM     13  C   UNL     1       5.572 132.737 151.489  1.00  0.00     0.027 C 
BRANCH  13  14
ATOM     14  C   UNL     1       4.421 131.940 150.855  1.00  0.00     0.004 C 
BRANCH  14  15
ATOM     15  C   UNL     1       3.342 132.848 150.245  1.00  0.00     0.000 C 
BRANCH  15  16
ATOM     16  C   UNL     1       2.201 133.152 151.228  1.00  0.00     0.000 C 
BRANCH  16  17
ATOM     17  C   UNL     1       2.123 132.087 152.330  1.00  0.00    -0.000 C 
BRANCH  17  18
ATOM     18  C   UNL     1       1.590 132.688 153.639  1.00  0.00    -0.000 C 
BRANCH  18  19
ATOM     19  C   UNL     1       2.249 132.073 154.882  1.00  0.00    -0.003 C 
ATOM     20  C   UNL     1       3.481 131.234 154.544  1.00  0.00     0.004 C 
ENDBRANCH  18  19
ENDBRANCH  17  18
ENDBRANCH  16  17
ENDBRANCH  15  16
ENDBRANCH  14  15
ENDBRANCH  13  14
ENDBRANCH   2  13
TORSDOF 15
ENDMDL
MODEL 6
REMARK VINA RESULT:     2.835      0.873      3.225
REMARK INTER + INTRA:           3.826
REMARK INTER:                   4.040
REMARK INTRA:                  -0.214
REMARK UNBOUND:                -1.495
REMARK SMILES CCCCCCCCC=CCCCCCCCC(=O)[O-]
REMARK SMILES IDX 10 1 9 2 11 3 12 4 13 5 14 6 15 7 16 8 17 9 18 10 19 11
REMARK SMILES IDX 20 12 8 13 7 14 6 15 5 16 4 17 3 18 2 19 1 20
REMARK H PARENT
REMARK Flexibility Score: inf
ROOT
ATOM      1  C   UNL     1       1.504 132.113 152.730  1.00  0.00    -0.031 C 
ATOM      2  C   UNL     1       1.624 132.834 151.599  1.00  0.00    -0.031 C 
ENDROOT
BRANCH   1   3
ATOM      3  C   UNL     1       2.646 131.700 153.625  1.00  0.00     0.027 C 
BRANCH   3   4
ATOM      4  C   UNL     1       2.370 132.143 155.069  1.00  0.00     0.004 C 
BRANCH   4   5
ATOM      5  C   UNL     1       1.625 133.487 155.155  1.00  0.00     0.000 C 
BRANCH   5   6
ATOM      6  C   UNL     1       1.966 134.344 156.387  1.00  0.00     0.000 C 
BRANCH   6   7
ATOM      7  C   UNL     1       2.008 135.850 156.076  1.00  0.00     0.000 C 
BRANCH   7   8
ATOM      8  C   UNL     1       2.803 136.652 157.124  1.00  0.00     0.006 C 
BRANCH   8   9
ATOM      9  C   UNL     1       1.994 137.752 157.829  1.00  0.00     0.053 C 
BRANCH   9  10
ATOM     10  C   UNL     1       1.843 137.488 159.296  1.00  0.00     0.041 C 
ATOM     11  O   UNL     1       2.000 138.421 160.128  1.00  0.00    -0.550 OA
ATOM     12  O   UNL     1       1.568 136.204 159.748  1.00  0.00    -0.550 OA
ENDBRANCH   9  10
ENDBRANCH   8   9
ENDBRANCH   7   8
ENDBRANCH   6   7
ENDBRANCH   5   6
ENDBRANCH   4   5
ENDBRANCH   3   4
ENDBRANCH   1   3
BRANCH   2  13
ATOM     13  C   UNL     1       2.927 133.311 151.007  1.00  0.00     0.027 C 
BRANCH  13  14
ATOM     14  C   UNL     1       3.822 132.135 150.586  1.00  0.00     0.004 C 
BRANCH  14  15
ATOM     15  C   UNL     1       5.028 131.949 151.520  1.00  0.00     0.000 C 
BRANCH  15  16
ATOM     16  C   UNL     1       5.437 133.254 152.222  1.00  0.00     0.000 C 
BRANCH  16  17
ATOM     17  C   UNL     1       5.033 133.235 153.702  1.00  0.00    -0.000 C 
BRANCH  17  18
ATOM     18  C   UNL     1       4.594 134.631 154.170  1.00  0.00    -0.000 C 
BRANCH  18  19
ATOM     19  C   UNL     1       4.250 135.564 153.000  1.00  0.00    -0.003 C 
ATOM     20  C   UNL     1       4.623 137.020 153.276  1.00  0.00     0.004 C 
ENDBRANCH  18  19
ENDBRANCH  17  18
ENDBRANCH  16  17
ENDBRANCH  15  16
ENDBRANCH  14  15
ENDBRANCH  13  14
ENDBRANCH   2  13
TORSDOF 15
ENDMDL
MODEL 7
REMARK VINA RESULT:     3.224      3.774      7.720
REMARK INTER + INTRA:           4.556
REMARK INTER:                   4.512
REMARK INTRA:                   0.044
REMARK UNBOUND:                -1.495
REMARK SMILES CCCCCCCCC=CCCCCCCCC(=O)[O-]
REMARK SMILES IDX 10 1 9 2 11 3 12 4 13 5 14 6 15 7 16 8 17 9 18 10 19 11
REMARK SMILES IDX 20 12 8 13 7 14 6 15 5 16 4 17 3 18 2 19 1 20
REMARK H PARENT
REMARK Flexibility Score: inf
ROOT
ATOM      1  C   UNL     1       4.534 135.616 154.118  1.00  0.00    -0.031 C 
ATOM      2  C   UNL     1       3.763 136.084 155.118  1.00  0.00    -0.031 C 
ENDROOT
BRANCH   1   3
ATOM      3  C   UNL     1       4.326 134.307 153.396  1.00  0.00     0.027 C 
BRANCH   3   4
ATOM      4  C   UNL     1       4.897 133.150 154.228  1.00  0.00     0.004 C 
BRANCH   4   5
ATOM      5  C   UNL     1       4.043 131.872 154.147  1.00  0.00     0.000 C 
BRANCH   5   6
ATOM      6  C   UNL     1       2.539 132.075 154.402  1.00  0.00     0.000 C 
BRANCH   6   7
ATOM      7  C   UNL     1       1.784 132.576 153.159  1.00  0.00     0.000 C 
BRANCH   7   8
ATOM      8  C   UNL     1       2.324 131.967 151.850  1.00  0.00     0.006 C 
BRANCH   8   9
ATOM      9  C   UNL     1       3.122 132.947 150.976  1.00  0.00     0.053 C 
BRANCH   9  10
ATOM     10  C   UNL     1       4.350 132.314 150.396  1.00  0.00     0.041 C 
ATOM     11  O   UNL     1       5.444 132.366 151.018  1.00  0.00    -0.550 OA
ATOM     12  O   UNL     1       4.295 131.702 149.151  1.00  0.00    -0.550 OA
ENDBRANCH   9  10
ENDBRANCH   8   9
ENDBRANCH   7   8
ENDBRANCH   6   7
ENDBRANCH   5   6
ENDBRANCH   4   5
ENDBRANCH   3   4
ENDBRANCH   1   3
BRANCH   2  13
ATOM     13  C   UNL     1       2.586 135.357 155.721  1.00  0.00     0.027 C 
BRANCH  13  14
ATOM     14  C   UNL     1       1.801 136.256 156.688  1.00  0.00     0.004 C 
BRANCH  14  15
ATOM     15  C   UNL     1       2.720 137.116 157.571  1.00  0.00     0.000 C 
BRANCH  15  16
ATOM     16  C   UNL     1       1.966 138.258 158.269  1.00  0.00     0.000 C 
BRANCH  16  17
ATOM     17  C   UNL     1       1.924 138.045 159.788  1.00  0.00    -0.000 C 
BRANCH  17  18
ATOM     18  C   UNL     1       1.108 136.794 160.146  1.00  0.00    -0.000 C 
BRANCH  18  19
ATOM     19  C   UNL     1       1.940 135.505 160.068  1.00  0.00    -0.003 C 
ATOM     20  C   UNL     1       1.099 134.279 159.715  1.00  0.00     0.004 C 
ENDBRANCH  18  19
ENDBRANCH  17  18
ENDBRANCH  16  17
ENDBRANCH  15  16
ENDBRANCH  14  15
ENDBRANCH  13  14
ENDBRANCH   2  13
TORSDOF 15
ENDMDL
MODEL 8
REMARK VINA RESULT:     3.439      2.374      6.313
REMARK INTER + INTRA:           4.960
REMARK INTER:                   4.286
REMARK INTRA:                   0.674
REMARK UNBOUND:                -1.495
REMARK SMILES CCCCCCCCC=CCCCCCCCC(=O)[O-]
REMARK SMILES IDX 10 1 9 2 11 3 12 4 13 5 14 6 15 7 16 8 17 9 18 10 19 11
REMARK SMILES IDX 20 12 8 13 7 14 6 15 5 16 4 17 3 18 2 19 1 20
REMARK H PARENT
REMARK Flexibility Score: inf
ROOT
ATOM      1  C   UNL     1       2.494 131.615 153.105  1.00  0.00    -0.031 C 
ATOM      2  C   UNL     1       2.480 131.726 154.447  1.00  0.00    -0.031 C 
ENDROOT
BRANCH   1   3
ATOM      3  C   UNL     1       1.703 132.477 152.152  1.00  0.00     0.027 C 
BRANCH   3   4
ATOM      4  C   UNL     1       2.622 133.023 151.050  1.00  0.00     0.004 C 
BRANCH   4   5
ATOM      5  C   UNL     1       3.858 132.140 150.804  1.00  0.00     0.000 C 
BRANCH   5   6
ATOM      6  C   UNL     1       5.206 132.787 151.170  1.00  0.00     0.000 C 
BRANCH   6   7
ATOM      7  C   UNL     1       5.571 132.611 152.654  1.00  0.00     0.000 C 
BRANCH   7   8
ATOM      8  C   UNL     1       4.957 133.702 153.551  1.00  0.00     0.006 C 
BRANCH   8   9
ATOM      9  C   UNL     1       4.274 134.845 152.784  1.00  0.00     0.053 C 
BRANCH   9  10
ATOM     10  C   UNL     1       4.421 136.162 153.485  1.00  0.00     0.041 C 
ATOM     11  O   UNL     1       4.297 136.231 154.736  1.00  0.00    -0.550 OA
ATOM     12  O   UNL     1       4.657 137.317 152.752  1.00  0.00    -0.550 OA
ENDBRANCH   9  10
ENDBRANCH   8   9
ENDBRANCH   7   8
ENDBRANCH   6   7
ENDBRANCH   5   6
ENDBRANCH   4   5
ENDBRANCH   3   4
ENDBRANCH   1   3
BRANCH   2  13
ATOM     13  C   UNL     1       1.634 132.700 155.230  1.00  0.00     0.027 C 
BRANCH  13  14
ATOM     14  C   UNL     1       2.418 133.975 155.580  1.00  0.00     0.004 C 
BRANCH  14  15
ATOM     15  C   UNL     1       1.653 134.888 156.551  1.00  0.00     0.000 C 
BRANCH  15  16
ATOM     16  C   UNL     1       1.995 136.373 156.357  1.00  0.00     0.000 C 
BRANCH  16  17
ATOM     17  C   UNL     1       2.773 136.923 157.559  1.00  0.00    -0.000 C 
BRANCH  17  18
ATOM     18  C   UNL     1       1.978 138.029 158.270  1.00  0.00    -0.000 C 
BRANCH  18  19
ATOM     19  C   UNL     1       1.551 137.628 159.690  1.00  0.00    -0.003 C 
ATOM     20  C   UNL     1       1.812 136.153 159.992  1.00  0.00     0.004 C 
ENDBRANCH  18  19
ENDBRANCH  17  18
ENDBRANCH  16  17
ENDBRANCH  15  16
ENDBRANCH  14  15
ENDBRANCH  13  14
ENDBRANCH   2  13
TORSDOF 15
ENDMDL
MODEL 9
REMARK VINA RESULT:     3.929      0.885      2.213
REMARK INTER + INTRA:           5.879
REMARK INTER:                   4.459
REMARK INTRA:                   1.420
REMARK UNBOUND:                -1.495
REMARK SMILES CCCCCCCCC=CCCCCCCCC(=O)[O-]
REMARK SMILES IDX 10 1 9 2 11 3 12 4 13 5 14 6 15 7 16 8 17 9 18 10 19 11
REMARK SMILES IDX 20 12 8 13 7 14 6 15 5 16 4 17 3 18 2 19 1 20
REMARK H PARENT
REMARK Flexibility Score: inf
ROOT
ATOM      1  C   UNL     1       2.764 134.430 151.780  1.00  0.00    -0.031 C 
ATOM      2  C   UNL     1       1.923 133.385 151.665  1.00  0.00    -0.031 C 
ENDROOT
BRANCH   1   3
ATOM      3  C   UNL     1       3.934 134.507 152.730  1.00  0.00     0.027 C 
BRANCH   3   4
ATOM      4  C   UNL     1       4.224 135.971 153.090  1.00  0.00     0.004 C 
BRANCH   4   5
ATOM      5  C   UNL     1       4.140 136.247 154.602  1.00  0.00     0.000 C 
BRANCH   5   6
ATOM      6  C   UNL     1       3.300 135.237 155.404  1.00  0.00     0.000 C 
BRANCH   6   7
ATOM      7  C   UNL     1       2.214 135.909 156.261  1.00  0.00     0.000 C 
BRANCH   7   8
ATOM      8  C   UNL     1       2.801 136.818 157.358  1.00  0.00     0.006 C 
BRANCH   8   9
ATOM      9  C   UNL     1       1.774 137.741 158.034  1.00  0.00     0.053 C 
BRANCH   9  10
ATOM     10  C   UNL     1       1.827 137.644 159.529  1.00  0.00     0.041 C 
ATOM     11  O   UNL     1       1.604 136.544 160.100  1.00  0.00    -0.550 OA
ATOM     12  O   UNL     1       2.083 138.775 160.291  1.00  0.00    -0.550 OA
ENDBRANCH   9  10
ENDBRANCH   8   9
ENDBRANCH   7   8
ENDBRANCH   6   7
ENDBRANCH   5   6
ENDBRANCH   4   5
ENDBRANCH   3   4
ENDBRANCH   1   3
BRANCH   2  13
ATOM     13  C   UNL     1       1.978 132.130 152.501  1.00  0.00     0.027 C 
BRANCH  13  14
ATOM     14  C   UNL     1       2.208 132.450 153.987  1.00  0.00     0.004 C 
BRANCH  14  15
ATOM     15  C   UNL     1       3.495 131.813 154.534  1.00  0.00     0.000 C 
BRANCH  15  16
ATOM     16  C   UNL     1       4.471 131.405 153.419  1.00  0.00     0.000 C 
BRANCH  16  17
ATOM     17  C   UNL     1       5.400 132.567 153.045  1.00  0.00    -0.000 C 
BRANCH  17  18
ATOM     18  C   UNL     1       5.626 132.623 151.526  1.00  0.00    -0.000 C 
BRANCH  18  19
ATOM     19  C   UNL     1       4.848 131.533 150.774  1.00  0.00    -0.003 C 
ATOM     20  C   UNL     1       4.424 131.971 149.372  1.00  0.00     0.004 C 
ENDBRANCH  18  19
ENDBRANCH  17  18
ENDBRANCH  16  17
ENDBRANCH  15  16
ENDBRANCH  14  15
ENDBRANCH  13  14
ENDBRANCH   2  13
TORSDOF 15
ENDMDL
