MODEL 1
REMARK VINA RESULT:    38.385      0.000      0.000
REMARK INTER + INTRA:          45.978
REMARK INTER:                  46.239
REMARK INTRA:                  -0.261
REMARK UNBOUND:                -0.261
REMARK SMILES O=c1c(O)c(-c2ccc(O)c(O)c2)oc2cc(O)cc(O)c12
REMARK SMILES IDX 5 1 3 2 2 3 1 4 22 5 20 6 19 7 17 8 16 9 15 10 14 11 6 12
REMARK SMILES IDX 7 13 8 14 9 15 13 16 11 17 10 18 12 20 4 22 21 24 18 26
REMARK H PARENT 10 19 12 21 4 23 21 25 18 27
REMARK Flexibility Score: inf
ROOT
ATOM      1  C   UNL     1      34.192 -24.143   5.832  1.00  0.00     0.180 A 
ATOM      2  C   UNL     1      34.549 -24.217   4.474  1.00  0.00     0.208 A 
ATOM      3  C   UNL     1      35.829 -23.792   4.083  1.00  0.00     0.238 A 
ATOM      4  O   UNL     1      36.124 -23.809   2.860  1.00  0.00    -0.285 OA
ATOM      5  C   UNL     1      36.740 -23.313   5.056  1.00  0.00     0.111 A 
ATOM      6  C   UNL     1      38.076 -22.893   4.778  1.00  0.00     0.134 A 
ATOM      7  C   UNL     1      38.844 -22.314   5.796  1.00  0.00     0.093 A 
ATOM      8  C   UNL     1      38.348 -22.201   7.097  1.00  0.00     0.123 A 
ATOM      9  C   UNL     1      37.066 -22.662   7.392  1.00  0.00     0.094 A 
ATOM     10  C   UNL     1      36.263 -23.211   6.389  1.00  0.00     0.146 A 
ATOM     11  O   UNL     1      35.044 -23.628   6.710  1.00  0.00    -0.452 OA
ENDROOT
BRANCH   1  12
ATOM     12  C   UNL     1      32.871 -24.597   6.325  1.00  0.00     0.025 A 
ATOM     13  C   UNL     1      32.602 -25.972   6.414  1.00  0.00     0.016 A 
ATOM     14  C   UNL     1      31.356 -26.421   6.857  1.00  0.00     0.051 A 
ATOM     15  C   UNL     1      30.355 -25.508   7.202  1.00  0.00     0.157 A 
ATOM     16  C   UNL     1      31.857 -23.679   6.654  1.00  0.00     0.062 A 
ATOM     17  C   UNL     1      30.604 -24.129   7.096  1.00  0.00     0.158 A 
BRANCH  15  18
ATOM     18  O   UNL     1      29.122 -25.987   7.643  1.00  0.00    -0.504 OA
ATOM     19  H   UNL     1      28.986 -26.955   7.908  1.00  0.00     0.293 HD
ENDBRANCH  15  18
BRANCH  17  20
ATOM     20  O   UNL     1      29.607 -23.213   7.426  1.00  0.00    -0.504 OA
ATOM     21  H   UNL     1      29.829 -22.299   7.804  1.00  0.00     0.293 HD
ENDBRANCH  17  20
ENDBRANCH   1  12
BRANCH   2  22
ATOM     22  O   UNL     1      33.627 -24.673   3.529  1.00  0.00    -0.502 OA
ATOM     23  H   UNL     1      32.762 -25.132   3.790  1.00  0.00     0.293 HD
ENDBRANCH   2  22
BRANCH   6  24
ATOM     24  O   UNL     1      38.699 -23.046   3.536  1.00  0.00    -0.507 OA
ATOM     25  H   UNL     1      38.651 -22.376   2.783  1.00  0.00     0.293 HD
ENDBRANCH   6  24
BRANCH   8  26
ATOM     26  O   UNL     1      39.125 -21.638   8.108  1.00  0.00    -0.508 OA
ATOM     27  H   UNL     1      38.713 -21.068   8.836  1.00  0.00     0.293 HD
ENDBRANCH   8  26
TORSDOF 6
ENDMDL
MODEL 2
REMARK VINA RESULT:    38.744     11.128     12.834
REMARK INTER + INTRA:          46.410
REMARK INTER:                  46.665
REMARK INTRA:                  -0.255
REMARK UNBOUND:                -0.261
REMARK SMILES O=c1c(O)c(-c2ccc(O)c(O)c2)oc2cc(O)cc(O)c12
REMARK SMILES IDX 5 1 3 2 2 3 1 4 22 5 20 6 19 7 17 8 16 9 15 10 14 11 6 12
REMARK SMILES IDX 7 13 8 14 9 15 13 16 11 17 10 18 12 20 4 22 21 24 18 26
REMARK H PARENT 10 19 12 21 4 23 21 25 18 27
REMARK Flexibility Score: inf
ROOT
ATOM      1  C   UNL     1      30.166 -32.026  -2.649  1.00  0.00     0.180 A 
ATOM      2  C   UNL     1      30.421 -31.692  -1.308  1.00  0.00     0.208 A 
ATOM      3  C   UNL     1      31.673 -31.157  -0.966  1.00  0.00     0.238 A 
ATOM      4  O   UNL     1      31.916 -30.911   0.244  1.00  0.00    -0.285 OA
ATOM      5  C   UNL     1      32.647 -30.947  -1.972  1.00  0.00     0.111 A 
ATOM      6  C   UNL     1      33.935 -30.373  -1.745  1.00  0.00     0.134 A 
ATOM      7  C   UNL     1      34.867 -30.334  -2.790  1.00  0.00     0.093 A 
ATOM      8  C   UNL     1      34.535 -30.786  -4.069  1.00  0.00     0.123 A 
ATOM      9  C   UNL     1      33.260 -31.293  -4.315  1.00  0.00     0.094 A 
ATOM     10  C   UNL     1      32.322 -31.379  -3.284  1.00  0.00     0.146 A 
ATOM     11  O   UNL     1      31.122 -31.878  -3.558  1.00  0.00    -0.452 OA
ENDROOT
BRANCH   1  12
ATOM     12  C   UNL     1      28.861 -32.571  -3.091  1.00  0.00     0.025 A 
ATOM     13  C   UNL     1      28.780 -33.905  -3.521  1.00  0.00     0.016 A 
ATOM     14  C   UNL     1      27.564 -34.433  -3.960  1.00  0.00     0.051 A 
ATOM     15  C   UNL     1      26.415 -33.635  -3.993  1.00  0.00     0.157 A 
ATOM     16  C   UNL     1      27.710 -31.764  -3.144  1.00  0.00     0.062 A 
ATOM     17  C   UNL     1      26.489 -32.292  -3.587  1.00  0.00     0.158 A 
BRANCH  15  18
ATOM     18  O   UNL     1      25.215 -34.191  -4.435  1.00  0.00    -0.504 OA
ATOM     19  H   UNL     1      25.190 -34.994  -5.052  1.00  0.00     0.293 HD
ENDBRANCH  15  18
BRANCH  17  20
ATOM     20  O   UNL     1      25.352 -31.487  -3.630  1.00  0.00    -0.504 OA
ATOM     21  H   UNL     1      24.457 -31.813  -3.283  1.00  0.00     0.293 HD
ENDBRANCH  17  20
ENDBRANCH   1  12
BRANCH   2  22
ATOM     22  O   UNL     1      29.453 -31.928  -0.329  1.00  0.00    -0.502 OA
ATOM     23  H   UNL     1      29.596 -32.582   0.432  1.00  0.00     0.293 HD
ENDBRANCH   2  22
BRANCH   6  24
ATOM     24  O   UNL     1      34.335 -29.809  -0.530  1.00  0.00    -0.507 OA
ATOM     25  H   UNL     1      34.830 -30.303   0.197  1.00  0.00     0.293 HD
ENDBRANCH   6  24
BRANCH   8  26
ATOM     26  O   UNL     1      35.463 -30.728  -5.107  1.00  0.00    -0.508 OA
ATOM     27  H   UNL     1      36.271 -31.338  -5.129  1.00  0.00     0.293 HD
ENDBRANCH   8  26
TORSDOF 6
ENDMDL
