MODEL 1
REMARK VINA RESULT:    -6.911      0.000      0.000
REMARK INTER + INTRA:         -16.224
REMARK INTER:                 -14.992
REMARK INTRA:                  -1.232
REMARK UNBOUND:                -1.232
REMARK SMILES CCCCCCCCCCCCCCCCCCCCCC(=O)[O-]
REMARK SMILES IDX 12 1 11 2 10 3 9 4 8 5 7 6 6 7 5 8 4 9 3 10 2 11 1 12 13 13
REMARK SMILES IDX 14 14 15 15 16 16 17 17 18 18 19 19 20 20 21 21 22 22 23 23
REMARK SMILES IDX 24 24
REMARK H PARENT
REMARK Flexibility Score: inf
ROOT
ATOM      1  C   UNL     1      29.839  -3.261  19.461  1.00  0.00     0.000 C 
ENDROOT
BRANCH   1   2
ATOM      2  C   UNL     1      29.319  -1.849  19.134  1.00  0.00     0.000 C 
BRANCH   2   3
ATOM      3  C   UNL     1      29.102  -0.991  20.391  1.00  0.00     0.000 C 
BRANCH   3   4
ATOM      4  C   UNL     1      27.809  -0.159  20.329  1.00  0.00    -0.000 C 
BRANCH   4   5
ATOM      5  C   UNL     1      26.753  -0.786  19.402  1.00  0.00    -0.000 C 
BRANCH   5   6
ATOM      6  C   UNL     1      25.486  -1.221  20.159  1.00  0.00    -0.000 C 
BRANCH   6   7
ATOM      7  C   UNL     1      24.236  -0.449  19.705  1.00  0.00    -0.000 C 
BRANCH   7   8
ATOM      8  C   UNL     1      24.521   1.041  19.449  1.00  0.00    -0.000 C 
BRANCH   8   9
ATOM      9  C   UNL     1      23.366   1.748  18.721  1.00  0.00    -0.000 C 
BRANCH   9  10
ATOM     10  C   UNL     1      23.852   2.616  17.548  1.00  0.00    -0.000 C 
BRANCH  10  11
ATOM     11  C   UNL     1      23.253   2.176  16.202  1.00  0.00    -0.003 C 
ATOM     12  C   UNL     1      22.526   3.310  15.478  1.00  0.00     0.004 C 
ENDBRANCH  10  11
ENDBRANCH   9  10
ENDBRANCH   8   9
ENDBRANCH   7   8
ENDBRANCH   6   7
ENDBRANCH   5   6
ENDBRANCH   4   5
ENDBRANCH   3   4
ENDBRANCH   2   3
ENDBRANCH   1   2
BRANCH   1  13
ATOM     13  C   UNL     1      29.156  -4.358  18.623  1.00  0.00     0.000 C 
BRANCH  13  14
ATOM     14  C   UNL     1      27.630  -4.206  18.448  1.00  0.00     0.000 C 
BRANCH  14  15
ATOM     15  C   UNL     1      26.804  -4.348  19.739  1.00  0.00     0.000 C 
BRANCH  15  16
ATOM     16  C   UNL     1      25.384  -4.874  19.485  1.00  0.00     0.000 C 
BRANCH  16  17
ATOM     17  C   UNL     1      25.314  -6.392  19.704  1.00  0.00     0.000 C 
BRANCH  17  18
ATOM     18  C   UNL     1      26.608  -7.107  19.277  1.00  0.00     0.000 C 
BRANCH  18  19
ATOM     19  C   UNL     1      26.626  -8.583  19.708  1.00  0.00     0.000 C 
BRANCH  19  20
ATOM     20  C   UNL     1      25.969  -8.809  21.079  1.00  0.00     0.006 C 
BRANCH  20  21
ATOM     21  C   UNL     1      24.607  -9.512  20.977  1.00  0.00     0.053 C 
BRANCH  21  22
ATOM     22  C   UNL     1      23.530  -8.656  21.565  1.00  0.00     0.041 C 
ATOM     23  O   UNL     1      23.595  -8.295  22.770  1.00  0.00    -0.550 OA
ATOM     24  O   UNL     1      22.433  -8.290  20.795  1.00  0.00    -0.550 OA
ENDBRANCH  21  22
ENDBRANCH  20  21
ENDBRANCH  19  20
ENDBRANCH  18  19
ENDBRANCH  17  18
ENDBRANCH  16  17
ENDBRANCH  15  16
ENDBRANCH  14  15
ENDBRANCH  13  14
ENDBRANCH   1  13
TORSDOF 20
ENDMDL
MODEL 2
REMARK VINA RESULT:    -6.757      5.268      9.468
REMARK INTER + INTRA:         -15.889
REMARK INTER:                 -14.851
REMARK INTRA:                  -1.038
REMARK UNBOUND:                -1.232
REMARK SMILES CCCCCCCCCCCCCCCCCCCCCC(=O)[O-]
REMARK SMILES IDX 12 1 11 2 10 3 9 4 8 5 7 6 6 7 5 8 4 9 3 10 2 11 1 12 13 13
REMARK SMILES IDX 14 14 15 15 16 16 17 17 18 18 19 19 20 20 21 21 22 22 23 23
REMARK SMILES IDX 24 24
REMARK H PARENT
REMARK Flexibility Score: inf
ROOT
ATOM      1  C   UNL     1      23.790  -9.265  21.608  1.00  0.00     0.000 C 
ENDROOT
BRANCH   1   2
ATOM      2  C   UNL     1      23.129  -8.718  22.886  1.00  0.00     0.000 C 
BRANCH   2   3
ATOM      3  C   UNL     1      22.700  -9.832  23.855  1.00  0.00     0.000 C 
BRANCH   3   4
ATOM      4  C   UNL     1      21.547  -9.406  24.781  1.00  0.00    -0.000 C 
BRANCH   4   5
ATOM      5  C   UNL     1      20.801  -8.168  24.256  1.00  0.00    -0.000 C 
BRANCH   5   6
ATOM      6  C   UNL     1      19.445  -7.956  24.952  1.00  0.00    -0.000 C 
BRANCH   6   7
ATOM      7  C   UNL     1      18.441  -7.200  24.065  1.00  0.00    -0.000 C 
BRANCH   7   8
ATOM      8  C   UNL     1      17.004  -7.264  24.611  1.00  0.00    -0.000 C 
BRANCH   8   9
ATOM      9  C   UNL     1      16.774  -6.295  25.783  1.00  0.00    -0.000 C 
BRANCH   9  10
ATOM     10  C   UNL     1      15.545  -5.395  25.570  1.00  0.00    -0.000 C 
BRANCH  10  11
ATOM     11  C   UNL     1      15.903  -4.058  24.902  1.00  0.00    -0.003 C 
ATOM     12  C   UNL     1      17.378  -3.689  25.068  1.00  0.00     0.004 C 
ENDBRANCH  10  11
ENDBRANCH   9  10
ENDBRANCH   8   9
ENDBRANCH   7   8
ENDBRANCH   6   7
ENDBRANCH   5   6
ENDBRANCH   4   5
ENDBRANCH   3   4
ENDBRANCH   2   3
ENDBRANCH   1   2
BRANCH   1  13
ATOM     13  C   UNL     1      24.714  -8.238  20.926  1.00  0.00     0.000 C 
BRANCH  13  14
ATOM     14  C   UNL     1      23.996  -7.087  20.189  1.00  0.00     0.000 C 
BRANCH  14  15
ATOM     15  C   UNL     1      24.869  -6.302  19.192  1.00  0.00     0.000 C 
BRANCH  15  16
ATOM     16  C   UNL     1      25.894  -5.393  19.884  1.00  0.00     0.000 C 
BRANCH  16  17
ATOM     17  C   UNL     1      25.954  -4.017  19.204  1.00  0.00     0.000 C 
BRANCH  17  18
ATOM     18  C   UNL     1      25.717  -2.863  20.192  1.00  0.00     0.000 C 
BRANCH  18  19
ATOM     19  C   UNL     1      27.005  -2.076  20.487  1.00  0.00     0.000 C 
BRANCH  19  20
ATOM     20  C   UNL     1      27.897  -1.911  19.246  1.00  0.00     0.006 C 
BRANCH  20  21
ATOM     21  C   UNL     1      29.395  -1.949  19.581  1.00  0.00     0.053 C 
BRANCH  21  22
ATOM     22  C   UNL     1      30.045  -3.138  18.943  1.00  0.00     0.041 C 
ATOM     23  O   UNL     1      29.375  -3.900  18.197  1.00  0.00    -0.550 OA
ATOM     24  O   UNL     1      31.378  -3.427  19.206  1.00  0.00    -0.550 OA
ENDBRANCH  21  22
ENDBRANCH  20  21
ENDBRANCH  19  20
ENDBRANCH  18  19
ENDBRANCH  17  18
ENDBRANCH  16  17
ENDBRANCH  15  16
ENDBRANCH  14  15
ENDBRANCH  13  14
ENDBRANCH   1  13
TORSDOF 20
ENDMDL
MODEL 3
REMARK VINA RESULT:    -6.598      3.733      9.507
REMARK INTER + INTRA:         -15.545
REMARK INTER:                 -14.034
REMARK INTRA:                  -1.511
REMARK UNBOUND:                -1.232
REMARK SMILES CCCCCCCCCCCCCCCCCCCCCC(=O)[O-]
REMARK SMILES IDX 12 1 11 2 10 3 9 4 8 5 7 6 6 7 5 8 4 9 3 10 2 11 1 12 13 13
REMARK SMILES IDX 14 14 15 15 16 16 17 17 18 18 19 19 20 20 21 21 22 22 23 23
REMARK SMILES IDX 24 24
REMARK H PARENT
REMARK Flexibility Score: inf
ROOT
ATOM      1  C   UNL     1      27.328  -4.547  18.421  1.00  0.00     0.000 C 
ENDROOT
BRANCH   1   2
ATOM      2  C   UNL     1      26.738  -4.926  19.792  1.00  0.00     0.000 C 
BRANCH   2   3
ATOM      3  C   UNL     1      25.987  -6.267  19.763  1.00  0.00     0.000 C 
BRANCH   3   4
ATOM      4  C   UNL     1      24.460  -6.094  19.687  1.00  0.00    -0.000 C 
BRANCH   4   5
ATOM      5  C   UNL     1      23.705  -7.367  20.106  1.00  0.00    -0.000 C 
BRANCH   5   6
ATOM      6  C   UNL     1      24.416  -8.131  21.236  1.00  0.00    -0.000 C 
BRANCH   6   7
ATOM      7  C   UNL     1      23.597  -9.330  21.741  1.00  0.00    -0.000 C 
BRANCH   7   8
ATOM      8  C   UNL     1      23.100  -9.142  23.186  1.00  0.00    -0.000 C 
BRANCH   8   9
ATOM      9  C   UNL     1      22.751 -10.473  23.869  1.00  0.00    -0.000 C 
BRANCH   9  10
ATOM     10  C   UNL     1      22.802 -10.380  25.404  1.00  0.00    -0.000 C 
BRANCH  10  11
ATOM     11  C   UNL     1      23.135 -11.727  26.065  1.00  0.00    -0.003 C 
ATOM     12  C   UNL     1      22.646 -11.814  27.511  1.00  0.00     0.004 C 
ENDBRANCH  10  11
ENDBRANCH   9  10
ENDBRANCH   8   9
ENDBRANCH   7   8
ENDBRANCH   6   7
ENDBRANCH   5   6
ENDBRANCH   4   5
ENDBRANCH   3   4
ENDBRANCH   2   3
ENDBRANCH   1   2
BRANCH   1  13
ATOM     13  C   UNL     1      28.860  -4.696  18.368  1.00  0.00     0.000 C 
BRANCH  13  14
ATOM     14  C   UNL     1      29.660  -3.590  19.090  1.00  0.00     0.000 C 
BRANCH  14  15
ATOM     15  C   UNL     1      29.150  -2.155  18.860  1.00  0.00     0.000 C 
BRANCH  15  16
ATOM     16  C   UNL     1      29.157  -1.308  20.141  1.00  0.00     0.000 C 
BRANCH  16  17
ATOM     17  C   UNL     1      27.735  -1.143  20.697  1.00  0.00     0.000 C 
BRANCH  17  18
ATOM     18  C   UNL     1      26.667  -1.161  19.590  1.00  0.00     0.000 C 
BRANCH  18  19
ATOM     19  C   UNL     1      25.306  -1.660  20.104  1.00  0.00     0.000 C 
BRANCH  19  20
ATOM     20  C   UNL     1      24.144  -0.742  19.690  1.00  0.00     0.006 C 
BRANCH  20  21
ATOM     21  C   UNL     1      24.597   0.694  19.393  1.00  0.00     0.053 C 
BRANCH  21  22
ATOM     22  C   UNL     1      23.530   1.438  18.652  1.00  0.00     0.041 C 
ATOM     23  O   UNL     1      22.422   1.672  19.204  1.00  0.00    -0.550 OA
ATOM     24  O   UNL     1      23.743   1.836  17.338  1.00  0.00    -0.550 OA
ENDBRANCH  21  22
ENDBRANCH  20  21
ENDBRANCH  19  20
ENDBRANCH  18  19
ENDBRANCH  17  18
ENDBRANCH  16  17
ENDBRANCH  15  16
ENDBRANCH  14  15
ENDBRANCH  13  14
ENDBRANCH   1  13
TORSDOF 20
ENDMDL
MODEL 4
REMARK VINA RESULT:    -6.598      4.577      7.616
REMARK INTER + INTRA:         -15.545
REMARK INTER:                 -14.294
REMARK INTRA:                  -1.250
REMARK UNBOUND:                -1.232
REMARK SMILES CCCCCCCCCCCCCCCCCCCCCC(=O)[O-]
REMARK SMILES IDX 12 1 11 2 10 3 9 4 8 5 7 6 6 7 5 8 4 9 3 10 2 11 1 12 13 13
REMARK SMILES IDX 14 14 15 15 16 16 17 17 18 18 19 19 20 20 21 21 22 22 23 23
REMARK SMILES IDX 24 24
REMARK H PARENT
REMARK Flexibility Score: inf
ROOT
ATOM      1  C   UNL     1      24.817  -8.290  20.925  1.00  0.00     0.000 C 
ENDROOT
BRANCH   1   2
ATOM      2  C   UNL     1      24.403  -7.107  20.030  1.00  0.00     0.000 C 
BRANCH   2   3
ATOM      3  C   UNL     1      25.367  -5.915  20.140  1.00  0.00     0.000 C 
BRANCH   3   4
ATOM      4  C   UNL     1      25.149  -4.868  19.034  1.00  0.00    -0.000 C 
BRANCH   4   5
ATOM      5  C   UNL     1      26.467  -4.435  18.369  1.00  0.00    -0.000 C 
BRANCH   5   6
ATOM      6  C   UNL     1      27.699  -4.760  19.232  1.00  0.00    -0.000 C 
BRANCH   6   7
ATOM      7  C   UNL     1      28.971  -4.058  18.727  1.00  0.00    -0.000 C 
BRANCH   7   8
ATOM      8  C   UNL     1      29.555  -3.079  19.761  1.00  0.00    -0.000 C 
BRANCH   8   9
ATOM      9  C   UNL     1      29.147  -1.621  19.490  1.00  0.00    -0.000 C 
BRANCH   9  10
ATOM     10  C   UNL     1      28.080  -1.115  20.476  1.00  0.00    -0.000 C 
BRANCH  10  11
ATOM     11  C   UNL     1      26.799  -0.647  19.767  1.00  0.00    -0.003 C 
ATOM     12  C   UNL     1      25.579  -1.495  20.129  1.00  0.00     0.004 C 
ENDBRANCH  10  11
ENDBRANCH   9  10
ENDBRANCH   8   9
ENDBRANCH   7   8
ENDBRANCH   6   7
ENDBRANCH   5   6
ENDBRANCH   4   5
ENDBRANCH   3   4
ENDBRANCH   2   3
ENDBRANCH   1   2
BRANCH   1  13
ATOM     13  C   UNL     1      23.611  -9.084  21.461  1.00  0.00     0.000 C 
BRANCH  13  14
ATOM     14  C   UNL     1      23.130  -8.687  22.874  1.00  0.00     0.000 C 
BRANCH  14  15
ATOM     15  C   UNL     1      22.822  -9.865  23.817  1.00  0.00     0.000 C 
BRANCH  15  16
ATOM     16  C   UNL     1      21.682  -9.560  24.800  1.00  0.00     0.000 C 
BRANCH  16  17
ATOM     17  C   UNL     1      20.820  -8.394  24.294  1.00  0.00     0.000 C 
BRANCH  17  18
ATOM     18  C   UNL     1      19.506  -8.252  25.080  1.00  0.00     0.000 C 
BRANCH  18  19
ATOM     19  C   UNL     1      18.424  -7.510  24.277  1.00  0.00     0.000 C 
BRANCH  19  20
ATOM     20  C   UNL     1      17.276  -6.997  25.161  1.00  0.00     0.006 C 
BRANCH  20  21
ATOM     21  C   UNL     1      15.939  -6.913  24.410  1.00  0.00     0.053 C 
BRANCH  21  22
ATOM     22  C   UNL     1      15.103  -5.795  24.951  1.00  0.00     0.041 C 
ATOM     23  O   UNL     1      15.373  -4.602  24.652  1.00  0.00    -0.550 OA
ATOM     24  O   UNL     1      14.052  -6.068  25.817  1.00  0.00    -0.550 OA
ENDBRANCH  21  22
ENDBRANCH  20  21
ENDBRANCH  19  20
ENDBRANCH  18  19
ENDBRANCH  17  18
ENDBRANCH  16  17
ENDBRANCH  15  16
ENDBRANCH  14  15
ENDBRANCH  13  14
ENDBRANCH   1  13
TORSDOF 20
ENDMDL
MODEL 5
REMARK VINA RESULT:    -6.590      5.365      9.459
REMARK INTER + INTRA:         -15.526
REMARK INTER:                 -14.638
REMARK INTRA:                  -0.888
REMARK UNBOUND:                -1.232
REMARK SMILES CCCCCCCCCCCCCCCCCCCCCC(=O)[O-]
REMARK SMILES IDX 12 1 11 2 10 3 9 4 8 5 7 6 6 7 5 8 4 9 3 10 2 11 1 12 13 13
REMARK SMILES IDX 14 14 15 15 16 16 17 17 18 18 19 19 20 20 21 21 22 22 23 23
REMARK SMILES IDX 24 24
REMARK H PARENT
REMARK Flexibility Score: inf
ROOT
ATOM      1  C   UNL     1      23.670  -9.014  21.775  1.00  0.00     0.000 C 
ENDROOT
BRANCH   1   2
ATOM      2  C   UNL     1      23.247  -8.622  23.203  1.00  0.00     0.000 C 
BRANCH   2   3
ATOM      3  C   UNL     1      22.558  -9.772  23.954  1.00  0.00     0.000 C 
BRANCH   3   4
ATOM      4  C   UNL     1      21.461  -9.283  24.916  1.00  0.00    -0.000 C 
BRANCH   4   5
ATOM      5  C   UNL     1      20.563  -8.207  24.282  1.00  0.00    -0.000 C 
BRANCH   5   6
ATOM      6  C   UNL     1      19.163  -8.155  24.919  1.00  0.00    -0.000 C 
BRANCH   6   7
ATOM      7  C   UNL     1      18.290  -7.034  24.330  1.00  0.00    -0.000 C 
BRANCH   7   8
ATOM      8  C   UNL     1      16.839  -7.483  24.081  1.00  0.00    -0.000 C 
BRANCH   8   9
ATOM      9  C   UNL     1      15.849  -6.865  25.082  1.00  0.00    -0.000 C 
BRANCH   9  10
ATOM     10  C   UNL     1      15.386  -5.460  24.662  1.00  0.00    -0.000 C 
BRANCH  10  11
ATOM     11  C   UNL     1      15.968  -4.355  25.559  1.00  0.00    -0.003 C 
ATOM     12  C   UNL     1      17.119  -3.599  24.894  1.00  0.00     0.004 C 
ENDBRANCH  10  11
ENDBRANCH   9  10
ENDBRANCH   8   9
ENDBRANCH   7   8
ENDBRANCH   6   7
ENDBRANCH   5   6
ENDBRANCH   4   5
ENDBRANCH   3   4
ENDBRANCH   2   3
ENDBRANCH   1   2
BRANCH   1  13
ATOM     13  C   UNL     1      24.421  -7.886  21.043  1.00  0.00     0.000 C 
BRANCH  13  14
ATOM     14  C   UNL     1      25.780  -8.285  20.428  1.00  0.00     0.000 C 
BRANCH  14  15
ATOM     15  C   UNL     1      26.571  -7.132  19.783  1.00  0.00     0.000 C 
BRANCH  15  16
ATOM     16  C   UNL     1      25.889  -5.767  19.961  1.00  0.00     0.000 C 
BRANCH  16  17
ATOM     17  C   UNL     1      26.487  -4.727  19.002  1.00  0.00     0.000 C 
BRANCH  17  18
ATOM     18  C   UNL     1      27.886  -4.262  19.439  1.00  0.00     0.000 C 
BRANCH  18  19
ATOM     19  C   UNL     1      28.018  -2.729  19.433  1.00  0.00     0.000 C 
BRANCH  19  20
ATOM     20  C   UNL     1      27.101  -2.051  20.464  1.00  0.00     0.006 C 
BRANCH  20  21
ATOM     21  C   UNL     1      25.802  -1.516  19.844  1.00  0.00     0.053 C 
BRANCH  21  22
ATOM     22  C   UNL     1      25.793  -0.019  19.858  1.00  0.00     0.041 C 
ATOM     23  O   UNL     1      26.877   0.620  19.913  1.00  0.00    -0.550 OA
ATOM     24  O   UNL     1      24.586   0.670  19.852  1.00  0.00    -0.550 OA
ENDBRANCH  21  22
ENDBRANCH  20  21
ENDBRANCH  19  20
ENDBRANCH  18  19
ENDBRANCH  17  18
ENDBRANCH  16  17
ENDBRANCH  15  16
ENDBRANCH  14  15
ENDBRANCH  13  14
ENDBRANCH   1  13
TORSDOF 20
ENDMDL
MODEL 6
REMARK VINA RESULT:    -6.527      3.898      6.533
REMARK INTER + INTRA:         -15.389
REMARK INTER:                 -14.095
REMARK INTRA:                  -1.294
REMARK UNBOUND:                -1.232
REMARK SMILES CCCCCCCCCCCCCCCCCCCCCC(=O)[O-]
REMARK SMILES IDX 12 1 11 2 10 3 9 4 8 5 7 6 6 7 5 8 4 9 3 10 2 11 1 12 13 13
REMARK SMILES IDX 14 14 15 15 16 16 17 17 18 18 19 19 20 20 21 21 22 22 23 23
REMARK SMILES IDX 24 24
REMARK H PARENT
REMARK Flexibility Score: inf
ROOT
ATOM      1  C   UNL     1      25.424  -7.694  19.677  1.00  0.00     0.000 C 
ENDROOT
BRANCH   1   2
ATOM      2  C   UNL     1      26.617  -6.773  19.992  1.00  0.00     0.000 C 
BRANCH   2   3
ATOM      3  C   UNL     1      26.210  -5.295  20.107  1.00  0.00     0.000 C 
BRANCH   3   4
ATOM      4  C   UNL     1      26.347  -4.534  18.776  1.00  0.00    -0.000 C 
BRANCH   4   5
ATOM      5  C   UNL     1      27.804  -4.149  18.468  1.00  0.00    -0.000 C 
BRANCH   5   6
ATOM      6  C   UNL     1      28.594  -3.768  19.732  1.00  0.00    -0.000 C 
BRANCH   6   7
ATOM      7  C   UNL     1      29.690  -2.727  19.448  1.00  0.00    -0.000 C 
BRANCH   7   8
ATOM      8  C   UNL     1      29.204  -1.283  19.665  1.00  0.00    -0.000 C 
BRANCH   8   9
ATOM      9  C   UNL     1      27.917  -1.211  20.503  1.00  0.00    -0.000 C 
BRANCH   9  10
ATOM     10  C   UNL     1      26.887  -0.229  19.919  1.00  0.00    -0.000 C 
BRANCH  10  11
ATOM     11  C   UNL     1      25.497  -0.864  19.753  1.00  0.00    -0.003 C 
ATOM     12  C   UNL     1      24.374   0.172  19.710  1.00  0.00     0.004 C 
ENDBRANCH  10  11
ENDBRANCH   9  10
ENDBRANCH   8   9
ENDBRANCH   7   8
ENDBRANCH   6   7
ENDBRANCH   5   6
ENDBRANCH   4   5
ENDBRANCH   3   4
ENDBRANCH   2   3
ENDBRANCH   1   2
BRANCH   1  13
ATOM     13  C   UNL     1      24.246  -7.501  20.650  1.00  0.00     0.000 C 
BRANCH  13  14
ATOM     14  C   UNL     1      23.792  -8.770  21.403  1.00  0.00     0.000 C 
BRANCH  14  15
ATOM     15  C   UNL     1      23.397  -8.553  22.875  1.00  0.00     0.000 C 
BRANCH  15  16
ATOM     16  C   UNL     1      22.736  -9.788  23.504  1.00  0.00     0.000 C 
BRANCH  16  17
ATOM     17  C   UNL     1      21.800  -9.383  24.653  1.00  0.00     0.000 C 
BRANCH  17  18
ATOM     18  C   UNL     1      20.859  -8.230  24.264  1.00  0.00     0.000 C 
BRANCH  18  19
ATOM     19  C   UNL     1      19.528  -8.281  25.033  1.00  0.00     0.000 C 
BRANCH  19  20
ATOM     20  C   UNL     1      18.585  -7.125  24.664  1.00  0.00     0.006 C 
BRANCH  20  21
ATOM     21  C   UNL     1      17.199  -7.609  24.213  1.00  0.00     0.053 C 
BRANCH  21  22
ATOM     22  C   UNL     1      16.141  -6.642  24.641  1.00  0.00     0.041 C 
ATOM     23  O   UNL     1      16.408  -5.743  25.482  1.00  0.00    -0.550 OA
ATOM     24  O   UNL     1      14.848  -6.758  24.145  1.00  0.00    -0.550 OA
ENDBRANCH  21  22
ENDBRANCH  20  21
ENDBRANCH  19  20
ENDBRANCH  18  19
ENDBRANCH  17  18
ENDBRANCH  16  17
ENDBRANCH  15  16
ENDBRANCH  14  15
ENDBRANCH  13  14
ENDBRANCH   1  13
TORSDOF 20
ENDMDL
MODEL 7
REMARK VINA RESULT:    -6.480      1.256      4.542
REMARK INTER + INTRA:         -15.288
REMARK INTER:                 -13.059
REMARK INTRA:                  -2.230
REMARK UNBOUND:                -1.232
REMARK SMILES CCCCCCCCCCCCCCCCCCCCCC(=O)[O-]
REMARK SMILES IDX 12 1 11 2 10 3 9 4 8 5 7 6 6 7 5 8 4 9 3 10 2 11 1 12 13 13
REMARK SMILES IDX 14 14 15 15 16 16 17 17 18 18 19 19 20 20 21 21 22 22 23 23
REMARK SMILES IDX 24 24
REMARK H PARENT
REMARK Flexibility Score: inf
ROOT
ATOM      1  C   UNL     1      24.434  -1.060  19.303  1.00  0.00     0.000 C 
ENDROOT
BRANCH   1   2
ATOM      2  C   UNL     1      24.140   0.376  19.774  1.00  0.00     0.000 C 
BRANCH   2   3
ATOM      3  C   UNL     1      23.714   1.302  18.623  1.00  0.00     0.000 C 
BRANCH   3   4
ATOM      4  C   UNL     1      24.502   2.623  18.598  1.00  0.00    -0.000 C 
BRANCH   4   5
ATOM      5  C   UNL     1      25.895   2.463  17.965  1.00  0.00    -0.000 C 
BRANCH   5   6
ATOM      6  C   UNL     1      27.020   2.421  19.015  1.00  0.00    -0.000 C 
BRANCH   6   7
ATOM      7  C   UNL     1      27.724   1.055  19.067  1.00  0.00    -0.000 C 
BRANCH   7   8
ATOM      8  C   UNL     1      27.776   0.470  20.489  1.00  0.00    -0.000 C 
BRANCH   8   9
ATOM      9  C   UNL     1      28.493  -0.889  20.544  1.00  0.00    -0.000 C 
BRANCH   9  10
ATOM     10  C   UNL     1      28.801  -1.450  19.146  1.00  0.00    -0.000 C 
BRANCH  10  11
ATOM     11  C   UNL     1      29.842  -2.580  19.181  1.00  0.00    -0.003 C 
ATOM     12  C   UNL     1      29.240  -3.950  18.867  1.00  0.00     0.004 C 
ENDBRANCH  10  11
ENDBRANCH   9  10
ENDBRANCH   8   9
ENDBRANCH   7   8
ENDBRANCH   6   7
ENDBRANCH   5   6
ENDBRANCH   4   5
ENDBRANCH   3   4
ENDBRANCH   2   3
ENDBRANCH   1   2
BRANCH   1  13
ATOM     13  C   UNL     1      25.261  -1.866  20.322  1.00  0.00     0.000 C 
BRANCH  13  14
ATOM     14  C   UNL     1      25.762  -3.241  19.831  1.00  0.00     0.000 C 
BRANCH  14  15
ATOM     15  C   UNL     1      24.714  -4.098  19.098  1.00  0.00     0.000 C 
BRANCH  15  16
ATOM     16  C   UNL     1      24.782  -5.583  19.483  1.00  0.00     0.000 C 
BRANCH  16  17
ATOM     17  C   UNL     1      26.203  -5.972  19.915  1.00  0.00     0.000 C 
BRANCH  17  18
ATOM     18  C   UNL     1      26.794  -7.096  19.046  1.00  0.00     0.000 C 
BRANCH  18  19
ATOM     19  C   UNL     1      26.898  -8.427  19.810  1.00  0.00     0.000 C 
BRANCH  19  20
ATOM     20  C   UNL     1      25.999  -8.468  21.056  1.00  0.00     0.006 C 
BRANCH  20  21
ATOM     21  C   UNL     1      24.701  -9.256  20.827  1.00  0.00     0.053 C 
BRANCH  21  22
ATOM     22  C   UNL     1      23.544  -8.558  21.471  1.00  0.00     0.041 C 
ATOM     23  O   UNL     1      22.520  -8.272  20.794  1.00  0.00    -0.550 OA
ATOM     24  O   UNL     1      23.611  -8.185  22.808  1.00  0.00    -0.550 OA
ENDBRANCH  21  22
ENDBRANCH  20  21
ENDBRANCH  19  20
ENDBRANCH  18  19
ENDBRANCH  17  18
ENDBRANCH  16  17
ENDBRANCH  15  16
ENDBRANCH  14  15
ENDBRANCH  13  14
ENDBRANCH   1  13
TORSDOF 20
ENDMDL
MODEL 8
REMARK VINA RESULT:    -6.397      4.895     10.096
REMARK INTER + INTRA:         -15.108
REMARK INTER:                 -13.646
REMARK INTRA:                  -1.462
REMARK UNBOUND:                -1.232
REMARK SMILES CCCCCCCCCCCCCCCCCCCCCC(=O)[O-]
REMARK SMILES IDX 12 1 11 2 10 3 9 4 8 5 7 6 6 7 5 8 4 9 3 10 2 11 1 12 13 13
REMARK SMILES IDX 14 14 15 15 16 16 17 17 18 18 19 19 20 20 21 21 22 22 23 23
REMARK SMILES IDX 24 24
REMARK H PARENT
REMARK Flexibility Score: inf
ROOT
ATOM      1  C   UNL     1      26.755  -1.555  20.581  1.00  0.00     0.000 C 
ENDROOT
BRANCH   1   2
ATOM      2  C   UNL     1      27.900  -0.781  19.902  1.00  0.00     0.000 C 
BRANCH   2   3
ATOM      3  C   UNL     1      28.740  -1.664  18.966  1.00  0.00     0.000 C 
BRANCH   3   4
ATOM      4  C   UNL     1      29.240  -2.950  19.649  1.00  0.00    -0.000 C 
BRANCH   4   5
ATOM      5  C   UNL     1      29.212  -4.164  18.705  1.00  0.00    -0.000 C 
BRANCH   5   6
ATOM      6  C   UNL     1      27.783  -4.656  18.418  1.00  0.00    -0.000 C 
BRANCH   6   7
ATOM      7  C   UNL     1      27.044  -5.092  19.695  1.00  0.00    -0.000 C 
BRANCH   7   8
ATOM      8  C   UNL     1      25.522  -4.890  19.595  1.00  0.00    -0.000 C 
BRANCH   8   9
ATOM      9  C   UNL     1      24.756  -6.217  19.474  1.00  0.00    -0.000 C 
BRANCH   9  10
ATOM     10  C   UNL     1      25.344  -7.321  20.370  1.00  0.00    -0.000 C 
BRANCH  10  11
ATOM     11  C   UNL     1      24.365  -7.774  21.465  1.00  0.00    -0.003 C 
ATOM     12  C   UNL     1      23.595  -9.039  21.085  1.00  0.00     0.004 C 
ENDBRANCH  10  11
ENDBRANCH   9  10
ENDBRANCH   8   9
ENDBRANCH   7   8
ENDBRANCH   6   7
ENDBRANCH   5   6
ENDBRANCH   4   5
ENDBRANCH   3   4
ENDBRANCH   2   3
ENDBRANCH   1   2
BRANCH   1  13
ATOM     13  C   UNL     1      25.366  -1.160  20.047  1.00  0.00     0.000 C 
BRANCH  13  14
ATOM     14  C   UNL     1      25.180   0.339  19.724  1.00  0.00     0.000 C 
BRANCH  14  15
ATOM     15  C   UNL     1      23.969   0.673  18.835  1.00  0.00     0.000 C 
BRANCH  15  16
ATOM     16  C   UNL     1      23.606   2.165  18.856  1.00  0.00     0.000 C 
BRANCH  16  17
ATOM     17  C   UNL     1      23.863   2.810  17.486  1.00  0.00     0.000 C 
BRANCH  17  18
ATOM     18  C   UNL     1      23.204   2.029  16.337  1.00  0.00     0.000 C 
BRANCH  18  19
ATOM     19  C   UNL     1      22.138   2.861  15.604  1.00  0.00     0.000 C 
BRANCH  19  20
ATOM     20  C   UNL     1      22.740   4.036  14.819  1.00  0.00     0.006 C 
BRANCH  20  21
ATOM     21  C   UNL     1      22.165   4.161  13.400  1.00  0.00     0.053 C 
BRANCH  21  22
ATOM     22  C   UNL     1      22.821   5.287  12.665  1.00  0.00     0.041 C 
ATOM     23  O   UNL     1      22.296   6.432  12.662  1.00  0.00    -0.550 OA
ATOM     24  O   UNL     1      23.991   5.065  11.949  1.00  0.00    -0.550 OA
ENDBRANCH  21  22
ENDBRANCH  20  21
ENDBRANCH  19  20
ENDBRANCH  18  19
ENDBRANCH  17  18
ENDBRANCH  16  17
ENDBRANCH  15  16
ENDBRANCH  14  15
ENDBRANCH  13  14
ENDBRANCH   1  13
TORSDOF 20
ENDMDL
MODEL 9
REMARK VINA RESULT:    -6.340      2.387      4.249
REMARK INTER + INTRA:         -14.986
REMARK INTER:                 -13.772
REMARK INTRA:                  -1.213
REMARK UNBOUND:                -1.232
REMARK SMILES CCCCCCCCCCCCCCCCCCCCCC(=O)[O-]
REMARK SMILES IDX 12 1 11 2 10 3 9 4 8 5 7 6 6 7 5 8 4 9 3 10 2 11 1 12 13 13
REMARK SMILES IDX 14 14 15 15 16 16 17 17 18 18 19 19 20 20 21 21 22 22 23 23
REMARK SMILES IDX 24 24
REMARK H PARENT
REMARK Flexibility Score: inf
ROOT
ATOM      1  C   UNL     1      26.074  -4.000  18.516  1.00  0.00     0.000 C 
ENDROOT
BRANCH   1   2
ATOM      2  C   UNL     1      27.198  -4.932  18.028  1.00  0.00     0.000 C 
BRANCH   2   3
ATOM      3  C   UNL     1      28.501  -4.756  18.823  1.00  0.00     0.000 C 
BRANCH   3   4
ATOM      4  C   UNL     1      28.476  -3.525  19.746  1.00  0.00    -0.000 C 
BRANCH   4   5
ATOM      5  C   UNL     1      28.807  -2.224  18.996  1.00  0.00    -0.000 C 
BRANCH   5   6
ATOM      6  C   UNL     1      29.233  -1.088  19.943  1.00  0.00    -0.000 C 
BRANCH   6   7
ATOM      7  C   UNL     1      28.052  -0.520  20.747  1.00  0.00    -0.000 C 
BRANCH   7   8
ATOM      8  C   UNL     1      26.850  -0.156  19.858  1.00  0.00    -0.000 C 
BRANCH   8   9
ATOM      9  C   UNL     1      25.615  -1.025  20.148  1.00  0.00    -0.000 C 
BRANCH   9  10
ATOM     10  C   UNL     1      24.327  -0.440  19.544  1.00  0.00    -0.000 C 
BRANCH  10  11
ATOM     11  C   UNL     1      24.329   1.097  19.530  1.00  0.00    -0.003 C 
ATOM     12  C   UNL     1      23.929   1.678  18.173  1.00  0.00     0.004 C 
ENDBRANCH  10  11
ENDBRANCH   9  10
ENDBRANCH   8   9
ENDBRANCH   7   8
ENDBRANCH   6   7
ENDBRANCH   5   6
ENDBRANCH   4   5
ENDBRANCH   3   4
ENDBRANCH   2   3
ENDBRANCH   1   2
BRANCH   1  13
ATOM     13  C   UNL     1      25.034  -4.723  19.392  1.00  0.00     0.000 C 
BRANCH  13  14
ATOM     14  C   UNL     1      25.459  -6.111  19.917  1.00  0.00     0.000 C 
BRANCH  14  15
ATOM     15  C   UNL     1      24.313  -7.122  20.101  1.00  0.00     0.000 C 
BRANCH  15  16
ATOM     16  C   UNL     1      24.750  -8.392  20.846  1.00  0.00     0.000 C 
BRANCH  16  17
ATOM     17  C   UNL     1      23.535  -9.134  21.422  1.00  0.00     0.000 C 
BRANCH  17  18
ATOM     18  C   UNL     1      23.181  -8.664  22.843  1.00  0.00     0.000 C 
BRANCH  18  19
ATOM     19  C   UNL     1      22.805  -9.836  23.766  1.00  0.00     0.000 C 
BRANCH  19  20
ATOM     20  C   UNL     1      21.674  -9.480  24.745  1.00  0.00     0.006 C 
BRANCH  20  21
ATOM     21  C   UNL     1      20.738  -8.390  24.203  1.00  0.00     0.053 C 
BRANCH  21  22
ATOM     22  C   UNL     1      19.475  -8.339  25.003  1.00  0.00     0.041 C 
ATOM     23  O   UNL     1      19.495  -8.597  26.236  1.00  0.00    -0.550 OA
ATOM     24  O   UNL     1      18.267  -8.047  24.381  1.00  0.00    -0.550 OA
ENDBRANCH  21  22
ENDBRANCH  20  21
ENDBRANCH  19  20
ENDBRANCH  18  19
ENDBRANCH  17  18
ENDBRANCH  16  17
ENDBRANCH  15  16
ENDBRANCH  14  15
ENDBRANCH  13  14
ENDBRANCH   1  13
TORSDOF 20
ENDMDL
