MODEL 1
REMARK VINA RESULT:    -3.072      0.000      0.000
REMARK INTER + INTRA:         -13.676
REMARK INTER:                  -8.100
REMARK INTRA:                  -5.576
REMARK UNBOUND:                -5.576
REMARK SMILES CCCCCCCCCCCCCCCCCCCCCCCCCCCCCC(=O)[O-]
REMARK SMILES IDX 16 1 17 2 18 3 19 4 20 5 21 6 22 7 23 8 24 9 25 10 26 11
REMARK SMILES IDX 27 12 28 13 29 14 30 15 31 16 32 17 15 18 14 19 13 20 12 21
REMARK SMILES IDX 11 22 10 23 9 24 8 25 7 26 6 27 5 28 4 29 3 30 2 31 1 32
REMARK H PARENT
REMARK Flexibility Score: inf
ROOT
ATOM      1  C   UNL     1      60.756  31.308  58.805  1.00  0.00     0.000 C 
ENDROOT
BRANCH   1   2
ATOM      2  C   UNL     1      61.239  31.690  60.216  1.00  0.00     0.000 C 
BRANCH   2   3
ATOM      3  C   UNL     1      60.798  30.691  61.298  1.00  0.00     0.000 C 
BRANCH   3   4
ATOM      4  C   UNL     1      61.917  29.708  61.688  1.00  0.00     0.000 C 
BRANCH   4   5
ATOM      5  C   UNL     1      63.332  30.187  61.303  1.00  0.00     0.000 C 
BRANCH   5   6
ATOM      6  C   UNL     1      64.122  29.123  60.527  1.00  0.00     0.000 C 
BRANCH   6   7
ATOM      7  C   UNL     1      63.229  27.992  59.984  1.00  0.00     0.000 C 
BRANCH   7   8
ATOM      8  C   UNL     1      62.729  28.229  58.543  1.00  0.00     0.000 C 
BRANCH   8   9
ATOM      9  C   UNL     1      61.347  27.600  58.287  1.00  0.00     0.000 C 
BRANCH   9  10
ATOM     10  C   UNL     1      60.869  26.699  59.440  1.00  0.00     0.000 C 
BRANCH  10  11
ATOM     11  C   UNL     1      59.650  27.225  60.222  1.00  0.00     0.000 C 
BRANCH  11  12
ATOM     12  C   UNL     1      59.212  26.291  61.359  1.00  0.00     0.000 C 
BRANCH  12  13
ATOM     13  C   UNL     1      57.691  26.333  61.555  1.00  0.00     0.006 C 
BRANCH  13  14
ATOM     14  C   UNL     1      57.029  27.244  60.515  1.00  0.00     0.053 C 
BRANCH  14  15
ATOM     15  C   UNL     1      55.830  27.926  61.094  1.00  0.00     0.041 C 
ATOM     16  O   UNL     1      55.112  28.665  60.370  1.00  0.00    -0.550 OA
ATOM     17  O   UNL     1      55.495  27.739  62.430  1.00  0.00    -0.550 OA
ENDBRANCH  14  15
ENDBRANCH  13  14
ENDBRANCH  12  13
ENDBRANCH  11  12
ENDBRANCH  10  11
ENDBRANCH   9  10
ENDBRANCH   8   9
ENDBRANCH   7   8
ENDBRANCH   6   7
ENDBRANCH   5   6
ENDBRANCH   4   5
ENDBRANCH   3   4
ENDBRANCH   2   3
ENDBRANCH   1   2
BRANCH   1  18
ATOM     18  C   UNL     1      61.755  31.699  57.701  1.00  0.00     0.000 C 
BRANCH  18  19
ATOM     19  C   UNL     1      63.168  31.985  58.248  1.00  0.00     0.000 C 
BRANCH  19  20
ATOM     20  C   UNL     1      63.842  33.243  57.667  1.00  0.00     0.000 C 
BRANCH  20  21
ATOM     21  C   UNL     1      64.680  34.080  58.656  1.00  0.00     0.000 C 
BRANCH  21  22
ATOM     22  C   UNL     1      64.516  33.683  60.139  1.00  0.00     0.000 C 
BRANCH  22  23
ATOM     23  C   UNL     1      63.976  34.834  61.008  1.00  0.00     0.000 C 
BRANCH  23  24
ATOM     24  C   UNL     1      62.483  35.118  60.763  1.00  0.00    -0.000 C 
BRANCH  24  25
ATOM     25  C   UNL     1      62.164  36.504  60.172  1.00  0.00    -0.000 C 
BRANCH  25  26
ATOM     26  C   UNL     1      61.119  36.453  59.043  1.00  0.00    -0.000 C 
BRANCH  26  27
ATOM     27  C   UNL     1      60.688  35.019  58.698  1.00  0.00    -0.000 C 
BRANCH  27  28
ATOM     28  C   UNL     1      59.303  34.950  58.017  1.00  0.00    -0.000 C 
BRANCH  28  29
ATOM     29  C   UNL     1      59.408  34.598  56.524  1.00  0.00    -0.000 C 
BRANCH  29  30
ATOM     30  C   UNL     1      58.534  33.387  56.151  1.00  0.00    -0.000 C 
BRANCH  30  31
ATOM     31  C   UNL     1      57.395  33.118  57.155  1.00  0.00    -0.003 C 
ATOM     32  C   UNL     1      57.318  31.650  57.573  1.00  0.00     0.004 C 
ENDBRANCH  30  31
ENDBRANCH  29  30
ENDBRANCH  28  29
ENDBRANCH  27  28
ENDBRANCH  26  27
ENDBRANCH  25  26
ENDBRANCH  24  25
ENDBRANCH  23  24
ENDBRANCH  22  23
ENDBRANCH  21  22
ENDBRANCH  20  21
ENDBRANCH  19  20
ENDBRANCH  18  19
ENDBRANCH   1  18
TORSDOF 28
ENDMDL
MODEL 2
REMARK VINA RESULT:    -3.039      2.743      5.032
REMARK INTER + INTRA:         -13.589
REMARK INTER:                  -8.205
REMARK INTRA:                  -5.384
REMARK UNBOUND:                -5.576
REMARK SMILES CCCCCCCCCCCCCCCCCCCCCCCCCCCCCC(=O)[O-]
REMARK SMILES IDX 16 1 17 2 18 3 19 4 20 5 21 6 22 7 23 8 24 9 25 10 26 11
REMARK SMILES IDX 27 12 28 13 29 14 30 15 31 16 32 17 15 18 14 19 13 20 12 21
REMARK SMILES IDX 11 22 10 23 9 24 8 25 7 26 6 27 5 28 4 29 3 30 2 31 1 32
REMARK H PARENT
REMARK Flexibility Score: inf
ROOT
ATOM      1  C   UNL     1      61.996  29.478  61.387  1.00  0.00     0.000 C 
ENDROOT
BRANCH   1   2
ATOM      2  C   UNL     1      63.441  30.009  61.353  1.00  0.00     0.000 C 
BRANCH   2   3
ATOM      3  C   UNL     1      64.233  29.530  60.126  1.00  0.00     0.000 C 
BRANCH   3   4
ATOM      4  C   UNL     1      64.492  28.012  60.143  1.00  0.00     0.000 C 
BRANCH   4   5
ATOM      5  C   UNL     1      63.758  27.241  59.027  1.00  0.00     0.000 C 
BRANCH   5   6
ATOM      6  C   UNL     1      63.022  28.173  58.054  1.00  0.00     0.000 C 
BRANCH   6   7
ATOM      7  C   UNL     1      61.529  27.827  57.907  1.00  0.00     0.000 C 
BRANCH   7   8
ATOM      8  C   UNL     1      61.160  26.421  58.427  1.00  0.00     0.000 C 
BRANCH   8   9
ATOM      9  C   UNL     1      59.795  26.395  59.141  1.00  0.00     0.000 C 
BRANCH   9  10
ATOM     10  C   UNL     1      59.878  26.815  60.619  1.00  0.00     0.000 C 
BRANCH  10  11
ATOM     11  C   UNL     1      60.207  25.679  61.607  1.00  0.00     0.000 C 
BRANCH  11  12
ATOM     12  C   UNL     1      61.551  25.871  62.324  1.00  0.00     0.000 C 
BRANCH  12  13
ATOM     13  C   UNL     1      62.672  25.099  61.615  1.00  0.00     0.006 C 
BRANCH  13  14
ATOM     14  C   UNL     1      62.228  23.670  61.283  1.00  0.00     0.053 C 
BRANCH  14  15
ATOM     15  C   UNL     1      62.495  22.751  62.434  1.00  0.00     0.041 C 
ATOM     16  O   UNL     1      63.487  22.947  63.184  1.00  0.00    -0.550 OA
ATOM     17  O   UNL     1      61.644  21.682  62.686  1.00  0.00    -0.550 OA
ENDBRANCH  14  15
ENDBRANCH  13  14
ENDBRANCH  12  13
ENDBRANCH  11  12
ENDBRANCH  10  11
ENDBRANCH   9  10
ENDBRANCH   8   9
ENDBRANCH   7   8
ENDBRANCH   6   7
ENDBRANCH   5   6
ENDBRANCH   4   5
ENDBRANCH   3   4
ENDBRANCH   2   3
ENDBRANCH   1   2
BRANCH   1  18
ATOM     18  C   UNL     1      60.948  30.596  61.541  1.00  0.00     0.000 C 
BRANCH  18  19
ATOM     19  C   UNL     1      61.043  31.661  60.430  1.00  0.00     0.000 C 
BRANCH  19  20
ATOM     20  C   UNL     1      60.649  31.165  59.026  1.00  0.00     0.000 C 
BRANCH  20  21
ATOM     21  C   UNL     1      59.672  32.065  58.240  1.00  0.00     0.000 C 
BRANCH  21  22
ATOM     22  C   UNL     1      60.278  32.740  56.991  1.00  0.00     0.000 C 
BRANCH  22  23
ATOM     23  C   UNL     1      60.613  34.225  57.219  1.00  0.00     0.000 C 
BRANCH  23  24
ATOM     24  C   UNL     1      59.559  34.952  58.074  1.00  0.00    -0.000 C 
BRANCH  24  25
ATOM     25  C   UNL     1      60.120  35.816  59.219  1.00  0.00    -0.000 C 
BRANCH  25  26
ATOM     26  C   UNL     1      61.655  35.776  59.309  1.00  0.00    -0.000 C 
BRANCH  26  27
ATOM     27  C   UNL     1      62.156  35.258  60.667  1.00  0.00    -0.000 C 
BRANCH  27  28
ATOM     28  C   UNL     1      63.522  35.854  61.075  1.00  0.00    -0.000 C 
BRANCH  28  29
ATOM     29  C   UNL     1      64.635  34.793  61.093  1.00  0.00    -0.000 C 
BRANCH  29  30
ATOM     30  C   UNL     1      64.170  33.455  60.491  1.00  0.00    -0.000 C 
BRANCH  30  31
ATOM     31  C   UNL     1      64.844  33.119  59.145  1.00  0.00    -0.003 C 
ATOM     32  C   UNL     1      63.845  32.625  58.099  1.00  0.00     0.004 C 
ENDBRANCH  30  31
ENDBRANCH  29  30
ENDBRANCH  28  29
ENDBRANCH  27  28
ENDBRANCH  26  27
ENDBRANCH  25  26
ENDBRANCH  24  25
ENDBRANCH  23  24
ENDBRANCH  22  23
ENDBRANCH  21  22
ENDBRANCH  20  21
ENDBRANCH  19  20
ENDBRANCH  18  19
ENDBRANCH   1  18
TORSDOF 28
ENDMDL
MODEL 3
REMARK VINA RESULT:    -2.989      3.661      5.218
REMARK INTER + INTRA:         -13.457
REMARK INTER:                  -8.324
REMARK INTRA:                  -5.133
REMARK UNBOUND:                -5.576
REMARK SMILES CCCCCCCCCCCCCCCCCCCCCCCCCCCCCC(=O)[O-]
REMARK SMILES IDX 16 1 17 2 18 3 19 4 20 5 21 6 22 7 23 8 24 9 25 10 26 11
REMARK SMILES IDX 27 12 28 13 29 14 30 15 31 16 32 17 15 18 14 19 13 20 12 21
REMARK SMILES IDX 11 22 10 23 9 24 8 25 7 26 6 27 5 28 4 29 3 30 2 31 1 32
REMARK H PARENT
REMARK Flexibility Score: inf
ROOT
ATOM      1  C   UNL     1      64.300  33.908  57.387  1.00  0.00     0.000 C 
ENDROOT
BRANCH   1   2
ATOM      2  C   UNL     1      62.795  33.792  57.082  1.00  0.00     0.000 C 
BRANCH   2   3
ATOM      3  C   UNL     1      62.080  32.745  57.951  1.00  0.00     0.000 C 
BRANCH   3   4
ATOM      4  C   UNL     1      63.062  31.849  58.729  1.00  0.00     0.000 C 
BRANCH   4   5
ATOM      5  C   UNL     1      62.842  31.861  60.256  1.00  0.00     0.000 C 
BRANCH   5   6
ATOM      6  C   UNL     1      61.356  31.939  60.635  1.00  0.00     0.000 C 
BRANCH   6   7
ATOM      7  C   UNL     1      60.820  30.623  61.228  1.00  0.00     0.000 C 
BRANCH   7   8
ATOM      8  C   UNL     1      61.926  29.638  61.665  1.00  0.00     0.000 C 
BRANCH   8   9
ATOM      9  C   UNL     1      61.736  28.232  61.066  1.00  0.00     0.000 C 
BRANCH   9  10
ATOM     10  C   UNL     1      61.721  28.227  59.527  1.00  0.00     0.000 C 
BRANCH  10  11
ATOM     11  C   UNL     1      63.060  27.856  58.859  1.00  0.00     0.000 C 
BRANCH  11  12
ATOM     12  C   UNL     1      63.839  26.778  59.625  1.00  0.00     0.000 C 
BRANCH  12  13
ATOM     13  C   UNL     1      65.344  27.077  59.625  1.00  0.00     0.006 C 
BRANCH  13  14
ATOM     14  C   UNL     1      65.663  28.285  60.512  1.00  0.00     0.053 C 
BRANCH  14  15
ATOM     15  C   UNL     1      67.142  28.452  60.670  1.00  0.00     0.041 C 
ATOM     16  O   UNL     1      67.695  28.179  61.768  1.00  0.00    -0.550 OA
ATOM     17  O   UNL     1      67.913  28.899  59.604  1.00  0.00    -0.550 OA
ENDBRANCH  14  15
ENDBRANCH  13  14
ENDBRANCH  12  13
ENDBRANCH  11  12
ENDBRANCH  10  11
ENDBRANCH   9  10
ENDBRANCH   8   9
ENDBRANCH   7   8
ENDBRANCH   6   7
ENDBRANCH   5   6
ENDBRANCH   4   5
ENDBRANCH   3   4
ENDBRANCH   2   3
ENDBRANCH   1   2
BRANCH   1  18
ATOM     18  C   UNL     1      64.700  35.296  57.920  1.00  0.00     0.000 C 
BRANCH  18  19
ATOM     19  C   UNL     1      65.889  35.240  58.900  1.00  0.00     0.000 C 
BRANCH  19  20
ATOM     20  C   UNL     1      65.575  35.737  60.324  1.00  0.00     0.000 C 
BRANCH  20  21
ATOM     21  C   UNL     1      64.307  35.153  60.981  1.00  0.00     0.000 C 
BRANCH  21  22
ATOM     22  C   UNL     1      63.085  36.096  60.978  1.00  0.00     0.000 C 
BRANCH  22  23
ATOM     23  C   UNL     1      61.783  35.385  60.564  1.00  0.00     0.000 C 
BRANCH  23  24
ATOM     24  C   UNL     1      60.717  36.356  60.025  1.00  0.00    -0.000 C 
BRANCH  24  25
ATOM     25  C   UNL     1      61.035  36.991  58.658  1.00  0.00    -0.000 C 
BRANCH  25  26
ATOM     26  C   UNL     1      60.269  36.336  57.495  1.00  0.00    -0.000 C 
BRANCH  26  27
ATOM     27  C   UNL     1      59.011  35.585  57.962  1.00  0.00    -0.000 C 
BRANCH  27  28
ATOM     28  C   UNL     1      58.780  34.261  57.200  1.00  0.00    -0.000 C 
BRANCH  28  29
ATOM     29  C   UNL     1      57.378  33.683  57.455  1.00  0.00    -0.000 C 
BRANCH  29  30
ATOM     30  C   UNL     1      57.391  32.146  57.541  1.00  0.00    -0.000 C 
BRANCH  30  31
ATOM     31  C   UNL     1      58.688  31.511  56.999  1.00  0.00    -0.003 C 
ATOM     32  C   UNL     1      59.192  30.370  57.882  1.00  0.00     0.004 C 
ENDBRANCH  30  31
ENDBRANCH  29  30
ENDBRANCH  28  29
ENDBRANCH  27  28
ENDBRANCH  26  27
ENDBRANCH  25  26
ENDBRANCH  24  25
ENDBRANCH  23  24
ENDBRANCH  22  23
ENDBRANCH  21  22
ENDBRANCH  20  21
ENDBRANCH  19  20
ENDBRANCH  18  19
ENDBRANCH   1  18
TORSDOF 28
ENDMDL
MODEL 4
REMARK VINA RESULT:    -2.980      1.503      3.473
REMARK INTER + INTRA:         -13.435
REMARK INTER:                  -7.375
REMARK INTRA:                  -6.060
REMARK UNBOUND:                -5.576
REMARK SMILES CCCCCCCCCCCCCCCCCCCCCCCCCCCCCC(=O)[O-]
REMARK SMILES IDX 16 1 17 2 18 3 19 4 20 5 21 6 22 7 23 8 24 9 25 10 26 11
REMARK SMILES IDX 27 12 28 13 29 14 30 15 31 16 32 17 15 18 14 19 13 20 12 21
REMARK SMILES IDX 11 22 10 23 9 24 8 25 7 26 6 27 5 28 4 29 3 30 2 31 1 32
REMARK H PARENT
REMARK Flexibility Score: inf
ROOT
ATOM      1  C   UNL     1      63.537  33.214  59.172  1.00  0.00     0.000 C 
ENDROOT
BRANCH   1   2
ATOM      2  C   UNL     1      62.216  32.424  59.213  1.00  0.00     0.000 C 
BRANCH   2   3
ATOM      3  C   UNL     1      61.653  32.259  60.635  1.00  0.00     0.000 C 
BRANCH   3   4
ATOM      4  C   UNL     1      60.863  30.949  60.810  1.00  0.00     0.000 C 
BRANCH   4   5
ATOM      5  C   UNL     1      61.667  29.820  61.488  1.00  0.00     0.000 C 
BRANCH   5   6
ATOM      6  C   UNL     1      63.184  30.037  61.387  1.00  0.00     0.000 C 
BRANCH   6   7
ATOM      7  C   UNL     1      63.887  28.964  60.535  1.00  0.00     0.000 C 
BRANCH   7   8
ATOM      8  C   UNL     1      64.561  29.519  59.262  1.00  0.00     0.000 C 
BRANCH   8   9
ATOM      9  C   UNL     1      63.725  29.264  57.993  1.00  0.00     0.000 C 
BRANCH   9  10
ATOM     10  C   UNL     1      62.594  28.243  58.208  1.00  0.00     0.000 C 
BRANCH  10  11
ATOM     11  C   UNL     1      61.169  28.785  57.988  1.00  0.00     0.000 C 
BRANCH  11  12
ATOM     12  C   UNL     1      60.122  27.678  57.805  1.00  0.00     0.000 C 
BRANCH  12  13
ATOM     13  C   UNL     1      60.084  26.744  59.021  1.00  0.00     0.006 C 
BRANCH  13  14
ATOM     14  C   UNL     1      59.522  27.466  60.250  1.00  0.00     0.053 C 
BRANCH  14  15
ATOM     15  C   UNL     1      58.065  27.169  60.421  1.00  0.00     0.041 C 
ATOM     16  O   UNL     1      57.448  27.589  61.434  1.00  0.00    -0.550 OA
ATOM     17  O   UNL     1      57.384  26.435  59.457  1.00  0.00    -0.550 OA
ENDBRANCH  14  15
ENDBRANCH  13  14
ENDBRANCH  12  13
ENDBRANCH  11  12
ENDBRANCH  10  11
ENDBRANCH   9  10
ENDBRANCH   8   9
ENDBRANCH   7   8
ENDBRANCH   6   7
ENDBRANCH   5   6
ENDBRANCH   4   5
ENDBRANCH   3   4
ENDBRANCH   2   3
ENDBRANCH   1   2
BRANCH   1  18
ATOM     18  C   UNL     1      64.151  33.431  60.568  1.00  0.00     0.000 C 
BRANCH  18  19
ATOM     19  C   UNL     1      64.202  34.919  60.972  1.00  0.00     0.000 C 
BRANCH  19  20
ATOM     20  C   UNL     1      63.330  35.852  60.109  1.00  0.00     0.000 C 
BRANCH  20  21
ATOM     21  C   UNL     1      62.037  36.373  60.769  1.00  0.00     0.000 C 
BRANCH  21  22
ATOM     22  C   UNL     1      60.739  35.710  60.258  1.00  0.00     0.000 C 
BRANCH  22  23
ATOM     23  C   UNL     1      60.341  36.187  58.849  1.00  0.00     0.000 C 
BRANCH  23  24
ATOM     24  C   UNL     1      59.981  35.026  57.905  1.00  0.00    -0.000 C 
BRANCH  24  25
ATOM     25  C   UNL     1      58.533  35.027  57.380  1.00  0.00    -0.000 C 
BRANCH  25  26
ATOM     26  C   UNL     1      57.881  33.633  57.404  1.00  0.00    -0.000 C 
BRANCH  26  27
ATOM     27  C   UNL     1      58.873  32.520  57.780  1.00  0.00    -0.000 C 
BRANCH  27  28
ATOM     28  C   UNL     1      58.699  31.242  56.929  1.00  0.00    -0.000 C 
BRANCH  28  29
ATOM     29  C   UNL     1      59.534  31.287  55.639  1.00  0.00    -0.000 C 
BRANCH  29  30
ATOM     30  C   UNL     1      60.857  32.051  55.831  1.00  0.00    -0.000 C 
BRANCH  30  31
ATOM     31  C   UNL     1      62.096  31.261  55.361  1.00  0.00    -0.003 C 
ATOM     32  C   UNL     1      61.724  30.011  54.564  1.00  0.00     0.004 C 
ENDBRANCH  30  31
ENDBRANCH  29  30
ENDBRANCH  28  29
ENDBRANCH  27  28
ENDBRANCH  26  27
ENDBRANCH  25  26
ENDBRANCH  24  25
ENDBRANCH  23  24
ENDBRANCH  22  23
ENDBRANCH  21  22
ENDBRANCH  20  21
ENDBRANCH  19  20
ENDBRANCH  18  19
ENDBRANCH   1  18
TORSDOF 28
ENDMDL
MODEL 5
REMARK VINA RESULT:    -2.970      1.346      2.795
REMARK INTER + INTRA:         -13.408
REMARK INTER:                  -8.523
REMARK INTRA:                  -4.885
REMARK UNBOUND:                -5.576
REMARK SMILES CCCCCCCCCCCCCCCCCCCCCCCCCCCCCC(=O)[O-]
REMARK SMILES IDX 16 1 17 2 18 3 19 4 20 5 21 6 22 7 23 8 24 9 25 10 26 11
REMARK SMILES IDX 27 12 28 13 29 14 30 15 31 16 32 17 15 18 14 19 13 20 12 21
REMARK SMILES IDX 11 22 10 23 9 24 8 25 7 26 6 27 5 28 4 29 3 30 2 31 1 32
REMARK H PARENT
REMARK Flexibility Score: inf
ROOT
ATOM      1  C   UNL     1      61.431  30.376  61.596  1.00  0.00     0.000 C 
ENDROOT
BRANCH   1   2
ATOM      2  C   UNL     1      60.430  30.563  60.440  1.00  0.00     0.000 C 
BRANCH   2   3
ATOM      3  C   UNL     1      60.806  31.716  59.495  1.00  0.00     0.000 C 
BRANCH   3   4
ATOM      4  C   UNL     1      59.893  31.789  58.257  1.00  0.00     0.000 C 
BRANCH   4   5
ATOM      5  C   UNL     1      60.465  31.072  57.017  1.00  0.00     0.000 C 
BRANCH   5   6
ATOM      6  C   UNL     1      61.826  30.416  57.292  1.00  0.00     0.000 C 
BRANCH   6   7
ATOM      7  C   UNL     1      62.008  29.081  56.548  1.00  0.00     0.000 C 
BRANCH   7   8
ATOM      8  C   UNL     1      62.158  27.861  57.482  1.00  0.00     0.000 C 
BRANCH   8   9
ATOM      9  C   UNL     1      60.931  27.659  58.391  1.00  0.00     0.000 C 
BRANCH   9  10
ATOM     10  C   UNL     1      59.650  27.316  57.611  1.00  0.00     0.000 C 
BRANCH  10  11
ATOM     11  C   UNL     1      58.414  27.011  58.479  1.00  0.00     0.000 C 
BRANCH  11  12
ATOM     12  C   UNL     1      58.063  28.146  59.451  1.00  0.00     0.000 C 
BRANCH  12  13
ATOM     13  C   UNL     1      58.033  27.644  60.901  1.00  0.00     0.006 C 
BRANCH  13  14
ATOM     14  C   UNL     1      56.971  26.555  61.082  1.00  0.00     0.053 C 
BRANCH  14  15
ATOM     15  C   UNL     1      55.891  27.014  62.011  1.00  0.00     0.041 C 
ATOM     16  O   UNL     1      55.584  28.233  62.070  1.00  0.00    -0.550 OA
ATOM     17  O   UNL     1      55.216  26.096  62.807  1.00  0.00    -0.550 OA
ENDBRANCH  14  15
ENDBRANCH  13  14
ENDBRANCH  12  13
ENDBRANCH  11  12
ENDBRANCH  10  11
ENDBRANCH   9  10
ENDBRANCH   8   9
ENDBRANCH   7   8
ENDBRANCH   6   7
ENDBRANCH   5   6
ENDBRANCH   4   5
ENDBRANCH   3   4
ENDBRANCH   2   3
ENDBRANCH   1   2
BRANCH   1  18
ATOM     18  C   UNL     1      62.334  29.142  61.414  1.00  0.00     0.000 C 
BRANCH  18  19
ATOM     19  C   UNL     1      63.557  29.423  60.518  1.00  0.00     0.000 C 
BRANCH  19  20
ATOM     20  C   UNL     1      64.183  30.819  60.701  1.00  0.00     0.000 C 
BRANCH  20  21
ATOM     21  C   UNL     1      64.675  31.514  59.415  1.00  0.00     0.000 C 
BRANCH  21  22
ATOM     22  C   UNL     1      64.502  33.049  59.403  1.00  0.00     0.000 C 
BRANCH  22  23
ATOM     23  C   UNL     1      63.803  33.580  60.668  1.00  0.00     0.000 C 
BRANCH  23  24
ATOM     24  C   UNL     1      64.641  34.631  61.418  1.00  0.00    -0.000 C 
BRANCH  24  25
ATOM     25  C   UNL     1      64.146  36.084  61.288  1.00  0.00    -0.000 C 
BRANCH  25  26
ATOM     26  C   UNL     1      63.123  36.274  60.155  1.00  0.00    -0.000 C 
BRANCH  26  27
ATOM     27  C   UNL     1      61.714  36.602  60.677  1.00  0.00    -0.000 C 
BRANCH  27  28
ATOM     28  C   UNL     1      60.657  35.554  60.264  1.00  0.00    -0.000 C 
BRANCH  28  29
ATOM     29  C   UNL     1      59.764  36.053  59.116  1.00  0.00    -0.000 C 
BRANCH  29  30
ATOM     30  C   UNL     1      60.206  35.493  57.752  1.00  0.00    -0.000 C 
BRANCH  30  31
ATOM     31  C   UNL     1      59.027  35.080  56.846  1.00  0.00    -0.003 C 
ATOM     32  C   UNL     1      57.735  34.860  57.633  1.00  0.00     0.004 C 
ENDBRANCH  30  31
ENDBRANCH  29  30
ENDBRANCH  28  29
ENDBRANCH  27  28
ENDBRANCH  26  27
ENDBRANCH  25  26
ENDBRANCH  24  25
ENDBRANCH  23  24
ENDBRANCH  22  23
ENDBRANCH  21  22
ENDBRANCH  20  21
ENDBRANCH  19  20
ENDBRANCH  18  19
ENDBRANCH   1  18
TORSDOF 28
ENDMDL
MODEL 6
REMARK VINA RESULT:    -2.952      3.136      5.036
REMARK INTER + INTRA:         -13.360
REMARK INTER:                  -6.417
REMARK INTRA:                  -6.943
REMARK UNBOUND:                -5.576
REMARK SMILES CCCCCCCCCCCCCCCCCCCCCCCCCCCCCC(=O)[O-]
REMARK SMILES IDX 16 1 17 2 18 3 19 4 20 5 21 6 22 7 23 8 24 9 25 10 26 11
REMARK SMILES IDX 27 12 28 13 29 14 30 15 31 16 32 17 15 18 14 19 13 20 12 21
REMARK SMILES IDX 11 22 10 23 9 24 8 25 7 26 6 27 5 28 4 29 3 30 2 31 1 32
REMARK H PARENT
REMARK Flexibility Score: inf
ROOT
ATOM      1  C   UNL     1      62.881  32.821  59.186  1.00  0.00     0.000 C 
ENDROOT
BRANCH   1   2
ATOM      2  C   UNL     1      61.780  32.844  60.262  1.00  0.00     0.000 C 
BRANCH   2   3
ATOM      3  C   UNL     1      60.903  31.582  60.258  1.00  0.00     0.000 C 
BRANCH   3   4
ATOM      4  C   UNL     1      61.071  30.739  61.535  1.00  0.00     0.000 C 
BRANCH   4   5
ATOM      5  C   UNL     1      62.012  29.528  61.364  1.00  0.00     0.000 C 
BRANCH   5   6
ATOM      6  C   UNL     1      63.494  29.930  61.371  1.00  0.00     0.000 C 
BRANCH   6   7
ATOM      7  C   UNL     1      64.376  28.981  60.539  1.00  0.00     0.000 C 
BRANCH   7   8
ATOM      8  C   UNL     1      65.395  29.707  59.635  1.00  0.00     0.000 C 
BRANCH   8   9
ATOM      9  C   UNL     1      64.831  30.014  58.235  1.00  0.00     0.000 C 
BRANCH   9  10
ATOM     10  C   UNL     1      63.547  29.227  57.915  1.00  0.00     0.000 C 
BRANCH  10  11
ATOM     11  C   UNL     1      62.755  29.733  56.694  1.00  0.00     0.000 C 
BRANCH  11  12
ATOM     12  C   UNL     1      61.295  30.076  57.021  1.00  0.00     0.000 C 
BRANCH  12  13
ATOM     13  C   UNL     1      60.694  31.008  55.960  1.00  0.00     0.006 C 
BRANCH  13  14
ATOM     14  C   UNL     1      60.639  32.453  56.468  1.00  0.00     0.053 C 
BRANCH  14  15
ATOM     15  C   UNL     1      59.455  33.171  55.900  1.00  0.00     0.041 C 
ATOM     16  O   UNL     1      58.331  33.076  56.458  1.00  0.00    -0.550 OA
ATOM     17  O   UNL     1      59.594  33.954  54.760  1.00  0.00    -0.550 OA
ENDBRANCH  14  15
ENDBRANCH  13  14
ENDBRANCH  12  13
ENDBRANCH  11  12
ENDBRANCH  10  11
ENDBRANCH   9  10
ENDBRANCH   8   9
ENDBRANCH   7   8
ENDBRANCH   6   7
ENDBRANCH   5   6
ENDBRANCH   4   5
ENDBRANCH   3   4
ENDBRANCH   2   3
ENDBRANCH   1   2
BRANCH   1  18
ATOM     18  C   UNL     1      64.242  33.320  59.707  1.00  0.00     0.000 C 
BRANCH  18  19
ATOM     19  C   UNL     1      64.137  34.017  61.078  1.00  0.00     0.000 C 
BRANCH  19  20
ATOM     20  C   UNL     1      64.846  35.383  61.163  1.00  0.00     0.000 C 
BRANCH  20  21
ATOM     21  C   UNL     1      64.011  36.607  60.734  1.00  0.00     0.000 C 
BRANCH  21  22
ATOM     22  C   UNL     1      62.494  36.474  60.989  1.00  0.00     0.000 C 
BRANCH  22  23
ATOM     23  C   UNL     1      61.675  36.400  59.687  1.00  0.00     0.000 C 
BRANCH  23  24
ATOM     24  C   UNL     1      62.557  36.402  58.425  1.00  0.00    -0.000 C 
BRANCH  24  25
ATOM     25  C   UNL     1      61.848  35.983  57.124  1.00  0.00    -0.000 C 
BRANCH  25  26
ATOM     26  C   UNL     1      62.807  35.386  56.079  1.00  0.00    -0.000 C 
BRANCH  26  27
ATOM     27  C   UNL     1      64.286  35.583  56.450  1.00  0.00    -0.000 C 
BRANCH  27  28
ATOM     28  C   UNL     1      65.136  34.309  56.247  1.00  0.00    -0.000 C 
BRANCH  28  29
ATOM     29  C   UNL     1      64.269  33.076  55.942  1.00  0.00    -0.000 C 
BRANCH  29  30
ATOM     30  C   UNL     1      64.894  32.181  54.857  1.00  0.00    -0.000 C 
BRANCH  30  31
ATOM     31  C   UNL     1      63.887  31.726  53.781  1.00  0.00    -0.003 C 
ATOM     32  C   UNL     1      62.865  32.810  53.441  1.00  0.00     0.004 C 
ENDBRANCH  30  31
ENDBRANCH  29  30
ENDBRANCH  28  29
ENDBRANCH  27  28
ENDBRANCH  26  27
ENDBRANCH  25  26
ENDBRANCH  24  25
ENDBRANCH  23  24
ENDBRANCH  22  23
ENDBRANCH  21  22
ENDBRANCH  20  21
ENDBRANCH  19  20
ENDBRANCH  18  19
ENDBRANCH   1  18
TORSDOF 28
ENDMDL
MODEL 7
REMARK VINA RESULT:    -2.911      2.605      5.125
REMARK INTER + INTRA:         -13.254
REMARK INTER:                  -6.958
REMARK INTRA:                  -6.296
REMARK UNBOUND:                -5.576
REMARK SMILES CCCCCCCCCCCCCCCCCCCCCCCCCCCCCC(=O)[O-]
REMARK SMILES IDX 16 1 17 2 18 3 19 4 20 5 21 6 22 7 23 8 24 9 25 10 26 11
REMARK SMILES IDX 27 12 28 13 29 14 30 15 31 16 32 17 15 18 14 19 13 20 12 21
REMARK SMILES IDX 11 22 10 23 9 24 8 25 7 26 6 27 5 28 4 29 3 30 2 31 1 32
REMARK H PARENT
REMARK Flexibility Score: inf
ROOT
ATOM      1  C   UNL     1      64.151  33.186  60.306  1.00  0.00     0.000 C 
ENDROOT
BRANCH   1   2
ATOM      2  C   UNL     1      63.675  33.350  58.851  1.00  0.00     0.000 C 
BRANCH   2   3
ATOM      3  C   UNL     1      62.304  32.706  58.587  1.00  0.00     0.000 C 
BRANCH   3   4
ATOM      4  C   UNL     1      61.447  32.593  59.861  1.00  0.00     0.000 C 
BRANCH   4   5
ATOM      5  C   UNL     1      60.755  31.224  60.029  1.00  0.00     0.000 C 
BRANCH   5   6
ATOM      6  C   UNL     1      60.770  30.733  61.484  1.00  0.00     0.000 C 
BRANCH   6   7
ATOM      7  C   UNL     1      61.888  29.710  61.759  1.00  0.00     0.000 C 
BRANCH   7   8
ATOM      8  C   UNL     1      61.680  28.353  61.054  1.00  0.00     0.000 C 
BRANCH   8   9
ATOM      9  C   UNL     1      62.993  27.765  60.504  1.00  0.00     0.000 C 
BRANCH   9  10
ATOM     10  C   UNL     1      64.121  28.807  60.391  1.00  0.00     0.000 C 
BRANCH  10  11
ATOM     11  C   UNL     1      64.127  29.629  59.088  1.00  0.00     0.000 C 
BRANCH  11  12
ATOM     12  C   UNL     1      63.678  28.822  57.861  1.00  0.00     0.000 C 
BRANCH  12  13
ATOM     13  C   UNL     1      62.415  29.426  57.234  1.00  0.00     0.006 C 
BRANCH  13  14
ATOM     14  C   UNL     1      61.923  28.571  56.061  1.00  0.00     0.053 C 
BRANCH  14  15
ATOM     15  C   UNL     1      61.480  29.435  54.922  1.00  0.00     0.041 C 
ATOM     16  O   UNL     1      60.363  29.239  54.377  1.00  0.00    -0.550 OA
ATOM     17  O   UNL     1      62.295  30.464  54.468  1.00  0.00    -0.550 OA
ENDBRANCH  14  15
ENDBRANCH  13  14
ENDBRANCH  12  13
ENDBRANCH  11  12
ENDBRANCH  10  11
ENDBRANCH   9  10
ENDBRANCH   8   9
ENDBRANCH   7   8
ENDBRANCH   6   7
ENDBRANCH   5   6
ENDBRANCH   4   5
ENDBRANCH   3   4
ENDBRANCH   2   3
ENDBRANCH   1   2
BRANCH   1  18
ATOM     18  C   UNL     1      64.324  34.531  61.037  1.00  0.00     0.000 C 
BRANCH  18  19
ATOM     19  C   UNL     1      63.657  35.705  60.293  1.00  0.00     0.000 C 
BRANCH  19  20
ATOM     20  C   UNL     1      62.352  36.216  60.934  1.00  0.00     0.000 C 
BRANCH  20  21
ATOM     21  C   UNL     1      61.122  36.284  60.004  1.00  0.00     0.000 C 
BRANCH  21  22
ATOM     22  C   UNL     1      61.436  36.686  58.547  1.00  0.00     0.000 C 
BRANCH  22  23
ATOM     23  C   UNL     1      60.762  35.764  57.514  1.00  0.00     0.000 C 
BRANCH  23  24
ATOM     24  C   UNL     1      59.510  35.061  58.069  1.00  0.00    -0.000 C 
BRANCH  24  25
ATOM     25  C   UNL     1      58.661  34.307  57.028  1.00  0.00    -0.000 C 
BRANCH  25  26
ATOM     26  C   UNL     1      59.461  33.247  56.250  1.00  0.00    -0.000 C 
BRANCH  26  27
ATOM     27  C   UNL     1      59.175  31.816  56.731  1.00  0.00    -0.000 C 
BRANCH  27  28
ATOM     28  C   UNL     1      57.942  31.724  57.657  1.00  0.00    -0.000 C 
BRANCH  28  29
ATOM     29  C   UNL     1      57.395  30.290  57.753  1.00  0.00    -0.000 C 
BRANCH  29  30
ATOM     30  C   UNL     1      58.443  29.241  57.340  1.00  0.00    -0.000 C 
BRANCH  30  31
ATOM     31  C   UNL     1      59.038  28.466  58.533  1.00  0.00    -0.003 C 
ATOM     32  C   UNL     1      57.963  27.934  59.480  1.00  0.00     0.004 C 
ENDBRANCH  30  31
ENDBRANCH  29  30
ENDBRANCH  28  29
ENDBRANCH  27  28
ENDBRANCH  26  27
ENDBRANCH  25  26
ENDBRANCH  24  25
ENDBRANCH  23  24
ENDBRANCH  22  23
ENDBRANCH  21  22
ENDBRANCH  20  21
ENDBRANCH  19  20
ENDBRANCH  18  19
ENDBRANCH   1  18
TORSDOF 28
ENDMDL
MODEL 8
REMARK VINA RESULT:    -2.903      8.271     11.630
REMARK INTER + INTRA:         -13.232
REMARK INTER:                  -7.692
REMARK INTRA:                  -5.541
REMARK UNBOUND:                -5.576
REMARK SMILES CCCCCCCCCCCCCCCCCCCCCCCCCCCCCC(=O)[O-]
REMARK SMILES IDX 16 1 17 2 18 3 19 4 20 5 21 6 22 7 23 8 24 9 25 10 26 11
REMARK SMILES IDX 27 12 28 13 29 14 30 15 31 16 32 17 15 18 14 19 13 20 12 21
REMARK SMILES IDX 11 22 10 23 9 24 8 25 7 26 6 27 5 28 4 29 3 30 2 31 1 32
REMARK H PARENT
REMARK Flexibility Score: inf
ROOT
ATOM      1  C   UNL     1      53.709  27.313  50.375  1.00  0.00     0.000 C 
ENDROOT
BRANCH   1   2
ATOM      2  C   UNL     1      54.246  26.288  49.359  1.00  0.00     0.000 C 
BRANCH   2   3
ATOM      3  C   UNL     1      55.781  26.206  49.335  1.00  0.00     0.000 C 
BRANCH   3   4
ATOM      4  C   UNL     1      56.402  26.326  50.739  1.00  0.00     0.000 C 
BRANCH   4   5
ATOM      5  C   UNL     1      57.697  27.164  50.779  1.00  0.00     0.000 C 
BRANCH   5   6
ATOM      6  C   UNL     1      57.566  28.485  50.007  1.00  0.00     0.000 C 
BRANCH   6   7
ATOM      7  C   UNL     1      58.915  29.201  49.813  1.00  0.00     0.000 C 
BRANCH   7   8
ATOM      8  C   UNL     1      59.917  28.418  48.937  1.00  0.00     0.000 C 
BRANCH   8   9
ATOM      9  C   UNL     1      61.121  27.894  49.742  1.00  0.00     0.000 C 
BRANCH   9  10
ATOM     10  C   UNL     1      61.246  26.360  49.714  1.00  0.00     0.000 C 
BRANCH  10  11
ATOM     11  C   UNL     1      62.646  25.810  50.048  1.00  0.00     0.000 C 
BRANCH  11  12
ATOM     12  C   UNL     1      62.706  24.276  50.060  1.00  0.00     0.000 C 
BRANCH  12  13
ATOM     13  C   UNL     1      61.300  23.667  50.125  1.00  0.00     0.006 C 
BRANCH  13  14
ATOM     14  C   UNL     1      61.183  22.456  49.194  1.00  0.00     0.053 C 
BRANCH  14  15
ATOM     15  C   UNL     1      61.045  21.191  49.982  1.00  0.00     0.041 C 
ATOM     16  O   UNL     1      60.230  20.304  49.617  1.00  0.00    -0.550 OA
ATOM     17  O   UNL     1      61.822  20.985  51.115  1.00  0.00    -0.550 OA
ENDBRANCH  14  15
ENDBRANCH  13  14
ENDBRANCH  12  13
ENDBRANCH  11  12
ENDBRANCH  10  11
ENDBRANCH   9  10
ENDBRANCH   8   9
ENDBRANCH   7   8
ENDBRANCH   6   7
ENDBRANCH   5   6
ENDBRANCH   4   5
ENDBRANCH   3   4
ENDBRANCH   2   3
ENDBRANCH   1   2
BRANCH   1  18
ATOM     18  C   UNL     1      53.636  28.742  49.805  1.00  0.00     0.000 C 
BRANCH  18  19
ATOM     19  C   UNL     1      54.416  29.765  50.656  1.00  0.00     0.000 C 
BRANCH  19  20
ATOM     20  C   UNL     1      54.626  29.353  52.126  1.00  0.00     0.000 C 
BRANCH  20  21
ATOM     21  C   UNL     1      55.206  30.438  53.057  1.00  0.00     0.000 C 
BRANCH  21  22
ATOM     22  C   UNL     1      56.679  30.808  52.778  1.00  0.00     0.000 C 
BRANCH  22  23
ATOM     23  C   UNL     1      57.631  30.353  53.900  1.00  0.00     0.000 C 
BRANCH  23  24
ATOM     24  C   UNL     1      58.001  28.863  53.800  1.00  0.00    -0.000 C 
BRANCH  24  25
ATOM     25  C   UNL     1      57.461  27.971  54.934  1.00  0.00    -0.000 C 
BRANCH  25  26
ATOM     26  C   UNL     1      56.453  26.916  54.445  1.00  0.00    -0.000 C 
BRANCH  26  27
ATOM     27  C   UNL     1      56.809  25.495  54.910  1.00  0.00    -0.000 C 
BRANCH  27  28
ATOM     28  C   UNL     1      56.709  24.446  53.780  1.00  0.00    -0.000 C 
BRANCH  28  29
ATOM     29  C   UNL     1      58.051  23.741  53.524  1.00  0.00    -0.000 C 
BRANCH  29  30
ATOM     30  C   UNL     1      59.077  24.672  52.852  1.00  0.00    -0.000 C 
BRANCH  30  31
ATOM     31  C   UNL     1      60.159  25.194  53.819  1.00  0.00    -0.003 C 
ATOM     32  C   UNL     1      60.778  26.510  53.347  1.00  0.00     0.004 C 
ENDBRANCH  30  31
ENDBRANCH  29  30
ENDBRANCH  28  29
ENDBRANCH  27  28
ENDBRANCH  26  27
ENDBRANCH  25  26
ENDBRANCH  24  25
ENDBRANCH  23  24
ENDBRANCH  22  23
ENDBRANCH  21  22
ENDBRANCH  20  21
ENDBRANCH  19  20
ENDBRANCH  18  19
ENDBRANCH   1  18
TORSDOF 28
ENDMDL
MODEL 9
REMARK VINA RESULT:    -2.882      1.880      3.793
REMARK INTER + INTRA:         -13.177
REMARK INTER:                  -7.165
REMARK INTRA:                  -6.012
REMARK UNBOUND:                -5.576
REMARK SMILES CCCCCCCCCCCCCCCCCCCCCCCCCCCCCC(=O)[O-]
REMARK SMILES IDX 16 1 17 2 18 3 19 4 20 5 21 6 22 7 23 8 24 9 25 10 26 11
REMARK SMILES IDX 27 12 28 13 29 14 30 15 31 16 32 17 15 18 14 19 13 20 12 21
REMARK SMILES IDX 11 22 10 23 9 24 8 25 7 26 6 27 5 28 4 29 3 30 2 31 1 32
REMARK H PARENT
REMARK Flexibility Score: inf
ROOT
ATOM      1  C   UNL     1      62.033  29.586  61.483  1.00  0.00     0.000 C 
ENDROOT
BRANCH   1   2
ATOM      2  C   UNL     1      63.492  30.068  61.375  1.00  0.00     0.000 C 
BRANCH   2   3
ATOM      3  C   UNL     1      64.379  29.129  60.540  1.00  0.00     0.000 C 
BRANCH   3   4
ATOM      4  C   UNL     1      63.586  28.368  59.462  1.00  0.00     0.000 C 
BRANCH   4   5
ATOM      5  C   UNL     1      63.904  26.860  59.401  1.00  0.00     0.000 C 
BRANCH   5   6
ATOM      6  C   UNL     1      62.719  25.990  59.845  1.00  0.00     0.000 C 
BRANCH   6   7
ATOM      7  C   UNL     1      62.604  25.872  61.376  1.00  0.00     0.000 C 
BRANCH   7   8
ATOM      8  C   UNL     1      61.160  26.001  61.906  1.00  0.00     0.000 C 
BRANCH   8   9
ATOM      9  C   UNL     1      60.105  25.666  60.836  1.00  0.00     0.000 C 
BRANCH   9  10
ATOM     10  C   UNL     1      58.868  26.579  60.899  1.00  0.00     0.000 C 
BRANCH  10  11
ATOM     11  C   UNL     1      59.057  27.984  60.297  1.00  0.00     0.000 C 
BRANCH  11  12
ATOM     12  C   UNL     1      59.883  27.982  59.003  1.00  0.00     0.000 C 
BRANCH  12  13
ATOM     13  C   UNL     1      59.498  29.159  58.098  1.00  0.00     0.006 C 
BRANCH  13  14
ATOM     14  C   UNL     1      58.040  29.573  58.327  1.00  0.00     0.053 C 
BRANCH  14  15
ATOM     15  C   UNL     1      57.653  30.687  57.406  1.00  0.00     0.041 C 
ATOM     16  O   UNL     1      56.674  31.428  57.685  1.00  0.00    -0.550 OA
ATOM     17  O   UNL     1      58.378  30.916  56.243  1.00  0.00    -0.550 OA
ENDBRANCH  14  15
ENDBRANCH  13  14
ENDBRANCH  12  13
ENDBRANCH  11  12
ENDBRANCH  10  11
ENDBRANCH   9  10
ENDBRANCH   8   9
ENDBRANCH   7   8
ENDBRANCH   6   7
ENDBRANCH   5   6
ENDBRANCH   4   5
ENDBRANCH   3   4
ENDBRANCH   2   3
ENDBRANCH   1   2
BRANCH   1  18
ATOM     18  C   UNL     1      61.013  30.737  61.405  1.00  0.00     0.000 C 
BRANCH  18  19
ATOM     19  C   UNL     1      61.277  31.690  60.222  1.00  0.00     0.000 C 
BRANCH  19  20
ATOM     20  C   UNL     1      61.511  33.161  60.619  1.00  0.00     0.000 C 
BRANCH  20  21
ATOM     21  C   UNL     1      62.979  33.635  60.622  1.00  0.00     0.000 C 
BRANCH  21  22
ATOM     22  C   UNL     1      63.166  35.157  60.444  1.00  0.00     0.000 C 
BRANCH  22  23
ATOM     23  C   UNL     1      61.855  35.945  60.621  1.00  0.00     0.000 C 
BRANCH  23  24
ATOM     24  C   UNL     1      61.354  36.575  59.310  1.00  0.00    -0.000 C 
BRANCH  24  25
ATOM     25  C   UNL     1      59.987  36.068  58.814  1.00  0.00    -0.000 C 
BRANCH  25  26
ATOM     26  C   UNL     1      60.058  35.393  57.433  1.00  0.00    -0.000 C 
BRANCH  26  27
ATOM     27  C   UNL     1      59.920  33.864  57.513  1.00  0.00    -0.000 C 
BRANCH  27  28
ATOM     28  C   UNL     1      61.053  33.115  56.776  1.00  0.00    -0.000 C 
BRANCH  28  29
ATOM     29  C   UNL     1      62.409  33.824  56.926  1.00  0.00    -0.000 C 
BRANCH  29  30
ATOM     30  C   UNL     1      63.560  32.829  57.163  1.00  0.00    -0.000 C 
BRANCH  30  31
ATOM     31  C   UNL     1      63.095  31.361  57.252  1.00  0.00    -0.003 C 
ATOM     32  C   UNL     1      63.918  30.433  56.359  1.00  0.00     0.004 C 
ENDBRANCH  30  31
ENDBRANCH  29  30
ENDBRANCH  28  29
ENDBRANCH  27  28
ENDBRANCH  26  27
ENDBRANCH  25  26
ENDBRANCH  24  25
ENDBRANCH  23  24
ENDBRANCH  22  23
ENDBRANCH  21  22
ENDBRANCH  20  21
ENDBRANCH  19  20
ENDBRANCH  18  19
ENDBRANCH   1  18
TORSDOF 28
ENDMDL
