MODEL 1
REMARK VINA RESULT:    -3.032      0.000      0.000
REMARK INTER + INTRA:          -5.442
REMARK INTER:                  -6.576
REMARK INTRA:                   1.135
REMARK UNBOUND:                 1.135
REMARK SMILES CCCCCCCCCCCCCCCCCCCCCC(=O)[O-]
REMARK SMILES IDX 12 1 11 2 10 3 9 4 8 5 7 6 6 7 5 8 4 9 3 10 2 11 1 12 13 13
REMARK SMILES IDX 14 14 15 15 16 16 17 17 18 18 19 19 20 20 21 21 22 22 23 23
REMARK SMILES IDX 24 24
REMARK H PARENT
REMARK Flexibility Score: inf
ROOT
ATOM      1  C   UNL     1      22.443  21.728  -9.284  1.00  0.00     0.000 C 
ENDROOT
BRANCH   1   2
ATOM      2  C   UNL     1      21.628  22.970  -9.674  1.00  0.00     0.000 C 
BRANCH   2   3
ATOM      3  C   UNL     1      20.951  22.830 -11.046  1.00  0.00     0.000 C 
BRANCH   3   4
ATOM      4  C   UNL     1      20.003  21.622 -11.119  1.00  0.00    -0.000 C 
BRANCH   4   5
ATOM      5  C   UNL     1      20.679  20.363 -10.561  1.00  0.00    -0.000 C 
BRANCH   5   6
ATOM      6  C   UNL     1      20.024  19.092 -11.125  1.00  0.00    -0.000 C 
BRANCH   6   7
ATOM      7  C   UNL     1      18.518  19.023 -10.834  1.00  0.00    -0.000 C 
BRANCH   7   8
ATOM      8  C   UNL     1      17.999  17.582 -10.724  1.00  0.00    -0.000 C 
BRANCH   8   9
ATOM      9  C   UNL     1      16.748  17.516  -9.834  1.00  0.00    -0.000 C 
BRANCH   9  10
ATOM     10  C   UNL     1      16.083  18.890  -9.632  1.00  0.00    -0.000 C 
BRANCH  10  11
ATOM     11  C   UNL     1      14.570  18.843  -9.357  1.00  0.00    -0.003 C 
ATOM     12  C   UNL     1      14.175  17.748  -8.366  1.00  0.00     0.004 C 
ENDBRANCH  10  11
ENDBRANCH   9  10
ENDBRANCH   8   9
ENDBRANCH   7   8
ENDBRANCH   6   7
ENDBRANCH   5   6
ENDBRANCH   4   5
ENDBRANCH   3   4
ENDBRANCH   2   3
ENDBRANCH   1   2
BRANCH   1  13
ATOM     13  C   UNL     1      23.315  21.251 -10.456  1.00  0.00     0.000 C 
BRANCH  13  14
ATOM     14  C   UNL     1      24.599  22.083 -10.629  1.00  0.00     0.000 C 
BRANCH  14  15
ATOM     15  C   UNL     1      24.379  23.551 -11.037  1.00  0.00     0.000 C 
BRANCH  15  16
ATOM     16  C   UNL     1      25.688  24.354 -11.124  1.00  0.00     0.000 C 
BRANCH  16  17
ATOM     17  C   UNL     1      26.744  23.863 -10.118  1.00  0.00     0.000 C 
BRANCH  17  18
ATOM     18  C   UNL     1      28.089  24.587 -10.276  1.00  0.00     0.000 C 
BRANCH  18  19
ATOM     19  C   UNL     1      28.487  25.293  -8.970  1.00  0.00     0.000 C 
BRANCH  19  20
ATOM     20  C   UNL     1      28.304  26.817  -9.038  1.00  0.00     0.006 C 
BRANCH  20  21
ATOM     21  C   UNL     1      27.711  27.284 -10.375  1.00  0.00     0.053 C 
BRANCH  21  22
ATOM     22  C   UNL     1      26.674  28.337 -10.147  1.00  0.00     0.041 C 
ATOM     23  O   UNL     1      25.462  28.095 -10.382  1.00  0.00    -0.550 OA
ATOM     24  O   UNL     1      27.042  29.574  -9.632  1.00  0.00    -0.550 OA
ENDBRANCH  21  22
ENDBRANCH  20  21
ENDBRANCH  19  20
ENDBRANCH  18  19
ENDBRANCH  17  18
ENDBRANCH  16  17
ENDBRANCH  15  16
ENDBRANCH  14  15
ENDBRANCH  13  14
ENDBRANCH   1  13
TORSDOF 20
ENDMDL
MODEL 2
REMARK VINA RESULT:    -2.058     11.418     13.619
REMARK INTER + INTRA:          -3.330
REMARK INTER:                  -2.295
REMARK INTRA:                  -1.035
REMARK UNBOUND:                 1.135
REMARK SMILES CCCCCCCCCCCCCCCCCCCCCC(=O)[O-]
REMARK SMILES IDX 12 1 11 2 10 3 9 4 8 5 7 6 6 7 5 8 4 9 3 10 2 11 1 12 13 13
REMARK SMILES IDX 14 14 15 15 16 16 17 17 18 18 19 19 20 20 21 21 22 22 23 23
REMARK SMILES IDX 24 24
REMARK H PARENT
REMARK Flexibility Score: inf
ROOT
ATOM      1  C   UNL     1      25.901  24.787  -2.003  1.00  0.00     0.000 C 
ENDROOT
BRANCH   1   2
ATOM      2  C   UNL     1      26.382  23.329  -1.936  1.00  0.00     0.000 C 
BRANCH   2   3
ATOM      3  C   UNL     1      27.791  23.141  -2.521  1.00  0.00     0.000 C 
BRANCH   3   4
ATOM      4  C   UNL     1      27.823  22.135  -3.681  1.00  0.00    -0.000 C 
BRANCH   4   5
ATOM      5  C   UNL     1      29.032  21.198  -3.559  1.00  0.00    -0.000 C 
BRANCH   5   6
ATOM      6  C   UNL     1      28.994  20.419  -2.235  1.00  0.00    -0.000 C 
BRANCH   6   7
ATOM      7  C   UNL     1      29.125  18.902  -2.437  1.00  0.00    -0.000 C 
BRANCH   7   8
ATOM      8  C   UNL     1      28.031  18.109  -1.707  1.00  0.00    -0.000 C 
BRANCH   8   9
ATOM      9  C   UNL     1      28.646  17.013  -0.824  1.00  0.00    -0.000 C 
BRANCH   9  10
ATOM     10  C   UNL     1      27.976  16.909   0.558  1.00  0.00    -0.000 C 
BRANCH  10  11
ATOM     11  C   UNL     1      26.645  17.671   0.692  1.00  0.00    -0.003 C 
ATOM     12  C   UNL     1      25.604  16.915   1.517  1.00  0.00     0.004 C 
ENDBRANCH  10  11
ENDBRANCH   9  10
ENDBRANCH   8   9
ENDBRANCH   7   8
ENDBRANCH   6   7
ENDBRANCH   5   6
ENDBRANCH   4   5
ENDBRANCH   3   4
ENDBRANCH   2   3
ENDBRANCH   1   2
BRANCH   1  13
ATOM     13  C   UNL     1      26.239  25.539  -0.707  1.00  0.00     0.000 C 
BRANCH  13  14
ATOM     14  C   UNL     1      26.971  24.661   0.326  1.00  0.00     0.000 C 
BRANCH  14  15
ATOM     15  C   UNL     1      27.133  25.290   1.722  1.00  0.00     0.000 C 
BRANCH  15  16
ATOM     16  C   UNL     1      28.494  24.977   2.368  1.00  0.00     0.000 C 
BRANCH  16  17
ATOM     17  C   UNL     1      29.120  26.209   3.042  1.00  0.00     0.000 C 
BRANCH  17  18
ATOM     18  C   UNL     1      29.019  27.472   2.173  1.00  0.00     0.000 C 
BRANCH  18  19
ATOM     19  C   UNL     1      28.964  28.735   3.046  1.00  0.00     0.000 C 
BRANCH  19  20
ATOM     20  C   UNL     1      29.122  28.431   4.543  1.00  0.00     0.006 C 
BRANCH  20  21
ATOM     21  C   UNL     1      28.027  29.081   5.399  1.00  0.00     0.053 C 
BRANCH  21  22
ATOM     22  C   UNL     1      28.604  29.608   6.674  1.00  0.00     0.041 C 
ATOM     23  O   UNL     1      29.002  28.814   7.566  1.00  0.00    -0.550 OA
ATOM     24  O   UNL     1      28.742  30.978   6.859  1.00  0.00    -0.550 OA
ENDBRANCH  21  22
ENDBRANCH  20  21
ENDBRANCH  19  20
ENDBRANCH  18  19
ENDBRANCH  17  18
ENDBRANCH  16  17
ENDBRANCH  15  16
ENDBRANCH  14  15
ENDBRANCH  13  14
ENDBRANCH   1  13
TORSDOF 20
ENDMDL
MODEL 3
REMARK VINA RESULT:    -1.809      9.280     13.629
REMARK INTER + INTRA:          -2.790
REMARK INTER:                  -2.074
REMARK INTRA:                  -0.716
REMARK UNBOUND:                 1.135
REMARK SMILES CCCCCCCCCCCCCCCCCCCCCC(=O)[O-]
REMARK SMILES IDX 12 1 11 2 10 3 9 4 8 5 7 6 6 7 5 8 4 9 3 10 2 11 1 12 13 13
REMARK SMILES IDX 14 14 15 15 16 16 17 17 18 18 19 19 20 20 21 21 22 22 23 23
REMARK SMILES IDX 24 24
REMARK H PARENT
REMARK Flexibility Score: inf
ROOT
ATOM      1  C   UNL     1      26.706  24.443  -2.073  1.00  0.00     0.000 C 
ENDROOT
BRANCH   1   2
ATOM      2  C   UNL     1      26.583  24.796  -0.583  1.00  0.00     0.000 C 
BRANCH   2   3
ATOM      3  C   UNL     1      27.948  24.967   0.101  1.00  0.00     0.000 C 
BRANCH   3   4
ATOM      4  C   UNL     1      27.834  25.565   1.512  1.00  0.00    -0.000 C 
BRANCH   4   5
ATOM      5  C   UNL     1      28.711  24.792   2.505  1.00  0.00    -0.000 C 
BRANCH   5   6
ATOM      6  C   UNL     1      29.125  25.685   3.686  1.00  0.00    -0.000 C 
BRANCH   6   7
ATOM      7  C   UNL     1      29.055  27.182   3.348  1.00  0.00    -0.000 C 
BRANCH   7   8
ATOM      8  C   UNL     1      27.870  27.888   4.024  1.00  0.00    -0.000 C 
BRANCH   8   9
ATOM      9  C   UNL     1      28.263  29.302   4.479  1.00  0.00    -0.000 C 
BRANCH   9  10
ATOM     10  C   UNL     1      27.799  29.620   5.912  1.00  0.00    -0.000 C 
BRANCH  10  11
ATOM     11  C   UNL     1      28.900  29.527   6.985  1.00  0.00    -0.003 C 
ATOM     12  C   UNL     1      28.520  28.618   8.154  1.00  0.00     0.004 C 
ENDBRANCH  10  11
ENDBRANCH   9  10
ENDBRANCH   8   9
ENDBRANCH   7   8
ENDBRANCH   6   7
ENDBRANCH   5   6
ENDBRANCH   4   5
ENDBRANCH   3   4
ENDBRANCH   2   3
ENDBRANCH   1   2
BRANCH   1  13
ATOM     13  C   UNL     1      27.723  23.311  -2.289  1.00  0.00     0.000 C 
BRANCH  13  14
ATOM     14  C   UNL     1      28.552  23.483  -3.575  1.00  0.00     0.000 C 
BRANCH  14  15
ATOM     15  C   UNL     1      28.279  22.442  -4.675  1.00  0.00     0.000 C 
BRANCH  15  16
ATOM     16  C   UNL     1      29.112  22.678  -5.947  1.00  0.00     0.000 C 
BRANCH  16  17
ATOM     17  C   UNL     1      29.125  24.157  -6.372  1.00  0.00     0.000 C 
BRANCH  17  18
ATOM     18  C   UNL     1      28.425  24.389  -7.719  1.00  0.00     0.000 C 
BRANCH  18  19
ATOM     19  C   UNL     1      28.973  25.647  -8.411  1.00  0.00     0.000 C 
BRANCH  19  20
ATOM     20  C   UNL     1      28.355  25.880  -9.798  1.00  0.00     0.006 C 
BRANCH  20  21
ATOM     21  C   UNL     1      27.275  26.970  -9.789  1.00  0.00     0.053 C 
BRANCH  21  22
ATOM     22  C   UNL     1      27.901  28.327  -9.848  1.00  0.00     0.041 C 
ATOM     23  O   UNL     1      28.339  28.869  -8.800  1.00  0.00    -0.550 OA
ATOM     24  O   UNL     1      28.039  28.975 -11.069  1.00  0.00    -0.550 OA
ENDBRANCH  21  22
ENDBRANCH  20  21
ENDBRANCH  19  20
ENDBRANCH  18  19
ENDBRANCH  17  18
ENDBRANCH  16  17
ENDBRANCH  15  16
ENDBRANCH  14  15
ENDBRANCH  13  14
ENDBRANCH   1  13
TORSDOF 20
ENDMDL
MODEL 4
REMARK VINA RESULT:    -1.802     11.815     16.119
REMARK INTER + INTRA:          -2.775
REMARK INTER:                  -1.563
REMARK INTRA:                  -1.213
REMARK UNBOUND:                 1.135
REMARK SMILES CCCCCCCCCCCCCCCCCCCCCC(=O)[O-]
REMARK SMILES IDX 12 1 11 2 10 3 9 4 8 5 7 6 6 7 5 8 4 9 3 10 2 11 1 12 13 13
REMARK SMILES IDX 14 14 15 15 16 16 17 17 18 18 19 19 20 20 21 21 22 22 23 23
REMARK SMILES IDX 24 24
REMARK H PARENT
REMARK Flexibility Score: inf
ROOT
ATOM      1  C   UNL     1      26.926  24.571  -0.458  1.00  0.00     0.000 C 
ENDROOT
BRANCH   1   2
ATOM      2  C   UNL     1      28.173  24.029   0.256  1.00  0.00     0.000 C 
BRANCH   2   3
ATOM      3  C   UNL     1      29.116  25.144   0.733  1.00  0.00     0.000 C 
BRANCH   3   4
ATOM      4  C   UNL     1      28.596  26.548   0.392  1.00  0.00    -0.000 C 
BRANCH   4   5
ATOM      5  C   UNL     1      29.071  27.574   1.429  1.00  0.00    -0.000 C 
BRANCH   5   6
ATOM      6  C   UNL     1      28.764  27.096   2.857  1.00  0.00    -0.000 C 
BRANCH   6   7
ATOM      7  C   UNL     1      29.125  28.143   3.922  1.00  0.00    -0.000 C 
BRANCH   7   8
ATOM      8  C   UNL     1      28.044  28.287   5.003  1.00  0.00    -0.000 C 
BRANCH   8   9
ATOM      9  C   UNL     1      27.818  29.765   5.358  1.00  0.00    -0.000 C 
BRANCH   9  10
ATOM     10  C   UNL     1      29.024  30.402   6.071  1.00  0.00    -0.000 C 
BRANCH  10  11
ATOM     11  C   UNL     1      28.763  31.798   6.664  1.00  0.00    -0.003 C 
ATOM     12  C   UNL     1      29.109  31.890   8.151  1.00  0.00     0.004 C 
ENDBRANCH  10  11
ENDBRANCH   9  10
ENDBRANCH   8   9
ENDBRANCH   7   8
ENDBRANCH   6   7
ENDBRANCH   5   6
ENDBRANCH   4   5
ENDBRANCH   3   4
ENDBRANCH   2   3
ENDBRANCH   1   2
BRANCH   1  13
ATOM     13  C   UNL     1      26.769  23.939  -1.850  1.00  0.00     0.000 C 
BRANCH  13  14
ATOM     14  C   UNL     1      27.735  24.532  -2.893  1.00  0.00     0.000 C 
BRANCH  14  15
ATOM     15  C   UNL     1      28.705  23.523  -3.534  1.00  0.00     0.000 C 
BRANCH  15  16
ATOM     16  C   UNL     1      28.103  22.114  -3.673  1.00  0.00     0.000 C 
BRANCH  16  17
ATOM     17  C   UNL     1      28.843  21.075  -2.814  1.00  0.00     0.000 C 
BRANCH  17  18
ATOM     18  C   UNL     1      28.237  19.668  -2.939  1.00  0.00     0.000 C 
BRANCH  18  19
ATOM     19  C   UNL     1      28.132  18.993  -1.563  1.00  0.00     0.000 C 
BRANCH  19  20
ATOM     20  C   UNL     1      28.272  17.465  -1.638  1.00  0.00     0.006 C 
BRANCH  20  21
ATOM     21  C   UNL     1      28.999  16.875  -0.422  1.00  0.00     0.053 C 
BRANCH  21  22
ATOM     22  C   UNL     1      28.145  16.984   0.801  1.00  0.00     0.041 C 
ATOM     23  O   UNL     1      26.892  16.917   0.708  1.00  0.00    -0.550 OA
ATOM     24  O   UNL     1      28.736  17.115   2.051  1.00  0.00    -0.550 OA
ENDBRANCH  21  22
ENDBRANCH  20  21
ENDBRANCH  19  20
ENDBRANCH  18  19
ENDBRANCH  17  18
ENDBRANCH  16  17
ENDBRANCH  15  16
ENDBRANCH  14  15
ENDBRANCH  13  14
ENDBRANCH   1  13
TORSDOF 20
ENDMDL
MODEL 5
REMARK VINA RESULT:    -0.806     10.552     12.564
REMARK INTER + INTRA:          -0.613
REMARK INTER:                   0.750
REMARK INTRA:                  -1.363
REMARK UNBOUND:                 1.135
REMARK SMILES CCCCCCCCCCCCCCCCCCCCCC(=O)[O-]
REMARK SMILES IDX 12 1 11 2 10 3 9 4 8 5 7 6 6 7 5 8 4 9 3 10 2 11 1 12 13 13
REMARK SMILES IDX 14 14 15 15 16 16 17 17 18 18 19 19 20 20 21 21 22 22 23 23
REMARK SMILES IDX 24 24
REMARK H PARENT
REMARK Flexibility Score: inf
ROOT
ATOM      1  C   UNL     1      27.870  21.849  -2.163  1.00  0.00     0.000 C 
ENDROOT
BRANCH   1   2
ATOM      2  C   UNL     1      28.183  22.276  -3.605  1.00  0.00     0.000 C 
BRANCH   2   3
ATOM      3  C   UNL     1      27.816  21.199  -4.637  1.00  0.00     0.000 C 
BRANCH   3   4
ATOM      4  C   UNL     1      27.496  19.842  -3.991  1.00  0.00    -0.000 C 
BRANCH   4   5
ATOM      5  C   UNL     1      28.598  18.819  -4.293  1.00  0.00    -0.000 C 
BRANCH   5   6
ATOM      6  C   UNL     1      29.125  18.180  -2.998  1.00  0.00    -0.000 C 
BRANCH   6   7
ATOM      7  C   UNL     1      28.037  18.041  -1.922  1.00  0.00    -0.000 C 
BRANCH   7   8
ATOM      8  C   UNL     1      28.331  16.911  -0.924  1.00  0.00    -0.000 C 
BRANCH   8   9
ATOM      9  C   UNL     1      27.820  17.273   0.479  1.00  0.00    -0.000 C 
BRANCH   9  10
ATOM     10  C   UNL     1      26.330  16.943   0.679  1.00  0.00    -0.000 C 
BRANCH  10  11
ATOM     11  C   UNL     1      25.853  16.958   2.142  1.00  0.00    -0.003 C 
ATOM     12  C   UNL     1      25.918  18.346   2.778  1.00  0.00     0.004 C 
ENDBRANCH  10  11
ENDBRANCH   9  10
ENDBRANCH   8   9
ENDBRANCH   7   8
ENDBRANCH   6   7
ENDBRANCH   5   6
ENDBRANCH   4   5
ENDBRANCH   3   4
ENDBRANCH   2   3
ENDBRANCH   1   2
BRANCH   1  13
ATOM     13  C   UNL     1      27.710  23.073  -1.248  1.00  0.00     0.000 C 
BRANCH  13  14
ATOM     14  C   UNL     1      27.410  24.370  -2.023  1.00  0.00     0.000 C 
BRANCH  14  15
ATOM     15  C   UNL     1      28.340  25.554  -1.703  1.00  0.00     0.000 C 
BRANCH  15  16
ATOM     16  C   UNL     1      29.060  25.405  -0.352  1.00  0.00     0.000 C 
BRANCH  16  17
ATOM     17  C   UNL     1      28.138  25.715   0.840  1.00  0.00     0.000 C 
BRANCH  17  18
ATOM     18  C   UNL     1      28.490  24.890   2.087  1.00  0.00     0.000 C 
BRANCH  18  19
ATOM     19  C   UNL     1      28.405  25.753   3.356  1.00  0.00     0.000 C 
BRANCH  19  20
ATOM     20  C   UNL     1      29.124  27.102   3.207  1.00  0.00     0.006 C 
BRANCH  20  21
ATOM     21  C   UNL     1      28.884  28.037   4.400  1.00  0.00     0.053 C 
BRANCH  21  22
ATOM     22  C   UNL     1      27.821  29.038   4.074  1.00  0.00     0.041 C 
ATOM     23  O   UNL     1      26.679  28.941   4.592  1.00  0.00    -0.550 OA
ATOM     24  O   UNL     1      28.107  30.104   3.230  1.00  0.00    -0.550 OA
ENDBRANCH  21  22
ENDBRANCH  20  21
ENDBRANCH  19  20
ENDBRANCH  18  19
ENDBRANCH  17  18
ENDBRANCH  16  17
ENDBRANCH  15  16
ENDBRANCH  14  15
ENDBRANCH  13  14
ENDBRANCH   1  13
TORSDOF 20
ENDMDL
MODEL 6
REMARK VINA RESULT:    -0.158     12.139     15.160
REMARK INTER + INTRA:           0.792
REMARK INTER:                   0.201
REMARK INTRA:                   0.592
REMARK UNBOUND:                 1.135
REMARK SMILES CCCCCCCCCCCCCCCCCCCCCC(=O)[O-]
REMARK SMILES IDX 12 1 11 2 10 3 9 4 8 5 7 6 6 7 5 8 4 9 3 10 2 11 1 12 13 13
REMARK SMILES IDX 14 14 15 15 16 16 17 17 18 18 19 19 20 20 21 21 22 22 23 23
REMARK SMILES IDX 24 24
REMARK H PARENT
REMARK Flexibility Score: inf
ROOT
ATOM      1  C   UNL     1      28.726  25.397   2.261  1.00  0.00     0.000 C 
ENDROOT
BRANCH   1   2
ATOM      2  C   UNL     1      29.047  26.300   1.061  1.00  0.00     0.000 C 
BRANCH   2   3
ATOM      3  C   UNL     1      28.577  25.703  -0.275  1.00  0.00     0.000 C 
BRANCH   3   4
ATOM      4  C   UNL     1      27.487  24.634  -0.096  1.00  0.00    -0.000 C 
BRANCH   4   5
ATOM      5  C   UNL     1      27.213  23.907  -1.419  1.00  0.00    -0.000 C 
BRANCH   5   6
ATOM      6  C   UNL     1      28.464  23.896  -2.311  1.00  0.00    -0.000 C 
BRANCH   6   7
ATOM      7  C   UNL     1      29.054  22.488  -2.486  1.00  0.00    -0.000 C 
BRANCH   7   8
ATOM      8  C   UNL     1      28.144  21.562  -3.307  1.00  0.00    -0.000 C 
BRANCH   8   9
ATOM      9  C   UNL     1      28.970  20.502  -4.052  1.00  0.00    -0.000 C 
BRANCH   9  10
ATOM     10  C   UNL     1      29.058  19.167  -3.292  1.00  0.00    -0.000 C 
BRANCH  10  11
ATOM     11  C   UNL     1      28.010  18.984  -2.180  1.00  0.00    -0.003 C 
ATOM     12  C   UNL     1      28.475  18.042  -1.069  1.00  0.00     0.004 C 
ENDBRANCH  10  11
ENDBRANCH   9  10
ENDBRANCH   8   9
ENDBRANCH   7   8
ENDBRANCH   6   7
ENDBRANCH   5   6
ENDBRANCH   4   5
ENDBRANCH   3   4
ENDBRANCH   2   3
ENDBRANCH   1   2
BRANCH   1  13
ATOM     13  C   UNL     1      28.705  26.205   3.568  1.00  0.00     0.000 C 
BRANCH  13  14
ATOM     14  C   UNL     1      29.125  27.674   3.375  1.00  0.00     0.000 C 
BRANCH  14  15
ATOM     15  C   UNL     1      29.119  28.530   4.654  1.00  0.00     0.000 C 
BRANCH  15  16
ATOM     16  C   UNL     1      28.892  30.026   4.375  1.00  0.00     0.000 C 
BRANCH  16  17
ATOM     17  C   UNL     1      28.453  30.796   5.632  1.00  0.00     0.000 C 
BRANCH  17  18
ATOM     18  C   UNL     1      28.265  29.879   6.850  1.00  0.00     0.000 C 
BRANCH  18  19
ATOM     19  C   UNL     1      27.572  28.568   6.446  1.00  0.00     0.000 C 
BRANCH  19  20
ATOM     20  C   UNL     1      26.200  28.796   5.796  1.00  0.00     0.006 C 
BRANCH  20  21
ATOM     21  C   UNL     1      25.616  27.518   5.179  1.00  0.00     0.053 C 
BRANCH  21  22
ATOM     22  C   UNL     1      24.250  27.249   5.727  1.00  0.00     0.041 C 
ATOM     23  O   UNL     1      23.754  26.096   5.656  1.00  0.00    -0.550 OA
ATOM     24  O   UNL     1      23.544  28.266   6.357  1.00  0.00    -0.550 OA
ENDBRANCH  21  22
ENDBRANCH  20  21
ENDBRANCH  19  20
ENDBRANCH  18  19
ENDBRANCH  17  18
ENDBRANCH  16  17
ENDBRANCH  15  16
ENDBRANCH  14  15
ENDBRANCH  13  14
ENDBRANCH   1  13
TORSDOF 20
ENDMDL
