MODEL 1
REMARK VINA RESULT:    -7.741      0.000      0.000
REMARK INTER + INTRA:          -9.567
REMARK INTER:                  -9.325
REMARK INTRA:                  -0.242
REMARK UNBOUND:                -0.242
REMARK SMILES O=c1c(O)c(-c2ccc(O)c(O)c2)oc2cc(O)cc(O)c12
REMARK SMILES IDX 5 1 3 2 2 3 1 4 22 5 20 6 19 7 17 8 16 9 15 10 14 11 6 12
REMARK SMILES IDX 7 13 8 14 9 15 13 16 11 17 10 18 12 20 4 22 21 24 18 26
REMARK H PARENT 10 19 12 21 4 23 21 25 18 27
REMARK Flexibility Score: inf
ROOT
ATOM      1  C   UNL     1      13.041 -19.404 -19.276  1.00  0.00     0.180 A 
ATOM      2  C   UNL     1      11.952 -20.146 -18.777  1.00  0.00     0.208 A 
ATOM      3  C   UNL     1      12.133 -20.917 -17.619  1.00  0.00     0.238 A 
ATOM      4  O   UNL     1      11.163 -21.578 -17.156  1.00  0.00    -0.285 OA
ATOM      5  C   UNL     1      13.396 -20.950 -16.992  1.00  0.00     0.111 A 
ATOM      6  C   UNL     1      13.661 -21.705 -15.824  1.00  0.00     0.134 A 
ATOM      7  C   UNL     1      14.948 -21.692 -15.265  1.00  0.00     0.093 A 
ATOM      8  C   UNL     1      15.973 -20.943 -15.853  1.00  0.00     0.123 A 
ATOM      9  C   UNL     1      15.715 -20.196 -17.004  1.00  0.00     0.094 A 
ATOM     10  C   UNL     1      14.439 -20.193 -17.576  1.00  0.00     0.146 A 
ATOM     11  O   UNL     1      14.222 -19.471 -18.667  1.00  0.00    -0.452 OA
ENDROOT
BRANCH   1  12
ATOM     12  C   UNL     1      12.925 -18.552 -20.482  1.00  0.00     0.025 A 
ATOM     13  C   UNL     1      13.624 -18.905 -21.646  1.00  0.00     0.016 A 
ATOM     14  C   UNL     1      13.546 -18.105 -22.789  1.00  0.00     0.051 A 
ATOM     15  C   UNL     1      12.783 -16.933 -22.782  1.00  0.00     0.157 A 
ATOM     16  C   UNL     1      12.175 -17.362 -20.469  1.00  0.00     0.062 A 
ATOM     17  C   UNL     1      12.096 -16.556 -21.615  1.00  0.00     0.158 A 
BRANCH  15  18
ATOM     18  O   UNL     1      12.721 -16.156 -23.938  1.00  0.00    -0.504 OA
ATOM     19  H   UNL     1      12.136 -15.332 -24.002  1.00  0.00     0.293 HD
ENDBRANCH  15  18
BRANCH  17  20
ATOM     20  O   UNL     1      11.345 -15.382 -21.596  1.00  0.00    -0.504 OA
ATOM     21  H   UNL     1      11.770 -14.483 -21.403  1.00  0.00     0.293 HD
ENDBRANCH  17  20
ENDBRANCH   1  12
BRANCH   2  22
ATOM     22  O   UNL     1      10.725 -20.135 -19.445  1.00  0.00    -0.502 OA
ATOM     23  H   UNL     1      10.279 -19.278 -19.746  1.00  0.00     0.293 HD
ENDBRANCH   2  22
BRANCH   6  24
ATOM     24  O   UNL     1      12.660 -22.464 -15.217  1.00  0.00    -0.507 OA
ATOM     25  H   UNL     1      12.759 -23.464 -15.080  1.00  0.00     0.293 HD
ENDBRANCH   6  24
BRANCH   8  26
ATOM     26  O   UNL     1      17.251 -20.930 -15.300  1.00  0.00    -0.508 OA
ATOM     27  H   UNL     1      17.957 -21.601 -15.582  1.00  0.00     0.293 HD
ENDBRANCH   8  26
TORSDOF 6
ENDMDL
MODEL 2
REMARK VINA RESULT:    -7.735      1.604      3.325
REMARK INTER + INTRA:          -9.560
REMARK INTER:                  -9.241
REMARK INTRA:                  -0.318
REMARK UNBOUND:                -0.242
REMARK SMILES O=c1c(O)c(-c2ccc(O)c(O)c2)oc2cc(O)cc(O)c12
REMARK SMILES IDX 5 1 3 2 2 3 1 4 22 5 20 6 19 7 17 8 16 9 15 10 14 11 6 12
REMARK SMILES IDX 7 13 8 14 9 15 13 16 11 17 10 18 12 20 4 22 21 24 18 26
REMARK H PARENT 10 19 12 21 4 23 21 25 18 27
REMARK Flexibility Score: inf
ROOT
ATOM      1  C   UNL     1      12.736 -19.063 -19.634  1.00  0.00     0.180 A 
ATOM      2  C   UNL     1      13.751 -18.826 -18.687  1.00  0.00     0.208 A 
ATOM      3  C   UNL     1      13.857 -19.681 -17.579  1.00  0.00     0.238 A 
ATOM      4  O   UNL     1      14.769 -19.485 -16.729  1.00  0.00    -0.285 OA
ATOM      5  C   UNL     1      12.942 -20.743 -17.427  1.00  0.00     0.111 A 
ATOM      6  C   UNL     1      12.978 -21.647 -16.338  1.00  0.00     0.134 A 
ATOM      7  C   UNL     1      12.025 -22.673 -16.254  1.00  0.00     0.093 A 
ATOM      8  C   UNL     1      11.036 -22.809 -17.234  1.00  0.00     0.123 A 
ATOM      9  C   UNL     1      10.997 -21.921 -18.310  1.00  0.00     0.094 A 
ATOM     10  C   UNL     1      11.939 -20.893 -18.414  1.00  0.00     0.146 A 
ATOM     11  O   UNL     1      11.881 -20.065 -19.450  1.00  0.00    -0.452 OA
ENDROOT
BRANCH   1  12
ATOM     12  C   UNL     1      12.571 -18.216 -20.838  1.00  0.00     0.025 A 
ATOM     13  C   UNL     1      11.570 -17.233 -20.857  1.00  0.00     0.016 A 
ATOM     14  C   UNL     1      11.382 -16.437 -21.990  1.00  0.00     0.051 A 
ATOM     15  C   UNL     1      12.178 -16.621 -23.124  1.00  0.00     0.157 A 
ATOM     16  C   UNL     1      13.357 -18.415 -21.987  1.00  0.00     0.062 A 
ATOM     17  C   UNL     1      13.169 -17.618 -23.126  1.00  0.00     0.158 A 
BRANCH  15  18
ATOM     18  O   UNL     1      11.970 -15.810 -24.239  1.00  0.00    -0.504 OA
ATOM     19  H   UNL     1      11.155 -15.909 -24.832  1.00  0.00     0.293 HD
ENDBRANCH  15  18
BRANCH  17  20
ATOM     20  O   UNL     1      13.958 -17.816 -24.258  1.00  0.00    -0.504 OA
ATOM     21  H   UNL     1      14.774 -18.416 -24.238  1.00  0.00     0.293 HD
ENDBRANCH  17  20
ENDBRANCH   1  12
BRANCH   2  22
ATOM     22  O   UNL     1      14.615 -17.738 -18.835  1.00  0.00    -0.502 OA
ATOM     23  H   UNL     1      14.279 -16.791 -18.961  1.00  0.00     0.293 HD
ENDBRANCH   2  22
BRANCH   6  24
ATOM     24  O   UNL     1      13.951 -21.535 -15.344  1.00  0.00    -0.507 OA
ATOM     25  H   UNL     1      14.847 -21.097 -15.522  1.00  0.00     0.293 HD
ENDBRANCH   6  24
BRANCH   8  26
ATOM     26  O   UNL     1      10.088 -23.827 -17.151  1.00  0.00    -0.508 OA
ATOM     27  H   UNL     1       9.103 -23.624 -17.026  1.00  0.00     0.293 HD
ENDBRANCH   8  26
TORSDOF 6
ENDMDL
MODEL 3
REMARK VINA RESULT:    -6.804      1.716      6.786
REMARK INTER + INTRA:          -8.438
REMARK INTER:                  -8.122
REMARK INTRA:                  -0.316
REMARK UNBOUND:                -0.242
REMARK SMILES O=c1c(O)c(-c2ccc(O)c(O)c2)oc2cc(O)cc(O)c12
REMARK SMILES IDX 5 1 3 2 2 3 1 4 22 5 20 6 19 7 17 8 16 9 15 10 14 11 6 12
REMARK SMILES IDX 7 13 8 14 9 15 13 16 11 17 10 18 12 20 4 22 21 24 18 26
REMARK H PARENT 10 19 12 21 4 23 21 25 18 27
REMARK Flexibility Score: inf
ROOT
ATOM      1  C   UNL     1      13.879 -19.030 -18.782  1.00  0.00     0.180 A 
ATOM      2  C   UNL     1      12.521 -19.394 -18.874  1.00  0.00     0.208 A 
ATOM      3  C   UNL     1      11.728 -18.803 -19.869  1.00  0.00     0.238 A 
ATOM      4  O   UNL     1      10.512 -19.128 -19.969  1.00  0.00    -0.285 OA
ATOM      5  C   UNL     1      12.295 -17.849 -20.739  1.00  0.00     0.111 A 
ATOM      6  C   UNL     1      11.563 -17.205 -21.766  1.00  0.00     0.134 A 
ATOM      7  C   UNL     1      12.199 -16.260 -22.585  1.00  0.00     0.093 A 
ATOM      8  C   UNL     1      13.549 -15.945 -22.396  1.00  0.00     0.123 A 
ATOM      9  C   UNL     1      14.275 -16.579 -21.386  1.00  0.00     0.094 A 
ATOM     10  C   UNL     1      13.661 -17.526 -20.560  1.00  0.00     0.146 A 
ATOM     11  O   UNL     1      14.376 -18.116 -19.610  1.00  0.00    -0.452 OA
ENDROOT
BRANCH   1  12
ATOM     12  C   UNL     1      14.784 -19.623 -17.771  1.00  0.00     0.025 A 
ATOM     13  C   UNL     1      15.110 -18.887 -16.621  1.00  0.00     0.016 A 
ATOM     14  C   UNL     1      15.979 -19.418 -15.664  1.00  0.00     0.051 A 
ATOM     15  C   UNL     1      16.548 -20.682 -15.848  1.00  0.00     0.157 A 
ATOM     16  C   UNL     1      15.373 -20.885 -17.965  1.00  0.00     0.062 A 
ATOM     17  C   UNL     1      16.248 -21.419 -17.007  1.00  0.00     0.158 A 
BRANCH  15  18
ATOM     18  O   UNL     1      17.409 -21.187 -14.875  1.00  0.00    -0.504 OA
ATOM     19  H   UNL     1      17.095 -21.831 -14.161  1.00  0.00     0.293 HD
ENDBRANCH  15  18
BRANCH  17  20
ATOM     20  O   UNL     1      16.822 -22.674 -17.204  1.00  0.00    -0.504 OA
ATOM     21  H   UNL     1      16.547 -23.476 -16.650  1.00  0.00     0.293 HD
ENDBRANCH  17  20
ENDBRANCH   1  12
BRANCH   2  22
ATOM     22  O   UNL     1      11.970 -20.304 -17.968  1.00  0.00    -0.502 OA
ATOM     23  H   UNL     1      11.743 -21.256 -18.227  1.00  0.00     0.293 HD
ENDBRANCH   2  22
BRANCH   6  24
ATOM     24  O   UNL     1      10.215 -17.495 -21.978  1.00  0.00    -0.507 OA
ATOM     25  H   UNL     1       9.913 -18.397 -22.327  1.00  0.00     0.293 HD
ENDBRANCH   6  24
BRANCH   8  26
ATOM     26  O   UNL     1      14.181 -15.006 -23.208  1.00  0.00    -0.508 OA
ATOM     27  H   UNL     1      13.657 -14.285 -23.690  1.00  0.00     0.293 HD
ENDBRANCH   8  26
TORSDOF 6
ENDMDL
MODEL 4
REMARK VINA RESULT:    -5.365      1.803      7.110
REMARK INTER + INTRA:          -6.705
REMARK INTER:                  -7.141
REMARK INTRA:                   0.436
REMARK UNBOUND:                -0.242
REMARK SMILES O=c1c(O)c(-c2ccc(O)c(O)c2)oc2cc(O)cc(O)c12
REMARK SMILES IDX 5 1 3 2 2 3 1 4 22 5 20 6 19 7 17 8 16 9 15 10 14 11 6 12
REMARK SMILES IDX 7 13 8 14 9 15 13 16 11 17 10 18 12 20 4 22 21 24 18 26
REMARK H PARENT 10 19 12 21 4 23 21 25 18 27
REMARK Flexibility Score: inf
ROOT
ATOM      1  C   UNL     1      12.810 -19.783 -18.463  1.00  0.00     0.180 A 
ATOM      2  C   UNL     1      14.081 -19.176 -18.418  1.00  0.00     0.208 A 
ATOM      3  C   UNL     1      14.366 -18.134 -19.314  1.00  0.00     0.238 A 
ATOM      4  O   UNL     1      15.497 -17.575 -19.277  1.00  0.00    -0.285 OA
ATOM      5  C   UNL     1      13.389 -17.728 -20.246  1.00  0.00     0.111 A 
ATOM      6  C   UNL     1      13.598 -16.689 -21.184  1.00  0.00     0.134 A 
ATOM      7  C   UNL     1      12.578 -16.351 -22.087  1.00  0.00     0.093 A 
ATOM      8  C   UNL     1      11.356 -17.033 -22.070  1.00  0.00     0.123 A 
ATOM      9  C   UNL     1      11.146 -18.058 -21.146  1.00  0.00     0.094 A 
ATOM     10  C   UNL     1      12.148 -18.409 -20.237  1.00  0.00     0.146 A 
ATOM     11  O   UNL     1      11.919 -19.385 -19.367  1.00  0.00    -0.452 OA
ENDROOT
BRANCH   1  12
ATOM     12  C   UNL     1      12.428 -20.876 -17.540  1.00  0.00     0.025 A 
ATOM     13  C   UNL     1      13.162 -21.070 -16.360  1.00  0.00     0.016 A 
ATOM     14  C   UNL     1      12.833 -22.108 -15.484  1.00  0.00     0.051 A 
ATOM     15  C   UNL     1      11.777 -22.976 -15.781  1.00  0.00     0.157 A 
ATOM     16  C   UNL     1      11.380 -21.761 -17.847  1.00  0.00     0.062 A 
ATOM     17  C   UNL     1      11.049 -22.806 -16.970  1.00  0.00     0.158 A 
BRANCH  15  18
ATOM     18  O   UNL     1      11.470 -24.001 -14.887  1.00  0.00    -0.504 OA
ATOM     19  H   UNL     1      10.628 -24.555 -14.973  1.00  0.00     0.293 HD
ENDBRANCH  15  18
BRANCH  17  20
ATOM     20  O   UNL     1      10.004 -23.675 -17.279  1.00  0.00    -0.504 OA
ATOM     21  H   UNL     1      10.172 -24.572 -17.718  1.00  0.00     0.293 HD
ENDBRANCH  17  20
ENDBRANCH   1  12
BRANCH   2  22
ATOM     22  O   UNL     1      15.049 -19.629 -17.518  1.00  0.00    -0.502 OA
ATOM     23  H   UNL     1      16.036 -19.443 -17.643  1.00  0.00     0.293 HD
ENDBRANCH   2  22
BRANCH   6  24
ATOM     24  O   UNL     1      14.806 -15.992 -21.227  1.00  0.00    -0.507 OA
ATOM     25  H   UNL     1      15.696 -16.473 -21.289  1.00  0.00     0.293 HD
ENDBRANCH   6  24
BRANCH   8  26
ATOM     26  O   UNL     1      10.343 -16.699 -22.966  1.00  0.00    -0.508 OA
ATOM     27  H   UNL     1      10.454 -15.943 -23.632  1.00  0.00     0.293 HD
ENDBRANCH   8  26
TORSDOF 6
ENDMDL
MODEL 5
REMARK VINA RESULT:    -4.815      1.813      7.072
REMARK INTER + INTRA:          -6.042
REMARK INTER:                  -5.748
REMARK INTRA:                  -0.295
REMARK UNBOUND:                -0.242
REMARK SMILES O=c1c(O)c(-c2ccc(O)c(O)c2)oc2cc(O)cc(O)c12
REMARK SMILES IDX 5 1 3 2 2 3 1 4 22 5 20 6 19 7 17 8 16 9 15 10 14 11 6 12
REMARK SMILES IDX 7 13 8 14 9 15 13 16 11 17 10 18 12 20 4 22 21 24 18 26
REMARK H PARENT 10 19 12 21 4 23 21 25 18 27
REMARK Flexibility Score: inf
ROOT
ATOM      1  C   UNL     1      13.354 -18.689 -20.226  1.00  0.00     0.180 A 
ATOM      2  C   UNL     1      12.320 -17.732 -20.263  1.00  0.00     0.208 A 
ATOM      3  C   UNL     1      11.907 -17.229 -21.506  1.00  0.00     0.238 A 
ATOM      4  O   UNL     1      10.974 -16.380 -21.554  1.00  0.00    -0.285 OA
ATOM      5  C   UNL     1      12.541 -17.673 -22.685  1.00  0.00     0.111 A 
ATOM      6  C   UNL     1      12.187 -17.214 -23.976  1.00  0.00     0.134 A 
ATOM      7  C   UNL     1      12.874 -17.697 -25.100  1.00  0.00     0.093 A 
ATOM      8  C   UNL     1      13.908 -18.629 -24.956  1.00  0.00     0.123 A 
ATOM      9  C   UNL     1      14.260 -19.086 -23.685  1.00  0.00     0.094 A 
ATOM     10  C   UNL     1      13.587 -18.618 -22.553  1.00  0.00     0.146 A 
ATOM     11  O   UNL     1      13.940 -19.073 -21.357  1.00  0.00    -0.452 OA
ENDROOT
BRANCH   1  12
ATOM     12  C   UNL     1      13.833 -19.280 -18.956  1.00  0.00     0.025 A 
ATOM     13  C   UNL     1      13.091 -20.305 -18.350  1.00  0.00     0.016 A 
ATOM     14  C   UNL     1      13.513 -20.863 -17.140  1.00  0.00     0.051 A 
ATOM     15  C   UNL     1      14.670 -20.395 -16.510  1.00  0.00     0.157 A 
ATOM     16  C   UNL     1      14.985 -18.796 -18.311  1.00  0.00     0.062 A 
ATOM     17  C   UNL     1      15.409 -19.353 -17.095  1.00  0.00     0.158 A 
BRANCH  15  18
ATOM     18  O   UNL     1      15.068 -20.973 -15.305  1.00  0.00    -0.504 OA
ATOM     19  H   UNL     1      15.902 -21.541 -15.230  1.00  0.00     0.293 HD
ENDBRANCH  15  18
BRANCH  17  20
ATOM     20  O   UNL     1      16.556 -18.872 -16.466  1.00  0.00    -0.504 OA
ATOM     21  H   UNL     1      16.547 -18.580 -15.496  1.00  0.00     0.293 HD
ENDBRANCH  17  20
ENDBRANCH   1  12
BRANCH   2  22
ATOM     22  O   UNL     1      11.740 -17.272 -19.078  1.00  0.00    -0.502 OA
ATOM     23  H   UNL     1      11.432 -16.315 -18.961  1.00  0.00     0.293 HD
ENDBRANCH   2  22
BRANCH   6  24
ATOM     24  O   UNL     1      11.161 -16.283 -24.151  1.00  0.00    -0.507 OA
ATOM     25  H   UNL     1      10.741 -15.800 -23.365  1.00  0.00     0.293 HD
ENDBRANCH   6  24
BRANCH   8  26
ATOM     26  O   UNL     1      14.591 -19.110 -26.071  1.00  0.00    -0.508 OA
ATOM     27  H   UNL     1      14.424 -20.041 -26.434  1.00  0.00     0.293 HD
ENDBRANCH   8  26
TORSDOF 6
ENDMDL
