MODEL 1
REMARK VINA RESULT:    -6.163      0.000      0.000
REMARK INTER + INTRA:          -7.541
REMARK INTER:                  -7.244
REMARK INTRA:                  -0.297
REMARK UNBOUND:                -0.297
REMARK SMILES O=c1cc(-c2ccc(O)c(O)c2)oc2cc(O)cc(O)c12
REMARK SMILES IDX 4 1 3 2 2 3 1 4 21 5 19 6 18 7 16 8 15 9 14 10 13 11 5 12
REMARK SMILES IDX 6 13 7 14 8 15 12 16 10 17 9 18 11 20 20 22 17 24
REMARK H PARENT 9 19 11 21 20 23 17 25
REMARK Flexibility Score: inf
ROOT
ATOM      1  C   UNL     1      -3.102 -13.302  15.675  1.00  0.00     0.138 A 
ATOM      2  C   UNL     1      -3.377 -14.002  14.491  1.00  0.00     0.100 A 
ATOM      3  C   UNL     1      -2.445 -13.993  13.452  1.00  0.00     0.197 A 
ATOM      4  O   UNL     1      -2.744 -14.585  12.384  1.00  0.00    -0.289 OA
ATOM      5  C   UNL     1      -1.216 -13.309  13.614  1.00  0.00     0.107 A 
ATOM      6  C   UNL     1      -0.177 -13.260  12.637  1.00  0.00     0.134 A 
ATOM      7  C   UNL     1       0.954 -12.469  12.872  1.00  0.00     0.093 A 
ATOM      8  C   UNL     1       1.111 -11.771  14.069  1.00  0.00     0.123 A 
ATOM      9  C   UNL     1       0.124 -11.853  15.052  1.00  0.00     0.094 A 
ATOM     10  C   UNL     1      -1.032 -12.606  14.834  1.00  0.00     0.146 A 
ATOM     11  O   UNL     1      -1.955 -12.641  15.790  1.00  0.00    -0.456 OA
ENDROOT
BRANCH   1  12
ATOM     12  C   UNL     1      -4.056 -13.280  16.813  1.00  0.00     0.021 A 
ATOM     13  C   UNL     1      -3.780 -12.472  17.929  1.00  0.00     0.016 A 
ATOM     14  C   UNL     1      -4.663 -12.426  19.010  1.00  0.00     0.051 A 
ATOM     15  C   UNL     1      -5.843 -13.179  18.991  1.00  0.00     0.157 A 
ATOM     16  C   UNL     1      -5.251 -14.025  16.794  1.00  0.00     0.062 A 
ATOM     17  C   UNL     1      -6.139 -13.980  17.875  1.00  0.00     0.158 A 
BRANCH  15  18
ATOM     18  O   UNL     1      -6.722 -13.133  20.071  1.00  0.00    -0.504 OA
ATOM     19  H   UNL     1      -6.966 -13.967  20.594  1.00  0.00     0.293 HD
ENDBRANCH  15  18
BRANCH  17  20
ATOM     20  O   UNL     1      -7.312 -14.733  17.819  1.00  0.00    -0.504 OA
ATOM     21  H   UNL     1      -7.524 -15.449  18.504  1.00  0.00     0.293 HD
ENDBRANCH  17  20
ENDBRANCH   1  12
BRANCH   6  22
ATOM     22  O   UNL     1      -0.193 -13.981  11.438  1.00  0.00    -0.507 OA
ATOM     23  H   UNL     1       0.270 -14.863  11.287  1.00  0.00     0.293 HD
ENDBRANCH   6  22
BRANCH   8  24
ATOM     24  O   UNL     1       2.256 -11.006  14.274  1.00  0.00    -0.508 OA
ATOM     25  H   UNL     1       2.281 -10.018  14.049  1.00  0.00     0.293 HD
ENDBRANCH   8  24
TORSDOF 5
ENDMDL
MODEL 2
REMARK VINA RESULT:    -6.043     10.773     13.195
REMARK INTER + INTRA:          -7.399
REMARK INTER:                  -7.109
REMARK INTRA:                  -0.290
REMARK UNBOUND:                -0.297
REMARK SMILES O=c1cc(-c2ccc(O)c(O)c2)oc2cc(O)cc(O)c12
REMARK SMILES IDX 4 1 3 2 2 3 1 4 21 5 19 6 18 7 16 8 15 9 14 10 13 11 5 12
REMARK SMILES IDX 6 13 7 14 8 15 12 16 10 17 9 18 11 20 20 22 17 24
REMARK H PARENT 9 19 11 21 20 23 17 25
REMARK Flexibility Score: inf
ROOT
ATOM      1  C   UNL     1      -9.726  -5.384  19.265  1.00  0.00     0.138 A 
ATOM      2  C   UNL     1      -9.441  -6.077  20.450  1.00  0.00     0.100 A 
ATOM      3  C   UNL     1     -10.357  -7.009  20.942  1.00  0.00     0.197 A 
ATOM      4  O   UNL     1     -10.097  -7.573  22.036  1.00  0.00    -0.289 OA
ATOM      5  C   UNL     1     -11.547  -7.273  20.223  1.00  0.00     0.107 A 
ATOM      6  C   UNL     1     -12.537  -8.226  20.611  1.00  0.00     0.134 A 
ATOM      7  C   UNL     1     -13.721  -8.330  19.870  1.00  0.00     0.093 A 
ATOM      8  C   UNL     1     -13.928  -7.559  18.727  1.00  0.00     0.123 A 
ATOM      9  C   UNL     1     -12.945  -6.660  18.311  1.00  0.00     0.094 A 
ATOM     10  C   UNL     1     -11.768  -6.508  19.047  1.00  0.00     0.146 A 
ATOM     11  O   UNL     1     -10.866  -5.627  18.626  1.00  0.00    -0.456 OA
ENDROOT
BRANCH   1  12
ATOM     12  C   UNL     1      -8.787  -4.384  18.695  1.00  0.00     0.021 A 
ATOM     13  C   UNL     1      -9.289  -3.346  17.892  1.00  0.00     0.016 A 
ATOM     14  C   UNL     1      -8.430  -2.387  17.350  1.00  0.00     0.051 A 
ATOM     15  C   UNL     1      -7.055  -2.444  17.608  1.00  0.00     0.157 A 
ATOM     16  C   UNL     1      -7.405  -4.428  18.962  1.00  0.00     0.062 A 
ATOM     17  C   UNL     1      -6.542  -3.469  18.421  1.00  0.00     0.158 A 
BRANCH  15  18
ATOM     18  O   UNL     1      -6.199  -1.488  17.064  1.00  0.00    -0.504 OA
ATOM     19  H   UNL     1      -5.199  -1.519  17.223  1.00  0.00     0.293 HD
ENDBRANCH  15  18
BRANCH  17  20
ATOM     20  O   UNL     1      -5.179  -3.547  18.707  1.00  0.00    -0.504 OA
ATOM     21  H   UNL     1      -4.739  -2.950  19.399  1.00  0.00     0.293 HD
ENDBRANCH  17  20
ENDBRANCH   1  12
BRANCH   6  22
ATOM     22  O   UNL     1     -12.400  -9.105  21.690  1.00  0.00    -0.507 OA
ATOM     23  H   UNL     1     -12.966  -9.923  21.846  1.00  0.00     0.293 HD
ENDBRANCH   6  22
BRANCH   8  24
ATOM     24  O   UNL     1     -15.112  -7.700  18.008  1.00  0.00    -0.508 OA
ATOM     25  H   UNL     1     -15.147  -7.539  17.008  1.00  0.00     0.293 HD
ENDBRANCH   8  24
TORSDOF 5
ENDMDL
MODEL 3
REMARK VINA RESULT:    -6.039      0.945      1.558
REMARK INTER + INTRA:          -7.395
REMARK INTER:                  -7.093
REMARK INTRA:                  -0.302
REMARK UNBOUND:                -0.297
REMARK SMILES O=c1cc(-c2ccc(O)c(O)c2)oc2cc(O)cc(O)c12
REMARK SMILES IDX 4 1 3 2 2 3 1 4 21 5 19 6 18 7 16 8 15 9 14 10 13 11 5 12
REMARK SMILES IDX 6 13 7 14 8 15 12 16 10 17 9 18 11 20 20 22 17 24
REMARK H PARENT 9 19 11 21 20 23 17 25
REMARK Flexibility Score: inf
ROOT
ATOM      1  C   UNL     1      -3.653 -13.570  15.950  1.00  0.00     0.138 A 
ATOM      2  C   UNL     1      -3.802 -14.144  14.679  1.00  0.00     0.100 A 
ATOM      3  C   UNL     1      -2.801 -13.972  13.722  1.00  0.00     0.197 A 
ATOM      4  O   UNL     1      -2.989 -14.453  12.575  1.00  0.00    -0.289 OA
ATOM      5  C   UNL     1      -1.628 -13.252  14.052  1.00  0.00     0.107 A 
ATOM      6  C   UNL     1      -0.526 -13.041  13.169  1.00  0.00     0.134 A 
ATOM      7  C   UNL     1       0.538 -12.227  13.576  1.00  0.00     0.093 A 
ATOM      8  C   UNL     1       0.570 -11.663  14.851  1.00  0.00     0.123 A 
ATOM      9  C   UNL     1      -0.479 -11.903  15.740  1.00  0.00     0.094 A 
ATOM     10  C   UNL     1      -1.571 -12.683  15.353  1.00  0.00     0.146 A 
ATOM     11  O   UNL     1      -2.557 -12.871  16.224  1.00  0.00    -0.456 OA
ENDROOT
BRANCH   1  12
ATOM     12  C   UNL     1      -4.685 -13.724  17.006  1.00  0.00     0.021 A 
ATOM     13  C   UNL     1      -5.409 -14.926  17.094  1.00  0.00     0.016 A 
ATOM     14  C   UNL     1      -6.379 -15.101  18.083  1.00  0.00     0.051 A 
ATOM     15  C   UNL     1      -6.639 -14.081  19.007  1.00  0.00     0.157 A 
ATOM     16  C   UNL     1      -4.942 -12.707  17.947  1.00  0.00     0.062 A 
ATOM     17  C   UNL     1      -5.914 -12.880  18.939  1.00  0.00     0.158 A 
BRANCH  15  18
ATOM     18  O   UNL     1      -7.610 -14.257  19.991  1.00  0.00    -0.504 OA
ATOM     19  H   UNL     1      -8.388 -13.616  20.091  1.00  0.00     0.293 HD
ENDBRANCH  15  18
BRANCH  17  20
ATOM     20  O   UNL     1      -6.140 -11.850  19.851  1.00  0.00    -0.504 OA
ATOM     21  H   UNL     1      -5.380 -11.315  20.258  1.00  0.00     0.293 HD
ENDBRANCH  17  20
ENDBRANCH   1  12
BRANCH   6  22
ATOM     22  O   UNL     1      -0.416 -13.621  11.901  1.00  0.00    -0.507 OA
ATOM     23  H   UNL     1      -0.637 -14.580  11.682  1.00  0.00     0.293 HD
ENDBRANCH   6  22
BRANCH   8  24
ATOM     24  O   UNL     1       1.652 -10.871  15.226  1.00  0.00    -0.508 OA
ATOM     25  H   UNL     1       2.139 -11.019  16.102  1.00  0.00     0.293 HD
ENDBRANCH   8  24
TORSDOF 5
ENDMDL
MODEL 4
REMARK VINA RESULT:    -5.987      1.131      2.989
REMARK INTER + INTRA:          -7.334
REMARK INTER:                  -7.045
REMARK INTRA:                  -0.289
REMARK UNBOUND:                -0.297
REMARK SMILES O=c1cc(-c2ccc(O)c(O)c2)oc2cc(O)cc(O)c12
REMARK SMILES IDX 4 1 3 2 2 3 1 4 21 5 19 6 18 7 16 8 15 9 14 10 13 11 5 12
REMARK SMILES IDX 6 13 7 14 8 15 12 16 10 17 9 18 11 20 20 22 17 24
REMARK H PARENT 9 19 11 21 20 23 17 25
REMARK Flexibility Score: inf
ROOT
ATOM      1  C   UNL     1      -2.430 -12.811  16.247  1.00  0.00     0.138 A 
ATOM      2  C   UNL     1      -1.502 -11.992  16.906  1.00  0.00     0.100 A 
ATOM      3  C   UNL     1      -0.320 -11.629  16.259  1.00  0.00     0.197 A 
ATOM      4  O   UNL     1       0.516 -10.940  16.897  1.00  0.00    -0.289 OA
ATOM      5  C   UNL     1      -0.083 -12.059  14.932  1.00  0.00     0.107 A 
ATOM      6  C   UNL     1       1.070 -11.723  14.161  1.00  0.00     0.134 A 
ATOM      7  C   UNL     1       1.240 -12.290  12.891  1.00  0.00     0.093 A 
ATOM      8  C   UNL     1       0.275 -13.132  12.341  1.00  0.00     0.123 A 
ATOM      9  C   UNL     1      -0.880 -13.428  13.066  1.00  0.00     0.094 A 
ATOM     10  C   UNL     1      -1.063 -12.906  14.349  1.00  0.00     0.146 A 
ATOM     11  O   UNL     1      -2.170 -13.228  15.012  1.00  0.00    -0.456 OA
ENDROOT
BRANCH   1  12
ATOM     12  C   UNL     1      -3.705 -13.225  16.886  1.00  0.00     0.021 A 
ATOM     13  C   UNL     1      -4.308 -14.435  16.502  1.00  0.00     0.016 A 
ATOM     14  C   UNL     1      -5.503 -14.853  17.093  1.00  0.00     0.051 A 
ATOM     15  C   UNL     1      -6.112 -14.073  18.084  1.00  0.00     0.157 A 
ATOM     16  C   UNL     1      -4.315 -12.453  17.893  1.00  0.00     0.062 A 
ATOM     17  C   UNL     1      -5.512 -12.869  18.487  1.00  0.00     0.158 A 
BRANCH  15  18
ATOM     18  O   UNL     1      -7.305 -14.492  18.670  1.00  0.00    -0.504 OA
ATOM     19  H   UNL     1      -7.393 -15.405  19.101  1.00  0.00     0.293 HD
ENDBRANCH  15  18
BRANCH  17  20
ATOM     20  O   UNL     1      -6.086 -12.076  19.481  1.00  0.00    -0.504 OA
ATOM     21  H   UNL     1      -5.565 -11.349  19.957  1.00  0.00     0.293 HD
ENDBRANCH  17  20
ENDBRANCH   1  12
BRANCH   6  22
ATOM     22  O   UNL     1       2.060 -10.828  14.580  1.00  0.00    -0.507 OA
ATOM     23  H   UNL     1       2.014 -10.262  15.412  1.00  0.00     0.293 HD
ENDBRANCH   6  22
BRANCH   8  24
ATOM     24  O   UNL     1       0.472 -13.666  11.070  1.00  0.00    -0.508 OA
ATOM     25  H   UNL     1      -0.288 -13.740  10.404  1.00  0.00     0.293 HD
ENDBRANCH   8  24
TORSDOF 5
ENDMDL
MODEL 5
REMARK VINA RESULT:    -5.959     12.243     14.507
REMARK INTER + INTRA:          -7.301
REMARK INTER:                  -7.024
REMARK INTRA:                  -0.277
REMARK UNBOUND:                -0.297
REMARK SMILES O=c1cc(-c2ccc(O)c(O)c2)oc2cc(O)cc(O)c12
REMARK SMILES IDX 4 1 3 2 2 3 1 4 21 5 19 6 18 7 16 8 15 9 14 10 13 11 5 12
REMARK SMILES IDX 6 13 7 14 8 15 12 16 10 17 9 18 11 20 20 22 17 24
REMARK H PARENT 9 19 11 21 20 23 17 25
REMARK Flexibility Score: inf
ROOT
ATOM      1  C   UNL     1     -10.001  -2.272  16.681  1.00  0.00     0.138 A 
ATOM      2  C   UNL     1     -10.694  -1.155  17.170  1.00  0.00     0.100 A 
ATOM      3  C   UNL     1     -11.961  -0.855  16.669  1.00  0.00     0.197 A 
ATOM      4  O   UNL     1     -12.533   0.184  17.087  1.00  0.00    -0.289 OA
ATOM      5  C   UNL     1     -12.554  -1.700  15.700  1.00  0.00     0.107 A 
ATOM      6  C   UNL     1     -13.854  -1.513  15.143  1.00  0.00     0.134 A 
ATOM      7  C   UNL     1     -14.294  -2.360  14.118  1.00  0.00     0.093 A 
ATOM      8  C   UNL     1     -13.507  -3.420  13.670  1.00  0.00     0.123 A 
ATOM      9  C   UNL     1     -12.254  -3.642  14.243  1.00  0.00     0.094 A 
ATOM     10  C   UNL     1     -11.772  -2.795  15.243  1.00  0.00     0.146 A 
ATOM     11  O   UNL     1     -10.566  -3.031  15.748  1.00  0.00    -0.456 OA
ENDROOT
BRANCH   1  12
ATOM     12  C   UNL     1      -8.652  -2.639  17.180  1.00  0.00     0.021 A 
ATOM     13  C   UNL     1      -7.594  -1.724  17.044  1.00  0.00     0.016 A 
ATOM     14  C   UNL     1      -6.316  -2.040  17.512  1.00  0.00     0.051 A 
ATOM     15  C   UNL     1      -6.075  -3.272  18.132  1.00  0.00     0.157 A 
ATOM     16  C   UNL     1      -8.406  -3.871  17.817  1.00  0.00     0.062 A 
ATOM     17  C   UNL     1      -7.127  -4.190  18.287  1.00  0.00     0.158 A 
BRANCH  15  18
ATOM     18  O   UNL     1      -4.799  -3.585  18.596  1.00  0.00    -0.504 OA
ATOM     19  H   UNL     1      -4.607  -3.705  19.584  1.00  0.00     0.293 HD
ENDBRANCH  15  18
BRANCH  17  20
ATOM     20  O   UNL     1      -6.922  -5.420  18.911  1.00  0.00    -0.504 OA
ATOM     21  H   UNL     1      -6.623  -6.241  18.397  1.00  0.00     0.293 HD
ENDBRANCH  17  20
ENDBRANCH   1  12
BRANCH   6  22
ATOM     22  O   UNL     1     -14.757  -0.534  15.570  1.00  0.00    -0.507 OA
ATOM     23  H   UNL     1     -14.908  -0.264  16.529  1.00  0.00     0.293 HD
ENDBRANCH   6  22
BRANCH   8  24
ATOM     24  O   UNL     1     -13.983  -4.251  12.659  1.00  0.00    -0.508 OA
ATOM     25  H   UNL     1     -14.416  -5.143  12.866  1.00  0.00     0.293 HD
ENDBRANCH   8  24
TORSDOF 5
ENDMDL
MODEL 6
REMARK VINA RESULT:    -5.914     10.373     11.680
REMARK INTER + INTRA:          -7.248
REMARK INTER:                  -6.963
REMARK INTRA:                  -0.284
REMARK UNBOUND:                -0.297
REMARK SMILES O=c1cc(-c2ccc(O)c(O)c2)oc2cc(O)cc(O)c12
REMARK SMILES IDX 4 1 3 2 2 3 1 4 21 5 19 6 18 7 16 8 15 9 14 10 13 11 5 12
REMARK SMILES IDX 6 13 7 14 8 15 12 16 10 17 9 18 11 20 20 22 17 24
REMARK H PARENT 9 19 11 21 20 23 17 25
REMARK Flexibility Score: inf
ROOT
ATOM      1  C   UNL     1      -9.934  -5.480  18.986  1.00  0.00     0.138 A 
ATOM      2  C   UNL     1      -8.767  -6.045  19.523  1.00  0.00     0.100 A 
ATOM      3  C   UNL     1      -7.541  -5.406  19.333  1.00  0.00     0.197 A 
ATOM      4  O   UNL     1      -6.507  -5.965  19.779  1.00  0.00    -0.289 OA
ATOM      5  C   UNL     1      -7.489  -4.176  18.635  1.00  0.00     0.107 A 
ATOM      6  C   UNL     1      -6.301  -3.417  18.410  1.00  0.00     0.134 A 
ATOM      7  C   UNL     1      -6.358  -2.263  17.619  1.00  0.00     0.093 A 
ATOM      8  C   UNL     1      -7.566  -1.808  17.092  1.00  0.00     0.123 A 
ATOM      9  C   UNL     1      -8.742  -2.515  17.347  1.00  0.00     0.094 A 
ATOM     10  C   UNL     1      -8.713  -3.689  18.104  1.00  0.00     0.146 A 
ATOM     11  O   UNL     1      -9.853  -4.341  18.307  1.00  0.00    -0.456 OA
ENDROOT
BRANCH   1  12
ATOM     12  C   UNL     1     -11.264  -6.116  19.160  1.00  0.00     0.021 A 
ATOM     13  C   UNL     1     -12.201  -6.051  18.114  1.00  0.00     0.016 A 
ATOM     14  C   UNL     1     -13.458  -6.648  18.247  1.00  0.00     0.051 A 
ATOM     15  C   UNL     1     -13.797  -7.326  19.424  1.00  0.00     0.157 A 
ATOM     16  C   UNL     1     -11.607  -6.811  20.336  1.00  0.00     0.062 A 
ATOM     17  C   UNL     1     -12.864  -7.410  20.471  1.00  0.00     0.158 A 
BRANCH  15  18
ATOM     18  O   UNL     1     -15.051  -7.918  19.555  1.00  0.00    -0.504 OA
ATOM     19  H   UNL     1     -15.610  -7.800  20.393  1.00  0.00     0.293 HD
ENDBRANCH  15  18
BRANCH  17  20
ATOM     20  O   UNL     1     -13.167  -8.089  21.652  1.00  0.00    -0.504 OA
ATOM     21  H   UNL     1     -13.408  -7.601  22.507  1.00  0.00     0.293 HD
ENDBRANCH  17  20
ENDBRANCH   1  12
BRANCH   6  22
ATOM     22  O   UNL     1      -5.052  -3.735  18.954  1.00  0.00    -0.507 OA
ATOM     23  H   UNL     1      -4.829  -4.598  19.425  1.00  0.00     0.293 HD
ENDBRANCH   6  22
BRANCH   8  24
ATOM     24  O   UNL     1      -7.588  -0.648  16.321  1.00  0.00    -0.508 OA
ATOM     25  H   UNL     1      -6.882  -0.467  15.617  1.00  0.00     0.293 HD
ENDBRANCH   8  24
TORSDOF 5
ENDMDL
MODEL 7
REMARK VINA RESULT:    -5.892     10.654     11.972
REMARK INTER + INTRA:          -7.222
REMARK INTER:                  -6.916
REMARK INTRA:                  -0.306
REMARK UNBOUND:                -0.297
REMARK SMILES O=c1cc(-c2ccc(O)c(O)c2)oc2cc(O)cc(O)c12
REMARK SMILES IDX 4 1 3 2 2 3 1 4 21 5 19 6 18 7 16 8 15 9 14 10 13 11 5 12
REMARK SMILES IDX 6 13 7 14 8 15 12 16 10 17 9 18 11 20 20 22 17 24
REMARK H PARENT 9 19 11 21 20 23 17 25
REMARK Flexibility Score: inf
ROOT
ATOM      1  C   UNL     1     -10.414  -4.503  18.269  1.00  0.00     0.138 A 
ATOM      2  C   UNL     1     -10.788  -3.310  17.635  1.00  0.00     0.100 A 
ATOM      3  C   UNL     1      -9.809  -2.379  17.282  1.00  0.00     0.197 A 
ATOM      4  O   UNL     1     -10.181  -1.295  16.765  1.00  0.00    -0.289 OA
ATOM      5  C   UNL     1      -8.445  -2.663  17.534  1.00  0.00     0.107 A 
ATOM      6  C   UNL     1      -7.358  -1.805  17.188  1.00  0.00     0.134 A 
ATOM      7  C   UNL     1      -6.057  -2.149  17.576  1.00  0.00     0.093 A 
ATOM      8  C   UNL     1      -5.796  -3.344  18.246  1.00  0.00     0.123 A 
ATOM      9  C   UNL     1      -6.845  -4.213  18.545  1.00  0.00     0.094 A 
ATOM     10  C   UNL     1      -8.158  -3.883  18.202  1.00  0.00     0.146 A 
ATOM     11  O   UNL     1      -9.130  -4.732  18.522  1.00  0.00    -0.456 OA
ENDROOT
BRANCH   1  12
ATOM     12  C   UNL     1     -11.413  -5.529  18.663  1.00  0.00     0.021 A 
ATOM     13  C   UNL     1     -12.589  -5.673  17.906  1.00  0.00     0.016 A 
ATOM     14  C   UNL     1     -13.542  -6.635  18.249  1.00  0.00     0.051 A 
ATOM     15  C   UNL     1     -13.334  -7.475  19.349  1.00  0.00     0.157 A 
ATOM     16  C   UNL     1     -11.203  -6.387  19.760  1.00  0.00     0.062 A 
ATOM     17  C   UNL     1     -12.156  -7.351  20.105  1.00  0.00     0.158 A 
BRANCH  15  18
ATOM     18  O   UNL     1     -14.287  -8.433  19.690  1.00  0.00    -0.504 OA
ATOM     19  H   UNL     1     -14.535  -8.615  20.656  1.00  0.00     0.293 HD
ENDBRANCH  15  18
BRANCH  17  20
ATOM     20  O   UNL     1     -11.913  -8.182  21.199  1.00  0.00    -0.504 OA
ATOM     21  H   UNL     1     -12.644  -8.742  21.623  1.00  0.00     0.293 HD
ENDBRANCH  17  20
ENDBRANCH   1  12
BRANCH   6  22
ATOM     22  O   UNL     1      -7.495  -0.625  16.449  1.00  0.00    -0.507 OA
ATOM     23  H   UNL     1      -7.561   0.300  16.843  1.00  0.00     0.293 HD
ENDBRANCH   6  22
BRANCH   8  24
ATOM     24  O   UNL     1      -4.487  -3.659  18.604  1.00  0.00    -0.508 OA
ATOM     25  H   UNL     1      -4.276  -4.133  19.474  1.00  0.00     0.293 HD
ENDBRANCH   8  24
TORSDOF 5
ENDMDL
MODEL 8
REMARK VINA RESULT:    -5.864     12.651     14.722
REMARK INTER + INTRA:          -7.189
REMARK INTER:                  -6.919
REMARK INTRA:                  -0.271
REMARK UNBOUND:                -0.297
REMARK SMILES O=c1cc(-c2ccc(O)c(O)c2)oc2cc(O)cc(O)c12
REMARK SMILES IDX 4 1 3 2 2 3 1 4 21 5 19 6 18 7 16 8 15 9 14 10 13 11 5 12
REMARK SMILES IDX 6 13 7 14 8 15 12 16 10 17 9 18 11 20 20 22 17 24
REMARK H PARENT 9 19 11 21 20 23 17 25
REMARK Flexibility Score: inf
ROOT
ATOM      1  C   UNL     1     -12.586  -3.561  16.607  1.00  0.00     0.138 A 
ATOM      2  C   UNL     1     -13.134  -2.346  17.044  1.00  0.00     0.100 A 
ATOM      3  C   UNL     1     -13.728  -1.485  16.121  1.00  0.00     0.197 A 
ATOM      4  O   UNL     1     -14.161  -0.379  16.536  1.00  0.00    -0.289 OA
ATOM      5  C   UNL     1     -13.806  -1.859  14.758  1.00  0.00     0.107 A 
ATOM      6  C   UNL     1     -14.419  -1.076  13.733  1.00  0.00     0.134 A 
ATOM      7  C   UNL     1     -14.347  -1.505  12.402  1.00  0.00     0.093 A 
ATOM      8  C   UNL     1     -13.737  -2.713  12.065  1.00  0.00     0.123 A 
ATOM      9  C   UNL     1     -13.179  -3.510  13.065  1.00  0.00     0.094 A 
ATOM     10  C   UNL     1     -13.203  -3.093  14.398  1.00  0.00     0.146 A 
ATOM     11  O   UNL     1     -12.644  -3.874  15.317  1.00  0.00    -0.456 OA
ENDROOT
BRANCH   1  12
ATOM     12  C   UNL     1     -11.945  -4.516  17.546  1.00  0.00     0.021 A 
ATOM     13  C   UNL     1     -10.745  -4.156  18.183  1.00  0.00     0.016 A 
ATOM     14  C   UNL     1     -10.125  -5.032  19.077  1.00  0.00     0.051 A 
ATOM     15  C   UNL     1     -10.696  -6.279  19.357  1.00  0.00     0.157 A 
ATOM     16  C   UNL     1     -12.522  -5.766  17.842  1.00  0.00     0.062 A 
ATOM     17  C   UNL     1     -11.903  -6.645  18.737  1.00  0.00     0.158 A 
BRANCH  15  18
ATOM     18  O   UNL     1     -10.074  -7.151  20.248  1.00  0.00    -0.504 OA
ATOM     19  H   UNL     1      -9.820  -8.095  19.977  1.00  0.00     0.293 HD
ENDBRANCH  15  18
BRANCH  17  20
ATOM     20  O   UNL     1     -12.505  -7.875  19.004  1.00  0.00    -0.504 OA
ATOM     21  H   UNL     1     -13.352  -8.173  18.533  1.00  0.00     0.293 HD
ENDBRANCH  17  20
ENDBRANCH   1  12
BRANCH   6  22
ATOM     22  O   UNL     1     -15.125   0.108  13.967  1.00  0.00    -0.507 OA
ATOM     23  H   UNL     1     -16.082   0.160  14.278  1.00  0.00     0.293 HD
ENDBRANCH   6  22
BRANCH   8  24
ATOM     24  O   UNL     1     -13.698  -3.114  10.732  1.00  0.00    -0.508 OA
ATOM     25  H   UNL     1     -13.755  -4.092  10.471  1.00  0.00     0.293 HD
ENDBRANCH   8  24
TORSDOF 5
ENDMDL
MODEL 9
REMARK VINA RESULT:    -5.742     10.668     12.966
REMARK INTER + INTRA:          -7.045
REMARK INTER:                  -6.751
REMARK INTRA:                  -0.294
REMARK UNBOUND:                -0.297
REMARK SMILES O=c1cc(-c2ccc(O)c(O)c2)oc2cc(O)cc(O)c12
REMARK SMILES IDX 4 1 3 2 2 3 1 4 21 5 19 6 18 7 16 8 15 9 14 10 13 11 5 12
REMARK SMILES IDX 6 13 7 14 8 15 12 16 10 17 9 18 11 20 20 22 17 24
REMARK H PARENT 9 19 11 21 20 23 17 25
REMARK Flexibility Score: inf
ROOT
ATOM      1  C   UNL     1      -9.455  -5.157  19.048  1.00  0.00     0.138 A 
ATOM      2  C   UNL     1     -10.530  -4.781  18.229  1.00  0.00     0.100 A 
ATOM      3  C   UNL     1     -11.780  -5.372  18.417  1.00  0.00     0.197 A 
ATOM      4  O   UNL     1     -12.709  -5.054  17.632  1.00  0.00    -0.289 OA
ATOM      5  C   UNL     1     -11.963  -6.318  19.454  1.00  0.00     0.107 A 
ATOM      6  C   UNL     1     -13.200  -6.960  19.761  1.00  0.00     0.134 A 
ATOM      7  C   UNL     1     -13.236  -7.952  20.749  1.00  0.00     0.093 A 
ATOM      8  C   UNL     1     -12.096  -8.286  21.479  1.00  0.00     0.123 A 
ATOM      9  C   UNL     1     -10.892  -7.629  21.221  1.00  0.00     0.094 A 
ATOM     10  C   UNL     1     -10.816  -6.659  20.219  1.00  0.00     0.146 A 
ATOM     11  O   UNL     1      -9.645  -6.071  19.993  1.00  0.00    -0.456 OA
ENDROOT
BRANCH   1  12
ATOM     12  C   UNL     1      -8.104  -4.559  18.893  1.00  0.00     0.021 A 
ATOM     13  C   UNL     1      -7.164  -4.703  19.928  1.00  0.00     0.016 A 
ATOM     14  C   UNL     1      -5.884  -4.158  19.806  1.00  0.00     0.051 A 
ATOM     15  C   UNL     1      -5.518  -3.466  18.645  1.00  0.00     0.157 A 
ATOM     16  C   UNL     1      -7.725  -3.874  17.723  1.00  0.00     0.062 A 
ATOM     17  C   UNL     1      -6.443  -3.327  17.598  1.00  0.00     0.158 A 
BRANCH  15  18
ATOM     18  O   UNL     1      -4.241  -2.922  18.527  1.00  0.00    -0.504 OA
ATOM     19  H   UNL     1      -3.571  -3.278  17.855  1.00  0.00     0.293 HD
ENDBRANCH  15  18
BRANCH  17  20
ATOM     20  O   UNL     1      -6.106  -2.655  16.423  1.00  0.00    -0.504 OA
ATOM     21  H   UNL     1      -5.180  -2.716  16.015  1.00  0.00     0.293 HD
ENDBRANCH  17  20
ENDBRANCH   1  12
BRANCH   6  22
ATOM     22  O   UNL     1     -14.419  -6.648  19.149  1.00  0.00    -0.507 OA
ATOM     23  H   UNL     1     -14.904  -7.237  18.491  1.00  0.00     0.293 HD
ENDBRANCH   6  22
BRANCH   8  24
ATOM     24  O   UNL     1     -12.173  -9.268  22.463  1.00  0.00    -0.508 OA
ATOM     25  H   UNL     1     -12.978  -9.878  22.542  1.00  0.00     0.293 HD
ENDBRANCH   8  24
TORSDOF 5
ENDMDL
