MODEL 1
REMARK VINA RESULT:    -6.457      0.000      0.000
REMARK INTER + INTRA:          -7.821
REMARK INTER:                  -7.590
REMARK INTRA:                  -0.231
REMARK UNBOUND:                -0.231
REMARK SMILES O=c1c(O)c(-c2ccc(O)cc2)oc2cc(O)cc(O)c12
REMARK SMILES IDX 5 1 3 2 2 3 1 4 21 5 19 6 18 7 16 8 15 9 14 10 13 11 6 12
REMARK SMILES IDX 7 13 8 14 9 15 12 16 11 17 10 18 4 20 20 22 17 24
REMARK H PARENT 10 19 4 21 20 23 17 25
REMARK Flexibility Score: inf
ROOT
ATOM      1  C   UNL     1      18.620  -1.245 -17.028  1.00  0.00     0.180 A 
ATOM      2  C   UNL     1      18.052  -0.406 -16.050  1.00  0.00     0.208 A 
ATOM      3  C   UNL     1      17.321  -0.984 -15.001  1.00  0.00     0.238 A 
ATOM      4  O   UNL     1      16.798  -0.242 -14.126  1.00  0.00    -0.285 OA
ATOM      5  C   UNL     1      17.188  -2.386 -14.934  1.00  0.00     0.111 A 
ATOM      6  C   UNL     1      16.473  -3.049 -13.908  1.00  0.00     0.134 A 
ATOM      7  C   UNL     1      16.394  -4.450 -13.906  1.00  0.00     0.093 A 
ATOM      8  C   UNL     1      17.018  -5.199 -14.910  1.00  0.00     0.123 A 
ATOM      9  C   UNL     1      17.724  -4.550 -15.924  1.00  0.00     0.094 A 
ATOM     10  C   UNL     1      17.813  -3.155 -15.944  1.00  0.00     0.146 A 
ATOM     11  O   UNL     1      18.487  -2.564 -16.924  1.00  0.00    -0.452 OA
ENDROOT
BRANCH   1  12
ATOM     12  C   UNL     1      19.388  -0.709 -18.175  1.00  0.00     0.021 A 
ATOM     13  C   UNL     1      18.780  -0.632 -19.438  1.00  0.00     0.016 A 
ATOM     14  C   UNL     1      19.478  -0.108 -20.530  1.00  0.00     0.047 A 
ATOM     15  C   UNL     1      20.789   0.359 -20.368  1.00  0.00     0.115 A 
ATOM     16  C   UNL     1      20.697  -0.219 -18.016  1.00  0.00     0.016 A 
ATOM     17  C   UNL     1      21.394   0.304 -19.110  1.00  0.00     0.047 A 
BRANCH  15  18
ATOM     18  O   UNL     1      21.496   0.882 -21.450  1.00  0.00    -0.508 OA
ATOM     19  H   UNL     1      21.599   1.882 -21.579  1.00  0.00     0.293 HD
ENDBRANCH  15  18
ENDBRANCH   1  12
BRANCH   2  20
ATOM     20  O   UNL     1      18.240   0.977 -16.112  1.00  0.00    -0.502 OA
ATOM     21  H   UNL     1      18.673   1.432 -16.907  1.00  0.00     0.293 HD
ENDBRANCH   2  20
BRANCH   6  22
ATOM     22  O   UNL     1      15.841  -2.328 -12.893  1.00  0.00    -0.507 OA
ATOM     23  H   UNL     1      15.619  -1.344 -12.996  1.00  0.00     0.293 HD
ENDBRANCH   6  22
BRANCH   8  24
ATOM     24  O   UNL     1      16.941  -6.590 -14.908  1.00  0.00    -0.508 OA
ATOM     25  H   UNL     1      16.072  -7.072 -14.712  1.00  0.00     0.293 HD
ENDBRANCH   8  24
TORSDOF 5
ENDMDL
MODEL 2
REMARK VINA RESULT:    -6.045      1.202      2.948
REMARK INTER + INTRA:          -7.336
REMARK INTER:                  -7.122
REMARK INTRA:                  -0.213
REMARK UNBOUND:                -0.231
REMARK SMILES O=c1c(O)c(-c2ccc(O)cc2)oc2cc(O)cc(O)c12
REMARK SMILES IDX 5 1 3 2 2 3 1 4 21 5 19 6 18 7 16 8 15 9 14 10 13 11 6 12
REMARK SMILES IDX 7 13 8 14 9 15 12 16 11 17 10 18 4 20 20 22 17 24
REMARK H PARENT 10 19 4 21 20 23 17 25
REMARK Flexibility Score: inf
ROOT
ATOM      1  C   UNL     1      18.631  -2.275 -17.455  1.00  0.00     0.180 A 
ATOM      2  C   UNL     1      18.563  -3.660 -17.697  1.00  0.00     0.208 A 
ATOM      3  C   UNL     1      17.922  -4.483 -16.757  1.00  0.00     0.238 A 
ATOM      4  O   UNL     1      17.864  -5.726 -16.958  1.00  0.00    -0.285 OA
ATOM      5  C   UNL     1      17.346  -3.907 -15.606  1.00  0.00     0.111 A 
ATOM      6  C   UNL     1      16.679  -4.664 -14.613  1.00  0.00     0.134 A 
ATOM      7  C   UNL     1      16.122  -4.016 -13.500  1.00  0.00     0.093 A 
ATOM      8  C   UNL     1      16.219  -2.627 -13.363  1.00  0.00     0.123 A 
ATOM      9  C   UNL     1      16.877  -1.877 -14.339  1.00  0.00     0.094 A 
ATOM     10  C   UNL     1      17.438  -2.504 -15.455  1.00  0.00     0.146 A 
ATOM     11  O   UNL     1      18.063  -1.765 -16.366  1.00  0.00    -0.452 OA
ENDROOT
BRANCH   1  12
ATOM     12  C   UNL     1      19.306  -1.345 -18.389  1.00  0.00     0.021 A 
ATOM     13  C   UNL     1      18.681  -1.009 -19.602  1.00  0.00     0.016 A 
ATOM     14  C   UNL     1      19.289  -0.116 -20.489  1.00  0.00     0.047 A 
ATOM     15  C   UNL     1      20.523   0.464 -20.167  1.00  0.00     0.115 A 
ATOM     16  C   UNL     1      20.535  -0.742 -18.065  1.00  0.00     0.016 A 
ATOM     17  C   UNL     1      21.141   0.152 -18.953  1.00  0.00     0.047 A 
BRANCH  15  18
ATOM     18  O   UNL     1      21.139   1.356 -21.043  1.00  0.00    -0.508 OA
ATOM     19  H   UNL     1      21.961   1.882 -20.770  1.00  0.00     0.293 HD
ENDBRANCH  15  18
ENDBRANCH   1  12
BRANCH   2  20
ATOM     20  O   UNL     1      19.099  -4.200 -18.869  1.00  0.00    -0.502 OA
ATOM     21  H   UNL     1      19.523  -5.120 -18.899  1.00  0.00     0.293 HD
ENDBRANCH   2  20
BRANCH   6  22
ATOM     22  O   UNL     1      16.565  -6.051 -14.723  1.00  0.00    -0.507 OA
ATOM     23  H   UNL     1      15.806  -6.485 -15.235  1.00  0.00     0.293 HD
ENDBRANCH   6  22
BRANCH   8  24
ATOM     24  O   UNL     1      15.666  -1.983 -12.259  1.00  0.00    -0.508 OA
ATOM     25  H   UNL     1      15.058  -2.469 -11.612  1.00  0.00     0.293 HD
ENDBRANCH   8  24
TORSDOF 5
ENDMDL
MODEL 3
REMARK VINA RESULT:    -6.030      7.702     11.095
REMARK INTER + INTRA:          -7.319
REMARK INTER:                  -7.163
REMARK INTRA:                  -0.156
REMARK UNBOUND:                -0.231
REMARK SMILES O=c1c(O)c(-c2ccc(O)cc2)oc2cc(O)cc(O)c12
REMARK SMILES IDX 5 1 3 2 2 3 1 4 21 5 19 6 18 7 16 8 15 9 14 10 13 11 6 12
REMARK SMILES IDX 7 13 8 14 9 15 12 16 11 17 10 18 4 20 20 22 17 24
REMARK H PARENT 10 19 4 21 20 23 17 25
REMARK Flexibility Score: inf
ROOT
ATOM      1  C   UNL     1      11.115  -6.037 -10.821  1.00  0.00     0.180 A 
ATOM      2  C   UNL     1      10.900  -6.360  -9.467  1.00  0.00     0.208 A 
ATOM      3  C   UNL     1       9.784  -7.138  -9.124  1.00  0.00     0.238 A 
ATOM      4  O   UNL     1       9.575  -7.425  -7.914  1.00  0.00    -0.285 OA
ATOM      5  C   UNL     1       8.915  -7.595 -10.136  1.00  0.00     0.111 A 
ATOM      6  C   UNL     1       7.771  -8.387  -9.876  1.00  0.00     0.134 A 
ATOM      7  C   UNL     1       6.960  -8.810 -10.940  1.00  0.00     0.093 A 
ATOM      8  C   UNL     1       7.273  -8.458 -12.258  1.00  0.00     0.123 A 
ATOM      9  C   UNL     1       8.400  -7.677 -12.519  1.00  0.00     0.094 A 
ATOM     10  C   UNL     1       9.220  -7.245 -11.472  1.00  0.00     0.146 A 
ATOM     11  O   UNL     1      10.283  -6.498 -11.750  1.00  0.00    -0.452 OA
ENDROOT
BRANCH   1  12
ATOM     12  C   UNL     1      12.259  -5.205 -11.259  1.00  0.00     0.021 A 
ATOM     13  C   UNL     1      13.563  -5.719 -11.167  1.00  0.00     0.016 A 
ATOM     14  C   UNL     1      14.656  -4.961 -11.596  1.00  0.00     0.047 A 
ATOM     15  C   UNL     1      14.457  -3.685 -12.138  1.00  0.00     0.115 A 
ATOM     16  C   UNL     1      12.066  -3.931 -11.824  1.00  0.00     0.016 A 
ATOM     17  C   UNL     1      13.161  -3.174 -12.253  1.00  0.00     0.047 A 
BRANCH  15  18
ATOM     18  O   UNL     1      15.539  -2.919 -12.569  1.00  0.00    -0.508 OA
ATOM     19  H   UNL     1      16.320  -2.717 -11.957  1.00  0.00     0.293 HD
ENDBRANCH  15  18
ENDBRANCH   1  12
BRANCH   2  20
ATOM     20  O   UNL     1      11.803  -5.937  -8.488  1.00  0.00    -0.502 OA
ATOM     21  H   UNL     1      12.797  -5.852  -8.667  1.00  0.00     0.293 HD
ENDBRANCH   2  20
BRANCH   6  22
ATOM     22  O   UNL     1       7.434  -8.754  -8.572  1.00  0.00    -0.507 OA
ATOM     23  H   UNL     1       7.812  -8.269  -7.767  1.00  0.00     0.293 HD
ENDBRANCH   6  22
BRANCH   8  24
ATOM     24  O   UNL     1       6.469  -8.880 -13.314  1.00  0.00    -0.508 OA
ATOM     25  H   UNL     1       6.027  -8.217 -13.940  1.00  0.00     0.293 HD
ENDBRANCH   8  24
TORSDOF 5
ENDMDL
MODEL 4
REMARK VINA RESULT:    -5.874     11.463     14.352
REMARK INTER + INTRA:          -7.135
REMARK INTER:                  -7.238
REMARK INTRA:                   0.102
REMARK UNBOUND:                -0.231
REMARK SMILES O=c1c(O)c(-c2ccc(O)cc2)oc2cc(O)cc(O)c12
REMARK SMILES IDX 5 1 3 2 2 3 1 4 21 5 19 6 18 7 16 8 15 9 14 10 13 11 6 12
REMARK SMILES IDX 7 13 8 14 9 15 12 16 11 17 10 18 4 20 20 22 17 24
REMARK H PARENT 10 19 4 21 20 23 17 25
REMARK Flexibility Score: inf
ROOT
ATOM      1  C   UNL     1       9.342  -6.950  -8.516  1.00  0.00     0.180 A 
ATOM      2  C   UNL     1      10.673  -6.922  -8.975  1.00  0.00     0.208 A 
ATOM      3  C   UNL     1      10.950  -7.357 -10.280  1.00  0.00     0.238 A 
ATOM      4  O   UNL     1      12.139  -7.347 -10.699  1.00  0.00    -0.285 OA
ATOM      5  C   UNL     1       9.896  -7.793 -11.108  1.00  0.00     0.111 A 
ATOM      6  C   UNL     1      10.089  -8.244 -12.436  1.00  0.00     0.134 A 
ATOM      7  C   UNL     1       8.985  -8.653 -13.200  1.00  0.00     0.093 A 
ATOM      8  C   UNL     1       7.694  -8.619 -12.662  1.00  0.00     0.123 A 
ATOM      9  C   UNL     1       7.499  -8.176 -11.353  1.00  0.00     0.094 A 
ATOM     10  C   UNL     1       8.585  -7.765 -10.575  1.00  0.00     0.146 A 
ATOM     11  O   UNL     1       8.371  -7.353  -9.330  1.00  0.00    -0.452 OA
ENDROOT
BRANCH   1  12
ATOM     12  C   UNL     1       8.973  -6.525  -7.147  1.00  0.00     0.021 A 
ATOM     13  C   UNL     1       8.143  -7.348  -6.367  1.00  0.00     0.016 A 
ATOM     14  C   UNL     1       7.800  -6.977  -5.064  1.00  0.00     0.047 A 
ATOM     15  C   UNL     1       8.295  -5.786  -4.518  1.00  0.00     0.115 A 
ATOM     16  C   UNL     1       9.482  -5.341  -6.584  1.00  0.00     0.016 A 
ATOM     17  C   UNL     1       9.139  -4.972  -5.280  1.00  0.00     0.047 A 
BRANCH  15  18
ATOM     18  O   UNL     1       7.960  -5.405  -3.220  1.00  0.00    -0.508 OA
ATOM     19  H   UNL     1       7.259  -5.906  -2.687  1.00  0.00     0.293 HD
ENDBRANCH  15  18
ENDBRANCH   1  12
BRANCH   2  20
ATOM     20  O   UNL     1      11.693  -6.439  -8.152  1.00  0.00    -0.502 OA
ATOM     21  H   UNL     1      12.157  -5.555  -8.324  1.00  0.00     0.293 HD
ENDBRANCH   2  20
BRANCH   6  22
ATOM     22  O   UNL     1      11.364  -8.289 -13.000  1.00  0.00    -0.507 OA
ATOM     23  H   UNL     1      11.502  -8.373 -14.001  1.00  0.00     0.293 HD
ENDBRANCH   6  22
BRANCH   8  24
ATOM     24  O   UNL     1       6.598  -9.023 -13.421  1.00  0.00    -0.508 OA
ATOM     25  H   UNL     1       5.836  -8.390 -13.631  1.00  0.00     0.293 HD
ENDBRANCH   8  24
TORSDOF 5
ENDMDL
MODEL 5
REMARK VINA RESULT:    -5.857      8.398     11.999
REMARK INTER + INTRA:          -7.115
REMARK INTER:                  -6.829
REMARK INTRA:                  -0.286
REMARK UNBOUND:                -0.231
REMARK SMILES O=c1c(O)c(-c2ccc(O)cc2)oc2cc(O)cc(O)c12
REMARK SMILES IDX 5 1 3 2 2 3 1 4 21 5 19 6 18 7 16 8 15 9 14 10 13 11 6 12
REMARK SMILES IDX 7 13 8 14 9 15 12 16 11 17 10 18 4 20 20 22 17 24
REMARK H PARENT 10 19 4 21 20 23 17 25
REMARK Flexibility Score: inf
ROOT
ATOM      1  C   UNL     1      10.904  -6.058  -9.875  1.00  0.00     0.180 A 
ATOM      2  C   UNL     1      10.274  -7.182 -10.444  1.00  0.00     0.208 A 
ATOM      3  C   UNL     1       9.284  -7.850  -9.707  1.00  0.00     0.238 A 
ATOM      4  O   UNL     1       8.721  -8.865 -10.201  1.00  0.00    -0.285 OA
ATOM      5  C   UNL     1       8.926  -7.375  -8.429  1.00  0.00     0.111 A 
ATOM      6  C   UNL     1       7.935  -7.988  -7.624  1.00  0.00     0.134 A 
ATOM      7  C   UNL     1       7.629  -7.448  -6.366  1.00  0.00     0.093 A 
ATOM      8  C   UNL     1       8.293  -6.308  -5.898  1.00  0.00     0.123 A 
ATOM      9  C   UNL     1       9.270  -5.701  -6.689  1.00  0.00     0.094 A 
ATOM     10  C   UNL     1       9.591  -6.224  -7.945  1.00  0.00     0.146 A 
ATOM     11  O   UNL     1      10.529  -5.629  -8.673  1.00  0.00    -0.452 OA
ENDROOT
BRANCH   1  12
ATOM     12  C   UNL     1      11.970  -5.312 -10.581  1.00  0.00     0.021 A 
ATOM     13  C   UNL     1      13.314  -5.667 -10.376  1.00  0.00     0.016 A 
ATOM     14  C   UNL     1      14.335  -4.991 -11.049  1.00  0.00     0.047 A 
ATOM     15  C   UNL     1      14.025  -3.963 -11.948  1.00  0.00     0.115 A 
ATOM     16  C   UNL     1      11.666  -4.292 -11.501  1.00  0.00     0.016 A 
ATOM     17  C   UNL     1      12.689  -3.618 -12.174  1.00  0.00     0.047 A 
BRANCH  15  18
ATOM     18  O   UNL     1      15.035  -3.281 -12.625  1.00  0.00    -0.508 OA
ATOM     19  H   UNL     1      15.310  -3.542 -13.565  1.00  0.00     0.293 HD
ENDBRANCH  15  18
ENDBRANCH   1  12
BRANCH   2  20
ATOM     20  O   UNL     1      10.613  -7.604 -11.732  1.00  0.00    -0.502 OA
ATOM     21  H   UNL     1       9.919  -7.927 -12.397  1.00  0.00     0.293 HD
ENDBRANCH   2  20
BRANCH   6  22
ATOM     22  O   UNL     1       7.256  -9.125  -8.063  1.00  0.00    -0.507 OA
ATOM     23  H   UNL     1       7.403 -10.032  -7.637  1.00  0.00     0.293 HD
ENDBRANCH   6  22
BRANCH   8  24
ATOM     24  O   UNL     1       7.988  -5.771  -4.650  1.00  0.00    -0.508 OA
ATOM     25  H   UNL     1       8.614  -5.126  -4.184  1.00  0.00     0.293 HD
ENDBRANCH   8  24
TORSDOF 5
ENDMDL
MODEL 6
REMARK VINA RESULT:    -5.638     10.986     12.067
REMARK INTER + INTRA:          -6.858
REMARK INTER:                  -6.560
REMARK INTRA:                  -0.298
REMARK UNBOUND:                -0.231
REMARK SMILES O=c1c(O)c(-c2ccc(O)cc2)oc2cc(O)cc(O)c12
REMARK SMILES IDX 5 1 3 2 2 3 1 4 21 5 19 6 18 7 16 8 15 9 14 10 13 11 6 12
REMARK SMILES IDX 7 13 8 14 9 15 12 16 11 17 10 18 4 20 20 22 17 24
REMARK H PARENT 10 19 4 21 20 23 17 25
REMARK Flexibility Score: inf
ROOT
ATOM      1  C   UNL     1       9.133   3.517 -18.844  1.00  0.00     0.180 A 
ATOM      2  C   UNL     1       8.666   2.728 -19.913  1.00  0.00     0.208 A 
ATOM      3  C   UNL     1       7.298   2.421 -19.982  1.00  0.00     0.238 A 
ATOM      4  O   UNL     1       6.869   1.706 -20.928  1.00  0.00    -0.285 OA
ATOM      5  C   UNL     1       6.421   2.921 -18.998  1.00  0.00     0.111 A 
ATOM      6  C   UNL     1       5.029   2.662 -18.997  1.00  0.00     0.134 A 
ATOM      7  C   UNL     1       4.221   3.205 -17.987  1.00  0.00     0.093 A 
ATOM      8  C   UNL     1       4.777   4.002 -16.980  1.00  0.00     0.123 A 
ATOM      9  C   UNL     1       6.149   4.259 -16.977  1.00  0.00     0.094 A 
ATOM     10  C   UNL     1       6.971   3.727 -17.974  1.00  0.00     0.146 A 
ATOM     11  O   UNL     1       8.274   3.985 -17.943  1.00  0.00    -0.452 OA
ENDROOT
BRANCH   1  12
ATOM     12  C   UNL     1      10.564   3.868 -18.692  1.00  0.00     0.021 A 
ATOM     13  C   UNL     1      11.026   5.105 -19.170  1.00  0.00     0.016 A 
ATOM     14  C   UNL     1      12.368   5.467 -19.017  1.00  0.00     0.047 A 
ATOM     15  C   UNL     1      13.260   4.603 -18.370  1.00  0.00     0.115 A 
ATOM     16  C   UNL     1      11.462   3.015 -18.025  1.00  0.00     0.016 A 
ATOM     17  C   UNL     1      12.803   3.379 -17.873  1.00  0.00     0.047 A 
BRANCH  15  18
ATOM     18  O   UNL     1      14.600   4.952 -18.212  1.00  0.00    -0.508 OA
ATOM     19  H   UNL     1      15.296   4.704 -18.905  1.00  0.00     0.293 HD
ENDBRANCH  15  18
ENDBRANCH   1  12
BRANCH   2  20
ATOM     20  O   UNL     1       9.547   2.286 -20.902  1.00  0.00    -0.502 OA
ATOM     21  H   UNL     1      10.361   2.821 -21.183  1.00  0.00     0.293 HD
ENDBRANCH   2  20
BRANCH   6  22
ATOM     22  O   UNL     1       4.446   1.872 -19.988  1.00  0.00    -0.507 OA
ATOM     23  H   UNL     1       3.677   1.243 -19.785  1.00  0.00     0.293 HD
ENDBRANCH   6  22
BRANCH   8  24
ATOM     24  O   UNL     1       3.974   4.541 -15.977  1.00  0.00    -0.508 OA
ATOM     25  H   UNL     1       4.344   4.749 -15.058  1.00  0.00     0.293 HD
ENDBRANCH   8  24
TORSDOF 5
ENDMDL
MODEL 7
REMARK VINA RESULT:    -5.597      7.043     12.040
REMARK INTER + INTRA:          -6.810
REMARK INTER:                  -6.564
REMARK INTRA:                  -0.246
REMARK UNBOUND:                -0.231
REMARK SMILES O=c1c(O)c(-c2ccc(O)cc2)oc2cc(O)cc(O)c12
REMARK SMILES IDX 5 1 3 2 2 3 1 4 21 5 19 6 18 7 16 8 15 9 14 10 13 11 6 12
REMARK SMILES IDX 7 13 8 14 9 15 12 16 11 17 10 18 4 20 20 22 17 24
REMARK H PARENT 10 19 4 21 20 23 17 25
REMARK Flexibility Score: inf
ROOT
ATOM      1  C   UNL     1      11.392  -6.292 -10.034  1.00  0.00     0.180 A 
ATOM      2  C   UNL     1      11.364  -7.388 -10.918  1.00  0.00     0.208 A 
ATOM      3  C   UNL     1      12.425  -7.558 -11.822  1.00  0.00     0.238 A 
ATOM      4  O   UNL     1      12.405  -8.529 -12.625  1.00  0.00    -0.285 OA
ATOM      5  C   UNL     1      13.500  -6.646 -11.814  1.00  0.00     0.111 A 
ATOM      6  C   UNL     1      14.608  -6.748 -12.689  1.00  0.00     0.134 A 
ATOM      7  C   UNL     1      15.644  -5.805 -12.612  1.00  0.00     0.093 A 
ATOM      8  C   UNL     1      15.593  -4.764 -11.679  1.00  0.00     0.123 A 
ATOM      9  C   UNL     1      14.502  -4.659 -10.815  1.00  0.00     0.094 A 
ATOM     10  C   UNL     1      13.459  -5.588 -10.876  1.00  0.00     0.146 A 
ATOM     11  O   UNL     1      12.430  -5.461 -10.045  1.00  0.00    -0.452 OA
ENDROOT
BRANCH   1  12
ATOM     12  C   UNL     1      10.303  -6.035  -9.065  1.00  0.00     0.021 A 
ATOM     13  C   UNL     1      10.526  -6.262  -7.697  1.00  0.00     0.016 A 
ATOM     14  C   UNL     1       9.520  -6.005  -6.762  1.00  0.00     0.047 A 
ATOM     15  C   UNL     1       8.282  -5.502  -7.182  1.00  0.00     0.115 A 
ATOM     16  C   UNL     1       9.064  -5.510  -9.476  1.00  0.00     0.016 A 
ATOM     17  C   UNL     1       8.058  -5.253  -8.539  1.00  0.00     0.047 A 
BRANCH  15  18
ATOM     18  O   UNL     1       7.270  -5.241  -6.259  1.00  0.00    -0.508 OA
ATOM     19  H   UNL     1       6.730  -4.385  -6.295  1.00  0.00     0.293 HD
ENDBRANCH  15  18
ENDBRANCH   1  12
BRANCH   2  20
ATOM     20  O   UNL     1      10.312  -8.305 -10.872  1.00  0.00    -0.502 OA
ATOM     21  H   UNL     1       9.480  -8.151 -10.314  1.00  0.00     0.293 HD
ENDBRANCH   2  20
BRANCH   6  22
ATOM     22  O   UNL     1      14.688  -7.776 -13.630  1.00  0.00    -0.507 OA
ATOM     23  H   UNL     1      13.861  -8.256 -13.967  1.00  0.00     0.293 HD
ENDBRANCH   6  22
BRANCH   8  24
ATOM     24  O   UNL     1      16.622  -3.829 -11.602  1.00  0.00    -0.508 OA
ATOM     25  H   UNL     1      17.450  -3.996 -11.043  1.00  0.00     0.293 HD
ENDBRANCH   8  24
TORSDOF 5
ENDMDL
MODEL 8
REMARK VINA RESULT:    -5.500     10.702     12.669
REMARK INTER + INTRA:          -6.695
REMARK INTER:                  -6.412
REMARK INTRA:                  -0.283
REMARK UNBOUND:                -0.231
REMARK SMILES O=c1c(O)c(-c2ccc(O)cc2)oc2cc(O)cc(O)c12
REMARK SMILES IDX 5 1 3 2 2 3 1 4 21 5 19 6 18 7 16 8 15 9 14 10 13 11 6 12
REMARK SMILES IDX 7 13 8 14 9 15 12 16 11 17 10 18 4 20 20 22 17 24
REMARK H PARENT 10 19 4 21 20 23 17 25
REMARK Flexibility Score: inf
ROOT
ATOM      1  C   UNL     1       8.045   3.593 -18.067  1.00  0.00     0.180 A 
ATOM      2  C   UNL     1       7.709   4.946 -17.872  1.00  0.00     0.208 A 
ATOM      3  C   UNL     1       8.740   5.891 -17.754  1.00  0.00     0.238 A 
ATOM      4  O   UNL     1       8.451   7.104 -17.568  1.00  0.00    -0.285 OA
ATOM      5  C   UNL     1      10.083   5.474 -17.852  1.00  0.00     0.111 A 
ATOM      6  C   UNL     1      11.180   6.362 -17.748  1.00  0.00     0.134 A 
ATOM      7  C   UNL     1      12.488   5.869 -17.866  1.00  0.00     0.093 A 
ATOM      8  C   UNL     1      12.720   4.507 -18.087  1.00  0.00     0.123 A 
ATOM      9  C   UNL     1      11.641   3.627 -18.189  1.00  0.00     0.094 A 
ATOM     10  C   UNL     1      10.330   4.098 -18.073  1.00  0.00     0.146 A 
ATOM     11  O   UNL     1       9.322   3.237 -18.170  1.00  0.00    -0.452 OA
ENDROOT
BRANCH   1  12
ATOM     12  C   UNL     1       7.015   2.535 -18.182  1.00  0.00     0.021 A 
ATOM     13  C   UNL     1       6.443   2.261 -19.435  1.00  0.00     0.016 A 
ATOM     14  C   UNL     1       5.486   1.252 -19.572  1.00  0.00     0.047 A 
ATOM     15  C   UNL     1       5.101   0.493 -18.460  1.00  0.00     0.115 A 
ATOM     16  C   UNL     1       6.638   1.754 -17.074  1.00  0.00     0.016 A 
ATOM     17  C   UNL     1       5.681   0.745 -17.213  1.00  0.00     0.047 A 
BRANCH  15  18
ATOM     18  O   UNL     1       4.147  -0.516 -18.583  1.00  0.00    -0.508 OA
ATOM     19  H   UNL     1       4.345  -1.372 -19.089  1.00  0.00     0.293 HD
ENDBRANCH  15  18
ENDBRANCH   1  12
BRANCH   2  20
ATOM     20  O   UNL     1       6.370   5.342 -17.828  1.00  0.00    -0.502 OA
ATOM     21  H   UNL     1       6.093   6.303 -17.669  1.00  0.00     0.293 HD
ENDBRANCH   2  20
BRANCH   6  22
ATOM     22  O   UNL     1      10.981   7.726 -17.528  1.00  0.00    -0.507 OA
ATOM     23  H   UNL     1      11.523   8.429 -18.017  1.00  0.00     0.293 HD
ENDBRANCH   6  22
BRANCH   8  24
ATOM     24  O   UNL     1      14.019   4.018 -18.205  1.00  0.00    -0.508 OA
ATOM     25  H   UNL     1      14.785   4.416 -17.676  1.00  0.00     0.293 HD
ENDBRANCH   8  24
TORSDOF 5
ENDMDL
MODEL 9
REMARK VINA RESULT:    -5.490     15.523     17.315
REMARK INTER + INTRA:          -6.684
REMARK INTER:                  -6.539
REMARK INTRA:                  -0.145
REMARK UNBOUND:                -0.231
REMARK SMILES O=c1c(O)c(-c2ccc(O)cc2)oc2cc(O)cc(O)c12
REMARK SMILES IDX 5 1 3 2 2 3 1 4 21 5 19 6 18 7 16 8 15 9 14 10 13 11 6 12
REMARK SMILES IDX 7 13 8 14 9 15 12 16 11 17 10 18 4 20 20 22 17 24
REMARK H PARENT 10 19 4 21 20 23 17 25
REMARK Flexibility Score: inf
ROOT
ATOM      1  C   UNL     1       4.987   5.497 -10.700  1.00  0.00     0.180 A 
ATOM      2  C   UNL     1       4.946   6.905 -10.678  1.00  0.00     0.208 A 
ATOM      3  C   UNL     1       4.716   7.596 -11.878  1.00  0.00     0.238 A 
ATOM      4  O   UNL     1       4.688   8.857 -11.872  1.00  0.00    -0.285 OA
ATOM      5  C   UNL     1       4.512   6.873 -13.071  1.00  0.00     0.111 A 
ATOM      6  C   UNL     1       4.270   7.492 -14.320  1.00  0.00     0.134 A 
ATOM      7  C   UNL     1       4.066   6.702 -15.461  1.00  0.00     0.093 A 
ATOM      8  C   UNL     1       4.100   5.306 -15.377  1.00  0.00     0.123 A 
ATOM      9  C   UNL     1       4.339   4.691 -14.146  1.00  0.00     0.094 A 
ATOM     10  C   UNL     1       4.545   5.461 -12.998  1.00  0.00     0.146 A 
ATOM     11  O   UNL     1       4.775   4.848 -11.842  1.00  0.00    -0.452 OA
ENDROOT
BRANCH   1  12
ATOM     12  C   UNL     1       5.243   4.698  -9.481  1.00  0.00     0.021 A 
ATOM     13  C   UNL     1       6.446   3.983  -9.363  1.00  0.00     0.016 A 
ATOM     14  C   UNL     1       6.719   3.240  -8.210  1.00  0.00     0.047 A 
ATOM     15  C   UNL     1       5.799   3.216  -7.155  1.00  0.00     0.115 A 
ATOM     16  C   UNL     1       4.334   4.686  -8.407  1.00  0.00     0.016 A 
ATOM     17  C   UNL     1       4.609   3.943  -7.255  1.00  0.00     0.047 A 
BRANCH  15  18
ATOM     18  O   UNL     1       6.059   2.479  -6.001  1.00  0.00    -0.508 OA
ATOM     19  H   UNL     1       5.577   1.609  -5.810  1.00  0.00     0.293 HD
ENDBRANCH  15  18
ENDBRANCH   1  12
BRANCH   2  20
ATOM     20  O   UNL     1       5.102   7.597  -9.474  1.00  0.00    -0.502 OA
ATOM     21  H   UNL     1       5.988   7.641  -8.985  1.00  0.00     0.293 HD
ENDBRANCH   2  20
BRANCH   6  22
ATOM     22  O   UNL     1       4.230   8.883 -14.436  1.00  0.00    -0.507 OA
ATOM     23  H   UNL     1       3.437   9.361 -14.848  1.00  0.00     0.293 HD
ENDBRANCH   6  22
BRANCH   8  24
ATOM     24  O   UNL     1       3.897   4.521 -16.509  1.00  0.00    -0.508 OA
ATOM     25  H   UNL     1       3.267   3.728 -16.498  1.00  0.00     0.293 HD
ENDBRANCH   8  24
TORSDOF 5
ENDMDL
