MODEL 1
REMARK VINA RESULT:    -5.719      0.000      0.000
REMARK INTER + INTRA:          -7.298
REMARK INTER:                  -6.889
REMARK INTRA:                  -0.409
REMARK UNBOUND:                -0.409
REMARK SMILES O=c1c(O)c(-c2ccc(O)cc2O)oc2cc(O)cc(O)c12
REMARK SMILES IDX 5 1 3 2 2 3 1 4 22 5 20 6 19 7 17 8 16 9 15 10 14 11 6 12
REMARK SMILES IDX 8 13 7 14 9 15 11 16 12 17 10 18 13 20 4 22 21 24 18 26
REMARK H PARENT 10 19 13 21 4 23 21 25 18 27
REMARK Flexibility Score: inf
ROOT
ATOM      1  C   UNL     1      -4.926 -16.150  16.958  1.00  0.00     0.184 A 
ATOM      2  C   UNL     1      -4.764 -17.346  17.673  1.00  0.00     0.208 A 
ATOM      3  C   UNL     1      -5.528 -18.467  17.308  1.00  0.00     0.238 A 
ATOM      4  O   UNL     1      -5.385 -19.529  17.965  1.00  0.00    -0.285 OA
ATOM      5  C   UNL     1      -6.448 -18.377  16.232  1.00  0.00     0.111 A 
ATOM      6  C   UNL     1      -7.265 -19.451  15.756  1.00  0.00     0.134 A 
ATOM      7  C   UNL     1      -8.175 -19.218  14.718  1.00  0.00     0.093 A 
ATOM      8  C   UNL     1      -8.286 -17.960  14.121  1.00  0.00     0.123 A 
ATOM      9  C   UNL     1      -7.483 -16.913  14.562  1.00  0.00     0.094 A 
ATOM     10  C   UNL     1      -6.570 -17.108  15.601  1.00  0.00     0.146 A 
ATOM     11  O   UNL     1      -5.822 -16.080  15.983  1.00  0.00    -0.451 OA
ENDROOT
BRANCH   1  12
ATOM     12  C   UNL     1      -4.150 -14.933  17.284  1.00  0.00     0.063 A 
ATOM     13  C   UNL     1      -4.045 -12.781  18.410  1.00  0.00     0.047 A 
ATOM     14  C   UNL     1      -4.743 -13.947  18.087  1.00  0.00     0.020 A 
ATOM     15  C   UNL     1      -2.750 -12.580  17.925  1.00  0.00     0.119 A 
ATOM     16  C   UNL     1      -2.158 -13.546  17.102  1.00  0.00     0.093 A 
ATOM     17  C   UNL     1      -2.855 -14.716  16.766  1.00  0.00     0.130 A 
BRANCH  15  18
ATOM     18  O   UNL     1      -2.064 -11.414  18.258  1.00  0.00    -0.508 OA
ATOM     19  H   UNL     1      -1.528 -10.899  17.569  1.00  0.00     0.293 HD
ENDBRANCH  15  18
BRANCH  17  20
ATOM     20  O   UNL     1      -2.274 -15.643  15.902  1.00  0.00    -0.507 OA
ATOM     21  H   UNL     1      -1.936 -16.539  16.234  1.00  0.00     0.293 HD
ENDBRANCH  17  20
ENDBRANCH   1  12
BRANCH   2  22
ATOM     22  O   UNL     1      -3.878 -17.402  18.752  1.00  0.00    -0.502 OA
ATOM     23  H   UNL     1      -4.084 -17.919  19.599  1.00  0.00     0.293 HD
ENDBRANCH   2  22
BRANCH   6  24
ATOM     24  O   UNL     1      -7.222 -20.761  16.247  1.00  0.00    -0.507 OA
ATOM     25  H   UNL     1      -7.772 -21.538  15.921  1.00  0.00     0.293 HD
ENDBRANCH   6  24
BRANCH   8  26
ATOM     26  O   UNL     1      -9.189 -17.744  13.082  1.00  0.00    -0.508 OA
ATOM     27  H   UNL     1     -10.164 -18.003  13.166  1.00  0.00     0.293 HD
ENDBRANCH   8  26
TORSDOF 6
ENDMDL
MODEL 2
REMARK VINA RESULT:    -5.668      1.506      6.831
REMARK INTER + INTRA:          -7.236
REMARK INTER:                  -6.815
REMARK INTRA:                  -0.421
REMARK UNBOUND:                -0.409
REMARK SMILES O=c1c(O)c(-c2ccc(O)cc2O)oc2cc(O)cc(O)c12
REMARK SMILES IDX 5 1 3 2 2 3 1 4 22 5 20 6 19 7 17 8 16 9 15 10 14 11 6 12
REMARK SMILES IDX 8 13 7 14 9 15 11 16 12 17 10 18 13 20 4 22 21 24 18 26
REMARK H PARENT 10 19 13 21 4 23 21 25 18 27
REMARK Flexibility Score: inf
ROOT
ATOM      1  C   UNL     1      -5.789 -16.020  16.332  1.00  0.00     0.184 A 
ATOM      2  C   UNL     1      -6.337 -15.018  17.145  1.00  0.00     0.208 A 
ATOM      3  C   UNL     1      -5.496 -14.013  17.650  1.00  0.00     0.238 A 
ATOM      4  O   UNL     1      -5.996 -13.128  18.388  1.00  0.00    -0.285 OA
ATOM      5  C   UNL     1      -4.112 -14.025  17.336  1.00  0.00     0.111 A 
ATOM      6  C   UNL     1      -3.162 -13.049  17.773  1.00  0.00     0.134 A 
ATOM      7  C   UNL     1      -1.810 -13.205  17.439  1.00  0.00     0.093 A 
ATOM      8  C   UNL     1      -1.374 -14.284  16.668  1.00  0.00     0.123 A 
ATOM      9  C   UNL     1      -2.293 -15.229  16.220  1.00  0.00     0.094 A 
ATOM     10  C   UNL     1      -3.647 -15.109  16.542  1.00  0.00     0.146 A 
ATOM     11  O   UNL     1      -4.485 -16.033  16.087  1.00  0.00    -0.451 OA
ENDROOT
BRANCH   1  12
ATOM     12  C   UNL     1      -6.618 -17.105  15.761  1.00  0.00     0.063 A 
ATOM     13  C   UNL     1      -8.245 -17.815  14.100  1.00  0.00     0.047 A 
ATOM     14  C   UNL     1      -7.442 -16.820  14.662  1.00  0.00     0.020 A 
ATOM     15  C   UNL     1      -8.244 -19.105  14.636  1.00  0.00     0.119 A 
ATOM     16  C   UNL     1      -7.444 -19.395  15.749  1.00  0.00     0.093 A 
ATOM     17  C   UNL     1      -6.642 -18.399  16.324  1.00  0.00     0.130 A 
BRANCH  15  18
ATOM     18  O   UNL     1      -9.046 -20.089  14.063  1.00  0.00    -0.508 OA
ATOM     19  H   UNL     1      -9.119 -20.195  13.058  1.00  0.00     0.293 HD
ENDBRANCH  15  18
BRANCH  17  20
ATOM     20  O   UNL     1      -5.893 -18.687  17.464  1.00  0.00    -0.507 OA
ATOM     21  H   UNL     1      -6.270 -19.246  18.221  1.00  0.00     0.293 HD
ENDBRANCH  17  20
ENDBRANCH   1  12
BRANCH   2  22
ATOM     22  O   UNL     1      -7.696 -15.045  17.469  1.00  0.00    -0.502 OA
ATOM     23  H   UNL     1      -8.291 -14.229  17.389  1.00  0.00     0.293 HD
ENDBRANCH   2  22
BRANCH   6  24
ATOM     24  O   UNL     1      -3.478 -11.909  18.519  1.00  0.00    -0.507 OA
ATOM     25  H   UNL     1      -3.552 -10.968  18.168  1.00  0.00     0.293 HD
ENDBRANCH   6  24
BRANCH   8  26
ATOM     26  O   UNL     1      -0.029 -14.422  16.334  1.00  0.00    -0.508 OA
ATOM     27  H   UNL     1       0.483 -15.272  16.538  1.00  0.00     0.293 HD
ENDBRANCH   8  26
TORSDOF 6
ENDMDL
MODEL 3
REMARK VINA RESULT:    -5.619     12.190     14.687
REMARK INTER + INTRA:          -7.177
REMARK INTER:                  -6.756
REMARK INTRA:                  -0.422
REMARK UNBOUND:                -0.409
REMARK SMILES O=c1c(O)c(-c2ccc(O)cc2O)oc2cc(O)cc(O)c12
REMARK SMILES IDX 5 1 3 2 2 3 1 4 22 5 20 6 19 7 17 8 16 9 15 10 14 11 6 12
REMARK SMILES IDX 8 13 7 14 9 15 11 16 12 17 10 18 13 20 4 22 21 24 18 26
REMARK H PARENT 10 19 13 21 4 23 21 25 18 27
REMARK Flexibility Score: inf
ROOT
ATOM      1  C   UNL     1       6.773 -17.546  10.191  1.00  0.00     0.184 A 
ATOM      2  C   UNL     1       7.095 -18.085   8.937  1.00  0.00     0.208 A 
ATOM      3  C   UNL     1       7.071 -17.250   7.809  1.00  0.00     0.238 A 
ATOM      4  O   UNL     1       7.348 -17.748   6.689  1.00  0.00    -0.285 OA
ATOM      5  C   UNL     1       6.722 -15.882   7.949  1.00  0.00     0.111 A 
ATOM      6  C   UNL     1       6.681 -14.931   6.880  1.00  0.00     0.134 A 
ATOM      7  C   UNL     1       6.267 -13.618   7.141  1.00  0.00     0.093 A 
ATOM      8  C   UNL     1       5.913 -13.213   8.430  1.00  0.00     0.123 A 
ATOM      9  C   UNL     1       5.968 -14.124   9.480  1.00  0.00     0.094 A 
ATOM     10  C   UNL     1       6.368 -15.443   9.254  1.00  0.00     0.146 A 
ATOM     11  O   UNL     1       6.411 -16.274  10.289  1.00  0.00    -0.451 OA
ENDROOT
BRANCH   1  12
ATOM     12  C   UNL     1       6.785 -18.367  11.422  1.00  0.00     0.063 A 
ATOM     13  C   UNL     1       8.072 -19.497  13.147  1.00  0.00     0.047 A 
ATOM     14  C   UNL     1       8.020 -18.717  11.990  1.00  0.00     0.020 A 
ATOM     15  C   UNL     1       6.893 -19.947  13.746  1.00  0.00     0.119 A 
ATOM     16  C   UNL     1       5.656 -19.623  13.174  1.00  0.00     0.093 A 
ATOM     17  C   UNL     1       5.595 -18.848  12.007  1.00  0.00     0.130 A 
BRANCH  15  18
ATOM     18  O   UNL     1       6.960 -20.720  14.903  1.00  0.00    -0.508 OA
ATOM     19  H   UNL     1       6.937 -21.733  14.866  1.00  0.00     0.293 HD
ENDBRANCH  15  18
BRANCH  17  20
ATOM     20  O   UNL     1       4.360 -18.580  11.419  1.00  0.00    -0.507 OA
ATOM     21  H   UNL     1       3.643 -19.292  11.340  1.00  0.00     0.293 HD
ENDBRANCH  17  20
ENDBRANCH   1  12
BRANCH   2  22
ATOM     22  O   UNL     1       7.402 -19.443   8.818  1.00  0.00    -0.502 OA
ATOM     23  H   UNL     1       7.269 -20.100   9.577  1.00  0.00     0.293 HD
ENDBRANCH   2  22
BRANCH   6  24
ATOM     24  O   UNL     1       7.043 -15.204   5.557  1.00  0.00    -0.507 OA
ATOM     25  H   UNL     1       7.529 -14.584   4.931  1.00  0.00     0.293 HD
ENDBRANCH   6  24
BRANCH   8  26
ATOM     26  O   UNL     1       5.512 -11.902   8.678  1.00  0.00    -0.508 OA
ATOM     27  H   UNL     1       4.818 -11.442   8.100  1.00  0.00     0.293 HD
ENDBRANCH   8  26
TORSDOF 6
ENDMDL
MODEL 4
REMARK VINA RESULT:    -5.391     12.308     14.871
REMARK INTER + INTRA:          -6.902
REMARK INTER:                  -6.544
REMARK INTRA:                  -0.359
REMARK UNBOUND:                -0.409
REMARK SMILES O=c1c(O)c(-c2ccc(O)cc2O)oc2cc(O)cc(O)c12
REMARK SMILES IDX 5 1 3 2 2 3 1 4 22 5 20 6 19 7 17 8 16 9 15 10 14 11 6 12
REMARK SMILES IDX 8 13 7 14 9 15 11 16 12 17 10 18 13 20 4 22 21 24 18 26
REMARK H PARENT 10 19 13 21 4 23 21 25 18 27
REMARK Flexibility Score: inf
ROOT
ATOM      1  C   UNL     1       4.965 -17.676   7.697  1.00  0.00     0.184 A 
ATOM      2  C   UNL     1       4.206 -18.331   8.678  1.00  0.00     0.208 A 
ATOM      3  C   UNL     1       4.564 -18.182  10.028  1.00  0.00     0.238 A 
ATOM      4  O   UNL     1       3.885 -18.785  10.897  1.00  0.00    -0.285 OA
ATOM      5  C   UNL     1       5.680 -17.380  10.381  1.00  0.00     0.111 A 
ATOM      6  C   UNL     1       6.128 -17.138  11.718  1.00  0.00     0.134 A 
ATOM      7  C   UNL     1       7.279 -16.368  11.930  1.00  0.00     0.093 A 
ATOM      8  C   UNL     1       7.986 -15.814  10.862  1.00  0.00     0.123 A 
ATOM      9  C   UNL     1       7.548 -16.026   9.558  1.00  0.00     0.094 A 
ATOM     10  C   UNL     1       6.409 -16.796   9.310  1.00  0.00     0.146 A 
ATOM     11  O   UNL     1       6.028 -16.965   8.050  1.00  0.00    -0.451 OA
ENDROOT
BRANCH   1  12
ATOM     12  C   UNL     1       4.641 -17.784   6.257  1.00  0.00     0.063 A 
ATOM     13  C   UNL     1       4.457 -19.175   4.272  1.00  0.00     0.047 A 
ATOM     14  C   UNL     1       4.746 -19.035   5.631  1.00  0.00     0.020 A 
ATOM     15  C   UNL     1       4.070 -18.065   3.518  1.00  0.00     0.119 A 
ATOM     16  C   UNL     1       3.986 -16.806   4.126  1.00  0.00     0.093 A 
ATOM     17  C   UNL     1       4.284 -16.656   5.489  1.00  0.00     0.130 A 
BRANCH  15  18
ATOM     18  O   UNL     1       3.780 -18.219   2.164  1.00  0.00    -0.508 OA
ATOM     19  H   UNL     1       3.234 -17.532   1.657  1.00  0.00     0.293 HD
ENDBRANCH  15  18
BRANCH  17  20
ATOM     20  O   UNL     1       4.249 -15.388   6.068  1.00  0.00    -0.507 OA
ATOM     21  H   UNL     1       5.025 -15.031   6.613  1.00  0.00     0.293 HD
ENDBRANCH  17  20
ENDBRANCH   1  12
BRANCH   2  22
ATOM     22  O   UNL     1       3.133 -19.144   8.306  1.00  0.00    -0.502 OA
ATOM     23  H   UNL     1       2.170 -18.899   8.503  1.00  0.00     0.293 HD
ENDBRANCH   2  22
BRANCH   6  24
ATOM     24  O   UNL     1       5.487 -17.608  12.869  1.00  0.00    -0.507 OA
ATOM     25  H   UNL     1       5.850 -18.286  13.519  1.00  0.00     0.293 HD
ENDBRANCH   6  24
BRANCH   8  26
ATOM     26  O   UNL     1       9.125 -15.042  11.087  1.00  0.00    -0.508 OA
ATOM     27  H   UNL     1       9.565 -14.517  10.341  1.00  0.00     0.293 HD
ENDBRANCH   8  26
TORSDOF 6
ENDMDL
MODEL 5
REMARK VINA RESULT:    -5.318     11.838     13.473
REMARK INTER + INTRA:          -6.815
REMARK INTER:                  -6.404
REMARK INTRA:                  -0.411
REMARK UNBOUND:                -0.409
REMARK SMILES O=c1c(O)c(-c2ccc(O)cc2O)oc2cc(O)cc(O)c12
REMARK SMILES IDX 5 1 3 2 2 3 1 4 22 5 20 6 19 7 17 8 16 9 15 10 14 11 6 12
REMARK SMILES IDX 8 13 7 14 9 15 11 16 12 17 10 18 13 20 4 22 21 24 18 26
REMARK H PARENT 10 19 13 21 4 23 21 25 18 27
REMARK Flexibility Score: inf
ROOT
ATOM      1  C   UNL     1       6.229 -17.001  11.356  1.00  0.00     0.184 A 
ATOM      2  C   UNL     1       5.250 -17.866  10.846  1.00  0.00     0.208 A 
ATOM      3  C   UNL     1       4.750 -17.644   9.552  1.00  0.00     0.238 A 
ATOM      4  O   UNL     1       3.863 -18.418   9.112  1.00  0.00    -0.285 OA
ATOM      5  C   UNL     1       5.237 -16.556   8.783  1.00  0.00     0.111 A 
ATOM      6  C   UNL     1       4.822 -16.240   7.451  1.00  0.00     0.134 A 
ATOM      7  C   UNL     1       5.340 -15.104   6.818  1.00  0.00     0.093 A 
ATOM      8  C   UNL     1       6.272 -14.282   7.455  1.00  0.00     0.123 A 
ATOM      9  C   UNL     1       6.698 -14.590   8.743  1.00  0.00     0.094 A 
ATOM     10  C   UNL     1       6.196 -15.711   9.407  1.00  0.00     0.146 A 
ATOM     11  O   UNL     1       6.637 -15.967  10.633  1.00  0.00    -0.451 OA
ENDROOT
BRANCH   1  12
ATOM     12  C   UNL     1       6.803 -17.180  12.708  1.00  0.00     0.063 A 
ATOM     13  C   UNL     1       8.482 -18.219  14.126  1.00  0.00     0.047 A 
ATOM     14  C   UNL     1       7.917 -18.019  12.865  1.00  0.00     0.020 A 
ATOM     15  C   UNL     1       7.936 -17.593  15.248  1.00  0.00     0.119 A 
ATOM     16  C   UNL     1       6.810 -16.772  15.108  1.00  0.00     0.093 A 
ATOM     17  C   UNL     1       6.231 -16.573  13.846  1.00  0.00     0.130 A 
BRANCH  15  18
ATOM     18  O   UNL     1       8.513 -17.797  16.500  1.00  0.00    -0.508 OA
ATOM     19  H   UNL     1       9.420 -18.240  16.600  1.00  0.00     0.293 HD
ENDBRANCH  15  18
BRANCH  17  20
ATOM     20  O   UNL     1       5.078 -15.798  13.729  1.00  0.00    -0.507 OA
ATOM     21  H   UNL     1       5.061 -14.824  14.010  1.00  0.00     0.293 HD
ENDBRANCH  17  20
ENDBRANCH   1  12
BRANCH   2  22
ATOM     22  O   UNL     1       4.760 -18.910  11.635  1.00  0.00    -0.502 OA
ATOM     23  H   UNL     1       3.778 -19.158  11.661  1.00  0.00     0.293 HD
ENDBRANCH   2  22
BRANCH   6  24
ATOM     24  O   UNL     1       3.923 -17.002   6.696  1.00  0.00    -0.507 OA
ATOM     25  H   UNL     1       2.936 -17.103   6.868  1.00  0.00     0.293 HD
ENDBRANCH   6  24
BRANCH   8  26
ATOM     26  O   UNL     1       6.787 -13.159   6.810  1.00  0.00    -0.508 OA
ATOM     27  H   UNL     1       7.729 -13.148   6.437  1.00  0.00     0.293 HD
ENDBRANCH   8  26
TORSDOF 6
ENDMDL
MODEL 6
REMARK VINA RESULT:    -5.272      2.094      3.161
REMARK INTER + INTRA:          -6.759
REMARK INTER:                  -6.352
REMARK INTRA:                  -0.407
REMARK UNBOUND:                -0.409
REMARK SMILES O=c1c(O)c(-c2ccc(O)cc2O)oc2cc(O)cc(O)c12
REMARK SMILES IDX 5 1 3 2 2 3 1 4 22 5 20 6 19 7 17 8 16 9 15 10 14 11 6 12
REMARK SMILES IDX 8 13 7 14 9 15 11 16 12 17 10 18 13 20 4 22 21 24 18 26
REMARK H PARENT 10 19 13 21 4 23 21 25 18 27
REMARK Flexibility Score: inf
ROOT
ATOM      1  C   UNL     1      -5.159 -15.856  16.540  1.00  0.00     0.184 A 
ATOM      2  C   UNL     1      -6.060 -14.933  17.089  1.00  0.00     0.208 A 
ATOM      3  C   UNL     1      -7.435 -15.222  17.060  1.00  0.00     0.238 A 
ATOM      4  O   UNL     1      -8.233 -14.380  17.542  1.00  0.00    -0.285 OA
ATOM      5  C   UNL     1      -7.891 -16.433  16.479  1.00  0.00     0.111 A 
ATOM      6  C   UNL     1      -9.259 -16.846  16.408  1.00  0.00     0.134 A 
ATOM      7  C   UNL     1      -9.585 -18.043  15.758  1.00  0.00     0.093 A 
ATOM      8  C   UNL     1      -8.597 -18.854  15.196  1.00  0.00     0.123 A 
ATOM      9  C   UNL     1      -7.261 -18.472  15.277  1.00  0.00     0.094 A 
ATOM     10  C   UNL     1      -6.902 -17.281  15.910  1.00  0.00     0.146 A 
ATOM     11  O   UNL     1      -5.614 -16.962  15.966  1.00  0.00    -0.451 OA
ENDROOT
BRANCH   1  12
ATOM     12  C   UNL     1      -3.698 -15.620  16.542  1.00  0.00     0.063 A 
ATOM     13  C   UNL     1      -1.796 -14.389  15.660  1.00  0.00     0.047 A 
ATOM     14  C   UNL     1      -3.171 -14.636  15.692  1.00  0.00     0.020 A 
ATOM     15  C   UNL     1      -0.930 -15.129  16.468  1.00  0.00     0.119 A 
ATOM     16  C   UNL     1      -1.443 -16.130  17.303  1.00  0.00     0.093 A 
ATOM     17  C   UNL     1      -2.821 -16.390  17.334  1.00  0.00     0.130 A 
BRANCH  15  18
ATOM     18  O   UNL     1       0.438 -14.868  16.430  1.00  0.00    -0.508 OA
ATOM     19  H   UNL     1       1.084 -15.492  15.960  1.00  0.00     0.293 HD
ENDBRANCH  15  18
BRANCH  17  20
ATOM     20  O   UNL     1      -3.310 -17.426  18.129  1.00  0.00    -0.507 OA
ATOM     21  H   UNL     1      -4.249 -17.405  18.511  1.00  0.00     0.293 HD
ENDBRANCH  17  20
ENDBRANCH   1  12
BRANCH   2  22
ATOM     22  O   UNL     1      -5.591 -13.731  17.624  1.00  0.00    -0.502 OA
ATOM     23  H   UNL     1      -6.077 -12.851  17.494  1.00  0.00     0.293 HD
ENDBRANCH   2  22
BRANCH   6  24
ATOM     24  O   UNL     1     -10.333 -16.140  16.961  1.00  0.00    -0.507 OA
ATOM     25  H   UNL     1     -10.966 -16.475  17.668  1.00  0.00     0.293 HD
ENDBRANCH   6  24
BRANCH   8  26
ATOM     26  O   UNL     1      -8.934 -20.048  14.561  1.00  0.00    -0.508 OA
ATOM     27  H   UNL     1      -9.823 -20.164  14.090  1.00  0.00     0.293 HD
ENDBRANCH   8  26
TORSDOF 6
ENDMDL
MODEL 7
REMARK VINA RESULT:    -5.232     14.484     16.777
REMARK INTER + INTRA:          -6.711
REMARK INTER:                  -6.304
REMARK INTRA:                  -0.407
REMARK UNBOUND:                -0.409
REMARK SMILES O=c1c(O)c(-c2ccc(O)cc2O)oc2cc(O)cc(O)c12
REMARK SMILES IDX 5 1 3 2 2 3 1 4 22 5 20 6 19 7 17 8 16 9 15 10 14 11 6 12
REMARK SMILES IDX 8 13 7 14 9 15 11 16 12 17 10 18 13 20 4 22 21 24 18 26
REMARK H PARENT 10 19 13 21 4 23 21 25 18 27
REMARK Flexibility Score: inf
ROOT
ATOM      1  C   UNL     1       6.186 -16.723   5.189  1.00  0.00     0.184 A 
ATOM      2  C   UNL     1       6.069 -17.773   6.110  1.00  0.00     0.208 A 
ATOM      3  C   UNL     1       5.839 -17.471   7.463  1.00  0.00     0.238 A 
ATOM      4  O   UNL     1       5.750 -18.420   8.281  1.00  0.00    -0.285 OA
ATOM      5  C   UNL     1       5.730 -16.118   7.877  1.00  0.00     0.111 A 
ATOM      6  C   UNL     1       5.477 -15.687   9.217  1.00  0.00     0.134 A 
ATOM      7  C   UNL     1       5.447 -14.317   9.507  1.00  0.00     0.093 A 
ATOM      8  C   UNL     1       5.636 -13.361   8.507  1.00  0.00     0.123 A 
ATOM      9  C   UNL     1       5.862 -13.769   7.196  1.00  0.00     0.094 A 
ATOM     10  C   UNL     1       5.908 -15.127   6.873  1.00  0.00     0.146 A 
ATOM     11  O   UNL     1       6.121 -15.466   5.608  1.00  0.00    -0.451 OA
ENDROOT
BRANCH   1  12
ATOM     12  C   UNL     1       6.422 -16.969   3.748  1.00  0.00     0.063 A 
ATOM     13  C   UNL     1       5.581 -17.792   1.621  1.00  0.00     0.047 A 
ATOM     14  C   UNL     1       5.393 -17.538   2.982  1.00  0.00     0.020 A 
ATOM     15  C   UNL     1       6.802 -17.493   1.012  1.00  0.00     0.119 A 
ATOM     16  C   UNL     1       7.843 -16.947   1.773  1.00  0.00     0.093 A 
ATOM     17  C   UNL     1       7.666 -16.697   3.141  1.00  0.00     0.130 A 
BRANCH  15  18
ATOM     18  O   UNL     1       6.973 -17.747  -0.347  1.00  0.00    -0.508 OA
ATOM     19  H   UNL     1       7.510 -17.124  -0.939  1.00  0.00     0.293 HD
ENDBRANCH  15  18
BRANCH  17  20
ATOM     20  O   UNL     1       8.729 -16.204   3.897  1.00  0.00    -0.507 OA
ATOM     21  H   UNL     1       8.577 -15.625   4.715  1.00  0.00     0.293 HD
ENDBRANCH  17  20
ENDBRANCH   1  12
BRANCH   2  22
ATOM     22  O   UNL     1       6.214 -19.096   5.686  1.00  0.00    -0.502 OA
ATOM     23  H   UNL     1       5.436 -19.646   5.341  1.00  0.00     0.293 HD
ENDBRANCH   2  22
BRANCH   6  24
ATOM     24  O   UNL     1       5.239 -16.544  10.297  1.00  0.00    -0.507 OA
ATOM     25  H   UNL     1       4.706 -16.328  11.124  1.00  0.00     0.293 HD
ENDBRANCH   6  24
BRANCH   8  26
ATOM     26  O   UNL     1       5.593 -12.001   8.806  1.00  0.00    -0.508 OA
ATOM     27  H   UNL     1       4.737 -11.466   8.719  1.00  0.00     0.293 HD
ENDBRANCH   8  26
TORSDOF 6
ENDMDL
MODEL 8
REMARK VINA RESULT:    -5.130     13.874     16.218
REMARK INTER + INTRA:          -6.588
REMARK INTER:                  -6.173
REMARK INTRA:                  -0.414
REMARK UNBOUND:                -0.409
REMARK SMILES O=c1c(O)c(-c2ccc(O)cc2O)oc2cc(O)cc(O)c12
REMARK SMILES IDX 5 1 3 2 2 3 1 4 22 5 20 6 19 7 17 8 16 9 15 10 14 11 6 12
REMARK SMILES IDX 8 13 7 14 9 15 11 16 12 17 10 18 13 20 4 22 21 24 18 26
REMARK H PARENT 10 19 13 21 4 23 21 25 18 27
REMARK Flexibility Score: inf
ROOT
ATOM      1  C   UNL     1       5.382 -17.144   5.422  1.00  0.00     0.184 A 
ATOM      2  C   UNL     1       5.343 -18.108   6.439  1.00  0.00     0.208 A 
ATOM      3  C   UNL     1       5.363 -17.687   7.779  1.00  0.00     0.238 A 
ATOM      4  O   UNL     1       5.343 -18.561   8.682  1.00  0.00    -0.285 OA
ATOM      5  C   UNL     1       5.423 -16.303   8.084  1.00  0.00     0.111 A 
ATOM      6  C   UNL     1       5.429 -15.752   9.405  1.00  0.00     0.134 A 
ATOM      7  C   UNL     1       5.546 -14.367   9.573  1.00  0.00     0.093 A 
ATOM      8  C   UNL     1       5.636 -13.508   8.476  1.00  0.00     0.123 A 
ATOM      9  C   UNL     1       5.611 -14.031   7.187  1.00  0.00     0.094 A 
ATOM     10  C   UNL     1       5.504 -15.408   6.982  1.00  0.00     0.146 A 
ATOM     11  O   UNL     1       5.479 -15.859   5.733  1.00  0.00    -0.451 OA
ENDROOT
BRANCH   1  12
ATOM     12  C   UNL     1       5.357 -17.517   3.990  1.00  0.00     0.063 A 
ATOM     13  C   UNL     1       6.528 -18.431   2.065  1.00  0.00     0.047 A 
ATOM     14  C   UNL     1       6.510 -18.074   3.415  1.00  0.00     0.020 A 
ATOM     15  C   UNL     1       5.399 -18.226   1.269  1.00  0.00     0.119 A 
ATOM     16  C   UNL     1       4.251 -17.648   1.825  1.00  0.00     0.093 A 
ATOM     17  C   UNL     1       4.228 -17.279   3.178  1.00  0.00     0.130 A 
BRANCH  15  18
ATOM     18  O   UNL     1       5.429 -18.592  -0.075  1.00  0.00    -0.508 OA
ATOM     19  H   UNL     1       5.931 -19.414  -0.390  1.00  0.00     0.293 HD
ENDBRANCH  15  18
BRANCH  17  20
ATOM     20  O   UNL     1       3.098 -16.655   3.704  1.00  0.00    -0.507 OA
ATOM     21  H   UNL     1       2.314 -16.392   3.118  1.00  0.00     0.293 HD
ENDBRANCH  17  20
ENDBRANCH   1  12
BRANCH   2  22
ATOM     22  O   UNL     1       5.320 -19.467   6.115  1.00  0.00    -0.502 OA
ATOM     23  H   UNL     1       5.633 -20.185   6.757  1.00  0.00     0.293 HD
ENDBRANCH   2  22
BRANCH   6  24
ATOM     24  O   UNL     1       5.311 -16.502  10.580  1.00  0.00    -0.507 OA
ATOM     25  H   UNL     1       5.954 -16.502  11.355  1.00  0.00     0.293 HD
ENDBRANCH   6  24
BRANCH   8  26
ATOM     26  O   UNL     1       5.742 -12.131   8.657  1.00  0.00    -0.508 OA
ATOM     27  H   UNL     1       6.490 -11.726   9.209  1.00  0.00     0.293 HD
ENDBRANCH   8  26
TORSDOF 6
ENDMDL
MODEL 9
REMARK VINA RESULT:    -5.056     11.999     12.837
REMARK INTER + INTRA:          -6.499
REMARK INTER:                  -6.091
REMARK INTRA:                  -0.409
REMARK UNBOUND:                -0.409
REMARK SMILES O=c1c(O)c(-c2ccc(O)cc2O)oc2cc(O)cc(O)c12
REMARK SMILES IDX 5 1 3 2 2 3 1 4 22 5 20 6 19 7 17 8 16 9 15 10 14 11 6 12
REMARK SMILES IDX 8 13 7 14 9 15 11 16 12 17 10 18 13 20 4 22 21 24 18 26
REMARK H PARENT 10 19 13 21 4 23 21 25 18 27
REMARK Flexibility Score: inf
ROOT
ATOM      1  C   UNL     1       6.104 -17.126  11.660  1.00  0.00     0.184 A 
ATOM      2  C   UNL     1       5.613 -18.436  11.568  1.00  0.00     0.208 A 
ATOM      3  C   UNL     1       4.993 -18.850  10.378  1.00  0.00     0.238 A 
ATOM      4  O   UNL     1       4.544 -20.022  10.312  1.00  0.00    -0.285 OA
ATOM      5  C   UNL     1       4.871 -17.944   9.292  1.00  0.00     0.111 A 
ATOM      6  C   UNL     1       4.279 -18.254   8.027  1.00  0.00     0.134 A 
ATOM      7  C   UNL     1       4.170 -17.253   7.053  1.00  0.00     0.093 A 
ATOM      8  C   UNL     1       4.648 -15.962   7.285  1.00  0.00     0.123 A 
ATOM      9  C   UNL     1       5.243 -15.654   8.505  1.00  0.00     0.094 A 
ATOM     10  C   UNL     1       5.360 -16.626   9.502  1.00  0.00     0.146 A 
ATOM     11  O   UNL     1       5.941 -16.287  10.646  1.00  0.00    -0.451 OA
ENDROOT
BRANCH   1  12
ATOM     12  C   UNL     1       6.774 -16.625  12.882  1.00  0.00     0.063 A 
ATOM     13  C   UNL     1       6.593 -15.902  15.195  1.00  0.00     0.047 A 
ATOM     14  C   UNL     1       5.999 -16.382  14.026  1.00  0.00     0.020 A 
ATOM     15  C   UNL     1       7.967 -15.648  15.233  1.00  0.00     0.119 A 
ATOM     16  C   UNL     1       8.746 -15.865  14.089  1.00  0.00     0.093 A 
ATOM     17  C   UNL     1       8.155 -16.338  12.909  1.00  0.00     0.130 A 
BRANCH  15  18
ATOM     18  O   UNL     1       8.547 -15.174  16.408  1.00  0.00    -0.508 OA
ATOM     19  H   UNL     1       8.229 -14.319  16.849  1.00  0.00     0.293 HD
ENDBRANCH  15  18
BRANCH  17  20
ATOM     20  O   UNL     1       8.932 -16.497  11.762  1.00  0.00    -0.507 OA
ATOM     21  H   UNL     1       9.281 -15.701  11.242  1.00  0.00     0.293 HD
ENDBRANCH  17  20
ENDBRANCH   1  12
BRANCH   2  22
ATOM     22  O   UNL     1       5.713 -19.299  12.662  1.00  0.00    -0.502 OA
ATOM     23  H   UNL     1       4.899 -19.679  13.132  1.00  0.00     0.293 HD
ENDBRANCH   2  22
BRANCH   6  24
ATOM     24  O   UNL     1       3.796 -19.515   7.661  1.00  0.00    -0.507 OA
ATOM     25  H   UNL     1       4.250 -20.174   7.050  1.00  0.00     0.293 HD
ENDBRANCH   6  24
BRANCH   8  26
ATOM     26  O   UNL     1       4.542 -14.977   6.305  1.00  0.00    -0.508 OA
ATOM     27  H   UNL     1       5.214 -14.221   6.239  1.00  0.00     0.293 HD
ENDBRANCH   8  26
TORSDOF 6
ENDMDL
