MODEL 1
REMARK VINA RESULT:     7.363      0.000      0.000
REMARK INTER + INTRA:          17.410
REMARK INTER:                  18.555
REMARK INTRA:                  -1.145
REMARK UNBOUND:                -1.145
REMARK SMILES CCCCCCCCCCCCCCCCCCCCCCCCCCCC(=O)[O-]
REMARK SMILES IDX 15 1 16 2 17 3 18 4 19 5 20 6 21 7 22 8 23 9 24 10 25 11
REMARK SMILES IDX 26 12 27 13 28 14 29 15 30 16 14 17 13 18 12 19 11 20 10 21
REMARK SMILES IDX 9 22 8 23 7 24 6 25 5 26 4 27 3 28 2 29 1 30
REMARK H PARENT
REMARK Flexibility Score: inf
ROOT
ATOM      1  C   UNL     1      -0.770  59.691  -6.297  1.00  0.00     0.000 C 
ENDROOT
BRANCH   1   2
ATOM      2  C   UNL     1      -2.076  58.888  -6.161  1.00  0.00     0.000 C 
BRANCH   2   3
ATOM      3  C   UNL     1      -2.918  58.887  -7.450  1.00  0.00     0.000 C 
BRANCH   3   4
ATOM      4  C   UNL     1      -3.960  60.016  -7.546  1.00  0.00     0.000 C 
BRANCH   4   5
ATOM      5  C   UNL     1      -3.809  61.071  -6.438  1.00  0.00     0.000 C 
BRANCH   5   6
ATOM      6  C   UNL     1      -4.321  60.531  -5.095  1.00  0.00     0.000 C 
BRANCH   6   7
ATOM      7  C   UNL     1      -3.334  60.780  -3.943  1.00  0.00     0.000 C 
BRANCH   7   8
ATOM      8  C   UNL     1      -3.048  59.514  -3.122  1.00  0.00     0.000 C 
BRANCH   8   9
ATOM      9  C   UNL     1      -1.541  59.356  -2.866  1.00  0.00     0.000 C 
BRANCH   9  10
ATOM     10  C   UNL     1      -0.760  60.663  -3.087  1.00  0.00     0.000 C 
BRANCH  10  11
ATOM     11  C   UNL     1       0.759  60.472  -2.946  1.00  0.00     0.000 C 
BRANCH  11  12
ATOM     12  C   UNL     1       1.183  60.112  -1.510  1.00  0.00     0.006 C 
BRANCH  12  13
ATOM     13  C   UNL     1       0.618  61.048  -0.430  1.00  0.00     0.053 C 
BRANCH  13  14
ATOM     14  C   UNL     1       1.589  62.125  -0.057  1.00  0.00     0.041 C 
ATOM     15  O   UNL     1       1.997  62.941  -0.927  1.00  0.00    -0.550 OA
ATOM     16  O   UNL     1       2.075  62.203   1.242  1.00  0.00    -0.550 OA
ENDBRANCH  13  14
ENDBRANCH  12  13
ENDBRANCH  11  12
ENDBRANCH  10  11
ENDBRANCH   9  10
ENDBRANCH   8   9
ENDBRANCH   7   8
ENDBRANCH   6   7
ENDBRANCH   5   6
ENDBRANCH   4   5
ENDBRANCH   3   4
ENDBRANCH   2   3
ENDBRANCH   1   2
BRANCH   1  17
ATOM     17  C   UNL     1       0.373  58.876  -6.921  1.00  0.00     0.000 C 
BRANCH  17  18
ATOM     18  C   UNL     1       1.580  59.748  -7.306  1.00  0.00     0.000 C 
BRANCH  18  19
ATOM     19  C   UNL     1       2.558  59.970  -6.138  1.00  0.00     0.000 C 
BRANCH  19  20
ATOM     20  C   UNL     1       3.208  61.366  -6.090  1.00  0.00     0.000 C 
BRANCH  20  21
ATOM     21  C   UNL     1       2.261  62.486  -6.557  1.00  0.00     0.000 C 
BRANCH  21  22
ATOM     22  C   UNL     1       3.010  63.766  -6.957  1.00  0.00    -0.000 C 
BRANCH  22  23
ATOM     23  C   UNL     1       2.108  65.011  -6.915  1.00  0.00    -0.000 C 
BRANCH  23  24
ATOM     24  C   UNL     1       2.554  66.033  -5.851  1.00  0.00    -0.000 C 
BRANCH  24  25
ATOM     25  C   UNL     1       2.111  67.477  -6.151  1.00  0.00    -0.000 C 
BRANCH  25  26
ATOM     26  C   UNL     1       0.653  67.758  -5.719  1.00  0.00    -0.000 C 
BRANCH  26  27
ATOM     27  C   UNL     1      -0.220  68.285  -6.871  1.00  0.00    -0.000 C 
BRANCH  27  28
ATOM     28  C   UNL     1      -1.389  69.185  -6.414  1.00  0.00    -0.000 C 
BRANCH  28  29
ATOM     29  C   UNL     1      -1.460  69.429  -4.895  1.00  0.00    -0.003 C 
ATOM     30  C   UNL     1      -2.372  70.595  -4.518  1.00  0.00     0.004 C 
ENDBRANCH  28  29
ENDBRANCH  27  28
ENDBRANCH  26  27
ENDBRANCH  25  26
ENDBRANCH  24  25
ENDBRANCH  23  24
ENDBRANCH  22  23
ENDBRANCH  21  22
ENDBRANCH  20  21
ENDBRANCH  19  20
ENDBRANCH  18  19
ENDBRANCH  17  18
ENDBRANCH   1  17
TORSDOF 26
ENDMDL
MODEL 2
REMARK VINA RESULT:     7.462      1.177      1.996
REMARK INTER + INTRA:          17.661
REMARK INTER:                  18.272
REMARK INTRA:                  -0.611
REMARK UNBOUND:                -1.145
REMARK SMILES CCCCCCCCCCCCCCCCCCCCCCCCCCCC(=O)[O-]
REMARK SMILES IDX 15 1 16 2 17 3 18 4 19 5 20 6 21 7 22 8 23 9 24 10 25 11
REMARK SMILES IDX 26 12 27 13 28 14 29 15 30 16 14 17 13 18 12 19 11 20 10 21
REMARK SMILES IDX 9 22 8 23 7 24 6 25 5 26 4 27 3 28 2 29 1 30
REMARK H PARENT
REMARK Flexibility Score: inf
ROOT
ATOM      1  C   UNL     1       0.945  58.947  -6.511  1.00  0.00     0.000 C 
ENDROOT
BRANCH   1   2
ATOM      2  C   UNL     1       0.420  59.352  -7.899  1.00  0.00     0.000 C 
BRANCH   2   3
ATOM      3  C   UNL     1      -1.073  59.028  -8.094  1.00  0.00     0.000 C 
BRANCH   3   4
ATOM      4  C   UNL     1      -1.995  59.511  -6.960  1.00  0.00     0.000 C 
BRANCH   4   5
ATOM      5  C   UNL     1      -3.472  59.590  -7.378  1.00  0.00     0.000 C 
BRANCH   5   6
ATOM      6  C   UNL     1      -4.370  58.876  -6.356  1.00  0.00     0.000 C 
BRANCH   6   7
ATOM      7  C   UNL     1      -4.512  59.663  -5.043  1.00  0.00     0.000 C 
BRANCH   7   8
ATOM      8  C   UNL     1      -3.642  60.927  -5.011  1.00  0.00     0.000 C 
BRANCH   8   9
ATOM      9  C   UNL     1      -2.302  60.650  -4.310  1.00  0.00     0.000 C 
BRANCH   9  10
ATOM     10  C   UNL     1      -2.448  59.727  -3.090  1.00  0.00     0.000 C 
BRANCH  10  11
ATOM     11  C   UNL     1      -1.340  59.949  -2.047  1.00  0.00     0.000 C 
BRANCH  11  12
ATOM     12  C   UNL     1      -0.000  60.367  -2.682  1.00  0.00     0.006 C 
BRANCH  12  13
ATOM     13  C   UNL     1       1.192  60.355  -1.712  1.00  0.00     0.053 C 
BRANCH  13  14
ATOM     14  C   UNL     1       1.133  61.489  -0.736  1.00  0.00     0.041 C 
ATOM     15  O   UNL     1       1.000  62.673  -1.146  1.00  0.00    -0.550 OA
ATOM     16  O   UNL     1       1.267  61.242   0.625  1.00  0.00    -0.550 OA
ENDBRANCH  13  14
ENDBRANCH  12  13
ENDBRANCH  11  12
ENDBRANCH  10  11
ENDBRANCH   9  10
ENDBRANCH   8   9
ENDBRANCH   7   8
ENDBRANCH   6   7
ENDBRANCH   5   6
ENDBRANCH   4   5
ENDBRANCH   3   4
ENDBRANCH   2   3
ENDBRANCH   1   2
BRANCH   1  17
ATOM     17  C   UNL     1       2.479  58.880  -6.445  1.00  0.00     0.000 C 
BRANCH  17  18
ATOM     18  C   UNL     1       3.093  60.081  -5.708  1.00  0.00     0.000 C 
BRANCH  18  19
ATOM     19  C   UNL     1       3.347  61.287  -6.630  1.00  0.00     0.000 C 
BRANCH  19  20
ATOM     20  C   UNL     1       2.866  62.642  -6.077  1.00  0.00     0.000 C 
BRANCH  20  21
ATOM     21  C   UNL     1       2.312  63.573  -7.170  1.00  0.00     0.000 C 
BRANCH  21  22
ATOM     22  C   UNL     1       1.472  64.725  -6.596  1.00  0.00    -0.000 C 
BRANCH  22  23
ATOM     23  C   UNL     1       1.689  66.045  -7.355  1.00  0.00    -0.000 C 
BRANCH  23  24
ATOM     24  C   UNL     1       1.350  67.284  -6.504  1.00  0.00    -0.000 C 
BRANCH  24  25
ATOM     25  C   UNL     1       0.003  67.937  -6.867  1.00  0.00    -0.000 C 
BRANCH  25  26
ATOM     26  C   UNL     1      -0.527  68.872  -5.755  1.00  0.00    -0.000 C 
BRANCH  26  27
ATOM     27  C   UNL     1      -2.046  68.746  -5.545  1.00  0.00    -0.000 C 
BRANCH  27  28
ATOM     28  C   UNL     1      -2.760  70.092  -5.291  1.00  0.00    -0.000 C 
BRANCH  28  29
ATOM     29  C   UNL     1      -3.828  70.463  -6.337  1.00  0.00    -0.003 C 
ATOM     30  C   UNL     1      -4.424  71.853  -6.117  1.00  0.00     0.004 C 
ENDBRANCH  28  29
ENDBRANCH  27  28
ENDBRANCH  26  27
ENDBRANCH  25  26
ENDBRANCH  24  25
ENDBRANCH  23  24
ENDBRANCH  22  23
ENDBRANCH  21  22
ENDBRANCH  20  21
ENDBRANCH  19  20
ENDBRANCH  18  19
ENDBRANCH  17  18
ENDBRANCH   1  17
TORSDOF 26
ENDMDL
MODEL 3
REMARK VINA RESULT:     7.708     13.780     18.482
REMARK INTER + INTRA:          18.280
REMARK INTER:                  18.984
REMARK INTRA:                  -0.704
REMARK UNBOUND:                -1.145
REMARK SMILES CCCCCCCCCCCCCCCCCCCCCCCCCCCC(=O)[O-]
REMARK SMILES IDX 15 1 16 2 17 3 18 4 19 5 20 6 21 7 22 8 23 9 24 10 25 11
REMARK SMILES IDX 26 12 27 13 28 14 29 15 30 16 14 17 13 18 12 19 11 20 10 21
REMARK SMILES IDX 9 22 8 23 7 24 6 25 5 26 4 27 3 28 2 29 1 30
REMARK H PARENT
REMARK Flexibility Score: inf
ROOT
ATOM      1  C   UNL     1       4.071  77.876   4.016  1.00  0.00     0.000 C 
ENDROOT
BRANCH   1   2
ATOM      2  C   UNL     1       2.976  77.263   4.905  1.00  0.00     0.000 C 
BRANCH   2   3
ATOM      3  C   UNL     1       1.842  78.253   5.231  1.00  0.00     0.000 C 
BRANCH   3   4
ATOM      4  C   UNL     1       0.460  77.610   5.445  1.00  0.00     0.000 C 
BRANCH   4   5
ATOM      5  C   UNL     1       0.053  76.664   4.304  1.00  0.00     0.000 C 
BRANCH   5   6
ATOM      6  C   UNL     1      -1.476  76.563   4.196  1.00  0.00     0.000 C 
BRANCH   6   7
ATOM      7  C   UNL     1      -1.931  75.801   2.940  1.00  0.00     0.000 C 
BRANCH   7   8
ATOM      8  C   UNL     1      -2.805  74.583   3.269  1.00  0.00     0.000 C 
BRANCH   8   9
ATOM      9  C   UNL     1      -2.931  74.396   4.790  1.00  0.00     0.000 C 
BRANCH   9  10
ATOM     10  C   UNL     1      -3.430  72.994   5.177  1.00  0.00     0.000 C 
BRANCH  10  11
ATOM     11  C   UNL     1      -2.303  72.095   5.712  1.00  0.00     0.000 C 
BRANCH  11  12
ATOM     12  C   UNL     1      -2.821  70.973   6.630  1.00  0.00     0.006 C 
BRANCH  12  13
ATOM     13  C   UNL     1      -4.165  70.366   6.193  1.00  0.00     0.053 C 
BRANCH  13  14
ATOM     14  C   UNL     1      -3.982  69.118   5.387  1.00  0.00     0.041 C 
ATOM     15  O   UNL     1      -4.182  67.989   5.911  1.00  0.00    -0.550 OA
ATOM     16  O   UNL     1      -3.550  69.199   4.069  1.00  0.00    -0.550 OA
ENDBRANCH  13  14
ENDBRANCH  12  13
ENDBRANCH  11  12
ENDBRANCH  10  11
ENDBRANCH   9  10
ENDBRANCH   8   9
ENDBRANCH   7   8
ENDBRANCH   6   7
ENDBRANCH   5   6
ENDBRANCH   4   5
ENDBRANCH   3   4
ENDBRANCH   2   3
ENDBRANCH   1   2
BRANCH   1  17
ATOM     17  C   UNL     1       5.042  76.828   3.450  1.00  0.00     0.000 C 
BRANCH  17  18
ATOM     18  C   UNL     1       6.168  77.456   2.613  1.00  0.00     0.000 C 
BRANCH  18  19
ATOM     19  C   UNL     1       7.126  78.325   3.447  1.00  0.00     0.000 C 
BRANCH  19  20
ATOM     20  C   UNL     1       8.041  77.545   4.410  1.00  0.00     0.000 C 
BRANCH  20  21
ATOM     21  C   UNL     1       7.711  77.801   5.892  1.00  0.00     0.000 C 
BRANCH  21  22
ATOM     22  C   UNL     1       6.206  77.990   6.138  1.00  0.00    -0.000 C 
BRANCH  22  23
ATOM     23  C   UNL     1       5.771  77.488   7.526  1.00  0.00    -0.000 C 
BRANCH  23  24
ATOM     24  C   UNL     1       4.240  77.407   7.677  1.00  0.00    -0.000 C 
BRANCH  24  25
ATOM     25  C   UNL     1       3.572  78.765   7.966  1.00  0.00    -0.000 C 
BRANCH  25  26
ATOM     26  C   UNL     1       3.540  79.107   9.474  1.00  0.00    -0.000 C 
BRANCH  26  27
ATOM     27  C   UNL     1       3.709  77.868  10.370  1.00  0.00    -0.000 C 
BRANCH  27  28
ATOM     28  C   UNL     1       4.065  78.196  11.837  1.00  0.00    -0.000 C 
BRANCH  28  29
ATOM     29  C   UNL     1       5.574  78.326  12.121  1.00  0.00    -0.003 C 
ATOM     30  C   UNL     1       6.305  76.985  12.098  1.00  0.00     0.004 C 
ENDBRANCH  28  29
ENDBRANCH  27  28
ENDBRANCH  26  27
ENDBRANCH  25  26
ENDBRANCH  24  25
ENDBRANCH  23  24
ENDBRANCH  22  23
ENDBRANCH  21  22
ENDBRANCH  20  21
ENDBRANCH  19  20
ENDBRANCH  18  19
ENDBRANCH  17  18
ENDBRANCH   1  17
TORSDOF 26
ENDMDL
MODEL 4
REMARK VINA RESULT:     7.746     13.641     19.248
REMARK INTER + INTRA:          18.376
REMARK INTER:                  18.692
REMARK INTRA:                  -0.316
REMARK UNBOUND:                -1.145
REMARK SMILES CCCCCCCCCCCCCCCCCCCCCCCCCCCC(=O)[O-]
REMARK SMILES IDX 15 1 16 2 17 3 18 4 19 5 20 6 21 7 22 8 23 9 24 10 25 11
REMARK SMILES IDX 26 12 27 13 28 14 29 15 30 16 14 17 13 18 12 19 11 20 10 21
REMARK SMILES IDX 9 22 8 23 7 24 6 25 5 26 4 27 3 28 2 29 1 30
REMARK H PARENT
REMARK Flexibility Score: inf
ROOT
ATOM      1  C   UNL     1       2.979  77.531   5.637  1.00  0.00     0.000 C 
ENDROOT
BRANCH   1   2
ATOM      2  C   UNL     1       3.302  77.240   4.161  1.00  0.00     0.000 C 
BRANCH   2   3
ATOM      3  C   UNL     1       4.803  77.003   3.910  1.00  0.00     0.000 C 
BRANCH   3   4
ATOM      4  C   UNL     1       5.309  77.455   2.528  1.00  0.00     0.000 C 
BRANCH   4   5
ATOM      5  C   UNL     1       6.564  78.338   2.606  1.00  0.00     0.000 C 
BRANCH   5   6
ATOM      6  C   UNL     1       7.783  77.520   3.060  1.00  0.00     0.000 C 
BRANCH   6   7
ATOM      7  C   UNL     1       8.566  78.203   4.193  1.00  0.00     0.000 C 
BRANCH   7   8
ATOM      8  C   UNL     1       7.658  78.688   5.332  1.00  0.00     0.000 C 
BRANCH   8   9
ATOM      9  C   UNL     1       7.046  77.498   6.088  1.00  0.00     0.000 C 
BRANCH   9  10
ATOM     10  C   UNL     1       5.988  77.928   7.118  1.00  0.00     0.000 C 
BRANCH  10  11
ATOM     11  C   UNL     1       4.911  76.852   7.340  1.00  0.00     0.000 C 
BRANCH  11  12
ATOM     12  C   UNL     1       3.836  77.287   8.354  1.00  0.00     0.006 C 
BRANCH  12  13
ATOM     13  C   UNL     1       4.221  78.512   9.199  1.00  0.00     0.053 C 
BRANCH  13  14
ATOM     14  C   UNL     1       4.098  78.242  10.667  1.00  0.00     0.041 C 
ATOM     15  O   UNL     1       4.901  77.456  11.237  1.00  0.00    -0.550 OA
ATOM     16  O   UNL     1       3.071  78.827  11.397  1.00  0.00    -0.550 OA
ENDBRANCH  13  14
ENDBRANCH  12  13
ENDBRANCH  11  12
ENDBRANCH  10  11
ENDBRANCH   9  10
ENDBRANCH   8   9
ENDBRANCH   7   8
ENDBRANCH   6   7
ENDBRANCH   5   6
ENDBRANCH   4   5
ENDBRANCH   3   4
ENDBRANCH   2   3
ENDBRANCH   1   2
BRANCH   1  17
ATOM     17  C   UNL     1       2.083  78.765   5.824  1.00  0.00     0.000 C 
BRANCH  17  18
ATOM     18  C   UNL     1       0.702  78.412   6.399  1.00  0.00     0.000 C 
BRANCH  18  19
ATOM     19  C   UNL     1       0.234  76.997   6.014  1.00  0.00     0.000 C 
BRANCH  19  20
ATOM     20  C   UNL     1      -0.383  76.876   4.608  1.00  0.00     0.000 C 
BRANCH  20  21
ATOM     21  C   UNL     1      -1.816  76.314   4.627  1.00  0.00     0.000 C 
BRANCH  21  22
ATOM     22  C   UNL     1      -2.264  75.788   3.255  1.00  0.00    -0.000 C 
BRANCH  22  23
ATOM     23  C   UNL     1      -3.181  74.558   3.369  1.00  0.00    -0.000 C 
BRANCH  23  24
ATOM     24  C   UNL     1      -3.196  73.956   4.788  1.00  0.00    -0.000 C 
BRANCH  24  25
ATOM     25  C   UNL     1      -2.935  72.439   4.822  1.00  0.00    -0.000 C 
BRANCH  25  26
ATOM     26  C   UNL     1      -2.293  71.971   6.149  1.00  0.00    -0.000 C 
BRANCH  26  27
ATOM     27  C   UNL     1      -3.013  70.758   6.764  1.00  0.00    -0.000 C 
BRANCH  27  28
ATOM     28  C   UNL     1      -4.267  70.308   5.984  1.00  0.00    -0.000 C 
BRANCH  28  29
ATOM     29  C   UNL     1      -4.184  68.889   5.392  1.00  0.00    -0.003 C 
ATOM     30  C   UNL     1      -3.490  68.846   4.032  1.00  0.00     0.004 C 
ENDBRANCH  28  29
ENDBRANCH  27  28
ENDBRANCH  26  27
ENDBRANCH  25  26
ENDBRANCH  24  25
ENDBRANCH  23  24
ENDBRANCH  22  23
ENDBRANCH  21  22
ENDBRANCH  20  21
ENDBRANCH  19  20
ENDBRANCH  18  19
ENDBRANCH  17  18
ENDBRANCH   1  17
TORSDOF 26
ENDMDL
MODEL 5
REMARK VINA RESULT:     7.822      3.090      5.874
REMARK INTER + INTRA:          18.566
REMARK INTER:                  17.899
REMARK INTRA:                   0.667
REMARK UNBOUND:                -1.145
REMARK SMILES CCCCCCCCCCCCCCCCCCCCCCCCCCCC(=O)[O-]
REMARK SMILES IDX 15 1 16 2 17 3 18 4 19 5 20 6 21 7 22 8 23 9 24 10 25 11
REMARK SMILES IDX 26 12 27 13 28 14 29 15 30 16 14 17 13 18 12 19 11 20 10 21
REMARK SMILES IDX 9 22 8 23 7 24 6 25 5 26 4 27 3 28 2 29 1 30
REMARK H PARENT
REMARK Flexibility Score: inf
ROOT
ATOM      1  C   UNL     1       2.517  61.537  -6.710  1.00  0.00     0.000 C 
ENDROOT
BRANCH   1   2
ATOM      2  C   UNL     1       3.935  61.243  -7.230  1.00  0.00     0.000 C 
BRANCH   2   3
ATOM      3  C   UNL     1       4.250  59.737  -7.294  1.00  0.00     0.000 C 
BRANCH   3   4
ATOM      4  C   UNL     1       3.659  58.900  -6.144  1.00  0.00     0.000 C 
BRANCH   4   5
ATOM      5  C   UNL     1       2.154  59.134  -5.942  1.00  0.00     0.000 C 
BRANCH   5   6
ATOM      6  C   UNL     1       1.885  59.847  -4.608  1.00  0.00     0.000 C 
BRANCH   6   7
ATOM      7  C   UNL     1       0.387  60.069  -4.348  1.00  0.00     0.000 C 
BRANCH   7   8
ATOM      8  C   UNL     1       0.085  60.424  -2.885  1.00  0.00     0.000 C 
BRANCH   8   9
ATOM      9  C   UNL     1      -1.320  59.946  -2.485  1.00  0.00     0.000 C 
BRANCH   9  10
ATOM     10  C   UNL     1      -2.407  60.400  -3.473  1.00  0.00     0.000 C 
BRANCH  10  11
ATOM     11  C   UNL     1      -3.312  59.242  -3.925  1.00  0.00     0.000 C 
BRANCH  11  12
ATOM     12  C   UNL     1      -3.674  59.318  -5.420  1.00  0.00     0.006 C 
BRANCH  12  13
ATOM     13  C   UNL     1      -3.778  60.748  -5.975  1.00  0.00     0.053 C 
BRANCH  13  14
ATOM     14  C   UNL     1      -4.505  60.792  -7.283  1.00  0.00     0.041 C 
ATOM     15  O   UNL     1      -4.658  61.888  -7.888  1.00  0.00    -0.550 OA
ATOM     16  O   UNL     1      -5.049  59.630  -7.815  1.00  0.00    -0.550 OA
ENDBRANCH  13  14
ENDBRANCH  12  13
ENDBRANCH  11  12
ENDBRANCH  10  11
ENDBRANCH   9  10
ENDBRANCH   8   9
ENDBRANCH   7   8
ENDBRANCH   6   7
ENDBRANCH   5   6
ENDBRANCH   4   5
ENDBRANCH   3   4
ENDBRANCH   2   3
ENDBRANCH   1   2
BRANCH   1  17
ATOM     17  C   UNL     1       2.296  63.020  -6.373  1.00  0.00     0.000 C 
BRANCH  17  18
ATOM     18  C   UNL     1       2.105  63.890  -7.626  1.00  0.00     0.000 C 
BRANCH  18  19
ATOM     19  C   UNL     1       2.287  65.393  -7.349  1.00  0.00     0.000 C 
BRANCH  19  20
ATOM     20  C   UNL     1       1.007  66.134  -6.917  1.00  0.00     0.000 C 
BRANCH  20  21
ATOM     21  C   UNL     1       1.167  67.666  -6.931  1.00  0.00     0.000 C 
BRANCH  21  22
ATOM     22  C   UNL     1      -0.086  68.386  -7.451  1.00  0.00    -0.000 C 
BRANCH  22  23
ATOM     23  C   UNL     1      -0.549  69.511  -6.510  1.00  0.00    -0.000 C 
BRANCH  23  24
ATOM     24  C   UNL     1      -1.048  68.982  -5.151  1.00  0.00    -0.000 C 
BRANCH  24  25
ATOM     25  C   UNL     1      -2.479  68.415  -5.193  1.00  0.00    -0.000 C 
BRANCH  25  26
ATOM     26  C   UNL     1      -3.562  69.518  -5.144  1.00  0.00    -0.000 C 
BRANCH  26  27
ATOM     27  C   UNL     1      -3.692  70.285  -6.472  1.00  0.00    -0.000 C 
BRANCH  27  28
ATOM     28  C   UNL     1      -5.096  70.878  -6.722  1.00  0.00    -0.000 C 
BRANCH  28  29
ATOM     29  C   UNL     1      -5.118  72.396  -6.983  1.00  0.00    -0.003 C 
ATOM     30  C   UNL     1      -4.604  73.215  -5.800  1.00  0.00     0.004 C 
ENDBRANCH  28  29
ENDBRANCH  27  28
ENDBRANCH  26  27
ENDBRANCH  25  26
ENDBRANCH  24  25
ENDBRANCH  23  24
ENDBRANCH  22  23
ENDBRANCH  21  22
ENDBRANCH  20  21
ENDBRANCH  19  20
ENDBRANCH  18  19
ENDBRANCH  17  18
ENDBRANCH   1  17
TORSDOF 26
ENDMDL
MODEL 6
REMARK VINA RESULT:     7.931     13.869     19.352
REMARK INTER + INTRA:          18.842
REMARK INTER:                  20.496
REMARK INTRA:                  -1.653
REMARK UNBOUND:                -1.145
REMARK SMILES CCCCCCCCCCCCCCCCCCCCCCCCCCCC(=O)[O-]
REMARK SMILES IDX 15 1 16 2 17 3 18 4 19 5 20 6 21 7 22 8 23 9 24 10 25 11
REMARK SMILES IDX 26 12 27 13 28 14 29 15 30 16 14 17 13 18 12 19 11 20 10 21
REMARK SMILES IDX 9 22 8 23 7 24 6 25 5 26 4 27 3 28 2 29 1 30
REMARK H PARENT
REMARK Flexibility Score: inf
ROOT
ATOM      1  C   UNL     1       4.058  77.177   4.368  1.00  0.00     0.000 C 
ENDROOT
BRANCH   1   2
ATOM      2  C   UNL     1       4.580  77.267   2.923  1.00  0.00     0.000 C 
BRANCH   2   3
ATOM      3  C   UNL     1       6.097  77.024   2.816  1.00  0.00     0.000 C 
BRANCH   3   4
ATOM      4  C   UNL     1       6.971  78.276   3.017  1.00  0.00     0.000 C 
BRANCH   4   5
ATOM      5  C   UNL     1       8.411  77.943   3.439  1.00  0.00     0.000 C 
BRANCH   5   6
ATOM      6  C   UNL     1       8.515  77.795   4.964  1.00  0.00     0.000 C 
BRANCH   6   7
ATOM      7  C   UNL     1       7.266  78.315   5.695  1.00  0.00     0.000 C 
BRANCH   7   8
ATOM      8  C   UNL     1       6.833  77.402   6.851  1.00  0.00     0.000 C 
BRANCH   8   9
ATOM      9  C   UNL     1       5.540  77.919   7.501  1.00  0.00     0.000 C 
BRANCH   9  10
ATOM     10  C   UNL     1       4.422  76.863   7.526  1.00  0.00     0.000 C 
BRANCH  10  11
ATOM     11  C   UNL     1       3.330  77.186   8.558  1.00  0.00     0.000 C 
BRANCH  11  12
ATOM     12  C   UNL     1       3.610  78.487   9.335  1.00  0.00     0.006 C 
BRANCH  12  13
ATOM     13  C   UNL     1       3.437  78.366  10.857  1.00  0.00     0.053 C 
BRANCH  13  14
ATOM     14  C   UNL     1       4.466  77.466  11.469  1.00  0.00     0.041 C 
ATOM     15  O   UNL     1       4.111  76.450  12.125  1.00  0.00    -0.550 OA
ATOM     16  O   UNL     1       5.816  77.772  11.350  1.00  0.00    -0.550 OA
ENDBRANCH  13  14
ENDBRANCH  12  13
ENDBRANCH  11  12
ENDBRANCH  10  11
ENDBRANCH   9  10
ENDBRANCH   8   9
ENDBRANCH   7   8
ENDBRANCH   6   7
ENDBRANCH   5   6
ENDBRANCH   4   5
ENDBRANCH   3   4
ENDBRANCH   2   3
ENDBRANCH   1   2
BRANCH   1  17
ATOM     17  C   UNL     1       2.538  77.379   4.471  1.00  0.00     0.000 C 
BRANCH  17  18
ATOM     18  C   UNL     1       2.127  78.136   5.745  1.00  0.00     0.000 C 
BRANCH  18  19
ATOM     19  C   UNL     1       0.620  78.040   6.041  1.00  0.00     0.000 C 
BRANCH  19  20
ATOM     20  C   UNL     1      -0.054  76.736   5.575  1.00  0.00     0.000 C 
BRANCH  20  21
ATOM     21  C   UNL     1      -0.844  76.903   4.264  1.00  0.00     0.000 C 
BRANCH  21  22
ATOM     22  C   UNL     1      -1.223  75.557   3.626  1.00  0.00    -0.000 C 
BRANCH  22  23
ATOM     23  C   UNL     1      -2.743  75.397   3.454  1.00  0.00    -0.000 C 
BRANCH  23  24
ATOM     24  C   UNL     1      -3.395  74.618   4.613  1.00  0.00    -0.000 C 
BRANCH  24  25
ATOM     25  C   UNL     1      -2.979  73.137   4.677  1.00  0.00    -0.000 C 
BRANCH  25  26
ATOM     26  C   UNL     1      -2.506  72.708   6.086  1.00  0.00    -0.000 C 
BRANCH  26  27
ATOM     27  C   UNL     1      -2.527  71.182   6.283  1.00  0.00    -0.000 C 
BRANCH  27  28
ATOM     28  C   UNL     1      -3.944  70.571   6.320  1.00  0.00    -0.000 C 
BRANCH  28  29
ATOM     29  C   UNL     1      -4.072  69.196   5.638  1.00  0.00    -0.003 C 
ATOM     30  C   UNL     1      -3.685  69.222   4.160  1.00  0.00     0.004 C 
ENDBRANCH  28  29
ENDBRANCH  27  28
ENDBRANCH  26  27
ENDBRANCH  25  26
ENDBRANCH  24  25
ENDBRANCH  23  24
ENDBRANCH  22  23
ENDBRANCH  21  22
ENDBRANCH  20  21
ENDBRANCH  19  20
ENDBRANCH  18  19
ENDBRANCH  17  18
ENDBRANCH   1  17
TORSDOF 26
ENDMDL
MODEL 7
REMARK VINA RESULT:     8.328      1.808      4.804
REMARK INTER + INTRA:          19.842
REMARK INTER:                  18.900
REMARK INTRA:                   0.941
REMARK UNBOUND:                -1.145
REMARK SMILES CCCCCCCCCCCCCCCCCCCCCCCCCCCC(=O)[O-]
REMARK SMILES IDX 15 1 16 2 17 3 18 4 19 5 20 6 21 7 22 8 23 9 24 10 25 11
REMARK SMILES IDX 26 12 27 13 28 14 29 15 30 16 14 17 13 18 12 19 11 20 10 21
REMARK SMILES IDX 9 22 8 23 7 24 6 25 5 26 4 27 3 28 2 29 1 30
REMARK H PARENT
REMARK Flexibility Score: inf
ROOT
ATOM      1  C   UNL     1       2.625  61.703  -6.273  1.00  0.00     0.000 C 
ENDROOT
BRANCH   1   2
ATOM      2  C   UNL     1       2.344  61.341  -7.742  1.00  0.00     0.000 C 
BRANCH   2   3
ATOM      3  C   UNL     1       2.504  59.838  -8.032  1.00  0.00     0.000 C 
BRANCH   3   4
ATOM      4  C   UNL     1       2.193  58.910  -6.843  1.00  0.00     0.000 C 
BRANCH   4   5
ATOM      5  C   UNL     1       0.703  58.891  -6.468  1.00  0.00     0.000 C 
BRANCH   5   6
ATOM      6  C   UNL     1      -0.178  58.967  -7.724  1.00  0.00     0.000 C 
BRANCH   6   7
ATOM      7  C   UNL     1      -1.678  58.876  -7.401  1.00  0.00     0.000 C 
BRANCH   7   8
ATOM      8  C   UNL     1      -2.443  60.156  -7.768  1.00  0.00     0.000 C 
BRANCH   8   9
ATOM      9  C   UNL     1      -3.750  60.261  -6.966  1.00  0.00     0.000 C 
BRANCH   9  10
ATOM     10  C   UNL     1      -4.052  58.992  -6.152  1.00  0.00     0.000 C 
BRANCH  10  11
ATOM     11  C   UNL     1      -3.873  59.206  -4.639  1.00  0.00     0.000 C 
BRANCH  11  12
ATOM     12  C   UNL     1      -2.393  59.307  -4.224  1.00  0.00     0.006 C 
BRANCH  12  13
ATOM     13  C   UNL     1      -2.173  59.675  -2.748  1.00  0.00     0.053 C 
BRANCH  13  14
ATOM     14  C   UNL     1      -0.786  60.181  -2.496  1.00  0.00     0.041 C 
ATOM     15  O   UNL     1      -0.135  60.735  -3.423  1.00  0.00    -0.550 OA
ATOM     16  O   UNL     1      -0.197  60.005  -1.251  1.00  0.00    -0.550 OA
ENDBRANCH  13  14
ENDBRANCH  12  13
ENDBRANCH  11  12
ENDBRANCH  10  11
ENDBRANCH   9  10
ENDBRANCH   8   9
ENDBRANCH   7   8
ENDBRANCH   6   7
ENDBRANCH   5   6
ENDBRANCH   4   5
ENDBRANCH   3   4
ENDBRANCH   2   3
ENDBRANCH   1   2
BRANCH   1  17
ATOM     17  C   UNL     1       2.609  63.217  -6.014  1.00  0.00     0.000 C 
BRANCH  17  18
ATOM     18  C   UNL     1       2.107  64.020  -7.225  1.00  0.00     0.000 C 
BRANCH  18  19
ATOM     19  C   UNL     1       2.083  65.538  -6.972  1.00  0.00     0.000 C 
BRANCH  19  20
ATOM     20  C   UNL     1       0.766  66.241  -7.353  1.00  0.00     0.000 C 
BRANCH  20  21
ATOM     21  C   UNL     1       0.781  67.750  -7.051  1.00  0.00     0.000 C 
BRANCH  21  22
ATOM     22  C   UNL     1      -0.603  68.289  -6.657  1.00  0.00    -0.000 C 
BRANCH  22  23
ATOM     23  C   UNL     1      -0.519  69.634  -5.916  1.00  0.00    -0.000 C 
BRANCH  23  24
ATOM     24  C   UNL     1      -1.344  69.648  -4.614  1.00  0.00    -0.000 C 
BRANCH  24  25
ATOM     25  C   UNL     1      -2.701  68.929  -4.731  1.00  0.00    -0.000 C 
BRANCH  25  26
ATOM     26  C   UNL     1      -3.263  68.941  -6.171  1.00  0.00    -0.000 C 
BRANCH  26  27
ATOM     27  C   UNL     1      -4.735  69.386  -6.233  1.00  0.00    -0.000 C 
BRANCH  27  28
ATOM     28  C   UNL     1      -4.967  70.682  -7.040  1.00  0.00    -0.000 C 
BRANCH  28  29
ATOM     29  C   UNL     1      -4.503  71.972  -6.339  1.00  0.00    -0.003 C 
ATOM     30  C   UNL     1      -3.327  71.747  -5.389  1.00  0.00     0.004 C 
ENDBRANCH  28  29
ENDBRANCH  27  28
ENDBRANCH  26  27
ENDBRANCH  25  26
ENDBRANCH  24  25
ENDBRANCH  23  24
ENDBRANCH  22  23
ENDBRANCH  21  22
ENDBRANCH  20  21
ENDBRANCH  19  20
ENDBRANCH  18  19
ENDBRANCH  17  18
ENDBRANCH   1  17
TORSDOF 26
ENDMDL
