MODEL 1
REMARK VINA RESULT:    -2.503      0.000      0.000
REMARK INTER + INTRA:          -6.075
REMARK INTER:                  -5.430
REMARK INTRA:                  -0.646
REMARK UNBOUND:                -0.646
REMARK SMILES CCCCCCCCCCCCCCCCCCCCCC(=O)[O-]
REMARK SMILES IDX 12 1 11 2 10 3 9 4 8 5 7 6 6 7 5 8 4 9 3 10 2 11 1 12 13 13
REMARK SMILES IDX 14 14 15 15 16 16 17 17 18 18 19 19 20 20 21 21 22 22 23 23
REMARK SMILES IDX 24 24
REMARK H PARENT
REMARK Flexibility Score: inf
ROOT
ATOM      1  C   UNL     1      -0.830 -22.211  16.376  1.00  0.00     0.000 C 
ENDROOT
BRANCH   1   2
ATOM      2  C   UNL     1      -2.282 -21.959  15.940  1.00  0.00     0.000 C 
BRANCH   2   3
ATOM      3  C   UNL     1      -3.220 -23.125  16.295  1.00  0.00     0.000 C 
BRANCH   3   4
ATOM      4  C   UNL     1      -4.719 -22.754  16.227  1.00  0.00    -0.000 C 
BRANCH   4   5
ATOM      5  C   UNL     1      -5.455 -22.954  17.563  1.00  0.00    -0.000 C 
BRANCH   5   6
ATOM      6  C   UNL     1      -6.664 -22.015  17.710  1.00  0.00    -0.000 C 
BRANCH   6   7
ATOM      7  C   UNL     1      -7.969 -22.740  17.344  1.00  0.00    -0.000 C 
BRANCH   7   8
ATOM      8  C   UNL     1      -9.199 -21.820  17.399  1.00  0.00    -0.000 C 
BRANCH   8   9
ATOM      9  C   UNL     1      -9.857 -21.794  18.788  1.00  0.00    -0.000 C 
BRANCH   9  10
ATOM     10  C   UNL     1     -10.485 -20.431  19.130  1.00  0.00    -0.000 C 
BRANCH  10  11
ATOM     11  C   UNL     1     -10.017 -19.818  20.462  1.00  0.00    -0.003 C 
ATOM     12  C   UNL     1     -10.350 -18.332  20.586  1.00  0.00     0.004 C 
ENDBRANCH  10  11
ENDBRANCH   9  10
ENDBRANCH   8   9
ENDBRANCH   7   8
ENDBRANCH   6   7
ENDBRANCH   5   6
ENDBRANCH   4   5
ENDBRANCH   3   4
ENDBRANCH   2   3
ENDBRANCH   1   2
BRANCH   1  13
ATOM     13  C   UNL     1       0.010 -22.898  15.279  1.00  0.00     0.000 C 
BRANCH  13  14
ATOM     14  C   UNL     1       1.529 -22.843  15.529  1.00  0.00     0.000 C 
BRANCH  14  15
ATOM     15  C   UNL     1       2.378 -22.470  14.304  1.00  0.00     0.000 C 
BRANCH  15  16
ATOM     16  C   UNL     1       3.816 -23.012  14.390  1.00  0.00     0.000 C 
BRANCH  16  17
ATOM     17  C   UNL     1       4.615 -22.762  13.099  1.00  0.00     0.000 C 
BRANCH  17  18
ATOM     18  C   UNL     1       6.103 -23.122  13.261  1.00  0.00     0.000 C 
BRANCH  18  19
ATOM     19  C   UNL     1       6.911 -22.017  13.960  1.00  0.00     0.000 C 
BRANCH  19  20
ATOM     20  C   UNL     1       8.412 -22.076  13.624  1.00  0.00     0.006 C 
BRANCH  20  21
ATOM     21  C   UNL     1       9.033 -20.676  13.511  1.00  0.00     0.053 C 
BRANCH  21  22
ATOM     22  C   UNL     1       8.534 -19.942  12.304  1.00  0.00     0.041 C 
ATOM     23  O   UNL     1       8.043 -18.790  12.418  1.00  0.00    -0.550 OA
ATOM     24  O   UNL     1       8.631 -20.527  11.047  1.00  0.00    -0.550 OA
ENDBRANCH  21  22
ENDBRANCH  20  21
ENDBRANCH  19  20
ENDBRANCH  18  19
ENDBRANCH  17  18
ENDBRANCH  16  17
ENDBRANCH  15  16
ENDBRANCH  14  15
ENDBRANCH  13  14
ENDBRANCH   1  13
TORSDOF 20
ENDMDL
MODEL 2
REMARK VINA RESULT:    -2.290      1.146      2.028
REMARK INTER + INTRA:          -5.613
REMARK INTER:                  -4.916
REMARK INTRA:                  -0.696
REMARK UNBOUND:                -0.646
REMARK SMILES CCCCCCCCCCCCCCCCCCCCCC(=O)[O-]
REMARK SMILES IDX 12 1 11 2 10 3 9 4 8 5 7 6 6 7 5 8 4 9 3 10 2 11 1 12 13 13
REMARK SMILES IDX 14 14 15 15 16 16 17 17 18 18 19 19 20 20 21 21 22 22 23 23
REMARK SMILES IDX 24 24
REMARK H PARENT
REMARK Flexibility Score: inf
ROOT
ATOM      1  C   UNL     1      -2.559 -23.125  16.187  1.00  0.00     0.000 C 
ENDROOT
BRANCH   1   2
ATOM      2  C   UNL     1      -3.900 -22.403  15.982  1.00  0.00     0.000 C 
BRANCH   2   3
ATOM      3  C   UNL     1      -5.014 -22.951  16.890  1.00  0.00     0.000 C 
BRANCH   3   4
ATOM      4  C   UNL     1      -6.201 -21.978  17.068  1.00  0.00    -0.000 C 
BRANCH   4   5
ATOM      5  C   UNL     1      -7.458 -22.651  17.647  1.00  0.00    -0.000 C 
BRANCH   5   6
ATOM      6  C   UNL     1      -8.683 -21.723  17.623  1.00  0.00    -0.000 C 
BRANCH   6   7
ATOM      7  C   UNL     1      -9.986 -22.533  17.710  1.00  0.00    -0.000 C 
BRANCH   7   8
ATOM      8  C   UNL     1     -10.969 -21.974  18.751  1.00  0.00    -0.000 C 
BRANCH   8   9
ATOM      9  C   UNL     1     -10.297 -21.681  20.102  1.00  0.00    -0.000 C 
BRANCH   9  10
ATOM     10  C   UNL     1     -10.682 -20.307  20.679  1.00  0.00    -0.000 C 
BRANCH  10  11
ATOM     11  C   UNL     1     -10.089 -19.997  22.065  1.00  0.00    -0.003 C 
ATOM     12  C   UNL     1     -10.365 -18.567  22.528  1.00  0.00     0.004 C 
ENDBRANCH  10  11
ENDBRANCH   9  10
ENDBRANCH   8   9
ENDBRANCH   7   8
ENDBRANCH   6   7
ENDBRANCH   5   6
ENDBRANCH   4   5
ENDBRANCH   3   4
ENDBRANCH   2   3
ENDBRANCH   1   2
BRANCH   1  13
ATOM     13  C   UNL     1      -1.367 -22.150  16.280  1.00  0.00     0.000 C 
BRANCH  13  14
ATOM     14  C   UNL     1      -0.183 -22.522  15.368  1.00  0.00     0.000 C 
BRANCH  14  15
ATOM     15  C   UNL     1       1.207 -22.222  15.951  1.00  0.00     0.000 C 
BRANCH  15  16
ATOM     16  C   UNL     1       2.318 -23.072  15.308  1.00  0.00     0.000 C 
BRANCH  16  17
ATOM     17  C   UNL     1       2.802 -22.490  13.969  1.00  0.00     0.000 C 
BRANCH  17  18
ATOM     18  C   UNL     1       4.131 -23.118  13.512  1.00  0.00     0.000 C 
BRANCH  18  19
ATOM     19  C   UNL     1       5.276 -22.882  14.509  1.00  0.00     0.000 C 
BRANCH  19  20
ATOM     20  C   UNL     1       6.606 -22.535  13.816  1.00  0.00     0.006 C 
BRANCH  20  21
ATOM     21  C   UNL     1       6.388 -21.822  12.473  1.00  0.00     0.053 C 
BRANCH  21  22
ATOM     22  C   UNL     1       7.686 -21.432  11.834  1.00  0.00     0.041 C 
ATOM     23  O   UNL     1       8.327 -22.262  11.139  1.00  0.00    -0.550 OA
ATOM     24  O   UNL     1       8.177 -20.142  11.991  1.00  0.00    -0.550 OA
ENDBRANCH  21  22
ENDBRANCH  20  21
ENDBRANCH  19  20
ENDBRANCH  18  19
ENDBRANCH  17  18
ENDBRANCH  16  17
ENDBRANCH  15  16
ENDBRANCH  14  15
ENDBRANCH  13  14
ENDBRANCH   1  13
TORSDOF 20
ENDMDL
MODEL 3
REMARK VINA RESULT:    -2.008      6.177     14.836
REMARK INTER + INTRA:          -5.002
REMARK INTER:                  -4.158
REMARK INTRA:                  -0.844
REMARK UNBOUND:                -0.646
REMARK SMILES CCCCCCCCCCCCCCCCCCCCCC(=O)[O-]
REMARK SMILES IDX 12 1 11 2 10 3 9 4 8 5 7 6 6 7 5 8 4 9 3 10 2 11 1 12 13 13
REMARK SMILES IDX 14 14 15 15 16 16 17 17 18 18 19 19 20 20 21 21 22 22 23 23
REMARK SMILES IDX 24 24
REMARK H PARENT
REMARK Flexibility Score: inf
ROOT
ATOM      1  C   UNL     1      -4.090 -23.120  16.331  1.00  0.00     0.000 C 
ENDROOT
BRANCH   1   2
ATOM      2  C   UNL     1      -2.797 -22.290  16.329  1.00  0.00     0.000 C 
BRANCH   2   3
ATOM      3  C   UNL     1      -1.556 -23.125  15.970  1.00  0.00     0.000 C 
BRANCH   3   4
ATOM      4  C   UNL     1      -0.291 -22.274  15.714  1.00  0.00    -0.000 C 
BRANCH   4   5
ATOM      5  C   UNL     1       0.965 -23.119  15.444  1.00  0.00    -0.000 C 
BRANCH   5   6
ATOM      6  C   UNL     1       1.928 -22.437  14.458  1.00  0.00    -0.000 C 
BRANCH   6   7
ATOM      7  C   UNL     1       3.303 -23.124  14.471  1.00  0.00    -0.000 C 
BRANCH   7   8
ATOM      8  C   UNL     1       4.373 -22.307  15.213  1.00  0.00    -0.000 C 
BRANCH   8   9
ATOM      9  C   UNL     1       5.801 -22.792  14.914  1.00  0.00    -0.000 C 
BRANCH   9  10
ATOM     10  C   UNL     1       6.333 -22.293  13.559  1.00  0.00    -0.000 C 
BRANCH  10  11
ATOM     11  C   UNL     1       7.827 -21.925  13.545  1.00  0.00    -0.003 C 
ATOM     12  C   UNL     1       8.659 -22.771  14.509  1.00  0.00     0.004 C 
ENDBRANCH  10  11
ENDBRANCH   9  10
ENDBRANCH   8   9
ENDBRANCH   7   8
ENDBRANCH   6   7
ENDBRANCH   5   6
ENDBRANCH   4   5
ENDBRANCH   3   4
ENDBRANCH   2   3
ENDBRANCH   1   2
BRANCH   1  13
ATOM     13  C   UNL     1      -5.359 -22.244  16.391  1.00  0.00     0.000 C 
BRANCH  13  14
ATOM     14  C   UNL     1      -6.404 -22.727  17.414  1.00  0.00     0.000 C 
BRANCH  14  15
ATOM     15  C   UNL     1      -7.863 -22.395  17.062  1.00  0.00     0.000 C 
BRANCH  15  16
ATOM     16  C   UNL     1      -8.870 -23.057  18.019  1.00  0.00     0.000 C 
BRANCH  16  17
ATOM     17  C   UNL     1     -10.311 -22.573  17.781  1.00  0.00     0.000 C 
BRANCH  17  18
ATOM     18  C   UNL     1     -10.364 -21.351  16.845  1.00  0.00     0.000 C 
BRANCH  18  19
ATOM     19  C   UNL     1     -11.073 -20.145  17.480  1.00  0.00     0.000 C 
BRANCH  19  20
ATOM     20  C   UNL     1     -11.119 -20.224  19.016  1.00  0.00     0.006 C 
BRANCH  20  21
ATOM     21  C   UNL     1     -10.006 -19.393  19.671  1.00  0.00     0.053 C 
BRANCH  21  22
ATOM     22  C   UNL     1     -10.552 -18.431  20.682  1.00  0.00     0.041 C 
ATOM     23  O   UNL     1     -10.844 -18.825  21.841  1.00  0.00    -0.550 OA
ATOM     24  O   UNL     1     -10.719 -17.092  20.348  1.00  0.00    -0.550 OA
ENDBRANCH  21  22
ENDBRANCH  20  21
ENDBRANCH  19  20
ENDBRANCH  18  19
ENDBRANCH  17  18
ENDBRANCH  16  17
ENDBRANCH  15  16
ENDBRANCH  14  15
ENDBRANCH  13  14
ENDBRANCH   1  13
TORSDOF 20
ENDMDL
MODEL 4
REMARK VINA RESULT:    -1.867      2.060      4.212
REMARK INTER + INTRA:          -4.696
REMARK INTER:                  -3.775
REMARK INTRA:                  -0.921
REMARK UNBOUND:                -0.646
REMARK SMILES CCCCCCCCCCCCCCCCCCCCCC(=O)[O-]
REMARK SMILES IDX 12 1 11 2 10 3 9 4 8 5 7 6 6 7 5 8 4 9 3 10 2 11 1 12 13 13
REMARK SMILES IDX 14 14 15 15 16 16 17 17 18 18 19 19 20 20 21 21 22 22 23 23
REMARK SMILES IDX 24 24
REMARK H PARENT
REMARK Flexibility Score: inf
ROOT
ATOM      1  C   UNL     1      -5.311 -21.481  15.938  1.00  0.00     0.000 C 
ENDROOT
BRANCH   1   2
ATOM      2  C   UNL     1      -5.738 -22.516  16.991  1.00  0.00     0.000 C 
BRANCH   2   3
ATOM      3  C   UNL     1      -7.119 -23.125  16.700  1.00  0.00     0.000 C 
BRANCH   3   4
ATOM      4  C   UNL     1      -8.142 -22.911  17.839  1.00  0.00    -0.000 C 
BRANCH   4   5
ATOM      5  C   UNL     1      -9.191 -21.832  17.519  1.00  0.00    -0.000 C 
BRANCH   5   6
ATOM      6  C   UNL     1     -10.136 -21.566  18.702  1.00  0.00    -0.000 C 
BRANCH   6   7
ATOM      7  C   UNL     1      -9.758 -22.435  19.912  1.00  0.00    -0.000 C 
BRANCH   7   8
ATOM      8  C   UNL     1     -10.574 -22.096  21.170  1.00  0.00    -0.000 C 
BRANCH   8   9
ATOM      9  C   UNL     1      -9.760 -21.304  22.207  1.00  0.00    -0.000 C 
BRANCH   9  10
ATOM     10  C   UNL     1     -10.194 -19.831  22.312  1.00  0.00    -0.000 C 
BRANCH  10  11
ATOM     11  C   UNL     1     -10.167 -19.051  20.986  1.00  0.00    -0.003 C 
ATOM     12  C   UNL     1     -10.272 -17.539  21.179  1.00  0.00     0.004 C 
ENDBRANCH  10  11
ENDBRANCH   9  10
ENDBRANCH   8   9
ENDBRANCH   7   8
ENDBRANCH   6   7
ENDBRANCH   5   6
ENDBRANCH   4   5
ENDBRANCH   3   4
ENDBRANCH   2   3
ENDBRANCH   1   2
BRANCH   1  13
ATOM     13  C   UNL     1      -3.911 -21.768  15.355  1.00  0.00     0.000 C 
BRANCH  13  14
ATOM     14  C   UNL     1      -3.012 -22.613  16.276  1.00  0.00     0.000 C 
BRANCH  14  15
ATOM     15  C   UNL     1      -1.652 -23.006  15.677  1.00  0.00     0.000 C 
BRANCH  15  16
ATOM     16  C   UNL     1      -0.481 -22.227  16.301  1.00  0.00     0.000 C 
BRANCH  16  17
ATOM     17  C   UNL     1       0.881 -22.658  15.729  1.00  0.00     0.000 C 
BRANCH  17  18
ATOM     18  C   UNL     1       0.883 -22.676  14.189  1.00  0.00     0.000 C 
BRANCH  18  19
ATOM     19  C   UNL     1       2.230 -23.125  13.601  1.00  0.00     0.000 C 
BRANCH  19  20
ATOM     20  C   UNL     1       3.412 -22.857  14.549  1.00  0.00     0.006 C 
BRANCH  20  21
ATOM     21  C   UNL     1       4.766 -23.097  13.866  1.00  0.00     0.053 C 
BRANCH  21  22
ATOM     22  C   UNL     1       5.912 -22.813  14.790  1.00  0.00     0.041 C 
ATOM     23  O   UNL     1       7.093 -22.821  14.358  1.00  0.00    -0.550 OA
ATOM     24  O   UNL     1       5.670 -22.520  16.127  1.00  0.00    -0.550 OA
ENDBRANCH  21  22
ENDBRANCH  20  21
ENDBRANCH  19  20
ENDBRANCH  18  19
ENDBRANCH  17  18
ENDBRANCH  16  17
ENDBRANCH  15  16
ENDBRANCH  14  15
ENDBRANCH  13  14
ENDBRANCH   1  13
TORSDOF 20
ENDMDL
MODEL 5
REMARK VINA RESULT:    -1.577      5.850     14.661
REMARK INTER + INTRA:          -4.066
REMARK INTER:                  -3.245
REMARK INTRA:                  -0.821
REMARK UNBOUND:                -0.646
REMARK SMILES CCCCCCCCCCCCCCCCCCCCCC(=O)[O-]
REMARK SMILES IDX 12 1 11 2 10 3 9 4 8 5 7 6 6 7 5 8 4 9 3 10 2 11 1 12 13 13
REMARK SMILES IDX 14 14 15 15 16 16 17 17 18 18 19 19 20 20 21 21 22 22 23 23
REMARK SMILES IDX 24 24
REMARK H PARENT
REMARK Flexibility Score: inf
ROOT
ATOM      1  C   UNL     1      -0.548 -22.675  16.298  1.00  0.00     0.000 C 
ENDROOT
BRANCH   1   2
ATOM      2  C   UNL     1       0.482 -22.786  15.163  1.00  0.00     0.000 C 
BRANCH   2   3
ATOM      3  C   UNL     1       1.820 -22.111  15.507  1.00  0.00     0.000 C 
BRANCH   3   4
ATOM      4  C   UNL     1       2.996 -23.105  15.643  1.00  0.00    -0.000 C 
BRANCH   4   5
ATOM      5  C   UNL     1       4.319 -22.430  16.044  1.00  0.00    -0.000 C 
BRANCH   5   6
ATOM      6  C   UNL     1       5.449 -22.714  15.042  1.00  0.00    -0.000 C 
BRANCH   6   7
ATOM      7  C   UNL     1       6.809 -22.787  15.754  1.00  0.00    -0.000 C 
BRANCH   7   8
ATOM      8  C   UNL     1       7.559 -21.445  15.749  1.00  0.00    -0.000 C 
BRANCH   8   9
ATOM      9  C   UNL     1       8.817 -21.473  14.866  1.00  0.00    -0.000 C 
BRANCH   9  10
ATOM     10  C   UNL     1       8.580 -22.155  13.506  1.00  0.00    -0.000 C 
BRANCH  10  11
ATOM     11  C   UNL     1       8.654 -21.215  12.289  1.00  0.00    -0.003 C 
ATOM     12  C   UNL     1       7.331 -20.509  11.998  1.00  0.00     0.004 C 
ENDBRANCH  10  11
ENDBRANCH   9  10
ENDBRANCH   8   9
ENDBRANCH   7   8
ENDBRANCH   6   7
ENDBRANCH   5   6
ENDBRANCH   4   5
ENDBRANCH   3   4
ENDBRANCH   2   3
ENDBRANCH   1   2
BRANCH   1  13
ATOM     13  C   UNL     1      -1.745 -21.772  15.930  1.00  0.00     0.000 C 
BRANCH  13  14
ATOM     14  C   UNL     1      -3.071 -22.534  15.755  1.00  0.00     0.000 C 
BRANCH  14  15
ATOM     15  C   UNL     1      -3.840 -22.812  17.056  1.00  0.00     0.000 C 
BRANCH  15  16
ATOM     16  C   UNL     1      -5.327 -23.125  16.813  1.00  0.00     0.000 C 
BRANCH  16  17
ATOM     17  C   UNL     1      -6.222 -21.883  16.969  1.00  0.00     0.000 C 
BRANCH  17  18
ATOM     18  C   UNL     1      -7.596 -22.071  16.300  1.00  0.00     0.000 C 
BRANCH  18  19
ATOM     19  C   UNL     1      -8.701 -22.439  17.303  1.00  0.00     0.000 C 
BRANCH  19  20
ATOM     20  C   UNL     1      -9.969 -21.586  17.129  1.00  0.00     0.006 C 
BRANCH  20  21
ATOM     21  C   UNL     1     -10.865 -21.622  18.375  1.00  0.00     0.053 C 
BRANCH  21  22
ATOM     22  C   UNL     1     -10.179 -21.033  19.570  1.00  0.00     0.041 C 
ATOM     23  O   UNL     1      -9.814 -19.829  19.564  1.00  0.00    -0.550 OA
ATOM     24  O   UNL     1      -9.960 -21.812  20.700  1.00  0.00    -0.550 OA
ENDBRANCH  21  22
ENDBRANCH  20  21
ENDBRANCH  19  20
ENDBRANCH  18  19
ENDBRANCH  17  18
ENDBRANCH  16  17
ENDBRANCH  15  16
ENDBRANCH  14  15
ENDBRANCH  13  14
ENDBRANCH   1  13
TORSDOF 20
ENDMDL
MODEL 6
REMARK VINA RESULT:    -1.433      1.711      4.324
REMARK INTER + INTRA:          -3.753
REMARK INTER:                  -2.705
REMARK INTRA:                  -1.048
REMARK UNBOUND:                -0.646
REMARK SMILES CCCCCCCCCCCCCCCCCCCCCC(=O)[O-]
REMARK SMILES IDX 12 1 11 2 10 3 9 4 8 5 7 6 6 7 5 8 4 9 3 10 2 11 1 12 13 13
REMARK SMILES IDX 14 14 15 15 16 16 17 17 18 18 19 19 20 20 21 21 22 22 23 23
REMARK SMILES IDX 24 24
REMARK H PARENT
REMARK Flexibility Score: inf
ROOT
ATOM      1  C   UNL     1       4.237 -22.922  15.412  1.00  0.00     0.000 C 
ENDROOT
BRANCH   1   2
ATOM      2  C   UNL     1       2.878 -23.074  14.711  1.00  0.00     0.000 C 
BRANCH   2   3
ATOM      3  C   UNL     1       1.692 -22.781  15.645  1.00  0.00     0.000 C 
BRANCH   3   4
ATOM      4  C   UNL     1       0.314 -23.022  14.987  1.00  0.00    -0.000 C 
BRANCH   4   5
ATOM      5  C   UNL     1      -0.838 -23.107  16.004  1.00  0.00    -0.000 C 
BRANCH   5   6
ATOM      6  C   UNL     1      -2.218 -23.000  15.335  1.00  0.00    -0.000 C 
BRANCH   6   7
ATOM      7  C   UNL     1      -3.162 -22.116  16.165  1.00  0.00    -0.000 C 
BRANCH   7   8
ATOM      8  C   UNL     1      -4.306 -22.910  16.816  1.00  0.00    -0.000 C 
BRANCH   8   9
ATOM      9  C   UNL     1      -5.691 -22.325  16.493  1.00  0.00    -0.000 C 
BRANCH   9  10
ATOM     10  C   UNL     1      -6.667 -22.402  17.681  1.00  0.00    -0.000 C 
BRANCH  10  11
ATOM     11  C   UNL     1      -8.127 -22.705  17.300  1.00  0.00    -0.003 C 
ATOM     12  C   UNL     1      -9.105 -22.483  18.454  1.00  0.00     0.004 C 
ENDBRANCH  10  11
ENDBRANCH   9  10
ENDBRANCH   8   9
ENDBRANCH   7   8
ENDBRANCH   6   7
ENDBRANCH   5   6
ENDBRANCH   4   5
ENDBRANCH   3   4
ENDBRANCH   2   3
ENDBRANCH   1   2
BRANCH   1  13
ATOM     13  C   UNL     1       4.166 -22.013  16.657  1.00  0.00     0.000 C 
BRANCH  13  14
ATOM     14  C   UNL     1       5.454 -21.211  16.920  1.00  0.00     0.000 C 
BRANCH  14  15
ATOM     15  C   UNL     1       6.502 -21.928  17.786  1.00  0.00     0.000 C 
BRANCH  15  16
ATOM     16  C   UNL     1       7.299 -22.985  17.001  1.00  0.00     0.000 C 
BRANCH  16  17
ATOM     17  C   UNL     1       8.744 -22.539  16.716  1.00  0.00     0.000 C 
BRANCH  17  18
ATOM     18  C   UNL     1       9.125 -22.722  15.236  1.00  0.00     0.000 C 
BRANCH  18  19
ATOM     19  C   UNL     1       8.584 -21.597  14.339  1.00  0.00     0.000 C 
BRANCH  19  20
ATOM     20  C   UNL     1       7.713 -22.124  13.185  1.00  0.00     0.006 C 
BRANCH  20  21
ATOM     21  C   UNL     1       7.091 -20.985  12.364  1.00  0.00     0.053 C 
BRANCH  21  22
ATOM     22  C   UNL     1       8.126 -20.005  11.901  1.00  0.00     0.041 C 
ATOM     23  O   UNL     1       9.114 -20.395  11.228  1.00  0.00    -0.550 OA
ATOM     24  O   UNL     1       7.985 -18.654  12.198  1.00  0.00    -0.550 OA
ENDBRANCH  21  22
ENDBRANCH  20  21
ENDBRANCH  19  20
ENDBRANCH  18  19
ENDBRANCH  17  18
ENDBRANCH  16  17
ENDBRANCH  15  16
ENDBRANCH  14  15
ENDBRANCH  13  14
ENDBRANCH   1  13
TORSDOF 20
ENDMDL
