MODEL 1
REMARK VINA RESULT:    -6.775      0.000      0.000
REMARK INTER + INTRA:          -8.192
REMARK INTER:                  -7.963
REMARK INTRA:                  -0.229
REMARK UNBOUND:                -0.229
REMARK SMILES O=c1c(O)c(-c2ccc(O)cc2)oc2cc(O)cc(O)c12
REMARK SMILES IDX 5 1 3 2 2 3 1 4 21 5 19 6 18 7 16 8 15 9 14 10 13 11 6 12
REMARK SMILES IDX 7 13 8 14 9 15 12 16 11 17 10 18 4 20 20 22 17 24
REMARK H PARENT 10 19 4 21 20 23 17 25
REMARK Flexibility Score: inf
ROOT
ATOM      1  C   UNL     1      23.100  16.347   4.055  1.00  0.00     0.180 A 
ATOM      2  C   UNL     1      24.129  15.422   3.804  1.00  0.00     0.208 A 
ATOM      3  C   UNL     1      23.791  14.118   3.410  1.00  0.00     0.238 A 
ATOM      4  O   UNL     1      24.715  13.279   3.239  1.00  0.00    -0.285 OA
ATOM      5  C   UNL     1      22.431  13.759   3.254  1.00  0.00     0.111 A 
ATOM      6  C   UNL     1      21.975  12.478   2.819  1.00  0.00     0.134 A 
ATOM      7  C   UNL     1      20.603  12.193   2.828  1.00  0.00     0.093 A 
ATOM      8  C   UNL     1      19.669  13.165   3.193  1.00  0.00     0.123 A 
ATOM      9  C   UNL     1      20.100  14.437   3.560  1.00  0.00     0.094 A 
ATOM     10  C   UNL     1      21.464  14.739   3.597  1.00  0.00     0.146 A 
ATOM     11  O   UNL     1      21.833  15.961   3.965  1.00  0.00    -0.452 OA
ENDROOT
BRANCH   1  12
ATOM     12  C   UNL     1      23.378  17.746   4.451  1.00  0.00     0.021 A 
ATOM     13  C   UNL     1      23.079  18.167   5.758  1.00  0.00     0.016 A 
ATOM     14  C   UNL     1      23.312  19.491   6.146  1.00  0.00     0.047 A 
ATOM     15  C   UNL     1      23.832  20.412   5.231  1.00  0.00     0.115 A 
ATOM     16  C   UNL     1      23.882  18.682   3.530  1.00  0.00     0.016 A 
ATOM     17  C   UNL     1      24.113  20.005   3.920  1.00  0.00     0.047 A 
BRANCH  15  18
ATOM     18  O   UNL     1      24.059  21.726   5.632  1.00  0.00    -0.508 OA
ATOM     19  H   UNL     1      23.816  22.045   6.563  1.00  0.00     0.293 HD
ENDBRANCH  15  18
ENDBRANCH   1  12
BRANCH   2  20
ATOM     20  O   UNL     1      25.465  15.790   3.986  1.00  0.00    -0.502 OA
ATOM     21  H   UNL     1      26.166  15.669   3.264  1.00  0.00     0.293 HD
ENDBRANCH   2  20
BRANCH   6  22
ATOM     22  O   UNL     1      22.818  11.468   2.348  1.00  0.00    -0.507 OA
ATOM     23  H   UNL     1      23.328  10.824   2.935  1.00  0.00     0.293 HD
ENDBRANCH   6  22
BRANCH   8  24
ATOM     24  O   UNL     1      18.305  12.878   3.183  1.00  0.00    -0.508 OA
ATOM     25  H   UNL     1      17.682  13.286   2.495  1.00  0.00     0.293 HD
ENDBRANCH   8  24
TORSDOF 5
ENDMDL
MODEL 2
REMARK VINA RESULT:    -6.301      1.389      6.384
REMARK INTER + INTRA:          -7.635
REMARK INTER:                  -7.794
REMARK INTRA:                   0.158
REMARK UNBOUND:                -0.229
REMARK SMILES O=c1c(O)c(-c2ccc(O)cc2)oc2cc(O)cc(O)c12
REMARK SMILES IDX 5 1 3 2 2 3 1 4 21 5 19 6 18 7 16 8 15 9 14 10 13 11 6 12
REMARK SMILES IDX 7 13 8 14 9 15 12 16 11 17 10 18 4 20 20 22 17 24
REMARK H PARENT 10 19 4 21 20 23 17 25
REMARK Flexibility Score: inf
ROOT
ATOM      1  C   UNL     1      21.551  15.116   3.702  1.00  0.00     0.180 A 
ATOM      2  C   UNL     1      22.849  14.690   3.373  1.00  0.00     0.208 A 
ATOM      3  C   UNL     1      23.941  15.498   3.729  1.00  0.00     0.238 A 
ATOM      4  O   UNL     1      25.097  15.138   3.383  1.00  0.00    -0.285 OA
ATOM      5  C   UNL     1      23.723  16.711   4.424  1.00  0.00     0.111 A 
ATOM      6  C   UNL     1      24.758  17.588   4.870  1.00  0.00     0.134 A 
ATOM      7  C   UNL     1      24.420  18.826   5.431  1.00  0.00     0.093 A 
ATOM      8  C   UNL     1      23.085  19.189   5.623  1.00  0.00     0.123 A 
ATOM      9  C   UNL     1      22.069  18.315   5.247  1.00  0.00     0.094 A 
ATOM     10  C   UNL     1      22.374  17.089   4.650  1.00  0.00     0.146 A 
ATOM     11  O   UNL     1      21.374  16.290   4.296  1.00  0.00    -0.452 OA
ENDROOT
BRANCH   1  12
ATOM     12  C   UNL     1      20.352  14.307   3.382  1.00  0.00     0.021 A 
ATOM     13  C   UNL     1      19.351  14.140   4.354  1.00  0.00     0.016 A 
ATOM     14  C   UNL     1      18.222  13.361   4.082  1.00  0.00     0.047 A 
ATOM     15  C   UNL     1      18.086  12.728   2.843  1.00  0.00     0.115 A 
ATOM     16  C   UNL     1      20.219  13.651   2.145  1.00  0.00     0.016 A 
ATOM     17  C   UNL     1      19.089  12.872   1.875  1.00  0.00     0.047 A 
BRANCH  15  18
ATOM     18  O   UNL     1      16.956  11.956   2.585  1.00  0.00    -0.508 OA
ATOM     19  H   UNL     1      16.391  12.105   1.756  1.00  0.00     0.293 HD
ENDBRANCH  15  18
ENDBRANCH   1  12
BRANCH   2  20
ATOM     20  O   UNL     1      23.041  13.500   2.667  1.00  0.00    -0.502 OA
ATOM     21  H   UNL     1      22.292  13.037   2.166  1.00  0.00     0.293 HD
ENDBRANCH   2  20
BRANCH   6  22
ATOM     22  O   UNL     1      26.120  17.282   4.809  1.00  0.00    -0.507 OA
ATOM     23  H   UNL     1      26.865  17.941   4.977  1.00  0.00     0.293 HD
ENDBRANCH   6  22
BRANCH   8  24
ATOM     24  O   UNL     1      22.758  20.416   6.198  1.00  0.00    -0.508 OA
ATOM     25  H   UNL     1      22.197  21.100   5.704  1.00  0.00     0.293 HD
ENDBRANCH   8  24
TORSDOF 5
ENDMDL
MODEL 3
REMARK VINA RESULT:    -6.297      1.288      3.174
REMARK INTER + INTRA:          -7.630
REMARK INTER:                  -7.353
REMARK INTRA:                  -0.277
REMARK UNBOUND:                -0.229
REMARK SMILES O=c1c(O)c(-c2ccc(O)cc2)oc2cc(O)cc(O)c12
REMARK SMILES IDX 5 1 3 2 2 3 1 4 21 5 19 6 18 7 16 8 15 9 14 10 13 11 6 12
REMARK SMILES IDX 7 13 8 14 9 15 12 16 11 17 10 18 4 20 20 22 17 24
REMARK H PARENT 10 19 4 21 20 23 17 25
REMARK Flexibility Score: inf
ROOT
ATOM      1  C   UNL     1      22.819  16.642   3.878  1.00  0.00     0.180 A 
ATOM      2  C   UNL     1      21.524  16.298   3.454  1.00  0.00     0.208 A 
ATOM      3  C   UNL     1      21.267  14.976   3.055  1.00  0.00     0.238 A 
ATOM      4  O   UNL     1      20.120  14.686   2.625  1.00  0.00    -0.285 OA
ATOM      5  C   UNL     1      22.303  14.012   3.101  1.00  0.00     0.111 A 
ATOM      6  C   UNL     1      22.145  12.635   2.759  1.00  0.00     0.134 A 
ATOM      7  C   UNL     1      23.269  11.800   2.716  1.00  0.00     0.093 A 
ATOM      8  C   UNL     1      24.534  12.279   3.067  1.00  0.00     0.123 A 
ATOM      9  C   UNL     1      24.688  13.605   3.460  1.00  0.00     0.094 A 
ATOM     10  C   UNL     1      23.592  14.471   3.477  1.00  0.00     0.146 A 
ATOM     11  O   UNL     1      23.785  15.732   3.847  1.00  0.00    -0.452 OA
ENDROOT
BRANCH   1  12
ATOM     12  C   UNL     1      23.160  18.008   4.336  1.00  0.00     0.021 A 
ATOM     13  C   UNL     1      23.863  18.870   3.477  1.00  0.00     0.016 A 
ATOM     14  C   UNL     1      24.215  20.157   3.898  1.00  0.00     0.047 A 
ATOM     15  C   UNL     1      23.884  20.592   5.185  1.00  0.00     0.115 A 
ATOM     16  C   UNL     1      22.848  18.445   5.637  1.00  0.00     0.016 A 
ATOM     17  C   UNL     1      23.202  19.731   6.055  1.00  0.00     0.047 A 
BRANCH  15  18
ATOM     18  O   UNL     1      24.241  21.876   5.590  1.00  0.00    -0.508 OA
ATOM     19  H   UNL     1      25.013  22.034   6.228  1.00  0.00     0.293 HD
ENDBRANCH  15  18
ENDBRANCH   1  12
BRANCH   2  20
ATOM     20  O   UNL     1      20.522  17.269   3.394  1.00  0.00    -0.502 OA
ATOM     21  H   UNL     1      20.597  18.159   3.873  1.00  0.00     0.293 HD
ENDBRANCH   2  20
BRANCH   6  22
ATOM     22  O   UNL     1      20.912  12.036   2.482  1.00  0.00    -0.507 OA
ATOM     23  H   UNL     1      20.021  12.506   2.534  1.00  0.00     0.293 HD
ENDBRANCH   6  22
BRANCH   8  24
ATOM     24  O   UNL     1      25.644  11.437   3.036  1.00  0.00    -0.508 OA
ATOM     25  H   UNL     1      25.719  10.683   2.364  1.00  0.00     0.293 HD
ENDBRANCH   8  24
TORSDOF 5
ENDMDL
MODEL 4
REMARK VINA RESULT:    -5.236      2.665      5.144
REMARK INTER + INTRA:          -6.383
REMARK INTER:                  -6.661
REMARK INTRA:                   0.278
REMARK UNBOUND:                -0.229
REMARK SMILES O=c1c(O)c(-c2ccc(O)cc2)oc2cc(O)cc(O)c12
REMARK SMILES IDX 5 1 3 2 2 3 1 4 21 5 19 6 18 7 16 8 15 9 14 10 13 11 6 12
REMARK SMILES IDX 7 13 8 14 9 15 12 16 11 17 10 18 4 20 20 22 17 24
REMARK H PARENT 10 19 4 21 20 23 17 25
REMARK Flexibility Score: inf
ROOT
ATOM      1  C   UNL     1      20.600  15.256   3.840  1.00  0.00     0.180 A 
ATOM      2  C   UNL     1      20.544  13.906   3.451  1.00  0.00     0.208 A 
ATOM      3  C   UNL     1      21.678  13.317   2.871  1.00  0.00     0.238 A 
ATOM      4  O   UNL     1      21.604  12.124   2.474  1.00  0.00    -0.285 OA
ATOM      5  C   UNL     1      22.860  14.078   2.702  1.00  0.00     0.111 A 
ATOM      6  C   UNL     1      24.081  13.572   2.163  1.00  0.00     0.134 A 
ATOM      7  C   UNL     1      25.145  14.449   1.921  1.00  0.00     0.093 A 
ATOM      8  C   UNL     1      25.055  15.802   2.260  1.00  0.00     0.123 A 
ATOM      9  C   UNL     1      23.889  16.293   2.842  1.00  0.00     0.094 A 
ATOM     10  C   UNL     1      22.797  15.450   3.062  1.00  0.00     0.146 A 
ATOM     11  O   UNL     1      21.701  15.961   3.609  1.00  0.00    -0.452 OA
ENDROOT
BRANCH   1  12
ATOM     12  C   UNL     1      19.454  15.939   4.481  1.00  0.00     0.021 A 
ATOM     13  C   UNL     1      19.313  17.331   4.344  1.00  0.00     0.016 A 
ATOM     14  C   UNL     1      18.251  17.999   4.960  1.00  0.00     0.047 A 
ATOM     15  C   UNL     1      17.325  17.290   5.732  1.00  0.00     0.115 A 
ATOM     16  C   UNL     1      18.531  15.234   5.275  1.00  0.00     0.016 A 
ATOM     17  C   UNL     1      17.469  15.906   5.891  1.00  0.00     0.047 A 
BRANCH  15  18
ATOM     18  O   UNL     1      16.272  17.970   6.339  1.00  0.00    -0.508 OA
ATOM     19  H   UNL     1      16.389  18.907   6.707  1.00  0.00     0.293 HD
ENDBRANCH  15  18
ENDBRANCH   1  12
BRANCH   2  20
ATOM     20  O   UNL     1      19.361  13.179   3.605  1.00  0.00    -0.502 OA
ATOM     21  H   UNL     1      18.871  12.763   2.821  1.00  0.00     0.293 HD
ENDBRANCH   2  20
BRANCH   6  22
ATOM     22  O   UNL     1      24.307  12.223   1.875  1.00  0.00    -0.507 OA
ATOM     23  H   UNL     1      25.207  11.769   1.920  1.00  0.00     0.293 HD
ENDBRANCH   6  22
BRANCH   8  24
ATOM     24  O   UNL     1      26.125  16.665   2.030  1.00  0.00    -0.508 OA
ATOM     25  H   UNL     1      26.016  17.671   2.085  1.00  0.00     0.293 HD
ENDBRANCH   8  24
TORSDOF 5
ENDMDL
MODEL 5
REMARK VINA RESULT:    -4.844      3.987      7.926
REMARK INTER + INTRA:          -5.922
REMARK INTER:                  -6.161
REMARK INTRA:                   0.239
REMARK UNBOUND:                -0.229
REMARK SMILES O=c1c(O)c(-c2ccc(O)cc2)oc2cc(O)cc(O)c12
REMARK SMILES IDX 5 1 3 2 2 3 1 4 21 5 19 6 18 7 16 8 15 9 14 10 13 11 6 12
REMARK SMILES IDX 7 13 8 14 9 15 12 16 11 17 10 18 4 20 20 22 17 24
REMARK H PARENT 10 19 4 21 20 23 17 25
REMARK Flexibility Score: inf
ROOT
ATOM      1  C   UNL     1      23.552  19.336   7.450  1.00  0.00     0.180 A 
ATOM      2  C   UNL     1      24.694  20.033   7.882  1.00  0.00     0.208 A 
ATOM      3  C   UNL     1      24.767  20.456   9.219  1.00  0.00     0.238 A 
ATOM      4  O   UNL     1      25.768  21.127   9.586  1.00  0.00    -0.285 OA
ATOM      5  C   UNL     1      23.708  20.162  10.110  1.00  0.00     0.111 A 
ATOM      6  C   UNL     1      23.694  20.507  11.496  1.00  0.00     0.134 A 
ATOM      7  C   UNL     1      22.537  20.283  12.252  1.00  0.00     0.093 A 
ATOM      8  C   UNL     1      21.417  19.667  11.689  1.00  0.00     0.123 A 
ATOM      9  C   UNL     1      21.442  19.273  10.354  1.00  0.00     0.094 A 
ATOM     10  C   UNL     1      22.568  19.516   9.564  1.00  0.00     0.146 A 
ATOM     11  O   UNL     1      22.546  19.134   8.292  1.00  0.00    -0.452 OA
ENDROOT
BRANCH   1  12
ATOM     12  C   UNL     1      23.412  18.837   6.063  1.00  0.00     0.021 A 
ATOM     13  C   UNL     1      22.818  17.584   5.835  1.00  0.00     0.016 A 
ATOM     14  C   UNL     1      22.698  17.083   4.534  1.00  0.00     0.047 A 
ATOM     15  C   UNL     1      23.181  17.819   3.449  1.00  0.00     0.115 A 
ATOM     16  C   UNL     1      23.915  19.564   4.968  1.00  0.00     0.016 A 
ATOM     17  C   UNL     1      23.794  19.060   3.669  1.00  0.00     0.047 A 
BRANCH  15  18
ATOM     18  O   UNL     1      23.053  17.308   2.160  1.00  0.00    -0.508 OA
ATOM     19  H   UNL     1      22.619  16.408   1.988  1.00  0.00     0.293 HD
ENDBRANCH  15  18
ENDBRANCH   1  12
BRANCH   2  20
ATOM     20  O   UNL     1      25.718  20.332   6.980  1.00  0.00    -0.502 OA
ATOM     21  H   UNL     1      26.668  20.003   7.107  1.00  0.00     0.293 HD
ENDBRANCH   2  20
BRANCH   6  22
ATOM     22  O   UNL     1      24.792  21.042  12.177  1.00  0.00    -0.507 OA
ATOM     23  H   UNL     1      25.669  21.293  11.747  1.00  0.00     0.293 HD
ENDBRANCH   6  22
BRANCH   8  24
ATOM     24  O   UNL     1      20.275  19.434  12.453  1.00  0.00    -0.508 OA
ATOM     25  H   UNL     1      19.400  19.154  12.027  1.00  0.00     0.293 HD
ENDBRANCH   8  24
TORSDOF 5
ENDMDL
MODEL 6
REMARK VINA RESULT:    -4.735      2.719      4.632
REMARK INTER + INTRA:          -5.794
REMARK INTER:                  -5.696
REMARK INTRA:                  -0.098
REMARK UNBOUND:                -0.229
REMARK SMILES O=c1c(O)c(-c2ccc(O)cc2)oc2cc(O)cc(O)c12
REMARK SMILES IDX 5 1 3 2 2 3 1 4 21 5 19 6 18 7 16 8 15 9 14 10 13 11 6 12
REMARK SMILES IDX 7 13 8 14 9 15 12 16 11 17 10 18 4 20 20 22 17 24
REMARK H PARENT 10 19 4 21 20 23 17 25
REMARK Flexibility Score: inf
ROOT
ATOM      1  C   UNL     1      23.693  18.578   5.733  1.00  0.00     0.180 A 
ATOM      2  C   UNL     1      22.387  18.730   5.234  1.00  0.00     0.208 A 
ATOM      3  C   UNL     1      21.981  17.949   4.141  1.00  0.00     0.238 A 
ATOM      4  O   UNL     1      20.829  18.129   3.664  1.00  0.00    -0.285 OA
ATOM      5  C   UNL     1      22.878  17.014   3.571  1.00  0.00     0.111 A 
ATOM      6  C   UNL     1      22.559  16.142   2.486  1.00  0.00     0.134 A 
ATOM      7  C   UNL     1      23.564  15.350   1.917  1.00  0.00     0.093 A 
ATOM      8  C   UNL     1      24.861  15.351   2.437  1.00  0.00     0.123 A 
ATOM      9  C   UNL     1      25.168  16.154   3.533  1.00  0.00     0.094 A 
ATOM     10  C   UNL     1      24.195  16.982   4.098  1.00  0.00     0.146 A 
ATOM     11  O   UNL     1      24.532  17.740   5.135  1.00  0.00    -0.452 OA
ENDROOT
BRANCH   1  12
ATOM     12  C   UNL     1      24.186  19.348   6.898  1.00  0.00     0.021 A 
ATOM     13  C   UNL     1      25.346  20.131   6.768  1.00  0.00     0.016 A 
ATOM     14  C   UNL     1      25.842  20.848   7.862  1.00  0.00     0.047 A 
ATOM     15  C   UNL     1      25.195  20.780   9.100  1.00  0.00     0.115 A 
ATOM     16  C   UNL     1      23.552  19.268   8.151  1.00  0.00     0.016 A 
ATOM     17  C   UNL     1      24.050  19.986   9.243  1.00  0.00     0.047 A 
BRANCH  15  18
ATOM     18  O   UNL     1      25.700  21.500  10.180  1.00  0.00    -0.508 OA
ATOM     19  H   UNL     1      26.695  21.668  10.286  1.00  0.00     0.293 HD
ENDBRANCH  15  18
ENDBRANCH   1  12
BRANCH   2  20
ATOM     20  O   UNL     1      21.526  19.675   5.797  1.00  0.00    -0.502 OA
ATOM     21  H   UNL     1      21.600  20.666   5.599  1.00  0.00     0.293 HD
ENDBRANCH   2  20
BRANCH   6  22
ATOM     22  O   UNL     1      21.275  15.996   1.953  1.00  0.00    -0.507 OA
ATOM     23  H   UNL     1      21.053  15.459   1.128  1.00  0.00     0.293 HD
ENDBRANCH   6  22
BRANCH   8  24
ATOM     24  O   UNL     1      25.853  14.548   1.875  1.00  0.00    -0.508 OA
ATOM     25  H   UNL     1      26.811  14.583   2.201  1.00  0.00     0.293 HD
ENDBRANCH   8  24
TORSDOF 5
ENDMDL
MODEL 7
REMARK VINA RESULT:    -4.672      5.844      9.263
REMARK INTER + INTRA:          -5.720
REMARK INTER:                  -6.095
REMARK INTRA:                   0.375
REMARK UNBOUND:                -0.229
REMARK SMILES O=c1c(O)c(-c2ccc(O)cc2)oc2cc(O)cc(O)c12
REMARK SMILES IDX 5 1 3 2 2 3 1 4 21 5 19 6 18 7 16 8 15 9 14 10 13 11 6 12
REMARK SMILES IDX 7 13 8 14 9 15 12 16 11 17 10 18 4 20 20 22 17 24
REMARK H PARENT 10 19 4 21 20 23 17 25
REMARK Flexibility Score: inf
ROOT
ATOM      1  C   UNL     1      21.277  19.730  10.701  1.00  0.00     0.180 A 
ATOM      2  C   UNL     1      22.340  20.185  11.500  1.00  0.00     0.208 A 
ATOM      3  C   UNL     1      23.596  20.394  10.907  1.00  0.00     0.238 A 
ATOM      4  O   UNL     1      24.558  20.750  11.638  1.00  0.00    -0.285 OA
ATOM      5  C   UNL     1      23.768  20.161   9.522  1.00  0.00     0.111 A 
ATOM      6  C   UNL     1      24.986  20.379   8.809  1.00  0.00     0.134 A 
ATOM      7  C   UNL     1      25.079  19.990   7.466  1.00  0.00     0.093 A 
ATOM      8  C   UNL     1      23.978  19.453   6.795  1.00  0.00     0.123 A 
ATOM      9  C   UNL     1      22.769  19.293   7.465  1.00  0.00     0.094 A 
ATOM     10  C   UNL     1      22.656  19.637   8.815  1.00  0.00     0.146 A 
ATOM     11  O   UNL     1      21.487  19.458   9.419  1.00  0.00    -0.452 OA
ENDROOT
BRANCH   1  12
ATOM     12  C   UNL     1      19.919  19.511  11.249  1.00  0.00     0.021 A 
ATOM     13  C   UNL     1      18.804  19.621  10.400  1.00  0.00     0.016 A 
ATOM     14  C   UNL     1      17.511  19.441  10.901  1.00  0.00     0.047 A 
ATOM     15  C   UNL     1      17.314  19.164  12.257  1.00  0.00     0.115 A 
ATOM     16  C   UNL     1      19.712  19.251  12.616  1.00  0.00     0.016 A 
ATOM     17  C   UNL     1      18.418  19.072  13.115  1.00  0.00     0.047 A 
BRANCH  15  18
ATOM     18  O   UNL     1      16.021  18.986  12.742  1.00  0.00    -0.508 OA
ATOM     19  H   UNL     1      15.706  18.088  13.092  1.00  0.00     0.293 HD
ENDBRANCH  15  18
ENDBRANCH   1  12
BRANCH   2  20
ATOM     20  O   UNL     1      22.155  20.387  12.870  1.00  0.00    -0.502 OA
ATOM     21  H   UNL     1      22.561  19.778  13.570  1.00  0.00     0.293 HD
ENDBRANCH   2  20
BRANCH   6  22
ATOM     22  O   UNL     1      26.115  20.992   9.360  1.00  0.00    -0.507 OA
ATOM     23  H   UNL     1      26.364  20.964  10.337  1.00  0.00     0.293 HD
ENDBRANCH   6  22
BRANCH   8  24
ATOM     24  O   UNL     1      24.075  19.083   5.454  1.00  0.00    -0.508 OA
ATOM     25  H   UNL     1      24.923  19.237   4.922  1.00  0.00     0.293 HD
ENDBRANCH   8  24
TORSDOF 5
ENDMDL
MODEL 8
REMARK VINA RESULT:    -4.636      2.191      6.708
REMARK INTER + INTRA:          -5.678
REMARK INTER:                  -5.575
REMARK INTRA:                  -0.104
REMARK UNBOUND:                -0.229
REMARK SMILES O=c1c(O)c(-c2ccc(O)cc2)oc2cc(O)cc(O)c12
REMARK SMILES IDX 5 1 3 2 2 3 1 4 21 5 19 6 18 7 16 8 15 9 14 10 13 11 6 12
REMARK SMILES IDX 7 13 8 14 9 15 12 16 11 17 10 18 4 20 20 22 17 24
REMARK H PARENT 10 19 4 21 20 23 17 25
REMARK Flexibility Score: inf
ROOT
ATOM      1  C   UNL     1      23.411  15.984   3.894  1.00  0.00     0.180 A 
ATOM      2  C   UNL     1      22.035  16.193   3.697  1.00  0.00     0.208 A 
ATOM      3  C   UNL     1      21.439  17.346   4.233  1.00  0.00     0.238 A 
ATOM      4  O   UNL     1      20.196  17.501   4.100  1.00  0.00    -0.285 OA
ATOM      5  C   UNL     1      22.227  18.282   4.944  1.00  0.00     0.111 A 
ATOM      6  C   UNL     1      21.735  19.504   5.495  1.00  0.00     0.134 A 
ATOM      7  C   UNL     1      22.577  20.290   6.292  1.00  0.00     0.093 A 
ATOM      8  C   UNL     1      23.910  19.932   6.502  1.00  0.00     0.123 A 
ATOM      9  C   UNL     1      24.416  18.773   5.920  1.00  0.00     0.094 A 
ATOM     10  C   UNL     1      23.591  17.948   5.150  1.00  0.00     0.146 A 
ATOM     11  O   UNL     1      24.110  16.846   4.622  1.00  0.00    -0.452 OA
ENDROOT
BRANCH   1  12
ATOM     12  C   UNL     1      24.115  14.806   3.339  1.00  0.00     0.021 A 
ATOM     13  C   UNL     1      23.781  13.520   3.799  1.00  0.00     0.016 A 
ATOM     14  C   UNL     1      24.450  12.395   3.305  1.00  0.00     0.047 A 
ATOM     15  C   UNL     1      25.468  12.541   2.359  1.00  0.00     0.115 A 
ATOM     16  C   UNL     1      25.155  14.947   2.402  1.00  0.00     0.016 A 
ATOM     17  C   UNL     1      25.822  13.820   1.910  1.00  0.00     0.047 A 
BRANCH  15  18
ATOM     18  O   UNL     1      26.125  11.412   1.875  1.00  0.00    -0.508 OA
ATOM     19  H   UNL     1      25.640  10.714   1.323  1.00  0.00     0.293 HD
ENDBRANCH  15  18
ENDBRANCH   1  12
BRANCH   2  20
ATOM     20  O   UNL     1      21.270  15.246   3.012  1.00  0.00    -0.502 OA
ATOM     21  H   UNL     1      21.674  14.407   2.611  1.00  0.00     0.293 HD
ENDBRANCH   2  20
BRANCH   6  22
ATOM     22  O   UNL     1      20.448  19.999   5.270  1.00  0.00    -0.507 OA
ATOM     23  H   UNL     1      20.215  20.703   4.586  1.00  0.00     0.293 HD
ENDBRANCH   6  22
BRANCH   8  24
ATOM     24  O   UNL     1      24.745  20.728   7.284  1.00  0.00    -0.508 OA
ATOM     25  H   UNL     1      25.425  21.353   6.866  1.00  0.00     0.293 HD
ENDBRANCH   8  24
TORSDOF 5
ENDMDL
MODEL 9
REMARK VINA RESULT:    -4.365      3.802      6.536
REMARK INTER + INTRA:          -5.359
REMARK INTER:                  -5.128
REMARK INTRA:                  -0.231
REMARK UNBOUND:                -0.229
REMARK SMILES O=c1c(O)c(-c2ccc(O)cc2)oc2cc(O)cc(O)c12
REMARK SMILES IDX 5 1 3 2 2 3 1 4 21 5 19 6 18 7 16 8 15 9 14 10 13 11 6 12
REMARK SMILES IDX 7 13 8 14 9 15 12 16 11 17 10 18 4 20 20 22 17 24
REMARK H PARENT 10 19 4 21 20 23 17 25
REMARK Flexibility Score: inf
ROOT
ATOM      1  C   UNL     1      22.866  19.424   8.281  1.00  0.00     0.180 A 
ATOM      2  C   UNL     1      24.073  20.040   7.907  1.00  0.00     0.208 A 
ATOM      3  C   UNL     1      24.470  19.996   6.561  1.00  0.00     0.238 A 
ATOM      4  O   UNL     1      25.578  20.502   6.240  1.00  0.00    -0.285 OA
ATOM      5  C   UNL     1      23.648  19.354   5.604  1.00  0.00     0.111 A 
ATOM      6  C   UNL     1      23.932  19.286   4.206  1.00  0.00     0.134 A 
ATOM      7  C   UNL     1      23.115  18.512   3.372  1.00  0.00     0.093 A 
ATOM      8  C   UNL     1      21.987  17.859   3.875  1.00  0.00     0.123 A 
ATOM      9  C   UNL     1      21.668  17.968   5.226  1.00  0.00     0.094 A 
ATOM     10  C   UNL     1      22.484  18.703   6.090  1.00  0.00     0.146 A 
ATOM     11  O   UNL     1      22.150  18.773   7.373  1.00  0.00    -0.452 OA
ENDROOT
BRANCH   1  12
ATOM     12  C   UNL     1      22.370  19.449   9.676  1.00  0.00     0.021 A 
ATOM     13  C   UNL     1      21.349  20.347  10.031  1.00  0.00     0.016 A 
ATOM     14  C   UNL     1      20.881  20.404  11.348  1.00  0.00     0.047 A 
ATOM     15  C   UNL     1      21.436  19.576  12.328  1.00  0.00     0.115 A 
ATOM     16  C   UNL     1      22.938  18.633  10.672  1.00  0.00     0.016 A 
ATOM     17  C   UNL     1      22.469  18.693  11.988  1.00  0.00     0.047 A 
BRANCH  15  18
ATOM     18  O   UNL     1      20.960  19.643  13.635  1.00  0.00    -0.508 OA
ATOM     19  H   UNL     1      20.114  20.152  13.864  1.00  0.00     0.293 HD
ENDBRANCH  15  18
ENDBRANCH   1  12
BRANCH   2  20
ATOM     20  O   UNL     1      24.881  20.648   8.871  1.00  0.00    -0.502 OA
ATOM     21  H   UNL     1      25.845  20.377   9.023  1.00  0.00     0.293 HD
ENDBRANCH   2  20
BRANCH   6  22
ATOM     22  O   UNL     1      24.979  19.975   3.588  1.00  0.00    -0.507 OA
ATOM     23  H   UNL     1      25.455  20.772   3.983  1.00  0.00     0.293 HD
ENDBRANCH   6  22
BRANCH   8  24
ATOM     24  O   UNL     1      21.170  17.103   3.035  1.00  0.00    -0.508 OA
ATOM     25  H   UNL     1      21.140  17.269   2.037  1.00  0.00     0.293 HD
ENDBRANCH   8  24
TORSDOF 5
ENDMDL
