MODEL 1
REMARK VINA RESULT:    -7.251      0.000      0.000
REMARK INTER + INTRA:         -11.599
REMARK INTER:                 -10.643
REMARK INTRA:                  -0.956
REMARK UNBOUND:                -0.956
REMARK SMILES O=c1c(O[C@@H]2O[C@H](CO)[C@@H](O)[C@@H](O)[C@H]2O)c(-c2ccc(O)c(O)c2)oc2cc(O)cc(O)c12
REMARK SMILES IDX 4 1 3 2 16 3 25 4 2 5 26 6 1 7 33 8 27 9 31 10 28 11 30 12
REMARK SMILES IDX 17 13 18 14 19 15 20 16 24 17 22 18 21 19 23 21 32 23 29 25
REMARK SMILES IDX 5 27 14 28 6 29 12 30 7 31 10 32 15 33 13 35 8 37 9 38 11 40
REMARK H PARENT 21 20 23 22 32 24 29 26 15 34 13 36 9 39 11 41
REMARK Flexibility Score: inf
ROOT
ATOM      1  O   UNL     1      14.979   2.493   1.456  1.00  0.00    -0.454 OA
ENDROOT
BRANCH   1   2
ATOM      2  C   UNL     1      13.823   3.023   0.829  1.00  0.00     0.214 A 
ATOM      3  C   UNL     1      13.577   2.680  -0.519  1.00  0.00     0.180 A 
ATOM      4  O   UNL     1      12.417   2.995  -1.087  1.00  0.00    -0.452 OA
ATOM      5  C   UNL     1      12.880   3.848   1.488  1.00  0.00     0.239 A 
ATOM      6  C   UNL     1      11.465   3.684  -0.468  1.00  0.00     0.146 A 
ATOM      7  O   UNL     1      13.113   4.285   2.647  1.00  0.00    -0.285 OA
ATOM      8  C   UNL     1      11.669   4.175   0.841  1.00  0.00     0.111 A 
ATOM      9  C   UNL     1      10.258   3.932  -1.126  1.00  0.00     0.094 A 
ATOM     10  C   UNL     1      10.651   4.965   1.449  1.00  0.00     0.134 A 
ATOM     11  C   UNL     1       9.252   4.683  -0.516  1.00  0.00     0.123 A 
ATOM     12  C   UNL     1       9.455   5.206   0.760  1.00  0.00     0.093 A 
BRANCH   3  13
ATOM     13  C   UNL     1      14.567   1.951  -1.340  1.00  0.00     0.025 A 
ATOM     14  C   UNL     1      14.178   0.846  -2.110  1.00  0.00     0.016 A 
ATOM     15  C   UNL     1      15.136   0.104  -2.819  1.00  0.00     0.051 A 
ATOM     16  C   UNL     1      16.493   0.443  -2.758  1.00  0.00     0.157 A 
ATOM     17  C   UNL     1      15.930   2.279  -1.258  1.00  0.00     0.062 A 
ATOM     18  C   UNL     1      16.899   1.531  -1.950  1.00  0.00     0.158 A 
BRANCH  16  19
ATOM     19  O   UNL     1      17.400  -0.304  -3.516  1.00  0.00    -0.504 OA
ATOM     20  H   UNL     1      17.132  -1.036  -4.166  1.00  0.00     0.293 HD
ENDBRANCH  16  19
BRANCH  18  21
ATOM     21  O   UNL     1      18.240   1.893  -1.805  1.00  0.00    -0.504 OA
ATOM     22  H   UNL     1      18.540   2.618  -1.164  1.00  0.00     0.293 HD
ENDBRANCH  18  21
ENDBRANCH   3  13
BRANCH  10  23
ATOM     23  O   UNL     1      10.836   5.525   2.710  1.00  0.00    -0.507 OA
ATOM     24  H   UNL     1      11.169   6.469   2.823  1.00  0.00     0.293 HD
ENDBRANCH  10  23
BRANCH  11  25
ATOM     25  O   UNL     1       8.048   4.927  -1.170  1.00  0.00    -0.508 OA
ATOM     26  H   UNL     1       7.874   4.587  -2.112  1.00  0.00     0.293 HD
ENDBRANCH  11  25
ENDBRANCH   1   2
BRANCH   1  27
ATOM     27  C   UNL     1      15.059   1.724   2.663  1.00  0.00     0.339 C 
ATOM     28  C   UNL     1      15.409   0.253   2.344  1.00  0.00     0.214 C 
ATOM     29  O   UNL     1      16.090   2.274   3.466  1.00  0.00    -0.332 OA
ATOM     30  C   UNL     1      15.458  -0.549   3.659  1.00  0.00     0.180 C 
ATOM     31  C   UNL     1      16.141   1.653   4.744  1.00  0.00     0.179 C 
ATOM     32  C   UNL     1      16.456   0.138   4.632  1.00  0.00     0.177 C 
BRANCH  28  33
ATOM     33  O   UNL     1      14.539  -0.307   1.392  1.00  0.00    -0.384 OA
ATOM     34  H   UNL     1      14.427  -1.271   1.587  1.00  0.00     0.211 HD
ENDBRANCH  28  33
BRANCH  30  35
ATOM     35  O   UNL     1      14.167  -0.614   4.227  1.00  0.00    -0.387 OA
ATOM     36  H   UNL     1      13.571  -1.064   3.574  1.00  0.00     0.211 HD
ENDBRANCH  30  35
BRANCH  31  37
ATOM     37  C   UNL     1      17.223   2.368   5.579  1.00  0.00     0.191 C 
BRANCH  37  38
ATOM     38  O   UNL     1      18.356   1.550   5.724  1.00  0.00    -0.394 OA
ATOM     39  H   UNL     1      18.820   1.847   6.553  1.00  0.00     0.210 HD
ENDBRANCH  37  38
ENDBRANCH  31  37
BRANCH  32  40
ATOM     40  O   UNL     1      16.395  -0.447   5.911  1.00  0.00    -0.387 OA
ATOM     41  H   UNL     1      17.117  -0.034   6.463  1.00  0.00     0.211 HD
ENDBRANCH  32  40
ENDBRANCH   1  27
TORSDOF 12
ENDMDL
MODEL 2
REMARK VINA RESULT:    -6.340      1.832      2.588
REMARK INTER + INTRA:         -10.262
REMARK INTER:                  -9.562
REMARK INTRA:                  -0.700
REMARK UNBOUND:                -0.956
REMARK SMILES O=c1c(O[C@@H]2O[C@H](CO)[C@@H](O)[C@@H](O)[C@H]2O)c(-c2ccc(O)c(O)c2)oc2cc(O)cc(O)c12
REMARK SMILES IDX 4 1 3 2 16 3 25 4 2 5 26 6 1 7 33 8 27 9 31 10 28 11 30 12
REMARK SMILES IDX 17 13 18 14 19 15 20 16 24 17 22 18 21 19 23 21 32 23 29 25
REMARK SMILES IDX 5 27 14 28 6 29 12 30 7 31 10 32 15 33 13 35 8 37 9 38 11 40
REMARK H PARENT 21 20 23 22 32 24 29 26 15 34 13 36 9 39 11 41
REMARK Flexibility Score: inf
ROOT
ATOM      1  O   UNL     1      11.666   1.411   0.549  1.00  0.00    -0.454 OA
ENDROOT
BRANCH   1   2
ATOM      2  C   UNL     1      11.283   2.618  -0.090  1.00  0.00     0.214 A 
ATOM      3  C   UNL     1      12.025   3.045  -1.212  1.00  0.00     0.180 A 
ATOM      4  O   UNL     1      11.591   4.060  -1.953  1.00  0.00    -0.452 OA
ATOM      5  C   UNL     1      10.175   3.402   0.312  1.00  0.00     0.239 A 
ATOM      6  C   UNL     1      10.500   4.759  -1.665  1.00  0.00     0.146 A 
ATOM      7  O   UNL     1       9.557   3.136   1.377  1.00  0.00    -0.285 OA
ATOM      8  C   UNL     1       9.759   4.484  -0.493  1.00  0.00     0.111 A 
ATOM      9  C   UNL     1      10.092   5.782  -2.524  1.00  0.00     0.094 A 
ATOM     10  C   UNL     1       8.631   5.296  -0.183  1.00  0.00     0.134 A 
ATOM     11  C   UNL     1       8.969   6.558  -2.231  1.00  0.00     0.123 A 
ATOM     12  C   UNL     1       8.252   6.322  -1.059  1.00  0.00     0.093 A 
BRANCH   3  13
ATOM     13  C   UNL     1      13.282   2.384  -1.624  1.00  0.00     0.025 A 
ATOM     14  C   UNL     1      13.264   1.095  -2.172  1.00  0.00     0.016 A 
ATOM     15  C   UNL     1      14.465   0.437  -2.481  1.00  0.00     0.051 A 
ATOM     16  C   UNL     1      15.700   1.049  -2.233  1.00  0.00     0.157 A 
ATOM     17  C   UNL     1      14.520   2.991  -1.352  1.00  0.00     0.062 A 
ATOM     18  C   UNL     1      15.729   2.334  -1.640  1.00  0.00     0.158 A 
BRANCH  16  19
ATOM     19  O   UNL     1      16.866   0.368  -2.597  1.00  0.00    -0.504 OA
ATOM     20  H   UNL     1      17.224   0.322  -3.546  1.00  0.00     0.293 HD
ENDBRANCH  16  19
BRANCH  18  21
ATOM     21  O   UNL     1      16.925   2.981  -1.322  1.00  0.00    -0.504 OA
ATOM     22  H   UNL     1      17.398   3.597  -1.973  1.00  0.00     0.293 HD
ENDBRANCH  18  21
ENDBRANCH   3  13
BRANCH  10  23
ATOM     23  O   UNL     1       7.911   5.104   0.994  1.00  0.00    -0.507 OA
ATOM     24  H   UNL     1       6.939   4.842   0.978  1.00  0.00     0.293 HD
ENDBRANCH  10  23
BRANCH  11  25
ATOM     25  O   UNL     1       8.561   7.576  -3.088  1.00  0.00    -0.508 OA
ATOM     26  H   UNL     1       8.454   7.420  -4.087  1.00  0.00     0.293 HD
ENDBRANCH  11  25
ENDBRANCH   1   2
BRANCH   1  27
ATOM     27  C   UNL     1      12.579   1.236   1.640  1.00  0.00     0.339 C 
ATOM     28  C   UNL     1      13.027  -0.240   1.738  1.00  0.00     0.214 C 
ATOM     29  O   UNL     1      13.717   2.043   1.392  1.00  0.00    -0.332 OA
ATOM     30  C   UNL     1      13.982  -0.396   2.937  1.00  0.00     0.180 C 
ATOM     31  C   UNL     1      14.612   2.033   2.497  1.00  0.00     0.179 C 
ATOM     32  C   UNL     1      15.157   0.608   2.780  1.00  0.00     0.177 C 
BRANCH  28  33
ATOM     33  O   UNL     1      11.935  -1.125   1.788  1.00  0.00    -0.384 OA
ATOM     34  H   UNL     1      11.340  -0.945   1.017  1.00  0.00     0.211 HD
ENDBRANCH  28  33
BRANCH  30  35
ATOM     35  O   UNL     1      13.281  -0.165   4.140  1.00  0.00    -0.387 OA
ATOM     36  H   UNL     1      12.511   0.425   3.932  1.00  0.00     0.211 HD
ENDBRANCH  30  35
BRANCH  31  37
ATOM     37  C   UNL     1      15.771   3.000   2.181  1.00  0.00     0.191 C 
BRANCH  37  38
ATOM     38  O   UNL     1      15.277   4.229   1.715  1.00  0.00    -0.394 OA
ATOM     39  H   UNL     1      15.872   4.937   2.081  1.00  0.00     0.210 HD
ENDBRANCH  37  38
ENDBRANCH  31  37
BRANCH  32  40
ATOM     40  O   UNL     1      15.954   0.635   3.940  1.00  0.00    -0.387 OA
ATOM     41  H   UNL     1      15.506   0.061   4.623  1.00  0.00     0.211 HD
ENDBRANCH  32  40
ENDBRANCH   1  27
TORSDOF 12
ENDMDL
MODEL 3
REMARK VINA RESULT:    -6.062      2.043      2.417
REMARK INTER + INTRA:          -9.853
REMARK INTER:                  -9.641
REMARK INTRA:                  -0.212
REMARK UNBOUND:                -0.956
REMARK SMILES O=c1c(O[C@@H]2O[C@H](CO)[C@@H](O)[C@@H](O)[C@H]2O)c(-c2ccc(O)c(O)c2)oc2cc(O)cc(O)c12
REMARK SMILES IDX 4 1 3 2 16 3 25 4 2 5 26 6 1 7 33 8 27 9 31 10 28 11 30 12
REMARK SMILES IDX 17 13 18 14 19 15 20 16 24 17 22 18 21 19 23 21 32 23 29 25
REMARK SMILES IDX 5 27 14 28 6 29 12 30 7 31 10 32 15 33 13 35 8 37 9 38 11 40
REMARK H PARENT 21 20 23 22 32 24 29 26 15 34 13 36 9 39 11 41
REMARK Flexibility Score: inf
ROOT
ATOM      1  O   UNL     1      14.119   2.140   1.986  1.00  0.00    -0.454 OA
ENDROOT
BRANCH   1   2
ATOM      2  C   UNL     1      13.049   1.852   1.101  1.00  0.00     0.214 A 
ATOM      3  C   UNL     1      13.361   1.386  -0.195  1.00  0.00     0.180 A 
ATOM      4  O   UNL     1      12.398   0.925  -0.989  1.00  0.00    -0.452 OA
ATOM      5  C   UNL     1      11.684   1.971   1.454  1.00  0.00     0.239 A 
ATOM      6  C   UNL     1      11.113   0.927  -0.653  1.00  0.00     0.146 A 
ATOM      7  O   UNL     1      11.351   2.499   2.549  1.00  0.00    -0.285 OA
ATOM      8  C   UNL     1      10.692   1.486   0.574  1.00  0.00     0.111 A 
ATOM      9  C   UNL     1      10.174   0.381  -1.531  1.00  0.00     0.094 A 
ATOM     10  C   UNL     1       9.300   1.530   0.871  1.00  0.00     0.134 A 
ATOM     11  C   UNL     1       8.812   0.401  -1.223  1.00  0.00     0.123 A 
ATOM     12  C   UNL     1       8.380   0.984  -0.034  1.00  0.00     0.093 A 
BRANCH   3  13
ATOM     13  C   UNL     1      14.745   1.366  -0.714  1.00  0.00     0.025 A 
ATOM     14  C   UNL     1      15.668   2.344  -0.321  1.00  0.00     0.016 A 
ATOM     15  C   UNL     1      16.954   2.373  -0.882  1.00  0.00     0.051 A 
ATOM     16  C   UNL     1      17.333   1.438  -1.852  1.00  0.00     0.157 A 
ATOM     17  C   UNL     1      15.114   0.441  -1.705  1.00  0.00     0.062 A 
ATOM     18  C   UNL     1      16.394   0.472  -2.286  1.00  0.00     0.158 A 
BRANCH  16  19
ATOM     19  O   UNL     1      18.639   1.484  -2.349  1.00  0.00    -0.504 OA
ATOM     20  H   UNL     1      19.375   2.067  -1.961  1.00  0.00     0.293 HD
ENDBRANCH  16  19
BRANCH  18  21
ATOM     21  O   UNL     1      16.688  -0.459  -3.285  1.00  0.00    -0.504 OA
ATOM     22  H   UNL     1      15.982  -1.063  -3.689  1.00  0.00     0.293 HD
ENDBRANCH  18  21
ENDBRANCH   3  13
BRANCH  10  23
ATOM     23  O   UNL     1       8.835   2.131   2.038  1.00  0.00    -0.507 OA
ATOM     24  H   UNL     1       9.279   2.950   2.421  1.00  0.00     0.293 HD
ENDBRANCH  10  23
BRANCH  11  25
ATOM     25  O   UNL     1       7.875  -0.145  -2.096  1.00  0.00    -0.508 OA
ATOM     26  H   UNL     1       8.014  -1.056  -2.525  1.00  0.00     0.293 HD
ENDBRANCH  11  25
ENDBRANCH   1   2
BRANCH   1  27
ATOM     27  C   UNL     1      14.552   1.390   3.127  1.00  0.00     0.339 C 
ATOM     28  C   UNL     1      14.970  -0.038   2.709  1.00  0.00     0.214 C 
ATOM     29  O   UNL     1      15.676   2.049   3.685  1.00  0.00    -0.332 OA
ATOM     30  C   UNL     1      15.400  -0.824   3.963  1.00  0.00     0.180 C 
ATOM     31  C   UNL     1      16.082   1.443   4.906  1.00  0.00     0.179 C 
ATOM     32  C   UNL     1      16.517  -0.031   4.695  1.00  0.00     0.177 C 
BRANCH  28  33
ATOM     33  O   UNL     1      13.968  -0.691   1.970  1.00  0.00    -0.384 OA
ATOM     34  H   UNL     1      13.529  -1.364   2.548  1.00  0.00     0.211 HD
ENDBRANCH  28  33
BRANCH  30  35
ATOM     35  O   UNL     1      14.287  -1.021   4.808  1.00  0.00    -0.387 OA
ATOM     36  H   UNL     1      14.621  -1.378   5.671  1.00  0.00     0.211 HD
ENDBRANCH  30  35
BRANCH  31  37
ATOM     37  C   UNL     1      17.246   2.271   5.486  1.00  0.00     0.191 C 
BRANCH  37  38
ATOM     38  O   UNL     1      18.426   1.510   5.521  1.00  0.00    -0.394 OA
ATOM     39  H   UNL     1      18.548   1.125   4.612  1.00  0.00     0.210 HD
ENDBRANCH  37  38
ENDBRANCH  31  37
BRANCH  32  40
ATOM     40  O   UNL     1      16.811  -0.614   5.943  1.00  0.00    -0.387 OA
ATOM     41  H   UNL     1      16.651   0.082   6.642  1.00  0.00     0.211 HD
ENDBRANCH  32  40
ENDBRANCH   1  27
TORSDOF 12
ENDMDL
MODEL 4
REMARK VINA RESULT:    -5.975      2.781      6.664
REMARK INTER + INTRA:          -9.726
REMARK INTER:                  -8.741
REMARK INTRA:                  -0.985
REMARK UNBOUND:                -0.956
REMARK SMILES O=c1c(O[C@@H]2O[C@H](CO)[C@@H](O)[C@@H](O)[C@H]2O)c(-c2ccc(O)c(O)c2)oc2cc(O)cc(O)c12
REMARK SMILES IDX 4 1 3 2 16 3 25 4 2 5 26 6 1 7 33 8 27 9 31 10 28 11 30 12
REMARK SMILES IDX 17 13 18 14 19 15 20 16 24 17 22 18 21 19 23 21 32 23 29 25
REMARK SMILES IDX 5 27 14 28 6 29 12 30 7 31 10 32 15 33 13 35 8 37 9 38 11 40
REMARK H PARENT 21 20 23 22 32 24 29 26 15 34 13 36 9 39 11 41
REMARK Flexibility Score: inf
ROOT
ATOM      1  O   UNL     1      12.964   3.785   0.626  1.00  0.00    -0.454 OA
ENDROOT
BRANCH   1   2
ATOM      2  C   UNL     1      11.964   3.055   1.319  1.00  0.00     0.214 A 
ATOM      3  C   UNL     1      10.616   3.438   1.145  1.00  0.00     0.180 A 
ATOM      4  O   UNL     1       9.638   2.671   1.619  1.00  0.00    -0.452 OA
ATOM      5  C   UNL     1      12.238   1.941   2.148  1.00  0.00     0.239 A 
ATOM      6  C   UNL     1       9.854   1.563   2.318  1.00  0.00     0.146 A 
ATOM      7  O   UNL     1      13.426   1.636   2.437  1.00  0.00    -0.285 OA
ATOM      8  C   UNL     1      11.169   1.166   2.647  1.00  0.00     0.111 A 
ATOM      9  C   UNL     1       8.766   0.794   2.739  1.00  0.00     0.094 A 
ATOM     10  C   UNL     1      11.359   0.007   3.453  1.00  0.00     0.134 A 
ATOM     11  C   UNL     1       8.958  -0.357   3.506  1.00  0.00     0.123 A 
ATOM     12  C   UNL     1      10.248  -0.739   3.869  1.00  0.00     0.093 A 
BRANCH   3  13
ATOM     13  C   UNL     1      10.233   4.670   0.424  1.00  0.00     0.025 A 
ATOM     14  C   UNL     1       9.774   5.793   1.124  1.00  0.00     0.016 A 
ATOM     15  C   UNL     1       9.329   6.929   0.431  1.00  0.00     0.051 A 
ATOM     16  C   UNL     1       9.323   6.957  -0.969  1.00  0.00     0.157 A 
ATOM     17  C   UNL     1      10.206   4.686  -0.981  1.00  0.00     0.062 A 
ATOM     18  C   UNL     1       9.746   5.812  -1.685  1.00  0.00     0.158 A 
BRANCH  16  19
ATOM     19  O   UNL     1       8.909   8.128  -1.611  1.00  0.00    -0.504 OA
ATOM     20  H   UNL     1       8.002   8.245  -2.052  1.00  0.00     0.293 HD
ENDBRANCH  16  19
BRANCH  18  21
ATOM     21  O   UNL     1       9.719   5.753  -3.080  1.00  0.00    -0.504 OA
ATOM     22  H   UNL     1       9.848   6.574  -3.660  1.00  0.00     0.293 HD
ENDBRANCH  18  21
ENDBRANCH   3  13
BRANCH  10  23
ATOM     23  O   UNL     1      12.633  -0.384   3.857  1.00  0.00    -0.507 OA
ATOM     24  H   UNL     1      13.142  -1.104   3.368  1.00  0.00     0.293 HD
ENDBRANCH  10  23
BRANCH  11  25
ATOM     25  O   UNL     1       7.875  -1.125   3.923  1.00  0.00    -0.508 OA
ATOM     26  H   UNL     1       7.935  -2.137   3.996  1.00  0.00     0.293 HD
ENDBRANCH  11  25
ENDBRANCH   1   2
BRANCH   1  27
ATOM     27  C   UNL     1      13.876   3.310  -0.372  1.00  0.00     0.339 C 
ATOM     28  C   UNL     1      15.248   2.986   0.261  1.00  0.00     0.214 C 
ATOM     29  O   UNL     1      13.339   2.123  -0.929  1.00  0.00    -0.332 OA
ATOM     30  C   UNL     1      16.211   2.508  -0.844  1.00  0.00     0.180 C 
ATOM     31  C   UNL     1      14.118   1.664  -2.027  1.00  0.00     0.179 C 
ATOM     32  C   UNL     1      15.565   1.310  -1.592  1.00  0.00     0.177 C 
BRANCH  28  33
ATOM     33  O   UNL     1      15.759   4.064   1.005  1.00  0.00    -0.384 OA
ATOM     34  H   UNL     1      15.628   3.880   1.969  1.00  0.00     0.211 HD
ENDBRANCH  28  33
BRANCH  30  35
ATOM     35  O   UNL     1      16.481   3.570  -1.734  1.00  0.00    -0.387 OA
ATOM     36  H   UNL     1      17.360   3.393  -2.159  1.00  0.00     0.211 HD
ENDBRANCH  30  35
BRANCH  31  37
ATOM     37  C   UNL     1      13.417   0.428  -2.625  1.00  0.00     0.191 C 
BRANCH  37  38
ATOM     38  O   UNL     1      12.052   0.684  -2.830  1.00  0.00    -0.394 OA
ATOM     39  H   UNL     1      11.550   0.064  -2.236  1.00  0.00     0.210 HD
ENDBRANCH  37  38
ENDBRANCH  31  37
BRANCH  32  40
ATOM     40  O   UNL     1      16.320   0.960  -2.728  1.00  0.00    -0.387 OA
ATOM     41  H   UNL     1      15.702   0.972  -3.512  1.00  0.00     0.211 HD
ENDBRANCH  32  40
ENDBRANCH   1  27
TORSDOF 12
ENDMDL
MODEL 5
REMARK VINA RESULT:    -5.715      1.601      4.969
REMARK INTER + INTRA:          -9.344
REMARK INTER:                  -8.269
REMARK INTRA:                  -1.075
REMARK UNBOUND:                -0.956
REMARK SMILES O=c1c(O[C@@H]2O[C@H](CO)[C@@H](O)[C@@H](O)[C@H]2O)c(-c2ccc(O)c(O)c2)oc2cc(O)cc(O)c12
REMARK SMILES IDX 4 1 3 2 16 3 25 4 2 5 26 6 1 7 33 8 27 9 31 10 28 11 30 12
REMARK SMILES IDX 17 13 18 14 19 15 20 16 24 17 22 18 21 19 23 21 32 23 29 25
REMARK SMILES IDX 5 27 14 28 6 29 12 30 7 31 10 32 15 33 13 35 8 37 9 38 11 40
REMARK H PARENT 21 20 23 22 32 24 29 26 15 34 13 36 9 39 11 41
REMARK Flexibility Score: inf
ROOT
ATOM      1  O   UNL     1      13.186   0.937  -0.334  1.00  0.00    -0.454 OA
ENDROOT
BRANCH   1   2
ATOM      2  C   UNL     1      12.342   1.944   0.200  1.00  0.00     0.214 A 
ATOM      3  C   UNL     1      12.481   2.280   1.564  1.00  0.00     0.180 A 
ATOM      4  O   UNL     1      11.850   3.341   2.059  1.00  0.00    -0.452 OA
ATOM      5  C   UNL     1      11.390   2.658  -0.567  1.00  0.00     0.239 A 
ATOM      6  C   UNL     1      11.024   4.096   1.344  1.00  0.00     0.146 A 
ATOM      7  O   UNL     1      11.138   2.315  -1.753  1.00  0.00    -0.285 OA
ATOM      8  C   UNL     1      10.727   3.766   0.003  1.00  0.00     0.111 A 
ATOM      9  C   UNL     1      10.438   5.219   1.934  1.00  0.00     0.094 A 
ATOM     10  C   UNL     1       9.787   4.563  -0.712  1.00  0.00     0.134 A 
ATOM     11  C   UNL     1       9.538   6.013   1.220  1.00  0.00     0.123 A 
ATOM     12  C   UNL     1       9.207   5.677  -0.091  1.00  0.00     0.093 A 
BRANCH   3  13
ATOM     13  C   UNL     1      13.335   1.499   2.485  1.00  0.00     0.025 A 
ATOM     14  C   UNL     1      12.942   0.225   2.914  1.00  0.00     0.016 A 
ATOM     15  C   UNL     1      13.712  -0.476   3.855  1.00  0.00     0.051 A 
ATOM     16  C   UNL     1      14.876   0.089   4.391  1.00  0.00     0.157 A 
ATOM     17  C   UNL     1      14.489   2.078   3.038  1.00  0.00     0.062 A 
ATOM     18  C   UNL     1      15.258   1.393   3.994  1.00  0.00     0.158 A 
BRANCH  16  19
ATOM     19  O   UNL     1      15.630  -0.668   5.293  1.00  0.00    -0.504 OA
ATOM     20  H   UNL     1      16.288  -1.391   5.019  1.00  0.00     0.293 HD
ENDBRANCH  16  19
BRANCH  18  21
ATOM     21  O   UNL     1      16.379   2.035   4.525  1.00  0.00    -0.504 OA
ATOM     22  H   UNL     1      16.843   2.798   4.047  1.00  0.00     0.293 HD
ENDBRANCH  18  21
ENDBRANCH   3  13
BRANCH  10  23
ATOM     23  O   UNL     1       9.415   4.236  -2.013  1.00  0.00    -0.507 OA
ATOM     24  H   UNL     1      10.015   4.434  -2.798  1.00  0.00     0.293 HD
ENDBRANCH  10  23
BRANCH  11  25
ATOM     25  O   UNL     1       8.956   7.134   1.806  1.00  0.00    -0.508 OA
ATOM     26  H   UNL     1       9.458   8.014   1.889  1.00  0.00     0.293 HD
ENDBRANCH  11  25
ENDBRANCH   1   2
BRANCH   1  27
ATOM     27  C   UNL     1      14.606   0.980  -0.523  1.00  0.00     0.339 C 
ATOM     28  C   UNL     1      14.986   0.382  -1.897  1.00  0.00     0.214 C 
ATOM     29  O   UNL     1      15.013   2.336  -0.488  1.00  0.00    -0.332 OA
ATOM     30  C   UNL     1      16.518   0.416  -2.054  1.00  0.00     0.180 C 
ATOM     31  C   UNL     1      16.430   2.456  -0.530  1.00  0.00     0.179 C 
ATOM     32  C   UNL     1      17.014   1.873  -1.844  1.00  0.00     0.177 C 
BRANCH  28  33
ATOM     33  O   UNL     1      14.443  -0.901  -2.088  1.00  0.00    -0.384 OA
ATOM     34  H   UNL     1      14.370  -1.078  -3.059  1.00  0.00     0.211 HD
ENDBRANCH  28  33
BRANCH  30  35
ATOM     35  O   UNL     1      17.114  -0.457  -1.119  1.00  0.00    -0.387 OA
ATOM     36  H   UNL     1      17.224   0.040  -0.268  1.00  0.00     0.211 HD
ENDBRANCH  30  35
BRANCH  31  37
ATOM     37  C   UNL     1      16.787   3.950  -0.397  1.00  0.00     0.191 C 
BRANCH  37  38
ATOM     38  O   UNL     1      15.845   4.614   0.406  1.00  0.00    -0.394 OA
ATOM     39  H   UNL     1      15.294   3.911   0.846  1.00  0.00     0.210 HD
ENDBRANCH  37  38
ENDBRANCH  31  37
BRANCH  32  40
ATOM     40  O   UNL     1      18.420   1.923  -1.791  1.00  0.00    -0.387 OA
ATOM     41  H   UNL     1      18.748   2.088  -2.720  1.00  0.00     0.211 HD
ENDBRANCH  32  40
ENDBRANCH   1  27
TORSDOF 12
ENDMDL
MODEL 6
REMARK VINA RESULT:    -5.709      3.621      4.934
REMARK INTER + INTRA:          -9.335
REMARK INTER:                  -7.974
REMARK INTRA:                  -1.361
REMARK UNBOUND:                -0.956
REMARK SMILES O=c1c(O[C@@H]2O[C@H](CO)[C@@H](O)[C@@H](O)[C@H]2O)c(-c2ccc(O)c(O)c2)oc2cc(O)cc(O)c12
REMARK SMILES IDX 4 1 3 2 16 3 25 4 2 5 26 6 1 7 33 8 27 9 31 10 28 11 30 12
REMARK SMILES IDX 17 13 18 14 19 15 20 16 24 17 22 18 21 19 23 21 32 23 29 25
REMARK SMILES IDX 5 27 14 28 6 29 12 30 7 31 10 32 15 33 13 35 8 37 9 38 11 40
REMARK H PARENT 21 20 23 22 32 24 29 26 15 34 13 36 9 39 11 41
REMARK Flexibility Score: inf
ROOT
ATOM      1  O   UNL     1      11.749   2.974   1.121  1.00  0.00    -0.454 OA
ENDROOT
BRANCH   1   2
ATOM      2  C   UNL     1      11.255   3.956   0.224  1.00  0.00     0.214 A 
ATOM      3  C   UNL     1      11.620   3.861  -1.137  1.00  0.00     0.180 A 
ATOM      4  O   UNL     1      11.033   4.640  -2.041  1.00  0.00    -0.452 OA
ATOM      5  C   UNL     1      10.387   5.005   0.609  1.00  0.00     0.239 A 
ATOM      6  C   UNL     1      10.138   5.571  -1.730  1.00  0.00     0.146 A 
ATOM      7  O   UNL     1      10.132   5.210   1.826  1.00  0.00    -0.285 OA
ATOM      8  C   UNL     1       9.801   5.822  -0.381  1.00  0.00     0.111 A 
ATOM      9  C   UNL     1       9.539   6.314  -2.750  1.00  0.00     0.094 A 
ATOM     10  C   UNL     1       8.886   6.872  -0.082  1.00  0.00     0.134 A 
ATOM     11  C   UNL     1       8.621   7.324  -2.454  1.00  0.00     0.123 A 
ATOM     12  C   UNL     1       8.308   7.607  -1.126  1.00  0.00     0.093 A 
BRANCH   3  13
ATOM     13  C   UNL     1      12.633   2.898  -1.616  1.00  0.00     0.025 A 
ATOM     14  C   UNL     1      12.260   1.602  -1.998  1.00  0.00     0.016 A 
ATOM     15  C   UNL     1      13.236   0.664  -2.370  1.00  0.00     0.051 A 
ATOM     16  C   UNL     1      14.595   0.998  -2.352  1.00  0.00     0.157 A 
ATOM     17  C   UNL     1      13.997   3.229  -1.575  1.00  0.00     0.062 A 
ATOM     18  C   UNL     1      14.983   2.292  -1.928  1.00  0.00     0.158 A 
BRANCH  16  19
ATOM     19  O   UNL     1      15.523   0.041  -2.771  1.00  0.00    -0.504 OA
ATOM     20  H   UNL     1      16.509   0.060  -2.529  1.00  0.00     0.293 HD
ENDBRANCH  16  19
BRANCH  18  21
ATOM     21  O   UNL     1      16.323   2.676  -1.839  1.00  0.00    -0.504 OA
ATOM     22  H   UNL     1      17.079   2.086  -2.166  1.00  0.00     0.293 HD
ENDBRANCH  18  21
ENDBRANCH   3  13
BRANCH  10  23
ATOM     23  O   UNL     1       8.575   7.198   1.235  1.00  0.00    -0.507 OA
ATOM     24  H   UNL     1       9.223   7.702   1.819  1.00  0.00     0.293 HD
ENDBRANCH  10  23
BRANCH  11  25
ATOM     25  O   UNL     1       8.021   8.062  -3.470  1.00  0.00    -0.508 OA
ATOM     26  H   UNL     1       8.532   8.335  -4.305  1.00  0.00     0.293 HD
ENDBRANCH  11  25
ENDBRANCH   1   2
BRANCH   1  27
ATOM     27  C   UNL     1      11.075   1.814   1.625  1.00  0.00     0.339 C 
ATOM     28  C   UNL     1      10.012   2.218   2.670  1.00  0.00     0.214 C 
ATOM     29  O   UNL     1      10.427   1.177   0.538  1.00  0.00    -0.332 OA
ATOM     30  C   UNL     1       9.329   0.947   3.211  1.00  0.00     0.180 C 
ATOM     31  C   UNL     1       9.849  -0.062   0.930  1.00  0.00     0.179 C 
ATOM     32  C   UNL     1       8.759   0.134   2.017  1.00  0.00     0.177 C 
BRANCH  28  33
ATOM     33  O   UNL     1      10.546   3.029   3.688  1.00  0.00    -0.384 OA
ATOM     34  H   UNL     1      10.790   3.908   3.304  1.00  0.00     0.211 HD
ENDBRANCH  28  33
BRANCH  30  35
ATOM     35  O   UNL     1      10.261   0.179   3.942  1.00  0.00    -0.387 OA
ATOM     36  H   UNL     1      11.064   0.742   4.096  1.00  0.00     0.211 HD
ENDBRANCH  30  35
BRANCH  31  37
ATOM     37  C   UNL     1       9.247  -0.726  -0.325  1.00  0.00     0.191 C 
BRANCH  37  38
ATOM     38  O   UNL     1       7.918  -0.311  -0.514  1.00  0.00    -0.394 OA
ATOM     39  H   UNL     1       7.479  -0.335   0.378  1.00  0.00     0.210 HD
ENDBRANCH  37  38
ENDBRANCH  31  37
BRANCH  32  40
ATOM     40  O   UNL     1       8.293  -1.125   2.442  1.00  0.00    -0.387 OA
ATOM     41  H   UNL     1       9.093  -1.683   2.654  1.00  0.00     0.211 HD
ENDBRANCH  32  40
ENDBRANCH   1  27
TORSDOF 12
ENDMDL
MODEL 7
REMARK VINA RESULT:    -5.630     14.794     18.684
REMARK INTER + INTRA:          -9.219
REMARK INTER:                  -7.745
REMARK INTRA:                  -1.474
REMARK UNBOUND:                -0.956
REMARK SMILES O=c1c(O[C@@H]2O[C@H](CO)[C@@H](O)[C@@H](O)[C@H]2O)c(-c2ccc(O)c(O)c2)oc2cc(O)cc(O)c12
REMARK SMILES IDX 4 1 3 2 16 3 25 4 2 5 26 6 1 7 33 8 27 9 31 10 28 11 30 12
REMARK SMILES IDX 17 13 18 14 19 15 20 16 24 17 22 18 21 19 23 21 32 23 29 25
REMARK SMILES IDX 5 27 14 28 6 29 12 30 7 31 10 32 15 33 13 35 8 37 9 38 11 40
REMARK H PARENT 21 20 23 22 32 24 29 26 15 34 13 36 9 39 11 41
REMARK Flexibility Score: inf
ROOT
ATOM      1  O   UNL     1      25.206  12.328   7.721  1.00  0.00    -0.454 OA
ENDROOT
BRANCH   1   2
ATOM      2  C   UNL     1      25.915  11.132   7.999  1.00  0.00     0.214 A 
ATOM      3  C   UNL     1      26.641  11.050   9.207  1.00  0.00     0.180 A 
ATOM      4  O   UNL     1      27.161   9.890   9.597  1.00  0.00    -0.452 OA
ATOM      5  C   UNL     1      25.907   9.999   7.150  1.00  0.00     0.239 A 
ATOM      6  C   UNL     1      27.088   8.779   8.873  1.00  0.00     0.146 A 
ATOM      7  O   UNL     1      25.381  10.061   6.007  1.00  0.00    -0.285 OA
ATOM      8  C   UNL     1      26.487   8.792   7.595  1.00  0.00     0.111 A 
ATOM      9  C   UNL     1      27.623   7.593   9.382  1.00  0.00     0.094 A 
ATOM     10  C   UNL     1      26.485   7.596   6.821  1.00  0.00     0.134 A 
ATOM     11  C   UNL     1      27.595   6.416   8.631  1.00  0.00     0.123 A 
ATOM     12  C   UNL     1      27.039   6.424   7.353  1.00  0.00     0.093 A 
BRANCH   3  13
ATOM     13  C   UNL     1      26.837  12.220  10.090  1.00  0.00     0.025 A 
ATOM     14  C   UNL     1      27.891  13.115   9.865  1.00  0.00     0.016 A 
ATOM     15  C   UNL     1      28.125  14.175  10.755  1.00  0.00     0.051 A 
ATOM     16  C   UNL     1      27.321  14.348  11.888  1.00  0.00     0.157 A 
ATOM     17  C   UNL     1      26.043  12.378  11.238  1.00  0.00     0.062 A 
ATOM     18  C   UNL     1      26.280  13.424  12.146  1.00  0.00     0.158 A 
BRANCH  16  19
ATOM     19  O   UNL     1      27.570  15.443  12.721  1.00  0.00    -0.504 OA
ATOM     20  H   UNL     1      28.497  15.730  13.021  1.00  0.00     0.293 HD
ENDBRANCH  16  19
BRANCH  18  21
ATOM     21  O   UNL     1      25.472  13.509  13.282  1.00  0.00    -0.504 OA
ATOM     22  H   UNL     1      24.643  14.092  13.315  1.00  0.00     0.293 HD
ENDBRANCH  18  21
ENDBRANCH   3  13
BRANCH  10  23
ATOM     23  O   UNL     1      25.964   7.579   5.530  1.00  0.00    -0.507 OA
ATOM     24  H   UNL     1      26.392   7.037   4.797  1.00  0.00     0.293 HD
ENDBRANCH  10  23
BRANCH  11  25
ATOM     25  O   UNL     1      28.125   5.233   9.138  1.00  0.00    -0.508 OA
ATOM     26  H   UNL     1      28.842   4.714   8.640  1.00  0.00     0.293 HD
ENDBRANCH  11  25
ENDBRANCH   1   2
BRANCH   1  27
ATOM     27  C   UNL     1      25.322  13.181   6.575  1.00  0.00     0.339 C 
ATOM     28  C   UNL     1      23.923  13.527   6.016  1.00  0.00     0.214 C 
ATOM     29  O   UNL     1      25.959  14.380   6.982  1.00  0.00    -0.332 OA
ATOM     30  C   UNL     1      24.086  14.419   4.769  1.00  0.00     0.180 C 
ATOM     31  C   UNL     1      26.237  15.224   5.872  1.00  0.00     0.179 C 
ATOM     32  C   UNL     1      24.937  15.662   5.147  1.00  0.00     0.177 C 
BRANCH  28  33
ATOM     33  O   UNL     1      23.149  12.379   5.771  1.00  0.00    -0.384 OA
ATOM     34  H   UNL     1      23.741  11.586   5.769  1.00  0.00     0.211 HD
ENDBRANCH  28  33
BRANCH  30  35
ATOM     35  O   UNL     1      24.702  13.683   3.734  1.00  0.00    -0.387 OA
ATOM     36  H   UNL     1      25.623  13.458   4.029  1.00  0.00     0.211 HD
ENDBRANCH  30  35
BRANCH  31  37
ATOM     37  C   UNL     1      27.006  16.456   6.391  1.00  0.00     0.191 C 
BRANCH  37  38
ATOM     38  O   UNL     1      26.149  17.563   6.502  1.00  0.00    -0.394 OA
ATOM     39  H   UNL     1      25.221  17.221   6.394  1.00  0.00     0.210 HD
ENDBRANCH  37  38
ENDBRANCH  31  37
BRANCH  32  40
ATOM     40  O   UNL     1      25.272  16.409   4.002  1.00  0.00    -0.387 OA
ATOM     41  H   UNL     1      25.647  17.281   4.313  1.00  0.00     0.211 HD
ENDBRANCH  32  40
ENDBRANCH   1  27
TORSDOF 12
ENDMDL
MODEL 8
REMARK VINA RESULT:    -5.500      2.823      7.759
REMARK INTER + INTRA:          -9.029
REMARK INTER:                  -8.214
REMARK INTRA:                  -0.815
REMARK UNBOUND:                -0.956
REMARK SMILES O=c1c(O[C@@H]2O[C@H](CO)[C@@H](O)[C@@H](O)[C@H]2O)c(-c2ccc(O)c(O)c2)oc2cc(O)cc(O)c12
REMARK SMILES IDX 4 1 3 2 16 3 25 4 2 5 26 6 1 7 33 8 27 9 31 10 28 11 30 12
REMARK SMILES IDX 17 13 18 14 19 15 20 16 24 17 22 18 21 19 23 21 32 23 29 25
REMARK SMILES IDX 5 27 14 28 6 29 12 30 7 31 10 32 15 33 13 35 8 37 9 38 11 40
REMARK H PARENT 21 20 23 22 32 24 29 26 15 34 13 36 9 39 11 41
REMARK Flexibility Score: inf
ROOT
ATOM      1  O   UNL     1      12.033   0.889  -0.194  1.00  0.00    -0.454 OA
ENDROOT
BRANCH   1   2
ATOM      2  C   UNL     1      13.366   1.245  -0.522  1.00  0.00     0.214 A 
ATOM      3  C   UNL     1      13.999   2.245   0.247  1.00  0.00     0.180 A 
ATOM      4  O   UNL     1      15.301   2.476   0.101  1.00  0.00    -0.452 OA
ATOM      5  C   UNL     1      14.111   0.630  -1.556  1.00  0.00     0.239 A 
ATOM      6  C   UNL     1      16.057   1.848  -0.791  1.00  0.00     0.146 A 
ATOM      7  O   UNL     1      13.557  -0.176  -2.351  1.00  0.00    -0.285 OA
ATOM      8  C   UNL     1      15.486   0.918  -1.689  1.00  0.00     0.111 A 
ATOM      9  C   UNL     1      17.426   2.121  -0.845  1.00  0.00     0.094 A 
ATOM     10  C   UNL     1      16.317   0.311  -2.675  1.00  0.00     0.134 A 
ATOM     11  C   UNL     1      18.242   1.504  -1.795  1.00  0.00     0.123 A 
ATOM     12  C   UNL     1      17.684   0.614  -2.712  1.00  0.00     0.093 A 
BRANCH   3  13
ATOM     13  C   UNL     1      13.268   3.051   1.248  1.00  0.00     0.025 A 
ATOM     14  C   UNL     1      13.127   2.596   2.565  1.00  0.00     0.016 A 
ATOM     15  C   UNL     1      12.359   3.321   3.489  1.00  0.00     0.051 A 
ATOM     16  C   UNL     1      11.710   4.502   3.109  1.00  0.00     0.157 A 
ATOM     17  C   UNL     1      12.599   4.223   0.858  1.00  0.00     0.062 A 
ATOM     18  C   UNL     1      11.812   4.948   1.769  1.00  0.00     0.158 A 
BRANCH  16  19
ATOM     19  O   UNL     1      10.991   5.209   4.078  1.00  0.00    -0.504 OA
ATOM     20  H   UNL     1      11.154   5.131   5.077  1.00  0.00     0.293 HD
ENDBRANCH  16  19
BRANCH  18  21
ATOM     21  O   UNL     1      11.151   6.089   1.311  1.00  0.00    -0.504 OA
ATOM     22  H   UNL     1      10.434   6.050   0.596  1.00  0.00     0.293 HD
ENDBRANCH  18  21
ENDBRANCH   3  13
BRANCH  10  23
ATOM     23  O   UNL     1      15.785  -0.560  -3.622  1.00  0.00    -0.507 OA
ATOM     24  H   UNL     1      16.306  -0.827  -4.442  1.00  0.00     0.293 HD
ENDBRANCH  10  23
BRANCH  11  25
ATOM     25  O   UNL     1      19.606   1.774  -1.848  1.00  0.00    -0.508 OA
ATOM     26  H   UNL     1      19.999   2.402  -2.543  1.00  0.00     0.293 HD
ENDBRANCH  11  25
ENDBRANCH   1   2
BRANCH   1  27
ATOM     27  C   UNL     1      10.824   1.589  -0.514  1.00  0.00     0.339 C 
ATOM     28  C   UNL     1       9.974   1.809   0.758  1.00  0.00     0.214 C 
ATOM     29  O   UNL     1      11.177   2.852  -1.050  1.00  0.00    -0.332 OA
ATOM     30  C   UNL     1       8.671   2.536   0.373  1.00  0.00     0.180 C 
ATOM     31  C   UNL     1      10.034   3.555  -1.523  1.00  0.00     0.179 C 
ATOM     32  C   UNL     1       9.029   3.847  -0.378  1.00  0.00     0.177 C 
BRANCH  28  33
ATOM     33  O   UNL     1       9.747   0.612   1.460  1.00  0.00    -0.384 OA
ATOM     34  H   UNL     1      10.426   0.525   2.176  1.00  0.00     0.211 HD
ENDBRANCH  28  33
BRANCH  30  35
ATOM     35  O   UNL     1       7.876   1.695  -0.435  1.00  0.00    -0.387 OA
ATOM     36  H   UNL     1       7.655   0.886   0.095  1.00  0.00     0.211 HD
ENDBRANCH  30  35
BRANCH  31  37
ATOM     37  C   UNL     1      10.516   4.871  -2.167  1.00  0.00     0.191 C 
BRANCH  37  38
ATOM     38  O   UNL     1      10.358   5.944  -1.276  1.00  0.00    -0.394 OA
ATOM     39  H   UNL     1       9.795   6.622  -1.738  1.00  0.00     0.210 HD
ENDBRANCH  37  38
ENDBRANCH  31  37
BRANCH  32  40
ATOM     40  O   UNL     1       7.875   4.451  -0.914  1.00  0.00    -0.387 OA
ATOM     41  H   UNL     1       8.170   5.258  -1.424  1.00  0.00     0.211 HD
ENDBRANCH  32  40
ENDBRANCH   1  27
TORSDOF 12
ENDMDL
MODEL 9
REMARK VINA RESULT:    -5.253      1.422      2.486
REMARK INTER + INTRA:          -8.667
REMARK INTER:                  -8.453
REMARK INTRA:                  -0.213
REMARK UNBOUND:                -0.956
REMARK SMILES O=c1c(O[C@@H]2O[C@H](CO)[C@@H](O)[C@@H](O)[C@H]2O)c(-c2ccc(O)c(O)c2)oc2cc(O)cc(O)c12
REMARK SMILES IDX 4 1 3 2 16 3 25 4 2 5 26 6 1 7 33 8 27 9 31 10 28 11 30 12
REMARK SMILES IDX 17 13 18 14 19 15 20 16 24 17 22 18 21 19 23 21 32 23 29 25
REMARK SMILES IDX 5 27 14 28 6 29 12 30 7 31 10 32 15 33 13 35 8 37 9 38 11 40
REMARK H PARENT 21 20 23 22 32 24 29 26 15 34 13 36 9 39 11 41
REMARK Flexibility Score: inf
ROOT
ATOM      1  O   UNL     1      12.985   1.132   1.275  1.00  0.00    -0.454 OA
ENDROOT
BRANCH   1   2
ATOM      2  C   UNL     1      12.404   2.173   0.506  1.00  0.00     0.214 A 
ATOM      3  C   UNL     1      13.045   2.555  -0.693  1.00  0.00     0.180 A 
ATOM      4  O   UNL     1      12.441   3.387  -1.537  1.00  0.00    -0.452 OA
ATOM      5  C   UNL     1      11.198   2.827   0.852  1.00  0.00     0.239 A 
ATOM      6  C   UNL     1      11.261   3.944  -1.292  1.00  0.00     0.146 A 
ATOM      7  O   UNL     1      10.654   2.614   1.969  1.00  0.00    -0.285 OA
ATOM      8  C   UNL     1      10.600   3.717  -0.065  1.00  0.00     0.111 A 
ATOM      9  C   UNL     1      10.680   4.772  -2.256  1.00  0.00     0.094 A 
ATOM     10  C   UNL     1       9.367   4.384   0.189  1.00  0.00     0.134 A 
ATOM     11  C   UNL     1       9.457   5.401  -2.015  1.00  0.00     0.123 A 
ATOM     12  C   UNL     1       8.813   5.216  -0.793  1.00  0.00     0.093 A 
BRANCH   3  13
ATOM     13  C   UNL     1      14.379   2.043  -1.071  1.00  0.00     0.025 A 
ATOM     14  C   UNL     1      15.541   2.721  -0.677  1.00  0.00     0.016 A 
ATOM     15  C   UNL     1      16.801   2.281  -1.111  1.00  0.00     0.051 A 
ATOM     16  C   UNL     1      16.920   1.169  -1.954  1.00  0.00     0.157 A 
ATOM     17  C   UNL     1      14.494   0.943  -1.936  1.00  0.00     0.062 A 
ATOM     18  C   UNL     1      15.749   0.505  -2.392  1.00  0.00     0.158 A 
BRANCH  16  19
ATOM     19  O   UNL     1      18.200   0.747  -2.324  1.00  0.00    -0.504 OA
ATOM     20  H   UNL     1      19.053   1.248  -2.093  1.00  0.00     0.293 HD
ENDBRANCH  16  19
BRANCH  18  21
ATOM     21  O   UNL     1      15.792  -0.579  -3.271  1.00  0.00    -0.504 OA
ATOM     22  H   UNL     1      15.954  -0.465  -4.265  1.00  0.00     0.293 HD
ENDBRANCH  18  21
ENDBRANCH   3  13
BRANCH  10  23
ATOM     23  O   UNL     1       8.714   4.242   1.410  1.00  0.00    -0.507 OA
ATOM     24  H   UNL     1       8.061   4.934   1.741  1.00  0.00     0.293 HD
ENDBRANCH  10  23
BRANCH  11  25
ATOM     25  O   UNL     1       8.876   6.223  -2.976  1.00  0.00    -0.508 OA
ATOM     26  H   UNL     1       8.058   6.789  -2.770  1.00  0.00     0.293 HD
ENDBRANCH  11  25
ENDBRANCH   1   2
BRANCH   1  27
ATOM     27  C   UNL     1      14.095   1.212   2.178  1.00  0.00     0.339 C 
ATOM     28  C   UNL     1      14.087   2.563   2.927  1.00  0.00     0.214 C 
ATOM     29  O   UNL     1      13.966   0.165   3.124  1.00  0.00    -0.332 OA
ATOM     30  C   UNL     1      15.309   2.626   3.864  1.00  0.00     0.180 C 
ATOM     31  C   UNL     1      15.105   0.089   3.973  1.00  0.00     0.179 C 
ATOM     32  C   UNL     1      15.289   1.388   4.802  1.00  0.00     0.177 C 
BRANCH  28  33
ATOM     33  O   UNL     1      14.014   3.659   2.048  1.00  0.00    -0.384 OA
ATOM     34  H   UNL     1      13.661   4.442   2.539  1.00  0.00     0.211 HD
ENDBRANCH  28  33
BRANCH  30  35
ATOM     35  O   UNL     1      16.495   2.659   3.100  1.00  0.00    -0.387 OA
ATOM     36  H   UNL     1      16.398   3.374   2.420  1.00  0.00     0.211 HD
ENDBRANCH  30  35
BRANCH  31  37
ATOM     37  C   UNL     1      14.923  -1.125   4.907  1.00  0.00     0.191 C 
BRANCH  37  38
ATOM     38  O   UNL     1      14.596  -0.704   6.207  1.00  0.00    -0.394 OA
ATOM     39  H   UNL     1      14.634  -1.511   6.789  1.00  0.00     0.210 HD
ENDBRANCH  37  38
ENDBRANCH  31  37
BRANCH  32  40
ATOM     40  O   UNL     1      16.481   1.301   5.546  1.00  0.00    -0.387 OA
ATOM     41  H   UNL     1      17.082   2.035   5.233  1.00  0.00     0.211 HD
ENDBRANCH  32  40
ENDBRANCH   1  27
TORSDOF 12
ENDMDL
