MODEL 1
REMARK VINA RESULT:    -4.032      0.000      0.000
REMARK INTER + INTRA:          -9.019
REMARK INTER:                  -6.860
REMARK INTRA:                  -2.159
REMARK UNBOUND:                -2.159
REMARK SMILES CCCCCCCCCCCCCC(=O)[O-]
REMARK SMILES IDX 8 1 9 2 10 3 11 4 12 5 13 6 14 7 15 8 16 9 7 10 6 11 5 12
REMARK SMILES IDX 4 13 3 14 2 15 1 16
REMARK H PARENT
REMARK Flexibility Score: inf
ROOT
ATOM      1  C   UNL     1     -18.691  44.095  -5.600  1.00  0.00     0.000 C 
ENDROOT
BRANCH   1   2
ATOM      2  C   UNL     1     -19.358  45.445  -5.904  1.00  0.00     0.000 C 
BRANCH   2   3
ATOM      3  C   UNL     1     -18.363  46.620  -5.912  1.00  0.00     0.000 C 
BRANCH   3   4
ATOM      4  C   UNL     1     -18.481  47.564  -7.122  1.00  0.00     0.000 C 
BRANCH   4   5
ATOM      5  C   UNL     1     -17.582  47.149  -8.295  1.00  0.00     0.006 C 
BRANCH   5   6
ATOM      6  C   UNL     1     -16.125  47.008  -7.846  1.00  0.00     0.053 C 
BRANCH   6   7
ATOM      7  C   UNL     1     -15.196  47.237  -8.996  1.00  0.00     0.041 C 
ATOM      8  O   UNL     1     -14.700  46.259  -9.615  1.00  0.00    -0.550 OA
ATOM      9  O   UNL     1     -14.838  48.531  -9.353  1.00  0.00    -0.550 OA
ENDBRANCH   6   7
ENDBRANCH   5   6
ENDBRANCH   4   5
ENDBRANCH   3   4
ENDBRANCH   2   3
ENDBRANCH   1   2
BRANCH   1  10
ATOM     10  C   UNL     1     -17.270  44.043  -6.178  1.00  0.00     0.000 C 
BRANCH  10  11
ATOM     11  C   UNL     1     -17.101  42.950  -7.248  1.00  0.00    -0.000 C 
BRANCH  11  12
ATOM     12  C   UNL     1     -16.701  43.465  -8.645  1.00  0.00    -0.000 C 
BRANCH  12  13
ATOM     13  C   UNL     1     -17.861  43.593  -9.653  1.00  0.00    -0.000 C 
BRANCH  13  14
ATOM     14  C   UNL     1     -19.058  42.662  -9.387  1.00  0.00    -0.000 C 
BRANCH  14  15
ATOM     15  C   UNL     1     -20.327  43.426  -8.986  1.00  0.00    -0.003 C 
ATOM     16  C   UNL     1     -20.263  44.880  -9.446  1.00  0.00     0.004 C 
ENDBRANCH  14  15
ENDBRANCH  13  14
ENDBRANCH  12  13
ENDBRANCH  11  12
ENDBRANCH  10  11
ENDBRANCH   1  10
TORSDOF 12
ENDMDL
MODEL 2
REMARK VINA RESULT:    -3.989      2.035      3.154
REMARK INTER + INTRA:          -8.946
REMARK INTER:                  -7.219
REMARK INTRA:                  -1.727
REMARK UNBOUND:                -2.159
REMARK SMILES CCCCCCCCCCCCCC(=O)[O-]
REMARK SMILES IDX 8 1 9 2 10 3 11 4 12 5 13 6 14 7 15 8 16 9 7 10 6 11 5 12
REMARK SMILES IDX 4 13 3 14 2 15 1 16
REMARK H PARENT
REMARK Flexibility Score: inf
ROOT
ATOM      1  C   UNL     1     -20.308  44.499  -6.745  1.00  0.00     0.000 C 
ENDROOT
BRANCH   1   2
ATOM      2  C   UNL     1     -19.156  44.992  -5.857  1.00  0.00     0.000 C 
BRANCH   2   3
ATOM      3  C   UNL     1     -19.113  46.526  -5.724  1.00  0.00     0.000 C 
BRANCH   3   4
ATOM      4  C   UNL     1     -17.700  47.136  -5.690  1.00  0.00     0.000 C 
BRANCH   4   5
ATOM      5  C   UNL     1     -16.703  46.390  -6.587  1.00  0.00     0.006 C 
BRANCH   5   6
ATOM      6  C   UNL     1     -15.582  45.760  -5.756  1.00  0.00     0.053 C 
BRANCH   6   7
ATOM      7  C   UNL     1     -14.614  46.806  -5.301  1.00  0.00     0.041 C 
ATOM      8  O   UNL     1     -14.425  47.003  -4.072  1.00  0.00    -0.550 OA
ATOM      9  O   UNL     1     -13.958  47.599  -6.234  1.00  0.00    -0.550 OA
ENDBRANCH   6   7
ENDBRANCH   5   6
ENDBRANCH   4   5
ENDBRANCH   3   4
ENDBRANCH   2   3
ENDBRANCH   1   2
BRANCH   1  10
ATOM     10  C   UNL     1     -20.524  45.441  -7.937  1.00  0.00     0.000 C 
BRANCH  10  11
ATOM     11  C   UNL     1     -20.406  44.724  -9.294  1.00  0.00    -0.000 C 
BRANCH  11  12
ATOM     12  C   UNL     1     -20.349  43.185  -9.214  1.00  0.00    -0.000 C 
BRANCH  12  13
ATOM     13  C   UNL     1     -18.967  42.565  -9.498  1.00  0.00    -0.000 C 
BRANCH  13  14
ATOM     14  C   UNL     1     -17.874  43.571  -9.902  1.00  0.00    -0.000 C 
BRANCH  14  15
ATOM     15  C   UNL     1     -16.695  43.597  -8.920  1.00  0.00    -0.003 C 
ATOM     16  C   UNL     1     -16.989  42.745  -7.687  1.00  0.00     0.004 C 
ENDBRANCH  14  15
ENDBRANCH  13  14
ENDBRANCH  12  13
ENDBRANCH  11  12
ENDBRANCH  10  11
ENDBRANCH   1  10
TORSDOF 12
ENDMDL
MODEL 3
REMARK VINA RESULT:    -3.983      2.209      3.199
REMARK INTER + INTRA:          -8.936
REMARK INTER:                  -7.047
REMARK INTRA:                  -1.889
REMARK UNBOUND:                -2.159
REMARK SMILES CCCCCCCCCCCCCC(=O)[O-]
REMARK SMILES IDX 8 1 9 2 10 3 11 4 12 5 13 6 14 7 15 8 16 9 7 10 6 11 5 12
REMARK SMILES IDX 4 13 3 14 2 15 1 16
REMARK H PARENT
REMARK Flexibility Score: inf
ROOT
ATOM      1  C   UNL     1     -17.956  44.022  -5.644  1.00  0.00     0.000 C 
ENDROOT
BRANCH   1   2
ATOM      2  C   UNL     1     -17.582  43.475  -7.030  1.00  0.00     0.000 C 
BRANCH   2   3
ATOM      3  C   UNL     1     -16.384  44.206  -7.663  1.00  0.00     0.000 C 
BRANCH   3   4
ATOM      4  C   UNL     1     -16.684  45.628  -8.170  1.00  0.00     0.000 C 
BRANCH   4   5
ATOM      5  C   UNL     1     -15.723  46.682  -7.603  1.00  0.00     0.006 C 
BRANCH   5   6
ATOM      6  C   UNL     1     -14.974  46.141  -6.381  1.00  0.00     0.053 C 
BRANCH   6   7
ATOM      7  C   UNL     1     -15.401  46.862  -5.142  1.00  0.00     0.041 C 
ATOM      8  O   UNL     1     -14.569  47.098  -4.227  1.00  0.00    -0.550 OA
ATOM      9  O   UNL     1     -16.731  47.230  -4.975  1.00  0.00    -0.550 OA
ENDBRANCH   6   7
ENDBRANCH   5   6
ENDBRANCH   4   5
ENDBRANCH   3   4
ENDBRANCH   2   3
ENDBRANCH   1   2
BRANCH   1  10
ATOM     10  C   UNL     1     -19.138  44.996  -5.739  1.00  0.00     0.000 C 
BRANCH  10  11
ATOM     11  C   UNL     1     -20.252  44.494  -6.675  1.00  0.00    -0.000 C 
BRANCH  11  12
ATOM     12  C   UNL     1     -20.564  45.419  -7.869  1.00  0.00    -0.000 C 
BRANCH  12  13
ATOM     13  C   UNL     1     -20.317  44.800  -9.259  1.00  0.00    -0.000 C 
BRANCH  13  14
ATOM     14  C   UNL     1     -20.543  43.279  -9.342  1.00  0.00    -0.000 C 
BRANCH  14  15
ATOM     15  C   UNL     1     -19.378  42.541 -10.015  1.00  0.00    -0.003 C 
ATOM     16  C   UNL     1     -18.461  43.515 -10.750  1.00  0.00     0.004 C 
ENDBRANCH  14  15
ENDBRANCH  13  14
ENDBRANCH  12  13
ENDBRANCH  11  12
ENDBRANCH  10  11
ENDBRANCH   1  10
TORSDOF 12
ENDMDL
MODEL 4
REMARK VINA RESULT:    -3.960      2.569      5.095
REMARK INTER + INTRA:          -8.897
REMARK INTER:                  -6.984
REMARK INTRA:                  -1.913
REMARK UNBOUND:                -2.159
REMARK SMILES CCCCCCCCCCCCCC(=O)[O-]
REMARK SMILES IDX 8 1 9 2 10 3 11 4 12 5 13 6 14 7 15 8 16 9 7 10 6 11 5 12
REMARK SMILES IDX 4 13 3 14 2 15 1 16
REMARK H PARENT
REMARK Flexibility Score: inf
ROOT
ATOM      1  C   UNL     1     -19.617  45.666  -6.056  1.00  0.00     0.000 C 
ENDROOT
BRANCH   1   2
ATOM      2  C   UNL     1     -19.097  44.248  -5.775  1.00  0.00     0.000 C 
BRANCH   2   3
ATOM      3  C   UNL     1     -17.570  44.125  -5.933  1.00  0.00     0.000 C 
BRANCH   3   4
ATOM      4  C   UNL     1     -17.107  43.172  -7.049  1.00  0.00     0.000 C 
BRANCH   4   5
ATOM      5  C   UNL     1     -17.669  43.545  -8.428  1.00  0.00     0.006 C 
BRANCH   5   6
ATOM      6  C   UNL     1     -18.352  42.342  -9.086  1.00  0.00     0.053 C 
BRANCH   6   7
ATOM      7  C   UNL     1     -19.699  42.726  -9.611  1.00  0.00     0.041 C 
ATOM      8  O   UNL     1     -20.162  42.165 -10.639  1.00  0.00    -0.550 OA
ATOM      9  O   UNL     1     -20.423  43.739  -8.995  1.00  0.00    -0.550 OA
ENDBRANCH   6   7
ENDBRANCH   5   6
ENDBRANCH   4   5
ENDBRANCH   3   4
ENDBRANCH   2   3
ENDBRANCH   1   2
BRANCH   1  10
ATOM     10  C   UNL     1     -18.509  46.708  -5.851  1.00  0.00     0.000 C 
BRANCH  10  11
ATOM     11  C   UNL     1     -18.394  47.696  -7.026  1.00  0.00    -0.000 C 
BRANCH  11  12
ATOM     12  C   UNL     1     -17.719  47.128  -8.290  1.00  0.00    -0.000 C 
BRANCH  12  13
ATOM     13  C   UNL     1     -16.207  47.408  -8.406  1.00  0.00    -0.000 C 
BRANCH  13  14
ATOM     14  C   UNL     1     -15.297  46.324  -7.799  1.00  0.00    -0.000 C 
BRANCH  14  15
ATOM     15  C   UNL     1     -14.363  46.872  -6.711  1.00  0.00    -0.003 C 
ATOM     16  C   UNL     1     -14.826  46.442  -5.322  1.00  0.00     0.004 C 
ENDBRANCH  14  15
ENDBRANCH  13  14
ENDBRANCH  12  13
ENDBRANCH  11  12
ENDBRANCH  10  11
ENDBRANCH   1  10
TORSDOF 12
ENDMDL
MODEL 5
REMARK VINA RESULT:    -3.947      1.990      3.864
REMARK INTER + INTRA:          -8.874
REMARK INTER:                  -6.768
REMARK INTRA:                  -2.106
REMARK UNBOUND:                -2.159
REMARK SMILES CCCCCCCCCCCCCC(=O)[O-]
REMARK SMILES IDX 8 1 9 2 10 3 11 4 12 5 13 6 14 7 15 8 16 9 7 10 6 11 5 12
REMARK SMILES IDX 4 13 3 14 2 15 1 16
REMARK H PARENT
REMARK Flexibility Score: inf
ROOT
ATOM      1  C   UNL     1     -18.187  43.231 -10.083  1.00  0.00     0.000 C 
ENDROOT
BRANCH   1   2
ATOM      2  C   UNL     1     -17.296  43.109  -8.838  1.00  0.00     0.000 C 
BRANCH   2   3
ATOM      3  C   UNL     1     -16.330  44.297  -8.671  1.00  0.00     0.000 C 
BRANCH   3   4
ATOM      4  C   UNL     1     -16.943  45.679  -8.958  1.00  0.00     0.000 C 
BRANCH   4   5
ATOM      5  C   UNL     1     -16.616  46.716  -7.874  1.00  0.00     0.006 C 
BRANCH   5   6
ATOM      6  C   UNL     1     -15.290  46.386  -7.182  1.00  0.00     0.053 C 
BRANCH   6   7
ATOM      7  C   UNL     1     -15.431  46.499  -5.697  1.00  0.00     0.041 C 
ATOM      8  O   UNL     1     -14.584  45.961  -4.936  1.00  0.00    -0.550 OA
ATOM      9  O   UNL     1     -16.527  47.157  -5.150  1.00  0.00    -0.550 OA
ENDBRANCH   6   7
ENDBRANCH   5   6
ENDBRANCH   4   5
ENDBRANCH   3   4
ENDBRANCH   2   3
ENDBRANCH   1   2
BRANCH   1  10
ATOM     10  C   UNL     1     -19.471  42.406  -9.921  1.00  0.00     0.000 C 
BRANCH  10  11
ATOM     11  C   UNL     1     -20.576  43.165  -9.165  1.00  0.00    -0.000 C 
BRANCH  11  12
ATOM     12  C   UNL     1     -20.538  44.698  -9.325  1.00  0.00    -0.000 C 
BRANCH  12  13
ATOM     13  C   UNL     1     -20.486  45.494  -8.004  1.00  0.00    -0.000 C 
BRANCH  13  14
ATOM     14  C   UNL     1     -20.349  44.635  -6.734  1.00  0.00    -0.000 C 
BRANCH  14  15
ATOM     15  C   UNL     1     -19.231  45.123  -5.803  1.00  0.00    -0.003 C 
ATOM     16  C   UNL     1     -18.220  44.013  -5.528  1.00  0.00     0.004 C 
ENDBRANCH  14  15
ENDBRANCH  13  14
ENDBRANCH  12  13
ENDBRANCH  11  12
ENDBRANCH  10  11
ENDBRANCH   1  10
TORSDOF 12
ENDMDL
MODEL 6
REMARK VINA RESULT:    -3.926      2.598      4.562
REMARK INTER + INTRA:          -8.839
REMARK INTER:                  -6.874
REMARK INTRA:                  -1.966
REMARK UNBOUND:                -2.159
REMARK SMILES CCCCCCCCCCCCCC(=O)[O-]
REMARK SMILES IDX 8 1 9 2 10 3 11 4 12 5 13 6 14 7 15 8 16 9 7 10 6 11 5 12
REMARK SMILES IDX 4 13 3 14 2 15 1 16
REMARK H PARENT
REMARK Flexibility Score: inf
ROOT
ATOM      1  C   UNL     1     -17.519  43.867  -5.993  1.00  0.00     0.000 C 
ENDROOT
BRANCH   1   2
ATOM      2  C   UNL     1     -18.952  44.348  -5.718  1.00  0.00     0.000 C 
BRANCH   2   3
ATOM      3  C   UNL     1     -19.119  45.869  -5.892  1.00  0.00     0.000 C 
BRANCH   3   4
ATOM      4  C   UNL     1     -19.759  46.304  -7.222  1.00  0.00     0.000 C 
BRANCH   4   5
ATOM      5  C   UNL     1     -20.500  45.163  -7.933  1.00  0.00     0.006 C 
BRANCH   5   6
ATOM      6  C   UNL     1     -20.126  45.107  -9.417  1.00  0.00     0.053 C 
BRANCH   6   7
ATOM      7  C   UNL     1     -20.024  43.688  -9.879  1.00  0.00     0.041 C 
ATOM      8  O   UNL     1     -20.555  42.763  -9.209  1.00  0.00    -0.550 OA
ATOM      9  O   UNL     1     -19.301  43.379 -11.024  1.00  0.00    -0.550 OA
ENDBRANCH   6   7
ENDBRANCH   5   6
ENDBRANCH   4   5
ENDBRANCH   3   4
ENDBRANCH   2   3
ENDBRANCH   1   2
BRANCH   1  10
ATOM     10  C   UNL     1     -17.447  43.088  -7.314  1.00  0.00     0.000 C 
BRANCH  10  11
ATOM     11  C   UNL     1     -16.333  43.597  -8.246  1.00  0.00    -0.000 C 
BRANCH  11  12
ATOM     12  C   UNL     1     -16.557  45.013  -8.815  1.00  0.00    -0.000 C 
BRANCH  12  13
ATOM     13  C   UNL     1     -15.496  46.056  -8.412  1.00  0.00    -0.000 C 
BRANCH  13  14
ATOM     14  C   UNL     1     -15.709  46.700  -7.030  1.00  0.00    -0.000 C 
BRANCH  14  15
ATOM     15  C   UNL     1     -14.710  46.199  -5.979  1.00  0.00    -0.003 C 
ATOM     16  C   UNL     1     -14.782  47.040  -4.707  1.00  0.00     0.004 C 
ENDBRANCH  14  15
ENDBRANCH  13  14
ENDBRANCH  12  13
ENDBRANCH  11  12
ENDBRANCH  10  11
ENDBRANCH   1  10
TORSDOF 12
ENDMDL
MODEL 7
REMARK VINA RESULT:    -3.909      1.171      2.640
REMARK INTER + INTRA:          -8.810
REMARK INTER:                  -6.733
REMARK INTRA:                  -2.077
REMARK UNBOUND:                -2.159
REMARK SMILES CCCCCCCCCCCCCC(=O)[O-]
REMARK SMILES IDX 8 1 9 2 10 3 11 4 12 5 13 6 14 7 15 8 16 9 7 10 6 11 5 12
REMARK SMILES IDX 4 13 3 14 2 15 1 16
REMARK H PARENT
REMARK Flexibility Score: inf
ROOT
ATOM      1  C   UNL     1     -20.299  44.503  -6.462  1.00  0.00     0.000 C 
ENDROOT
BRANCH   1   2
ATOM      2  C   UNL     1     -18.932  44.644  -5.777  1.00  0.00     0.000 C 
BRANCH   2   3
ATOM      3  C   UNL     1     -18.329  46.053  -5.922  1.00  0.00     0.000 C 
BRANCH   3   4
ATOM      4  C   UNL     1     -16.792  46.098  -6.001  1.00  0.00     0.000 C 
BRANCH   4   5
ATOM      5  C   UNL     1     -16.276  46.663  -7.331  1.00  0.00     0.006 C 
BRANCH   5   6
ATOM      6  C   UNL     1     -17.407  47.334  -8.117  1.00  0.00     0.053 C 
BRANCH   6   7
ATOM      7  C   UNL     1     -16.920  47.779  -9.460  1.00  0.00     0.041 C 
ATOM      8  O   UNL     1     -16.990  47.002 -10.449  1.00  0.00    -0.550 OA
ATOM      9  O   UNL     1     -16.343  49.034  -9.609  1.00  0.00    -0.550 OA
ENDBRANCH   6   7
ENDBRANCH   5   6
ENDBRANCH   4   5
ENDBRANCH   3   4
ENDBRANCH   2   3
ENDBRANCH   1   2
BRANCH   1  10
ATOM     10  C   UNL     1     -20.455  45.529  -7.593  1.00  0.00     0.000 C 
BRANCH  10  11
ATOM     11  C   UNL     1     -20.307  44.904  -8.991  1.00  0.00    -0.000 C 
BRANCH  11  12
ATOM     12  C   UNL     1     -20.338  43.363  -9.021  1.00  0.00    -0.000 C 
BRANCH  12  13
ATOM     13  C   UNL     1     -18.985  42.686  -9.319  1.00  0.00    -0.000 C 
BRANCH  13  14
ATOM     14  C   UNL     1     -17.874  43.638  -9.798  1.00  0.00    -0.000 C 
BRANCH  14  15
ATOM     15  C   UNL     1     -16.579  43.497  -8.987  1.00  0.00    -0.003 C 
ATOM     16  C   UNL     1     -16.815  42.695  -7.709  1.00  0.00     0.004 C 
ENDBRANCH  14  15
ENDBRANCH  13  14
ENDBRANCH  12  13
ENDBRANCH  11  12
ENDBRANCH  10  11
ENDBRANCH   1  10
TORSDOF 12
ENDMDL
MODEL 8
REMARK VINA RESULT:    -3.847      1.247      2.826
REMARK INTER + INTRA:          -8.705
REMARK INTER:                  -6.360
REMARK INTRA:                  -2.345
REMARK UNBOUND:                -2.159
REMARK SMILES CCCCCCCCCCCCCC(=O)[O-]
REMARK SMILES IDX 8 1 9 2 10 3 11 4 12 5 13 6 14 7 15 8 16 9 7 10 6 11 5 12
REMARK SMILES IDX 4 13 3 14 2 15 1 16
REMARK H PARENT
REMARK Flexibility Score: inf
ROOT
ATOM      1  C   UNL     1     -17.285  43.128  -6.978  1.00  0.00     0.000 C 
ENDROOT
BRANCH   1   2
ATOM      2  C   UNL     1     -16.791  43.137  -8.433  1.00  0.00     0.000 C 
BRANCH   2   3
ATOM      3  C   UNL     1     -16.450  44.548  -8.944  1.00  0.00     0.000 C 
BRANCH   3   4
ATOM      4  C   UNL     1     -17.162  44.958 -10.245  1.00  0.00     0.000 C 
BRANCH   4   5
ATOM      5  C   UNL     1     -17.437  46.466 -10.328  1.00  0.00     0.006 C 
BRANCH   5   6
ATOM      6  C   UNL     1     -17.151  47.151  -8.988  1.00  0.00     0.053 C 
BRANCH   6   7
ATOM      7  C   UNL     1     -16.009  48.107  -9.121  1.00  0.00     0.041 C 
ATOM      8  O   UNL     1     -16.120  49.131  -9.847  1.00  0.00    -0.550 OA
ATOM      9  O   UNL     1     -14.803  47.844  -8.483  1.00  0.00    -0.550 OA
ENDBRANCH   6   7
ENDBRANCH   5   6
ENDBRANCH   4   5
ENDBRANCH   3   4
ENDBRANCH   2   3
ENDBRANCH   1   2
BRANCH   1  10
ATOM     10  C   UNL     1     -17.058  44.493  -6.314  1.00  0.00     0.000 C 
BRANCH  10  11
ATOM     11  C   UNL     1     -18.368  45.162  -5.861  1.00  0.00    -0.000 C 
BRANCH  11  12
ATOM     12  C   UNL     1     -19.642  44.625  -6.544  1.00  0.00    -0.000 C 
BRANCH  12  13
ATOM     13  C   UNL     1     -20.240  45.542  -7.630  1.00  0.00    -0.000 C 
BRANCH  13  14
ATOM     14  C   UNL     1     -20.543  44.848  -8.970  1.00  0.00    -0.000 C 
BRANCH  14  15
ATOM     15  C   UNL     1     -20.471  43.318  -8.878  1.00  0.00    -0.003 C 
ATOM     16  C   UNL     1     -20.108  42.702 -10.227  1.00  0.00     0.004 C 
ENDBRANCH  14  15
ENDBRANCH  13  14
ENDBRANCH  12  13
ENDBRANCH  11  12
ENDBRANCH  10  11
ENDBRANCH   1  10
TORSDOF 12
ENDMDL
MODEL 9
REMARK VINA RESULT:    -3.824      1.904      3.319
REMARK INTER + INTRA:          -8.666
REMARK INTER:                  -6.514
REMARK INTRA:                  -2.151
REMARK UNBOUND:                -2.159
REMARK SMILES CCCCCCCCCCCCCC(=O)[O-]
REMARK SMILES IDX 8 1 9 2 10 3 11 4 12 5 13 6 14 7 15 8 16 9 7 10 6 11 5 12
REMARK SMILES IDX 4 13 3 14 2 15 1 16
REMARK H PARENT
REMARK Flexibility Score: inf
ROOT
ATOM      1  C   UNL     1     -20.565  44.999  -8.745  1.00  0.00     0.000 C 
ENDROOT
BRANCH   1   2
ATOM      2  C   UNL     1     -20.035  45.619  -7.444  1.00  0.00     0.000 C 
BRANCH   2   3
ATOM      3  C   UNL     1     -19.867  44.589  -6.311  1.00  0.00     0.000 C 
BRANCH   3   4
ATOM      4  C   UNL     1     -18.413  44.333  -5.877  1.00  0.00     0.000 C 
BRANCH   4   5
ATOM      5  C   UNL     1     -17.554  45.606  -5.874  1.00  0.00     0.006 C 
BRANCH   5   6
ATOM      6  C   UNL     1     -16.062  45.261  -5.862  1.00  0.00     0.053 C 
BRANCH   6   7
ATOM      7  C   UNL     1     -15.237  46.506  -5.789  1.00  0.00     0.041 C 
ATOM      8  O   UNL     1     -14.653  46.941  -6.817  1.00  0.00    -0.550 OA
ATOM      9  O   UNL     1     -15.070  47.160  -4.575  1.00  0.00    -0.550 OA
ENDBRANCH   6   7
ENDBRANCH   5   6
ENDBRANCH   4   5
ENDBRANCH   3   4
ENDBRANCH   2   3
ENDBRANCH   1   2
BRANCH   1  10
ATOM     10  C   UNL     1     -20.601  43.467  -8.648  1.00  0.00     0.000 C 
BRANCH  10  11
ATOM     11  C   UNL     1     -19.765  42.780  -9.743  1.00  0.00    -0.000 C 
BRANCH  11  12
ATOM     12  C   UNL     1     -18.595  43.620 -10.291  1.00  0.00    -0.000 C 
BRANCH  12  13
ATOM     13  C   UNL     1     -17.311  43.590  -9.437  1.00  0.00    -0.000 C 
BRANCH  13  14
ATOM     14  C   UNL     1     -16.524  44.913  -9.403  1.00  0.00    -0.000 C 
BRANCH  14  15
ATOM     15  C   UNL     1     -17.281  46.073 -10.062  1.00  0.00    -0.003 C 
ATOM     16  C   UNL     1     -17.257  47.318  -9.178  1.00  0.00     0.004 C 
ENDBRANCH  14  15
ENDBRANCH  13  14
ENDBRANCH  12  13
ENDBRANCH  11  12
ENDBRANCH  10  11
ENDBRANCH   1  10
TORSDOF 12
ENDMDL
