MODEL 1
REMARK VINA RESULT:    -2.367      0.000      0.000
REMARK INTER + INTRA:          -5.542
REMARK INTER:                  -4.582
REMARK INTRA:                  -0.960
REMARK UNBOUND:                -0.960
REMARK SMILES CCCCCCCCCCCCCCCCCC(=O)[O-]
REMARK SMILES IDX 10 1 11 2 12 3 13 4 14 5 15 6 16 7 17 8 18 9 19 10 20 11
REMARK SMILES IDX 9 12 8 13 7 14 6 15 5 16 4 17 3 18 2 19 1 20
REMARK H PARENT
REMARK Flexibility Score: inf
ROOT
ATOM      1  C   UNL     1      -7.167  -8.172  -5.634  1.00  0.00     0.000 C 
ENDROOT
BRANCH   1   2
ATOM      2  C   UNL     1      -7.930  -9.380  -6.204  1.00  0.00     0.000 C 
BRANCH   2   3
ATOM      3  C   UNL     1      -7.252  -9.986  -7.447  1.00  0.00     0.000 C 
BRANCH   3   4
ATOM      4  C   UNL     1      -8.152 -10.123  -8.689  1.00  0.00     0.000 C 
BRANCH   4   5
ATOM      5  C   UNL     1      -9.638  -9.875  -8.382  1.00  0.00     0.000 C 
BRANCH   5   6
ATOM      6  C   UNL     1     -10.111  -8.469  -8.796  1.00  0.00     0.000 C 
BRANCH   6   7
ATOM      7  C   UNL     1      -9.903  -7.369  -7.740  1.00  0.00     0.006 C 
BRANCH   7   8
ATOM      8  C   UNL     1      -9.697  -5.979  -8.356  1.00  0.00     0.053 C 
BRANCH   8   9
ATOM      9  C   UNL     1      -9.542  -4.948  -7.281  1.00  0.00     0.041 C 
ATOM     10  O   UNL     1      -9.135  -3.791  -7.566  1.00  0.00    -0.550 OA
ATOM     11  O   UNL     1      -9.798  -5.281  -5.957  1.00  0.00    -0.550 OA
ENDBRANCH   8   9
ENDBRANCH   7   8
ENDBRANCH   6   7
ENDBRANCH   5   6
ENDBRANCH   4   5
ENDBRANCH   3   4
ENDBRANCH   2   3
ENDBRANCH   1   2
BRANCH   1  12
ATOM     12  C   UNL     1      -6.572  -7.280  -6.736  1.00  0.00     0.000 C 
BRANCH  12  13
ATOM     13  C   UNL     1      -5.122  -6.865  -6.438  1.00  0.00    -0.000 C 
BRANCH  13  14
ATOM     14  C   UNL     1      -4.098  -7.592  -7.326  1.00  0.00    -0.000 C 
BRANCH  14  15
ATOM     15  C   UNL     1      -3.543  -8.888  -6.696  1.00  0.00    -0.000 C 
BRANCH  15  16
ATOM     16  C   UNL     1      -3.828 -10.124  -7.566  1.00  0.00    -0.000 C 
BRANCH  16  17
ATOM     17  C   UNL     1      -3.115 -10.075  -8.930  1.00  0.00    -0.000 C 
BRANCH  17  18
ATOM     18  C   UNL     1      -4.025  -9.733 -10.123  1.00  0.00    -0.000 C 
BRANCH  18  19
ATOM     19  C   UNL     1      -4.485  -8.269 -10.124  1.00  0.00    -0.003 C 
ATOM     20  C   UNL     1      -6.004  -8.169 -10.017  1.00  0.00     0.004 C 
ENDBRANCH  18  19
ENDBRANCH  17  18
ENDBRANCH  16  17
ENDBRANCH  15  16
ENDBRANCH  14  15
ENDBRANCH  13  14
ENDBRANCH  12  13
ENDBRANCH   1  12
TORSDOF 16
ENDMDL
MODEL 2
REMARK VINA RESULT:    -0.279      1.980      4.039
REMARK INTER + INTRA:          -1.500
REMARK INTER:                  -1.211
REMARK INTRA:                  -0.289
REMARK UNBOUND:                -0.960
REMARK SMILES CCCCCCCCCCCCCCCCCC(=O)[O-]
REMARK SMILES IDX 10 1 11 2 12 3 13 4 14 5 15 6 16 7 17 8 18 9 19 10 20 11
REMARK SMILES IDX 9 12 8 13 7 14 6 15 5 16 4 17 3 18 2 19 1 20
REMARK H PARENT
REMARK Flexibility Score: inf
ROOT
ATOM      1  C   UNL     1      -5.942  -7.967  -5.187  1.00  0.00     0.000 C 
ENDROOT
BRANCH   1   2
ATOM      2  C   UNL     1      -5.463  -7.509  -6.576  1.00  0.00     0.000 C 
BRANCH   2   3
ATOM      3  C   UNL     1      -6.624  -7.193  -7.538  1.00  0.00     0.000 C 
BRANCH   3   4
ATOM      4  C   UNL     1      -7.510  -6.001  -7.133  1.00  0.00     0.000 C 
BRANCH   4   5
ATOM      5  C   UNL     1      -8.240  -6.223  -5.797  1.00  0.00     0.000 C 
BRANCH   5   6
ATOM      6  C   UNL     1      -9.695  -5.720  -5.815  1.00  0.00     0.000 C 
BRANCH   6   7
ATOM      7  C   UNL     1     -10.021  -4.694  -6.916  1.00  0.00     0.006 C 
BRANCH   7   8
ATOM      8  C   UNL     1     -10.125  -5.325  -8.311  1.00  0.00     0.053 C 
BRANCH   8   9
ATOM      9  C   UNL     1      -9.541  -4.411  -9.342  1.00  0.00     0.041 C 
ATOM     10  O   UNL     1      -8.636  -4.823 -10.115  1.00  0.00    -0.550 OA
ATOM     11  O   UNL     1      -9.960  -3.089  -9.417  1.00  0.00    -0.550 OA
ENDBRANCH   8   9
ENDBRANCH   7   8
ENDBRANCH   6   7
ENDBRANCH   5   6
ENDBRANCH   4   5
ENDBRANCH   3   4
ENDBRANCH   2   3
ENDBRANCH   1   2
BRANCH   1  12
ATOM     12  C   UNL     1      -6.016  -9.498  -5.068  1.00  0.00     0.000 C 
BRANCH  12  13
ATOM     13  C   UNL     1      -7.057 -10.112  -6.018  1.00  0.00    -0.000 C 
BRANCH  13  14
ATOM     14  C   UNL     1      -8.505  -9.842  -5.574  1.00  0.00    -0.000 C 
BRANCH  14  15
ATOM     15  C   UNL     1      -9.279  -8.906  -6.527  1.00  0.00    -0.000 C 
BRANCH  15  16
ATOM     16  C   UNL     1      -9.909  -9.670  -7.705  1.00  0.00    -0.000 C 
BRANCH  16  17
ATOM     17  C   UNL     1     -10.064  -8.802  -8.968  1.00  0.00    -0.000 C 
BRANCH  17  18
ATOM     18  C   UNL     1      -8.806  -8.716  -9.851  1.00  0.00    -0.000 C 
BRANCH  18  19
ATOM     19  C   UNL     1      -7.873  -9.924  -9.683  1.00  0.00    -0.003 C 
ATOM     20  C   UNL     1      -6.438  -9.566 -10.056  1.00  0.00     0.004 C 
ENDBRANCH  18  19
ENDBRANCH  17  18
ENDBRANCH  16  17
ENDBRANCH  15  16
ENDBRANCH  14  15
ENDBRANCH  13  14
ENDBRANCH  12  13
ENDBRANCH   1  12
TORSDOF 16
ENDMDL
MODEL 3
REMARK VINA RESULT:    -0.180      1.464      3.491
REMARK INTER + INTRA:          -1.308
REMARK INTER:                  -2.888
REMARK INTRA:                   1.580
REMARK UNBOUND:                -0.960
REMARK SMILES CCCCCCCCCCCCCCCCCC(=O)[O-]
REMARK SMILES IDX 10 1 11 2 12 3 13 4 14 5 15 6 16 7 17 8 18 9 19 10 20 11
REMARK SMILES IDX 9 12 8 13 7 14 6 15 5 16 4 17 3 18 2 19 1 20
REMARK H PARENT
REMARK Flexibility Score: inf
ROOT
ATOM      1  C   UNL     1      -6.909  -8.663  -5.010  1.00  0.00     0.000 C 
ENDROOT
BRANCH   1   2
ATOM      2  C   UNL     1      -5.751  -8.202  -5.911  1.00  0.00     0.000 C 
BRANCH   2   3
ATOM      3  C   UNL     1      -6.045  -6.874  -6.635  1.00  0.00     0.000 C 
BRANCH   3   4
ATOM      4  C   UNL     1      -7.167  -6.020  -6.016  1.00  0.00     0.000 C 
BRANCH   4   5
ATOM      5  C   UNL     1      -8.464  -6.812  -5.782  1.00  0.00     0.000 C 
BRANCH   5   6
ATOM      6  C   UNL     1      -9.717  -6.079  -6.296  1.00  0.00     0.000 C 
BRANCH   6   7
ATOM      7  C   UNL     1      -9.753  -4.565  -6.018  1.00  0.00     0.006 C 
BRANCH   7   8
ATOM      8  C   UNL     1     -10.124  -3.737  -7.255  1.00  0.00     0.053 C 
BRANCH   8   9
ATOM      9  C   UNL     1      -9.761  -4.475  -8.506  1.00  0.00     0.041 C 
ATOM     10  O   UNL     1      -9.712  -5.734  -8.508  1.00  0.00    -0.550 OA
ATOM     11  O   UNL     1      -9.427  -3.771  -9.656  1.00  0.00    -0.550 OA
ENDBRANCH   8   9
ENDBRANCH   7   8
ENDBRANCH   6   7
ENDBRANCH   5   6
ENDBRANCH   4   5
ENDBRANCH   3   4
ENDBRANCH   2   3
ENDBRANCH   1   2
BRANCH   1  12
ATOM     12  C   UNL     1      -7.772  -9.750  -5.672  1.00  0.00     0.000 C 
BRANCH  12  13
ATOM     13  C   UNL     1      -7.270 -10.121  -7.077  1.00  0.00    -0.000 C 
BRANCH  13  14
ATOM     14  C   UNL     1      -8.377 -10.055  -8.144  1.00  0.00    -0.000 C 
BRANCH  14  15
ATOM     15  C   UNL     1      -8.602  -8.637  -8.713  1.00  0.00    -0.000 C 
BRANCH  15  16
ATOM     16  C   UNL     1      -7.691  -8.343  -9.917  1.00  0.00    -0.000 C 
BRANCH  16  17
ATOM     17  C   UNL     1      -6.397  -9.177  -9.908  1.00  0.00    -0.000 C 
BRANCH  17  18
ATOM     18  C   UNL     1      -5.098  -8.358 -10.019  1.00  0.00    -0.000 C 
BRANCH  18  19
ATOM     19  C   UNL     1      -4.036  -8.779  -8.993  1.00  0.00    -0.003 C 
ATOM     20  C   UNL     1      -3.258  -7.571  -8.480  1.00  0.00     0.004 C 
ENDBRANCH  18  19
ENDBRANCH  17  18
ENDBRANCH  16  17
ENDBRANCH  15  16
ENDBRANCH  14  15
ENDBRANCH  13  14
ENDBRANCH  12  13
ENDBRANCH   1  12
TORSDOF 16
ENDMDL
MODEL 4
REMARK VINA RESULT:     0.519     14.278     16.002
REMARK INTER + INTRA:           0.044
REMARK INTER:                   0.636
REMARK INTRA:                  -0.593
REMARK UNBOUND:                -0.960
REMARK SMILES CCCCCCCCCCCCCCCCCC(=O)[O-]
REMARK SMILES IDX 10 1 11 2 12 3 13 4 14 5 15 6 16 7 17 8 18 9 19 10 20 11
REMARK SMILES IDX 9 12 8 13 7 14 6 15 5 16 4 17 3 18 2 19 1 20
REMARK H PARENT
REMARK Flexibility Score: inf
ROOT
ATOM      1  C   UNL     1       1.898   3.719  -1.610  1.00  0.00     0.000 C 
ENDROOT
BRANCH   1   2
ATOM      2  C   UNL     1       2.253   2.230  -1.770  1.00  0.00     0.000 C 
BRANCH   2   3
ATOM      3  C   UNL     1       2.572   1.541  -0.430  1.00  0.00     0.000 C 
BRANCH   3   4
ATOM      4  C   UNL     1       1.933   0.155  -0.231  1.00  0.00     0.000 C 
BRANCH   4   5
ATOM      5  C   UNL     1       1.832  -0.252   1.249  1.00  0.00     0.000 C 
BRANCH   5   6
ATOM      6  C   UNL     1       1.150  -1.618   1.452  1.00  0.00     0.000 C 
BRANCH   6   7
ATOM      7  C   UNL     1       0.679  -1.909   2.889  1.00  0.00     0.006 C 
BRANCH   7   8
ATOM      8  C   UNL     1      -0.828  -1.697   3.079  1.00  0.00     0.053 C 
BRANCH   8   9
ATOM      9  C   UNL     1      -1.087  -0.822   4.266  1.00  0.00     0.041 C 
ATOM     10  O   UNL     1      -0.962   0.428   4.171  1.00  0.00    -0.550 OA
ATOM     11  O   UNL     1      -1.417  -1.390   5.490  1.00  0.00    -0.550 OA
ENDBRANCH   8   9
ENDBRANCH   7   8
ENDBRANCH   6   7
ENDBRANCH   5   6
ENDBRANCH   4   5
ENDBRANCH   3   4
ENDBRANCH   2   3
ENDBRANCH   1   2
BRANCH   1  12
ATOM     12  C   UNL     1       1.889   4.468  -2.953  1.00  0.00     0.000 C 
BRANCH  12  13
ATOM     13  C   UNL     1       0.556   5.185  -3.216  1.00  0.00    -0.000 C 
BRANCH  13  14
ATOM     14  C   UNL     1      -0.042   4.850  -4.594  1.00  0.00    -0.000 C 
BRANCH  14  15
ATOM     15  C   UNL     1       0.033   6.018  -5.601  1.00  0.00    -0.000 C 
BRANCH  15  16
ATOM     16  C   UNL     1       0.470   5.551  -7.000  1.00  0.00    -0.000 C 
BRANCH  16  17
ATOM     17  C   UNL     1       0.548   6.703  -8.019  1.00  0.00    -0.000 C 
BRANCH  17  18
ATOM     18  C   UNL     1       0.041   8.061  -7.501  1.00  0.00    -0.000 C 
BRANCH  18  19
ATOM     19  C   UNL     1      -1.102   8.636  -8.349  1.00  0.00    -0.003 C 
ATOM     20  C   UNL     1      -0.876   8.363  -9.833  1.00  0.00     0.004 C 
ENDBRANCH  18  19
ENDBRANCH  17  18
ENDBRANCH  16  17
ENDBRANCH  15  16
ENDBRANCH  14  15
ENDBRANCH  13  14
ENDBRANCH  12  13
ENDBRANCH   1  12
TORSDOF 16
ENDMDL
MODEL 5
REMARK VINA RESULT:     0.549     14.232     15.951
REMARK INTER + INTRA:           0.103
REMARK INTER:                   0.661
REMARK INTRA:                  -0.557
REMARK UNBOUND:                -0.960
REMARK SMILES CCCCCCCCCCCCCCCCCC(=O)[O-]
REMARK SMILES IDX 10 1 11 2 12 3 13 4 14 5 15 6 16 7 17 8 18 9 19 10 20 11
REMARK SMILES IDX 9 12 8 13 7 14 6 15 5 16 4 17 3 18 2 19 1 20
REMARK H PARENT
REMARK Flexibility Score: inf
ROOT
ATOM      1  C   UNL     1       2.437   2.358  -1.863  1.00  0.00     0.000 C 
ENDROOT
BRANCH   1   2
ATOM      2  C   UNL     1       1.855   3.769  -1.668  1.00  0.00     0.000 C 
BRANCH   2   3
ATOM      3  C   UNL     1       1.830   4.593  -2.969  1.00  0.00     0.000 C 
BRANCH   3   4
ATOM      4  C   UNL     1       0.468   5.212  -3.333  1.00  0.00     0.000 C 
BRANCH   4   5
ATOM      5  C   UNL     1      -0.002   4.838  -4.748  1.00  0.00     0.000 C 
BRANCH   5   6
ATOM      6  C   UNL     1      -0.175   6.061  -5.668  1.00  0.00     0.000 C 
BRANCH   6   7
ATOM      7  C   UNL     1       0.464   5.930  -7.062  1.00  0.00     0.006 C 
BRANCH   7   8
ATOM      8  C   UNL     1       0.352   7.213  -7.896  1.00  0.00     0.053 C 
BRANCH   8   9
ATOM      9  C   UNL     1       1.349   7.201  -9.012  1.00  0.00     0.041 C 
ATOM     10  O   UNL     1       1.388   8.151  -9.838  1.00  0.00    -0.550 OA
ATOM     11  O   UNL     1       2.202   6.116  -9.170  1.00  0.00    -0.550 OA
ENDBRANCH   8   9
ENDBRANCH   7   8
ENDBRANCH   6   7
ENDBRANCH   5   6
ENDBRANCH   4   5
ENDBRANCH   3   4
ENDBRANCH   2   3
ENDBRANCH   1   2
BRANCH   1  12
ATOM     12  C   UNL     1       2.637   1.617  -0.531  1.00  0.00     0.000 C 
BRANCH  12  13
ATOM     13  C   UNL     1       2.551   0.090  -0.690  1.00  0.00    -0.000 C 
BRANCH  13  14
ATOM     14  C   UNL     1       1.454  -0.541   0.186  1.00  0.00    -0.000 C 
BRANCH  14  15
ATOM     15  C   UNL     1       1.791  -0.545   1.692  1.00  0.00    -0.000 C 
BRANCH  15  16
ATOM     16  C   UNL     1       1.260  -1.802   2.403  1.00  0.00    -0.000 C 
BRANCH  16  17
ATOM     17  C   UNL     1      -0.276  -1.901   2.377  1.00  0.00    -0.000 C 
BRANCH  17  18
ATOM     18  C   UNL     1      -0.953  -1.812   3.757  1.00  0.00    -0.000 C 
BRANCH  18  19
ATOM     19  C   UNL     1      -1.118  -0.367   4.250  1.00  0.00    -0.003 C 
ATOM     20  C   UNL     1      -1.777  -0.328   5.625  1.00  0.00     0.004 C 
ENDBRANCH  18  19
ENDBRANCH  17  18
ENDBRANCH  16  17
ENDBRANCH  15  16
ENDBRANCH  14  15
ENDBRANCH  13  14
ENDBRANCH  12  13
ENDBRANCH   1  12
TORSDOF 16
ENDMDL
MODEL 6
REMARK VINA RESULT:     0.602     14.273     15.869
REMARK INTER + INTRA:           0.205
REMARK INTER:                   0.730
REMARK INTRA:                  -0.524
REMARK UNBOUND:                -0.960
REMARK SMILES CCCCCCCCCCCCCCCCCC(=O)[O-]
REMARK SMILES IDX 10 1 11 2 12 3 13 4 14 5 15 6 16 7 17 8 18 9 19 10 20 11
REMARK SMILES IDX 9 12 8 13 7 14 6 15 5 16 4 17 3 18 2 19 1 20
REMARK H PARENT
REMARK Flexibility Score: inf
ROOT
ATOM      1  C   UNL     1       1.915   3.731  -1.580  1.00  0.00     0.000 C 
ENDROOT
BRANCH   1   2
ATOM      2  C   UNL     1       1.916   4.530  -2.896  1.00  0.00     0.000 C 
BRANCH   2   3
ATOM      3  C   UNL     1       0.556   5.185  -3.201  1.00  0.00     0.000 C 
BRANCH   3   4
ATOM      4  C   UNL     1      -0.083   4.785  -4.544  1.00  0.00     0.000 C 
BRANCH   4   5
ATOM      5  C   UNL     1      -0.014   5.903  -5.597  1.00  0.00     0.000 C 
BRANCH   5   6
ATOM      6  C   UNL     1       0.546   5.422  -6.949  1.00  0.00     0.000 C 
BRANCH   6   7
ATOM      7  C   UNL     1       0.410   6.425  -8.110  1.00  0.00     0.006 C 
BRANCH   7   8
ATOM      8  C   UNL     1       0.358   7.884  -7.638  1.00  0.00     0.053 C 
BRANCH   8   9
ATOM      9  C   UNL     1      -0.885   8.551  -8.140  1.00  0.00     0.041 C 
ATOM     10  O   UNL     1      -1.200   8.471  -9.357  1.00  0.00    -0.550 OA
ATOM     11  O   UNL     1      -1.668   9.303  -7.273  1.00  0.00    -0.550 OA
ENDBRANCH   8   9
ENDBRANCH   7   8
ENDBRANCH   6   7
ENDBRANCH   5   6
ENDBRANCH   4   5
ENDBRANCH   3   4
ENDBRANCH   2   3
ENDBRANCH   1   2
BRANCH   1  12
ATOM     12  C   UNL     1       2.114   2.224  -1.809  1.00  0.00     0.000 C 
BRANCH  12  13
ATOM     13  C   UNL     1       2.610   1.499  -0.547  1.00  0.00    -0.000 C 
BRANCH  13  14
ATOM     14  C   UNL     1       1.953   0.121  -0.352  1.00  0.00    -0.000 C 
BRANCH  14  15
ATOM     15  C   UNL     1       1.961  -0.365   1.113  1.00  0.00    -0.000 C 
BRANCH  15  16
ATOM     16  C   UNL     1       1.017  -1.560   1.334  1.00  0.00    -0.000 C 
BRANCH  16  17
ATOM     17  C   UNL     1       0.671  -1.785   2.817  1.00  0.00    -0.000 C 
BRANCH  17  18
ATOM     18  C   UNL     1      -0.821  -2.035   3.103  1.00  0.00    -0.000 C 
BRANCH  18  19
ATOM     19  C   UNL     1      -1.198  -1.790   4.571  1.00  0.00    -0.003 C 
ATOM     20  C   UNL     1      -1.485  -0.313   4.825  1.00  0.00     0.004 C 
ENDBRANCH  18  19
ENDBRANCH  17  18
ENDBRANCH  16  17
ENDBRANCH  15  16
ENDBRANCH  14  15
ENDBRANCH  13  14
ENDBRANCH  12  13
ENDBRANCH   1  12
TORSDOF 16
ENDMDL
