MODEL 1
REMARK VINA RESULT:    -5.840      0.000      0.000
REMARK INTER + INTRA:          -7.358
REMARK INTER:                  -7.035
REMARK INTRA:                  -0.323
REMARK UNBOUND:                -0.323
REMARK SMILES O=c1c(O)c(-c2ccc(O)cc2O)oc2cc(O)cc(O)c12
REMARK SMILES IDX 5 1 3 2 2 3 1 4 22 5 20 6 19 7 17 8 16 9 15 10 14 11 6 12
REMARK SMILES IDX 8 13 7 14 9 15 11 16 12 17 10 18 13 20 4 22 21 24 18 26
REMARK H PARENT 10 19 13 21 4 23 21 25 18 27
REMARK Flexibility Score: inf
ROOT
ATOM      1  C   UNL     1       5.876 -17.174  14.320  1.00  0.00     0.184 A 
ATOM      2  C   UNL     1       6.753 -16.084  14.427  1.00  0.00     0.208 A 
ATOM      3  C   UNL     1       6.228 -14.813  14.708  1.00  0.00     0.238 A 
ATOM      4  O   UNL     1       7.013 -13.830  14.742  1.00  0.00    -0.285 OA
ATOM      5  C   UNL     1       4.835 -14.655  14.905  1.00  0.00     0.111 A 
ATOM      6  C   UNL     1       4.196 -13.421  15.234  1.00  0.00     0.134 A 
ATOM      7  C   UNL     1       2.798 -13.359  15.285  1.00  0.00     0.093 A 
ATOM      8  C   UNL     1       2.018 -14.501  15.085  1.00  0.00     0.123 A 
ATOM      9  C   UNL     1       2.634 -15.722  14.822  1.00  0.00     0.094 A 
ATOM     10  C   UNL     1       4.025 -15.808  14.726  1.00  0.00     0.146 A 
ATOM     11  O   UNL     1       4.570 -16.990  14.460  1.00  0.00    -0.451 OA
ENDROOT
BRANCH   1  12
ATOM     12  C   UNL     1       6.376 -18.540  14.050  1.00  0.00     0.063 A 
ATOM     13  C   UNL     1       7.556 -20.073  12.575  1.00  0.00     0.047 A 
ATOM     14  C   UNL     1       7.025 -18.807  12.833  1.00  0.00     0.020 A 
ATOM     15  C   UNL     1       7.454 -21.086  13.530  1.00  0.00     0.119 A 
ATOM     16  C   UNL     1       6.811 -20.831  14.747  1.00  0.00     0.093 A 
ATOM     17  C   UNL     1       6.265 -19.569  15.014  1.00  0.00     0.130 A 
BRANCH  15  18
ATOM     18  O   UNL     1       7.994 -22.342  13.260  1.00  0.00    -0.508 OA
ATOM     19  H   UNL     1       8.861 -22.649  13.687  1.00  0.00     0.293 HD
ENDBRANCH  15  18
BRANCH  17  20
ATOM     20  O   UNL     1       5.603 -19.380  16.230  1.00  0.00    -0.507 OA
ATOM     21  H   UNL     1       4.965 -18.615  16.397  1.00  0.00     0.293 HD
ENDBRANCH  17  20
ENDBRANCH   1  12
BRANCH   2  22
ATOM     22  O   UNL     1       8.125 -16.270  14.231  1.00  0.00    -0.502 OA
ATOM     23  H   UNL     1       8.821 -15.825  14.816  1.00  0.00     0.293 HD
ENDBRANCH   2  22
BRANCH   6  24
ATOM     24  O   UNL     1       4.884 -12.244  15.541  1.00  0.00    -0.507 OA
ATOM     25  H   UNL     1       4.491 -11.317  15.495  1.00  0.00     0.293 HD
ENDBRANCH   6  24
BRANCH   8  26
ATOM     26  O   UNL     1       0.629 -14.433  15.154  1.00  0.00    -0.508 OA
ATOM     27  H   UNL     1       0.160 -13.824  15.814  1.00  0.00     0.293 HD
ENDBRANCH   8  26
TORSDOF 6
ENDMDL
MODEL 2
REMARK VINA RESULT:    -5.597      3.411      7.350
REMARK INTER + INTRA:          -7.065
REMARK INTER:                  -6.662
REMARK INTRA:                  -0.403
REMARK UNBOUND:                -0.323
REMARK SMILES O=c1c(O)c(-c2ccc(O)cc2O)oc2cc(O)cc(O)c12
REMARK SMILES IDX 5 1 3 2 2 3 1 4 22 5 20 6 19 7 17 8 16 9 15 10 14 11 6 12
REMARK SMILES IDX 8 13 7 14 9 15 11 16 12 17 10 18 13 20 4 22 21 24 18 26
REMARK H PARENT 10 19 13 21 4 23 21 25 18 27
REMARK Flexibility Score: inf
ROOT
ATOM      1  C   UNL     1       5.827 -11.834  14.452  1.00  0.00     0.184 A 
ATOM      2  C   UNL     1       6.798 -12.720  14.941  1.00  0.00     0.208 A 
ATOM      3  C   UNL     1       6.411 -14.017  15.313  1.00  0.00     0.238 A 
ATOM      4  O   UNL     1       7.275 -14.787  15.808  1.00  0.00    -0.285 OA
ATOM      5  C   UNL     1       5.061 -14.418  15.164  1.00  0.00     0.111 A 
ATOM      6  C   UNL     1       4.563 -15.721  15.471  1.00  0.00     0.134 A 
ATOM      7  C   UNL     1       3.186 -15.968  15.400  1.00  0.00     0.093 A 
ATOM      8  C   UNL     1       2.297 -14.979  14.970  1.00  0.00     0.123 A 
ATOM      9  C   UNL     1       2.780 -13.723  14.612  1.00  0.00     0.094 A 
ATOM     10  C   UNL     1       4.144 -13.434  14.708  1.00  0.00     0.146 A 
ATOM     11  O   UNL     1       4.560 -12.219  14.370  1.00  0.00    -0.451 OA
ENDROOT
BRANCH   1  12
ATOM     12  C   UNL     1       6.182 -10.463  14.024  1.00  0.00     0.063 A 
ATOM     13  C   UNL     1       6.511  -8.121  14.594  1.00  0.00     0.047 A 
ATOM     14  C   UNL     1       6.128  -9.414  14.957  1.00  0.00     0.020 A 
ATOM     15  C   UNL     1       6.961  -7.860  13.299  1.00  0.00     0.119 A 
ATOM     16  C   UNL     1       7.021  -8.897  12.361  1.00  0.00     0.093 A 
ATOM     17  C   UNL     1       6.629 -10.196  12.709  1.00  0.00     0.130 A 
BRANCH  15  18
ATOM     18  O   UNL     1       7.346  -6.566  12.953  1.00  0.00    -0.508 OA
ATOM     19  H   UNL     1       7.581  -5.876  13.658  1.00  0.00     0.293 HD
ENDBRANCH  15  18
BRANCH  17  20
ATOM     20  O   UNL     1       6.675 -11.185  11.724  1.00  0.00    -0.507 OA
ATOM     21  H   UNL     1       5.889 -11.780  11.502  1.00  0.00     0.293 HD
ENDBRANCH  17  20
ENDBRANCH   1  12
BRANCH   2  22
ATOM     22  O   UNL     1       8.124 -12.298  15.074  1.00  0.00    -0.502 OA
ATOM     23  H   UNL     1       8.899 -12.949  15.116  1.00  0.00     0.293 HD
ENDBRANCH   2  22
BRANCH   6  24
ATOM     24  O   UNL     1       5.373 -16.804  15.822  1.00  0.00    -0.507 OA
ATOM     25  H   UNL     1       6.213 -16.739  16.376  1.00  0.00     0.293 HD
ENDBRANCH   6  24
BRANCH   8  26
ATOM     26  O   UNL     1       0.931 -15.240  14.887  1.00  0.00    -0.508 OA
ATOM     27  H   UNL     1       0.457 -15.304  13.994  1.00  0.00     0.293 HD
ENDBRANCH   8  26
TORSDOF 6
ENDMDL
MODEL 3
REMARK VINA RESULT:    -5.450      3.549      5.975
REMARK INTER + INTRA:          -6.888
REMARK INTER:                  -6.505
REMARK INTRA:                  -0.384
REMARK UNBOUND:                -0.323
REMARK SMILES O=c1c(O)c(-c2ccc(O)cc2O)oc2cc(O)cc(O)c12
REMARK SMILES IDX 5 1 3 2 2 3 1 4 22 5 20 6 19 7 17 8 16 9 15 10 14 11 6 12
REMARK SMILES IDX 8 13 7 14 9 15 11 16 12 17 10 18 13 20 4 22 21 24 18 26
REMARK H PARENT 10 19 13 21 4 23 21 25 18 27
REMARK Flexibility Score: inf
ROOT
ATOM      1  C   UNL     1       5.346 -12.521  14.559  1.00  0.00     0.184 A 
ATOM      2  C   UNL     1       4.982 -11.633  15.582  1.00  0.00     0.208 A 
ATOM      3  C   UNL     1       5.281 -10.269  15.438  1.00  0.00     0.238 A 
ATOM      4  O   UNL     1       5.007  -9.487  16.385  1.00  0.00    -0.285 OA
ATOM      5  C   UNL     1       5.916  -9.809  14.258  1.00  0.00     0.111 A 
ATOM      6  C   UNL     1       6.231  -8.442  13.987  1.00  0.00     0.134 A 
ATOM      7  C   UNL     1       6.969  -8.119  12.841  1.00  0.00     0.093 A 
ATOM      8  C   UNL     1       7.346  -9.103  11.924  1.00  0.00     0.123 A 
ATOM      9  C   UNL     1       6.992 -10.431  12.151  1.00  0.00     0.094 A 
ATOM     10  C   UNL     1       6.290 -10.791  13.303  1.00  0.00     0.146 A 
ATOM     11  O   UNL     1       5.985 -12.071  13.487  1.00  0.00    -0.451 OA
ENDROOT
BRANCH   1  12
ATOM     12  C   UNL     1       5.036 -13.965  14.646  1.00  0.00     0.063 A 
ATOM     13  C   UNL     1       3.379 -15.745  14.610  1.00  0.00     0.047 A 
ATOM     14  C   UNL     1       3.697 -14.386  14.586  1.00  0.00     0.020 A 
ATOM     15  C   UNL     1       4.392 -16.703  14.686  1.00  0.00     0.119 A 
ATOM     16  C   UNL     1       5.730 -16.295  14.746  1.00  0.00     0.093 A 
ATOM     17  C   UNL     1       6.062 -14.935  14.733  1.00  0.00     0.130 A 
BRANCH  15  18
ATOM     18  O   UNL     1       4.060 -18.056  14.704  1.00  0.00    -0.508 OA
ATOM     19  H   UNL     1       3.830 -18.556  13.853  1.00  0.00     0.293 HD
ENDBRANCH  15  18
BRANCH  17  20
ATOM     20  O   UNL     1       7.410 -14.583  14.830  1.00  0.00    -0.507 OA
ATOM     21  H   UNL     1       7.736 -13.628  14.785  1.00  0.00     0.293 HD
ENDBRANCH  17  20
ENDBRANCH   1  12
BRANCH   2  22
ATOM     22  O   UNL     1       4.354 -12.115  16.734  1.00  0.00    -0.502 OA
ATOM     23  H   UNL     1       4.235 -11.548  17.564  1.00  0.00     0.293 HD
ENDBRANCH   2  22
BRANCH   6  24
ATOM     24  O   UNL     1       5.823  -7.373  14.789  1.00  0.00    -0.507 OA
ATOM     25  H   UNL     1       6.432  -6.836  15.386  1.00  0.00     0.293 HD
ENDBRANCH   6  24
BRANCH   8  26
ATOM     26  O   UNL     1       8.066  -8.769  10.780  1.00  0.00    -0.508 OA
ATOM     27  H   UNL     1       7.935  -7.881  10.311  1.00  0.00     0.293 HD
ENDBRANCH   8  26
TORSDOF 6
ENDMDL
MODEL 4
REMARK VINA RESULT:    -5.448      1.812      2.288
REMARK INTER + INTRA:          -6.886
REMARK INTER:                  -6.486
REMARK INTRA:                  -0.399
REMARK UNBOUND:                -0.323
REMARK SMILES O=c1c(O)c(-c2ccc(O)cc2O)oc2cc(O)cc(O)c12
REMARK SMILES IDX 5 1 3 2 2 3 1 4 22 5 20 6 19 7 17 8 16 9 15 10 14 11 6 12
REMARK SMILES IDX 8 13 7 14 9 15 11 16 12 17 10 18 13 20 4 22 21 24 18 26
REMARK H PARENT 10 19 13 21 4 23 21 25 18 27
REMARK Flexibility Score: inf
ROOT
ATOM      1  C   UNL     1       5.772 -17.685  15.194  1.00  0.00     0.184 A 
ATOM      2  C   UNL     1       6.293 -17.252  16.423  1.00  0.00     0.208 A 
ATOM      3  C   UNL     1       5.612 -16.253  17.137  1.00  0.00     0.238 A 
ATOM      4  O   UNL     1       6.116 -15.826  18.208  1.00  0.00    -0.285 OA
ATOM      5  C   UNL     1       4.403 -15.722  16.625  1.00  0.00     0.111 A 
ATOM      6  C   UNL     1       3.608 -14.735  17.282  1.00  0.00     0.134 A 
ATOM      7  C   UNL     1       2.495 -14.194  16.625  1.00  0.00     0.093 A 
ATOM      8  C   UNL     1       2.112 -14.652  15.361  1.00  0.00     0.123 A 
ATOM      9  C   UNL     1       2.848 -15.656  14.737  1.00  0.00     0.094 A 
ATOM     10  C   UNL     1       3.984 -16.188  15.350  1.00  0.00     0.146 A 
ATOM     11  O   UNL     1       4.665 -17.135  14.713  1.00  0.00    -0.451 OA
ENDROOT
BRANCH   1  12
ATOM     12  C   UNL     1       6.434 -18.750  14.411  1.00  0.00     0.063 A 
ATOM     13  C   UNL     1       6.816 -21.122  14.024  1.00  0.00     0.047 A 
ATOM     14  C   UNL     1       6.249 -20.093  14.779  1.00  0.00     0.020 A 
ATOM     15  C   UNL     1       7.569 -20.824  12.887  1.00  0.00     0.119 A 
ATOM     16  C   UNL     1       7.760 -19.490  12.509  1.00  0.00     0.093 A 
ATOM     17  C   UNL     1       7.205 -18.449  13.263  1.00  0.00     0.130 A 
BRANCH  15  18
ATOM     18  O   UNL     1       8.125 -21.861  12.140  1.00  0.00    -0.508 OA
ATOM     19  H   UNL     1       7.891 -22.831  12.323  1.00  0.00     0.293 HD
ENDBRANCH  15  18
BRANCH  17  20
ATOM     20  O   UNL     1       7.456 -17.135  12.860  1.00  0.00    -0.507 OA
ATOM     21  H   UNL     1       8.311 -16.853  12.401  1.00  0.00     0.293 HD
ENDBRANCH  17  20
ENDBRANCH   1  12
BRANCH   2  22
ATOM     22  O   UNL     1       7.486 -17.797  16.907  1.00  0.00    -0.502 OA
ATOM     23  H   UNL     1       7.774 -17.700  17.872  1.00  0.00     0.293 HD
ENDBRANCH   2  22
BRANCH   6  24
ATOM     24  O   UNL     1       3.849 -14.276  18.580  1.00  0.00    -0.507 OA
ATOM     25  H   UNL     1       3.302 -14.522  19.390  1.00  0.00     0.293 HD
ENDBRANCH   6  24
BRANCH   8  26
ATOM     26  O   UNL     1       0.995 -14.119  14.722  1.00  0.00    -0.508 OA
ATOM     27  H   UNL     1       1.068 -13.318  14.107  1.00  0.00     0.293 HD
ENDBRANCH   8  26
TORSDOF 6
ENDMDL
MODEL 5
REMARK VINA RESULT:    -5.399      1.793      2.033
REMARK INTER + INTRA:          -6.827
REMARK INTER:                  -6.410
REMARK INTRA:                  -0.417
REMARK UNBOUND:                -0.323
REMARK SMILES O=c1c(O)c(-c2ccc(O)cc2O)oc2cc(O)cc(O)c12
REMARK SMILES IDX 5 1 3 2 2 3 1 4 22 5 20 6 19 7 17 8 16 9 15 10 14 11 6 12
REMARK SMILES IDX 8 13 7 14 9 15 11 16 12 17 10 18 13 20 4 22 21 24 18 26
REMARK H PARENT 10 19 13 21 4 23 21 25 18 27
REMARK Flexibility Score: inf
ROOT
ATOM      1  C   UNL     1       5.805 -16.421  15.287  1.00  0.00     0.184 A 
ATOM      2  C   UNL     1       6.405 -15.393  14.544  1.00  0.00     0.208 A 
ATOM      3  C   UNL     1       5.968 -14.072  14.734  1.00  0.00     0.238 A 
ATOM      4  O   UNL     1       6.467 -13.163  14.021  1.00  0.00    -0.285 OA
ATOM      5  C   UNL     1       4.956 -13.796  15.685  1.00  0.00     0.111 A 
ATOM      6  C   UNL     1       4.463 -12.490  15.989  1.00  0.00     0.134 A 
ATOM      7  C   UNL     1       3.375 -12.348  16.860  1.00  0.00     0.093 A 
ATOM      8  C   UNL     1       2.804 -13.459  17.487  1.00  0.00     0.123 A 
ATOM      9  C   UNL     1       3.316 -14.730  17.242  1.00  0.00     0.094 A 
ATOM     10  C   UNL     1       4.376 -14.909  16.350  1.00  0.00     0.146 A 
ATOM     11  O   UNL     1       4.824 -16.140  16.134  1.00  0.00    -0.451 OA
ENDROOT
BRANCH   1  12
ATOM     12  C   UNL     1       6.241 -17.827  15.145  1.00  0.00     0.063 A 
ATOM     13  C   UNL     1       7.642 -19.662  15.913  1.00  0.00     0.047 A 
ATOM     14  C   UNL     1       7.251 -18.323  15.987  1.00  0.00     0.020 A 
ATOM     15  C   UNL     1       7.027 -20.525  15.004  1.00  0.00     0.119 A 
ATOM     16  C   UNL     1       6.019 -20.042  14.161  1.00  0.00     0.093 A 
ATOM     17  C   UNL     1       5.623 -18.700  14.218  1.00  0.00     0.130 A 
BRANCH  15  18
ATOM     18  O   UNL     1       7.424 -21.859  14.946  1.00  0.00    -0.508 OA
ATOM     19  H   UNL     1       6.938 -22.531  14.363  1.00  0.00     0.293 HD
ENDBRANCH  15  18
BRANCH  17  20
ATOM     20  O   UNL     1       4.638 -18.264  13.330  1.00  0.00    -0.507 OA
ATOM     21  H   UNL     1       4.212 -18.866  12.639  1.00  0.00     0.293 HD
ENDBRANCH  17  20
ENDBRANCH   1  12
BRANCH   2  22
ATOM     22  O   UNL     1       7.404 -15.694  13.615  1.00  0.00    -0.502 OA
ATOM     23  H   UNL     1       7.637 -16.646  13.359  1.00  0.00     0.293 HD
ENDBRANCH   2  22
BRANCH   6  24
ATOM     24  O   UNL     1       5.019 -11.310  15.489  1.00  0.00    -0.507 OA
ATOM     25  H   UNL     1       5.240 -11.143  14.519  1.00  0.00     0.293 HD
ENDBRANCH   6  24
BRANCH   8  26
ATOM     26  O   UNL     1       1.733 -13.306  18.364  1.00  0.00    -0.508 OA
ATOM     27  H   UNL     1       1.755 -12.628  19.116  1.00  0.00     0.293 HD
ENDBRANCH   8  26
TORSDOF 6
ENDMDL
MODEL 6
REMARK VINA RESULT:    -5.276      1.942      3.436
REMARK INTER + INTRA:          -6.678
REMARK INTER:                  -6.289
REMARK INTRA:                  -0.390
REMARK UNBOUND:                -0.323
REMARK SMILES O=c1c(O)c(-c2ccc(O)cc2O)oc2cc(O)cc(O)c12
REMARK SMILES IDX 5 1 3 2 2 3 1 4 22 5 20 6 19 7 17 8 16 9 15 10 14 11 6 12
REMARK SMILES IDX 8 13 7 14 9 15 11 16 12 17 10 18 13 20 4 22 21 24 18 26
REMARK H PARENT 10 19 13 21 4 23 21 25 18 27
REMARK Flexibility Score: inf
ROOT
ATOM      1  C   UNL     1       5.290 -15.581  15.193  1.00  0.00     0.184 A 
ATOM      2  C   UNL     1       4.236 -15.475  16.114  1.00  0.00     0.208 A 
ATOM      3  C   UNL     1       3.585 -14.241  16.264  1.00  0.00     0.238 A 
ATOM      4  O   UNL     1       2.682 -14.136  17.134  1.00  0.00    -0.285 OA
ATOM      5  C   UNL     1       3.979 -13.136  15.469  1.00  0.00     0.111 A 
ATOM      6  C   UNL     1       3.363 -11.848  15.508  1.00  0.00     0.134 A 
ATOM      7  C   UNL     1       3.915 -10.796  14.766  1.00  0.00     0.093 A 
ATOM      8  C   UNL     1       5.020 -11.002  13.936  1.00  0.00     0.123 A 
ATOM      9  C   UNL     1       5.591 -12.269  13.847  1.00  0.00     0.094 A 
ATOM     10  C   UNL     1       5.088 -13.329  14.604  1.00  0.00     0.146 A 
ATOM     11  O   UNL     1       5.672 -14.518  14.498  1.00  0.00    -0.451 OA
ENDROOT
BRANCH   1  12
ATOM     12  C   UNL     1       5.996 -16.862  14.977  1.00  0.00     0.063 A 
ATOM     13  C   UNL     1       7.848 -18.340  15.531  1.00  0.00     0.047 A 
ATOM     14  C   UNL     1       7.190 -17.117  15.674  1.00  0.00     0.020 A 
ATOM     15  C   UNL     1       7.320 -19.329  14.698  1.00  0.00     0.119 A 
ATOM     16  C   UNL     1       6.131 -19.087  14.000  1.00  0.00     0.093 A 
ATOM     17  C   UNL     1       5.467 -17.861  14.126  1.00  0.00     0.130 A 
BRANCH  15  18
ATOM     18  O   UNL     1       7.984 -20.547  14.571  1.00  0.00    -0.508 OA
ATOM     19  H   UNL     1       8.223 -20.927  13.662  1.00  0.00     0.293 HD
ENDBRANCH  15  18
BRANCH  17  20
ATOM     20  O   UNL     1       4.303 -17.660  13.380  1.00  0.00    -0.507 OA
ATOM     21  H   UNL     1       3.375 -17.755  13.768  1.00  0.00     0.293 HD
ENDBRANCH  17  20
ENDBRANCH   1  12
BRANCH   2  22
ATOM     22  O   UNL     1       3.866 -16.583  16.882  1.00  0.00    -0.502 OA
ATOM     23  H   UNL     1       4.521 -17.070  17.481  1.00  0.00     0.293 HD
ENDBRANCH   2  22
BRANCH   6  24
ATOM     24  O   UNL     1       2.203 -11.559  16.232  1.00  0.00    -0.507 OA
ATOM     25  H   UNL     1       1.321 -11.290  15.825  1.00  0.00     0.293 HD
ENDBRANCH   6  24
BRANCH   8  26
ATOM     26  O   UNL     1       5.552  -9.954  13.189  1.00  0.00    -0.508 OA
ATOM     27  H   UNL     1       4.960  -9.243  12.776  1.00  0.00     0.293 HD
ENDBRANCH   8  26
TORSDOF 6
ENDMDL
MODEL 7
REMARK VINA RESULT:    -5.240      2.661      7.911
REMARK INTER + INTRA:          -6.635
REMARK INTER:                  -6.261
REMARK INTRA:                  -0.374
REMARK UNBOUND:                -0.323
REMARK SMILES O=c1c(O)c(-c2ccc(O)cc2O)oc2cc(O)cc(O)c12
REMARK SMILES IDX 5 1 3 2 2 3 1 4 22 5 20 6 19 7 17 8 16 9 15 10 14 11 6 12
REMARK SMILES IDX 8 13 7 14 9 15 11 16 12 17 10 18 13 20 4 22 21 24 18 26
REMARK H PARENT 10 19 13 21 4 23 21 25 18 27
REMARK Flexibility Score: inf
ROOT
ATOM      1  C   UNL     1       4.503 -12.544  15.141  1.00  0.00     0.184 A 
ATOM      2  C   UNL     1       3.293 -13.223  15.354  1.00  0.00     0.208 A 
ATOM      3  C   UNL     1       3.276 -14.624  15.271  1.00  0.00     0.238 A 
ATOM      4  O   UNL     1       2.177 -15.223  15.402  1.00  0.00    -0.285 OA
ATOM      5  C   UNL     1       4.475 -15.328  15.003  1.00  0.00     0.111 A 
ATOM      6  C   UNL     1       4.583 -16.751  14.935  1.00  0.00     0.134 A 
ATOM      7  C   UNL     1       5.794 -17.333  14.542  1.00  0.00     0.093 A 
ATOM      8  C   UNL     1       6.920 -16.548  14.279  1.00  0.00     0.123 A 
ATOM      9  C   UNL     1       6.840 -15.163  14.399  1.00  0.00     0.094 A 
ATOM     10  C   UNL     1       5.636 -14.550  14.752  1.00  0.00     0.146 A 
ATOM     11  O   UNL     1       5.601 -13.225  14.842  1.00  0.00    -0.451 OA
ENDROOT
BRANCH   1  12
ATOM     12  C   UNL     1       4.585 -11.071  15.240  1.00  0.00     0.063 A 
ATOM     13  C   UNL     1       4.508  -9.067  16.617  1.00  0.00     0.047 A 
ATOM     14  C   UNL     1       4.381 -10.451  16.484  1.00  0.00     0.020 A 
ATOM     15  C   UNL     1       4.849  -8.283  15.513  1.00  0.00     0.119 A 
ATOM     16  C   UNL     1       5.056  -8.889  14.268  1.00  0.00     0.093 A 
ATOM     17  C   UNL     1       4.922 -10.275  14.119  1.00  0.00     0.130 A 
BRANCH  15  18
ATOM     18  O   UNL     1       4.977  -6.904  15.663  1.00  0.00    -0.508 OA
ATOM     19  H   UNL     1       5.465  -6.340  14.976  1.00  0.00     0.293 HD
ENDBRANCH  15  18
BRANCH  17  20
ATOM     20  O   UNL     1       5.106 -10.823  12.848  1.00  0.00    -0.507 OA
ATOM     21  H   UNL     1       4.443 -10.702  12.094  1.00  0.00     0.293 HD
ENDBRANCH  17  20
ENDBRANCH   1  12
BRANCH   2  22
ATOM     22  O   UNL     1       2.126 -12.502  15.621  1.00  0.00    -0.502 OA
ATOM     23  H   UNL     1       1.538 -12.131  14.885  1.00  0.00     0.293 HD
ENDBRANCH   2  22
BRANCH   6  24
ATOM     24  O   UNL     1       3.547 -17.628  15.265  1.00  0.00    -0.507 OA
ATOM     25  H   UNL     1       2.785 -17.877  14.654  1.00  0.00     0.293 HD
ENDBRANCH   6  24
BRANCH   8  26
ATOM     26  O   UNL     1       8.125 -17.138  13.904  1.00  0.00    -0.508 OA
ATOM     27  H   UNL     1       8.241 -17.578  13.000  1.00  0.00     0.293 HD
ENDBRANCH   8  26
TORSDOF 6
ENDMDL
MODEL 8
REMARK VINA RESULT:    -5.228      3.520      6.105
REMARK INTER + INTRA:          -6.621
REMARK INTER:                  -6.279
REMARK INTRA:                  -0.343
REMARK UNBOUND:                -0.323
REMARK SMILES O=c1c(O)c(-c2ccc(O)cc2O)oc2cc(O)cc(O)c12
REMARK SMILES IDX 5 1 3 2 2 3 1 4 22 5 20 6 19 7 17 8 16 9 15 10 14 11 6 12
REMARK SMILES IDX 8 13 7 14 9 15 11 16 12 17 10 18 13 20 4 22 21 24 18 26
REMARK H PARENT 10 19 13 21 4 23 21 25 18 27
REMARK Flexibility Score: inf
ROOT
ATOM      1  C   UNL     1       3.583 -12.010  15.358  1.00  0.00     0.184 A 
ATOM      2  C   UNL     1       4.211 -11.095  14.500  1.00  0.00     0.208 A 
ATOM      3  C   UNL     1       4.099  -9.722  14.770  1.00  0.00     0.238 A 
ATOM      4  O   UNL     1       4.613  -8.904  13.963  1.00  0.00    -0.285 OA
ATOM      5  C   UNL     1       3.383  -9.285  15.911  1.00  0.00     0.111 A 
ATOM      6  C   UNL     1       3.238  -7.920  16.305  1.00  0.00     0.134 A 
ATOM      7  C   UNL     1       2.405  -7.597  17.384  1.00  0.00     0.093 A 
ATOM      8  C   UNL     1       1.765  -8.595  18.123  1.00  0.00     0.123 A 
ATOM      9  C   UNL     1       1.947  -9.933  17.783  1.00  0.00     0.094 A 
ATOM     10  C   UNL     1       2.741 -10.285  16.689  1.00  0.00     0.146 A 
ATOM     11  O   UNL     1       2.876 -11.572  16.391  1.00  0.00    -0.451 OA
ENDROOT
BRANCH   1  12
ATOM     12  C   UNL     1       3.687 -13.469  15.136  1.00  0.00     0.063 A 
ATOM     13  C   UNL     1       5.069 -15.469  15.037  1.00  0.00     0.047 A 
ATOM     14  C   UNL     1       4.948 -14.086  15.188  1.00  0.00     0.020 A 
ATOM     15  C   UNL     1       3.933 -16.256  14.841  1.00  0.00     0.119 A 
ATOM     16  C   UNL     1       2.670 -15.653  14.789  1.00  0.00     0.093 A 
ATOM     17  C   UNL     1       2.536 -14.266  14.929  1.00  0.00     0.130 A 
BRANCH  15  18
ATOM     18  O   UNL     1       4.068 -17.635  14.698  1.00  0.00    -0.508 OA
ATOM     19  H   UNL     1       3.329 -18.272  14.973  1.00  0.00     0.293 HD
ENDBRANCH  15  18
BRANCH  17  20
ATOM     20  O   UNL     1       1.257 -13.714  14.834  1.00  0.00    -0.507 OA
ATOM     21  H   UNL     1       0.544 -14.077  14.216  1.00  0.00     0.293 HD
ENDBRANCH  17  20
ENDBRANCH   1  12
BRANCH   2  22
ATOM     22  O   UNL     1       4.915 -11.555  13.383  1.00  0.00    -0.502 OA
ATOM     23  H   UNL     1       4.449 -11.926  12.565  1.00  0.00     0.293 HD
ENDBRANCH   2  22
BRANCH   6  24
ATOM     24  O   UNL     1       3.905  -6.856  15.692  1.00  0.00    -0.507 OA
ATOM     25  H   UNL     1       3.954  -6.703  14.696  1.00  0.00     0.293 HD
ENDBRANCH   6  24
BRANCH   8  26
ATOM     26  O   UNL     1       0.951  -8.265  19.205  1.00  0.00    -0.508 OA
ATOM     27  H   UNL     1       0.503  -7.359  19.274  1.00  0.00     0.293 HD
ENDBRANCH   8  26
TORSDOF 6
ENDMDL
MODEL 9
REMARK VINA RESULT:    -5.180      3.112      4.332
REMARK INTER + INTRA:          -6.563
REMARK INTER:                  -6.168
REMARK INTRA:                  -0.395
REMARK UNBOUND:                -0.323
REMARK SMILES O=c1c(O)c(-c2ccc(O)cc2O)oc2cc(O)cc(O)c12
REMARK SMILES IDX 5 1 3 2 2 3 1 4 22 5 20 6 19 7 17 8 16 9 15 10 14 11 6 12
REMARK SMILES IDX 8 13 7 14 9 15 11 16 12 17 10 18 13 20 4 22 21 24 18 26
REMARK H PARENT 10 19 13 21 4 23 21 25 18 27
REMARK Flexibility Score: inf
ROOT
ATOM      1  C   UNL     1       4.631 -14.100  15.575  1.00  0.00     0.184 A 
ATOM      2  C   UNL     1       5.623 -13.676  14.678  1.00  0.00     0.208 A 
ATOM      3  C   UNL     1       5.590 -12.356  14.201  1.00  0.00     0.238 A 
ATOM      4  O   UNL     1       6.446 -12.000  13.350  1.00  0.00    -0.285 OA
ATOM      5  C   UNL     1       4.581 -11.470  14.652  1.00  0.00     0.111 A 
ATOM      6  C   UNL     1       4.474 -10.099  14.266  1.00  0.00     0.134 A 
ATOM      7  C   UNL     1       3.364  -9.351  14.679  1.00  0.00     0.093 A 
ATOM      8  C   UNL     1       2.392  -9.904  15.516  1.00  0.00     0.123 A 
ATOM      9  C   UNL     1       2.519 -11.223  15.945  1.00  0.00     0.094 A 
ATOM     10  C   UNL     1       3.594 -12.007  15.520  1.00  0.00     0.146 A 
ATOM     11  O   UNL     1       3.669 -13.264  15.942  1.00  0.00    -0.451 OA
ENDROOT
BRANCH   1  12
ATOM     12  C   UNL     1       4.630 -15.472  16.128  1.00  0.00     0.063 A 
ATOM     13  C   UNL     1       5.126 -16.975  17.975  1.00  0.00     0.047 A 
ATOM     14  C   UNL     1       5.166 -15.700  17.406  1.00  0.00     0.020 A 
ATOM     15  C   UNL     1       4.545 -18.037  17.280  1.00  0.00     0.119 A 
ATOM     16  C   UNL     1       4.007 -17.822  16.006  1.00  0.00     0.093 A 
ATOM     17  C   UNL     1       4.049 -16.550  15.420  1.00  0.00     0.130 A 
BRANCH  15  18
ATOM     18  O   UNL     1       4.508 -19.302  17.862  1.00  0.00    -0.508 OA
ATOM     19  H   UNL     1       5.023 -19.510  18.711  1.00  0.00     0.293 HD
ENDBRANCH  15  18
BRANCH  17  20
ATOM     20  O   UNL     1       3.529 -16.399  14.132  1.00  0.00    -0.507 OA
ATOM     21  H   UNL     1       3.559 -17.131  13.436  1.00  0.00     0.293 HD
ENDBRANCH  17  20
ENDBRANCH   1  12
BRANCH   2  22
ATOM     22  O   UNL     1       6.609 -14.571  14.253  1.00  0.00    -0.502 OA
ATOM     23  H   UNL     1       6.461 -15.572  14.235  1.00  0.00     0.293 HD
ENDBRANCH   2  22
BRANCH   6  24
ATOM     24  O   UNL     1       5.435  -9.424  13.509  1.00  0.00    -0.507 OA
ATOM     25  H   UNL     1       6.182  -8.866  13.891  1.00  0.00     0.293 HD
ENDBRANCH   6  24
BRANCH   8  26
ATOM     26  O   UNL     1       1.300  -9.147  15.934  1.00  0.00    -0.508 OA
ATOM     27  H   UNL     1       1.048  -9.076  16.912  1.00  0.00     0.293 HD
ENDBRANCH   8  26
TORSDOF 6
ENDMDL
