MODEL 1
REMARK VINA RESULT:    -4.574      0.000      0.000
REMARK INTER + INTRA:         -10.887
REMARK INTER:                  -8.853
REMARK INTRA:                  -2.034
REMARK UNBOUND:                -2.034
REMARK SMILES CCCCCCCCCCCCCCCCCC(=O)[O-]
REMARK SMILES IDX 10 1 11 2 12 3 13 4 14 5 15 6 16 7 17 8 18 9 19 10 20 11
REMARK SMILES IDX 9 12 8 13 7 14 6 15 5 16 4 17 3 18 2 19 1 20
REMARK H PARENT
REMARK Flexibility Score: inf
ROOT
ATOM      1  C   UNL     1      -5.431 -22.131  -2.671  1.00  0.00     0.000 C 
ENDROOT
BRANCH   1   2
ATOM      2  C   UNL     1      -6.293 -20.938  -2.221  1.00  0.00     0.000 C 
BRANCH   2   3
ATOM      3  C   UNL     1      -7.024 -20.254  -3.390  1.00  0.00     0.000 C 
BRANCH   3   4
ATOM      4  C   UNL     1      -6.624 -20.752  -4.794  1.00  0.00     0.000 C 
BRANCH   4   5
ATOM      5  C   UNL     1      -7.112 -19.878  -5.965  1.00  0.00     0.000 C 
BRANCH   5   6
ATOM      6  C   UNL     1      -8.052 -18.726  -5.568  1.00  0.00     0.000 C 
BRANCH   6   7
ATOM      7  C   UNL     1      -9.379 -18.745  -6.341  1.00  0.00     0.006 C 
BRANCH   7   8
ATOM      8  C   UNL     1      -9.293 -19.676  -7.554  1.00  0.00     0.053 C 
BRANCH   8   9
ATOM      9  C   UNL     1     -10.213 -20.844  -7.384  1.00  0.00     0.041 C 
ATOM     10  O   UNL     1     -11.344 -20.687  -6.855  1.00  0.00    -0.550 OA
ATOM     11  O   UNL     1      -9.840 -22.096  -7.855  1.00  0.00    -0.550 OA
ENDBRANCH   8   9
ENDBRANCH   7   8
ENDBRANCH   6   7
ENDBRANCH   5   6
ENDBRANCH   4   5
ENDBRANCH   3   4
ENDBRANCH   2   3
ENDBRANCH   1   2
BRANCH   1  12
ATOM     12  C   UNL     1      -4.083 -22.206  -1.933  1.00  0.00     0.000 C 
BRANCH  12  13
ATOM     13  C   UNL     1      -2.832 -22.147  -2.834  1.00  0.00    -0.000 C 
BRANCH  13  14
ATOM     14  C   UNL     1      -3.027 -21.439  -4.187  1.00  0.00    -0.000 C 
BRANCH  14  15
ATOM     15  C   UNL     1      -2.971 -22.408  -5.381  1.00  0.00    -0.000 C 
BRANCH  15  16
ATOM     16  C   UNL     1      -2.615 -23.847  -4.968  1.00  0.00    -0.000 C 
BRANCH  16  17
ATOM     17  C   UNL     1      -3.553 -24.942  -5.517  1.00  0.00    -0.000 C 
BRANCH  17  18
ATOM     18  C   UNL     1      -4.928 -25.028  -4.831  1.00  0.00    -0.000 C 
BRANCH  18  19
ATOM     19  C   UNL     1      -6.040 -24.340  -5.636  1.00  0.00    -0.003 C 
ATOM     20  C   UNL     1      -6.384 -25.140  -6.889  1.00  0.00     0.004 C 
ENDBRANCH  18  19
ENDBRANCH  17  18
ENDBRANCH  16  17
ENDBRANCH  15  16
ENDBRANCH  14  15
ENDBRANCH  13  14
ENDBRANCH  12  13
ENDBRANCH   1  12
TORSDOF 16
ENDMDL
MODEL 2
REMARK VINA RESULT:    -4.500      2.348      4.237
REMARK INTER + INTRA:         -10.742
REMARK INTER:                  -8.707
REMARK INTRA:                  -2.035
REMARK UNBOUND:                -2.034
REMARK SMILES CCCCCCCCCCCCCCCCCC(=O)[O-]
REMARK SMILES IDX 10 1 11 2 12 3 13 4 14 5 15 6 16 7 17 8 18 9 19 10 20 11
REMARK SMILES IDX 9 12 8 13 7 14 6 15 5 16 4 17 3 18 2 19 1 20
REMARK H PARENT
REMARK Flexibility Score: inf
ROOT
ATOM      1  C   UNL     1      -5.171 -23.857  -4.106  1.00  0.00     0.000 C 
ENDROOT
BRANCH   1   2
ATOM      2  C   UNL     1      -6.301 -23.141  -3.347  1.00  0.00     0.000 C 
BRANCH   2   3
ATOM      3  C   UNL     1      -5.861 -21.789  -2.756  1.00  0.00     0.000 C 
BRANCH   3   4
ATOM      4  C   UNL     1      -6.756 -20.589  -3.129  1.00  0.00     0.000 C 
BRANCH   4   5
ATOM      5  C   UNL     1      -6.884 -20.310  -4.639  1.00  0.00     0.000 C 
BRANCH   5   6
ATOM      6  C   UNL     1      -8.074 -19.418  -5.036  1.00  0.00     0.000 C 
BRANCH   6   7
ATOM      7  C   UNL     1      -8.320 -19.391  -6.551  1.00  0.00     0.006 C 
BRANCH   7   8
ATOM      8  C   UNL     1      -9.643 -18.693  -6.880  1.00  0.00     0.053 C 
BRANCH   8   9
ATOM      9  C   UNL     1     -10.563 -19.627  -7.601  1.00  0.00     0.041 C 
ATOM     10  O   UNL     1     -10.822 -19.445  -8.819  1.00  0.00    -0.550 OA
ATOM     11  O   UNL     1     -11.094 -20.727  -6.940  1.00  0.00    -0.550 OA
ENDBRANCH   8   9
ENDBRANCH   7   8
ENDBRANCH   6   7
ENDBRANCH   5   6
ENDBRANCH   4   5
ENDBRANCH   3   4
ENDBRANCH   2   3
ENDBRANCH   1   2
BRANCH   1  12
ATOM     12  C   UNL     1      -5.248 -23.649  -5.629  1.00  0.00     0.000 C 
BRANCH  12  13
ATOM     13  C   UNL     1      -6.569 -24.094  -6.290  1.00  0.00    -0.000 C 
BRANCH  13  14
ATOM     14  C   UNL     1      -7.232 -23.052  -7.208  1.00  0.00    -0.000 C 
BRANCH  14  15
ATOM     15  C   UNL     1      -6.215 -22.107  -7.870  1.00  0.00    -0.000 C 
BRANCH  15  16
ATOM     16  C   UNL     1      -6.619 -21.699  -9.299  1.00  0.00    -0.000 C 
BRANCH  16  17
ATOM     17  C   UNL     1      -8.138 -21.619  -9.557  1.00  0.00    -0.000 C 
BRANCH  17  18
ATOM     18  C   UNL     1      -8.538 -21.331 -11.016  1.00  0.00    -0.000 C 
BRANCH  18  19
ATOM     19  C   UNL     1      -9.311 -22.490 -11.660  1.00  0.00    -0.003 C 
ATOM     20  C   UNL     1      -9.650 -23.564 -10.630  1.00  0.00     0.004 C 
ENDBRANCH  18  19
ENDBRANCH  17  18
ENDBRANCH  16  17
ENDBRANCH  15  16
ENDBRANCH  14  15
ENDBRANCH  13  14
ENDBRANCH  12  13
ENDBRANCH   1  12
TORSDOF 16
ENDMDL
MODEL 3
REMARK VINA RESULT:    -4.369      9.573     12.333
REMARK INTER + INTRA:         -10.490
REMARK INTER:                  -8.074
REMARK INTRA:                  -2.416
REMARK UNBOUND:                -2.034
REMARK SMILES CCCCCCCCCCCCCCCCCC(=O)[O-]
REMARK SMILES IDX 10 1 11 2 12 3 13 4 14 5 15 6 16 7 17 8 18 9 19 10 20 11
REMARK SMILES IDX 9 12 8 13 7 14 6 15 5 16 4 17 3 18 2 19 1 20
REMARK H PARENT
REMARK Flexibility Score: inf
ROOT
ATOM      1  C   UNL     1      -0.472 -21.387 -15.187  1.00  0.00     0.000 C 
ENDROOT
BRANCH   1   2
ATOM      2  C   UNL     1       0.235 -22.435 -16.063  1.00  0.00     0.000 C 
BRANCH   2   3
ATOM      3  C   UNL     1      -0.360 -23.847 -15.904  1.00  0.00     0.000 C 
BRANCH   3   4
ATOM      4  C   UNL     1       0.515 -24.840 -15.114  1.00  0.00     0.000 C 
BRANCH   4   5
ATOM      5  C   UNL     1       0.055 -25.117 -13.670  1.00  0.00     0.000 C 
BRANCH   5   6
ATOM      6  C   UNL     1       0.581 -24.122 -12.620  1.00  0.00     0.000 C 
BRANCH   6   7
ATOM      7  C   UNL     1       1.379 -24.805 -11.499  1.00  0.00     0.006 C 
BRANCH   7   8
ATOM      8  C   UNL     1       2.605 -23.973 -11.113  1.00  0.00     0.053 C 
BRANCH   8   9
ATOM      9  C   UNL     1       2.594 -23.675  -9.647  1.00  0.00     0.041 C 
ATOM     10  O   UNL     1       1.510 -23.420  -9.060  1.00  0.00    -0.550 OA
ATOM     11  O   UNL     1       3.776 -23.729  -8.918  1.00  0.00    -0.550 OA
ENDBRANCH   8   9
ENDBRANCH   7   8
ENDBRANCH   6   7
ENDBRANCH   5   6
ENDBRANCH   4   5
ENDBRANCH   3   4
ENDBRANCH   2   3
ENDBRANCH   1   2
BRANCH   1  12
ATOM     12  C   UNL     1       0.505 -20.381 -14.553  1.00  0.00     0.000 C 
BRANCH  12  13
ATOM     13  C   UNL     1       1.897 -20.945 -14.200  1.00  0.00    -0.000 C 
BRANCH  13  14
ATOM     14  C   UNL     1       2.937 -19.904 -13.753  1.00  0.00    -0.000 C 
BRANCH  14  15
ATOM     15  C   UNL     1       4.107 -20.526 -12.970  1.00  0.00    -0.000 C 
BRANCH  15  16
ATOM     16  C   UNL     1       3.778 -20.756 -11.484  1.00  0.00    -0.000 C 
BRANCH  16  17
ATOM     17  C   UNL     1       3.336 -19.501 -10.704  1.00  0.00    -0.000 C 
BRANCH  17  18
ATOM     18  C   UNL     1       2.012 -19.644  -9.931  1.00  0.00    -0.000 C 
BRANCH  18  19
ATOM     19  C   UNL     1       0.778 -19.519 -10.834  1.00  0.00    -0.003 C 
ATOM     20  C   UNL     1      -0.038 -20.809 -10.831  1.00  0.00     0.004 C 
ENDBRANCH  18  19
ENDBRANCH  17  18
ENDBRANCH  16  17
ENDBRANCH  15  16
ENDBRANCH  14  15
ENDBRANCH  13  14
ENDBRANCH  12  13
ENDBRANCH   1  12
TORSDOF 16
ENDMDL
MODEL 4
REMARK VINA RESULT:    -4.357     10.278     12.023
REMARK INTER + INTRA:         -10.467
REMARK INTER:                  -8.111
REMARK INTRA:                  -2.356
REMARK UNBOUND:                -2.034
REMARK SMILES CCCCCCCCCCCCCCCCCC(=O)[O-]
REMARK SMILES IDX 10 1 11 2 12 3 13 4 14 5 15 6 16 7 17 8 18 9 19 10 20 11
REMARK SMILES IDX 9 12 8 13 7 14 6 15 5 16 4 17 3 18 2 19 1 20
REMARK H PARENT
REMARK Flexibility Score: inf
ROOT
ATOM      1  C   UNL     1       5.196 -26.915  -0.997  1.00  0.00     0.000 C 
ENDROOT
BRANCH   1   2
ATOM      2  C   UNL     1       5.072 -25.875   0.130  1.00  0.00     0.000 C 
BRANCH   2   3
ATOM      3  C   UNL     1       3.625 -25.705   0.630  1.00  0.00     0.000 C 
BRANCH   3   4
ATOM      4  C   UNL     1       3.009 -24.313   0.389  1.00  0.00     0.000 C 
BRANCH   4   5
ATOM      5  C   UNL     1       3.778 -23.416  -0.601  1.00  0.00     0.000 C 
BRANCH   5   6
ATOM      6  C   UNL     1       3.017 -23.075  -1.894  1.00  0.00     0.000 C 
BRANCH   6   7
ATOM      7  C   UNL     1       3.908 -23.132  -3.143  1.00  0.00     0.006 C 
BRANCH   7   8
ATOM      8  C   UNL     1       4.373 -24.564  -3.421  1.00  0.00     0.053 C 
BRANCH   8   9
ATOM      9  C   UNL     1       3.644 -25.133  -4.597  1.00  0.00     0.041 C 
ATOM     10  O   UNL     1       4.270 -25.773  -5.481  1.00  0.00    -0.550 OA
ATOM     11  O   UNL     1       2.264 -24.998  -4.690  1.00  0.00    -0.550 OA
ENDBRANCH   8   9
ENDBRANCH   7   8
ENDBRANCH   6   7
ENDBRANCH   5   6
ENDBRANCH   4   5
ENDBRANCH   3   4
ENDBRANCH   2   3
ENDBRANCH   1   2
BRANCH   1  12
ATOM     12  C   UNL     1       3.852 -27.578  -1.349  1.00  0.00     0.000 C 
BRANCH  12  13
ATOM     13  C   UNL     1       3.857 -28.442  -2.627  1.00  0.00    -0.000 C 
BRANCH  13  14
ATOM     14  C   UNL     1       3.800 -29.962  -2.398  1.00  0.00    -0.000 C 
BRANCH  14  15
ATOM     15  C   UNL     1       4.159 -30.362  -0.956  1.00  0.00    -0.000 C 
BRANCH  15  16
ATOM     16  C   UNL     1       2.967 -30.960  -0.186  1.00  0.00    -0.000 C 
BRANCH  16  17
ATOM     17  C   UNL     1       2.283 -30.007   0.814  1.00  0.00    -0.000 C 
BRANCH  17  18
ATOM     18  C   UNL     1       0.999 -29.331   0.299  1.00  0.00    -0.000 C 
BRANCH  18  19
ATOM     19  C   UNL     1       0.238 -30.195  -0.717  1.00  0.00    -0.003 C 
ATOM     20  C   UNL     1       0.045 -29.449  -2.035  1.00  0.00     0.004 C 
ENDBRANCH  18  19
ENDBRANCH  17  18
ENDBRANCH  16  17
ENDBRANCH  15  16
ENDBRANCH  14  15
ENDBRANCH  13  14
ENDBRANCH  12  13
ENDBRANCH   1  12
TORSDOF 16
ENDMDL
MODEL 5
REMARK VINA RESULT:    -4.349      1.423      3.677
REMARK INTER + INTRA:         -10.451
REMARK INTER:                  -7.592
REMARK INTRA:                  -2.859
REMARK UNBOUND:                -2.034
REMARK SMILES CCCCCCCCCCCCCCCCCC(=O)[O-]
REMARK SMILES IDX 10 1 11 2 12 3 13 4 14 5 15 6 16 7 17 8 18 9 19 10 20 11
REMARK SMILES IDX 9 12 8 13 7 14 6 15 5 16 4 17 3 18 2 19 1 20
REMARK H PARENT
REMARK Flexibility Score: inf
ROOT
ATOM      1  C   UNL     1      -6.290 -21.071  -7.346  1.00  0.00     0.000 C 
ENDROOT
BRANCH   1   2
ATOM      2  C   UNL     1      -5.850 -20.266  -6.112  1.00  0.00     0.000 C 
BRANCH   2   3
ATOM      3  C   UNL     1      -6.998 -20.023  -5.115  1.00  0.00     0.000 C 
BRANCH   3   4
ATOM      4  C   UNL     1      -7.966 -18.885  -5.497  1.00  0.00     0.000 C 
BRANCH   4   5
ATOM      5  C   UNL     1      -9.357 -19.340  -5.979  1.00  0.00     0.000 C 
BRANCH   5   6
ATOM      6  C   UNL     1      -9.760 -18.826  -7.373  1.00  0.00     0.000 C 
BRANCH   6   7
ATOM      7  C   UNL     1      -9.808 -19.942  -8.428  1.00  0.00     0.006 C 
BRANCH   7   8
ATOM      8  C   UNL     1      -9.861 -21.321  -7.765  1.00  0.00     0.053 C 
BRANCH   8   9
ATOM      9  C   UNL     1      -9.486 -22.388  -8.746  1.00  0.00     0.041 C 
ATOM     10  O   UNL     1      -9.474 -23.596  -8.393  1.00  0.00    -0.550 OA
ATOM     11  O   UNL     1      -9.200 -22.050 -10.063  1.00  0.00    -0.550 OA
ENDBRANCH   8   9
ENDBRANCH   7   8
ENDBRANCH   6   7
ENDBRANCH   5   6
ENDBRANCH   4   5
ENDBRANCH   3   4
ENDBRANCH   2   3
ENDBRANCH   1   2
BRANCH   1  12
ATOM     12  C   UNL     1      -5.783 -22.525  -7.323  1.00  0.00     0.000 C 
BRANCH  12  13
ATOM     13  C   UNL     1      -6.565 -23.482  -6.400  1.00  0.00    -0.000 C 
BRANCH  13  14
ATOM     14  C   UNL     1      -5.764 -24.680  -5.861  1.00  0.00    -0.000 C 
BRANCH  14  15
ATOM     15  C   UNL     1      -5.405 -24.536  -4.372  1.00  0.00    -0.000 C 
BRANCH  15  16
ATOM     16  C   UNL     1      -6.159 -23.384  -3.683  1.00  0.00    -0.000 C 
BRANCH  16  17
ATOM     17  C   UNL     1      -5.273 -22.385  -2.910  1.00  0.00    -0.000 C 
BRANCH  17  18
ATOM     18  C   UNL     1      -3.757 -22.570  -3.106  1.00  0.00    -0.000 C 
BRANCH  18  19
ATOM     19  C   UNL     1      -3.153 -21.545  -4.076  1.00  0.00    -0.003 C 
ATOM     20  C   UNL     1      -2.664 -22.220  -5.354  1.00  0.00     0.004 C 
ENDBRANCH  18  19
ENDBRANCH  17  18
ENDBRANCH  16  17
ENDBRANCH  15  16
ENDBRANCH  14  15
ENDBRANCH  13  14
ENDBRANCH  12  13
ENDBRANCH   1  12
TORSDOF 16
ENDMDL
MODEL 6
REMARK VINA RESULT:    -4.340     10.300     12.235
REMARK INTER + INTRA:         -10.434
REMARK INTER:                  -8.751
REMARK INTRA:                  -1.682
REMARK UNBOUND:                -2.034
REMARK SMILES CCCCCCCCCCCCCCCCCC(=O)[O-]
REMARK SMILES IDX 10 1 11 2 12 3 13 4 14 5 15 6 16 7 17 8 18 9 19 10 20 11
REMARK SMILES IDX 9 12 8 13 7 14 6 15 5 16 4 17 3 18 2 19 1 20
REMARK H PARENT
REMARK Flexibility Score: inf
ROOT
ATOM      1  C   UNL     1      -0.002 -22.892 -16.723  1.00  0.00     0.000 C 
ENDROOT
BRANCH   1   2
ATOM      2  C   UNL     1       0.814 -21.978 -15.793  1.00  0.00     0.000 C 
BRANCH   2   3
ATOM      3  C   UNL     1      -0.040 -20.876 -15.139  1.00  0.00     0.000 C 
BRANCH   3   4
ATOM      4  C   UNL     1      -0.341 -21.084 -13.642  1.00  0.00     0.000 C 
BRANCH   4   5
ATOM      5  C   UNL     1       0.897 -21.228 -12.736  1.00  0.00     0.000 C 
BRANCH   5   6
ATOM      6  C   UNL     1       1.895 -20.059 -12.810  1.00  0.00     0.000 C 
BRANCH   6   7
ATOM      7  C   UNL     1       3.233 -20.457 -13.452  1.00  0.00     0.006 C 
BRANCH   7   8
ATOM      8  C   UNL     1       4.411 -20.038 -12.568  1.00  0.00     0.053 C 
BRANCH   8   9
ATOM      9  C   UNL     1       4.347 -20.734 -11.245  1.00  0.00     0.041 C 
ATOM     10  O   UNL     1       4.316 -21.991 -11.192  1.00  0.00    -0.550 OA
ATOM     11  O   UNL     1       4.374 -19.995 -10.070  1.00  0.00    -0.550 OA
ENDBRANCH   8   9
ENDBRANCH   7   8
ENDBRANCH   6   7
ENDBRANCH   5   6
ENDBRANCH   4   5
ENDBRANCH   3   4
ENDBRANCH   2   3
ENDBRANCH   1   2
BRANCH   1  12
ATOM     12  C   UNL     1      -0.632 -24.087 -15.984  1.00  0.00     0.000 C 
BRANCH  12  13
ATOM     13  C   UNL     1       0.267 -24.757 -14.925  1.00  0.00    -0.000 C 
BRANCH  13  14
ATOM     14  C   UNL     1      -0.295 -24.768 -13.493  1.00  0.00    -0.000 C 
BRANCH  14  15
ATOM     15  C   UNL     1       0.798 -24.945 -12.424  1.00  0.00    -0.000 C 
BRANCH  15  16
ATOM     16  C   UNL     1       0.457 -26.038 -11.394  1.00  0.00    -0.000 C 
BRANCH  16  17
ATOM     17  C   UNL     1      -0.408 -27.198 -11.927  1.00  0.00    -0.000 C 
BRANCH  17  18
ATOM     18  C   UNL     1      -1.794 -27.334 -11.271  1.00  0.00    -0.000 C 
BRANCH  18  19
ATOM     19  C   UNL     1      -1.770 -28.194 -10.000  1.00  0.00    -0.003 C 
ATOM     20  C   UNL     1      -0.626 -29.204 -10.042  1.00  0.00     0.004 C 
ENDBRANCH  18  19
ENDBRANCH  17  18
ENDBRANCH  16  17
ENDBRANCH  15  16
ENDBRANCH  14  15
ENDBRANCH  13  14
ENDBRANCH  12  13
ENDBRANCH   1  12
TORSDOF 16
ENDMDL
MODEL 7
REMARK VINA RESULT:    -4.308     10.603     13.109
REMARK INTER + INTRA:         -10.371
REMARK INTER:                  -8.864
REMARK INTRA:                  -1.507
REMARK UNBOUND:                -2.034
REMARK SMILES CCCCCCCCCCCCCCCCCC(=O)[O-]
REMARK SMILES IDX 10 1 11 2 12 3 13 4 14 5 15 6 16 7 17 8 18 9 19 10 20 11
REMARK SMILES IDX 9 12 8 13 7 14 6 15 5 16 4 17 3 18 2 19 1 20
REMARK H PARENT
REMARK Flexibility Score: inf
ROOT
ATOM      1  C   UNL     1      -2.460 -23.515 -15.990  1.00  0.00     0.000 C 
ENDROOT
BRANCH   1   2
ATOM      2  C   UNL     1      -1.172 -23.403 -16.823  1.00  0.00     0.000 C 
BRANCH   2   3
ATOM      3  C   UNL     1       0.103 -23.470 -15.964  1.00  0.00     0.000 C 
BRANCH   3   4
ATOM      4  C   UNL     1       0.816 -22.120 -15.744  1.00  0.00     0.000 C 
BRANCH   4   5
ATOM      5  C   UNL     1       0.645 -21.508 -14.340  1.00  0.00     0.000 C 
BRANCH   5   6
ATOM      6  C   UNL     1       1.463 -20.229 -14.086  1.00  0.00     0.000 C 
BRANCH   6   7
ATOM      7  C   UNL     1       2.925 -20.519 -13.717  1.00  0.00     0.006 C 
BRANCH   7   8
ATOM      8  C   UNL     1       3.118 -20.519 -12.198  1.00  0.00     0.053 C 
BRANCH   8   9
ATOM      9  C   UNL     1       4.268 -21.396 -11.815  1.00  0.00     0.041 C 
ATOM     10  O   UNL     1       5.333 -21.372 -12.486  1.00  0.00    -0.550 OA
ATOM     11  O   UNL     1       4.181 -22.203 -10.688  1.00  0.00    -0.550 OA
ENDBRANCH   8   9
ENDBRANCH   7   8
ENDBRANCH   6   7
ENDBRANCH   5   6
ENDBRANCH   4   5
ENDBRANCH   3   4
ENDBRANCH   2   3
ENDBRANCH   1   2
BRANCH   1  12
ATOM     12  C   UNL     1      -3.314 -22.235 -16.034  1.00  0.00     0.000 C 
BRANCH  12  13
ATOM     13  C   UNL     1      -3.253 -21.357 -14.767  1.00  0.00    -0.000 C 
BRANCH  13  14
ATOM     14  C   UNL     1      -2.593 -19.979 -14.950  1.00  0.00    -0.000 C 
BRANCH  14  15
ATOM     15  C   UNL     1      -3.582 -18.814 -14.774  1.00  0.00    -0.000 C 
BRANCH  15  16
ATOM     16  C   UNL     1      -4.620 -18.734 -15.909  1.00  0.00    -0.000 C 
BRANCH  16  17
ATOM     17  C   UNL     1      -6.018 -18.237 -15.489  1.00  0.00    -0.000 C 
BRANCH  17  18
ATOM     18  C   UNL     1      -6.570 -18.856 -14.192  1.00  0.00    -0.000 C 
BRANCH  18  19
ATOM     19  C   UNL     1      -6.994 -20.321 -14.365  1.00  0.00    -0.003 C 
ATOM     20  C   UNL     1      -8.275 -20.429 -15.188  1.00  0.00     0.004 C 
ENDBRANCH  18  19
ENDBRANCH  17  18
ENDBRANCH  16  17
ENDBRANCH  15  16
ENDBRANCH  14  15
ENDBRANCH  13  14
ENDBRANCH  12  13
ENDBRANCH   1  12
TORSDOF 16
ENDMDL
MODEL 8
REMARK VINA RESULT:    -4.280      9.908     12.005
REMARK INTER + INTRA:         -10.316
REMARK INTER:                  -8.282
REMARK INTRA:                  -2.034
REMARK UNBOUND:                -2.034
REMARK SMILES CCCCCCCCCCCCCCCCCC(=O)[O-]
REMARK SMILES IDX 10 1 11 2 12 3 13 4 14 5 15 6 16 7 17 8 18 9 19 10 20 11
REMARK SMILES IDX 9 12 8 13 7 14 6 15 5 16 4 17 3 18 2 19 1 20
REMARK H PARENT
REMARK Flexibility Score: inf
ROOT
ATOM      1  C   UNL     1      -2.480 -22.792 -12.382  1.00  0.00     0.000 C 
ENDROOT
BRANCH   1   2
ATOM      2  C   UNL     1      -1.301 -21.851 -12.682  1.00  0.00     0.000 C 
BRANCH   2   3
ATOM      3  C   UNL     1      -1.680 -20.702 -13.634  1.00  0.00     0.000 C 
BRANCH   3   4
ATOM      4  C   UNL     1      -0.614 -19.598 -13.785  1.00  0.00     0.000 C 
BRANCH   4   5
ATOM      5  C   UNL     1       0.640 -20.001 -14.586  1.00  0.00     0.000 C 
BRANCH   5   6
ATOM      6  C   UNL     1       1.608 -20.942 -13.847  1.00  0.00     0.000 C 
BRANCH   6   7
ATOM      7  C   UNL     1       3.003 -20.329 -13.655  1.00  0.00     0.006 C 
BRANCH   7   8
ATOM      8  C   UNL     1       3.370 -20.255 -12.169  1.00  0.00     0.053 C 
BRANCH   8   9
ATOM      9  C   UNL     1       4.371 -21.311 -11.824  1.00  0.00     0.041 C 
ATOM     10  O   UNL     1       5.464 -21.375 -12.445  1.00  0.00    -0.550 OA
ATOM     11  O   UNL     1       4.118 -22.194 -10.781  1.00  0.00    -0.550 OA
ENDBRANCH   8   9
ENDBRANCH   7   8
ENDBRANCH   6   7
ENDBRANCH   5   6
ENDBRANCH   4   5
ENDBRANCH   3   4
ENDBRANCH   2   3
ENDBRANCH   1   2
BRANCH   1  12
ATOM     12  C   UNL     1      -2.343 -23.508 -11.026  1.00  0.00     0.000 C 
BRANCH  12  13
ATOM     13  C   UNL     1      -1.833 -24.963 -11.097  1.00  0.00    -0.000 C 
BRANCH  13  14
ATOM     14  C   UNL     1      -1.928 -25.629 -12.481  1.00  0.00    -0.000 C 
BRANCH  14  15
ATOM     15  C   UNL     1      -0.561 -26.087 -13.018  1.00  0.00    -0.000 C 
BRANCH  15  16
ATOM     16  C   UNL     1       0.293 -24.923 -13.552  1.00  0.00    -0.000 C 
BRANCH  16  17
ATOM     17  C   UNL     1       0.274 -24.740 -15.084  1.00  0.00    -0.000 C 
BRANCH  17  18
ATOM     18  C   UNL     1      -1.090 -24.343 -15.677  1.00  0.00    -0.000 C 
BRANCH  18  19
ATOM     19  C   UNL     1      -1.042 -23.014 -16.444  1.00  0.00    -0.003 C 
ATOM     20  C   UNL     1       0.357 -22.749 -16.995  1.00  0.00     0.004 C 
ENDBRANCH  18  19
ENDBRANCH  17  18
ENDBRANCH  16  17
ENDBRANCH  15  16
ENDBRANCH  14  15
ENDBRANCH  13  14
ENDBRANCH  12  13
ENDBRANCH   1  12
TORSDOF 16
ENDMDL
MODEL 9
REMARK VINA RESULT:    -4.245      2.217      5.552
REMARK INTER + INTRA:         -10.249
REMARK INTER:                  -7.826
REMARK INTRA:                  -2.423
REMARK UNBOUND:                -2.034
REMARK SMILES CCCCCCCCCCCCCCCCCC(=O)[O-]
REMARK SMILES IDX 10 1 11 2 12 3 13 4 14 5 15 6 16 7 17 8 18 9 19 10 20 11
REMARK SMILES IDX 9 12 8 13 7 14 6 15 5 16 4 17 3 18 2 19 1 20
REMARK H PARENT
REMARK Flexibility Score: inf
ROOT
ATOM      1  C   UNL     1      -5.919 -21.132  -3.550  1.00  0.00     0.000 C 
ENDROOT
BRANCH   1   2
ATOM      2  C   UNL     1      -6.263 -22.524  -2.995  1.00  0.00     0.000 C 
BRANCH   2   3
ATOM      3  C   UNL     1      -5.927 -23.660  -3.978  1.00  0.00     0.000 C 
BRANCH   3   4
ATOM      4  C   UNL     1      -5.455 -23.201  -5.372  1.00  0.00     0.000 C 
BRANCH   4   5
ATOM      5  C   UNL     1      -6.548 -23.164  -6.457  1.00  0.00     0.000 C 
BRANCH   5   6
ATOM      6  C   UNL     1      -6.398 -22.036  -7.492  1.00  0.00     0.000 C 
BRANCH   6   7
ATOM      7  C   UNL     1      -7.269 -22.250  -8.739  1.00  0.00     0.006 C 
BRANCH   7   8
ATOM      8  C   UNL     1      -8.758 -22.149  -8.392  1.00  0.00     0.053 C 
BRANCH   8   9
ATOM      9  C   UNL     1      -9.595 -22.620  -9.539  1.00  0.00     0.041 C 
ATOM     10  O   UNL     1      -9.810 -23.850  -9.702  1.00  0.00    -0.550 OA
ATOM     11  O   UNL     1     -10.180 -21.698 -10.397  1.00  0.00    -0.550 OA
ENDBRANCH   8   9
ENDBRANCH   7   8
ENDBRANCH   6   7
ENDBRANCH   5   6
ENDBRANCH   4   5
ENDBRANCH   3   4
ENDBRANCH   2   3
ENDBRANCH   1   2
BRANCH   1  12
ATOM     12  C   UNL     1      -7.148 -20.212  -3.661  1.00  0.00     0.000 C 
BRANCH  12  13
ATOM     13  C   UNL     1      -7.344 -19.535  -5.034  1.00  0.00    -0.000 C 
BRANCH  13  14
ATOM     14  C   UNL     1      -8.771 -19.603  -5.605  1.00  0.00    -0.000 C 
BRANCH  14  15
ATOM     15  C   UNL     1      -9.117 -18.394  -6.491  1.00  0.00    -0.000 C 
BRANCH  15  16
ATOM     16  C   UNL     1      -9.616 -18.801  -7.890  1.00  0.00    -0.000 C 
BRANCH  16  17
ATOM     17  C   UNL     1      -8.658 -18.471  -9.053  1.00  0.00    -0.000 C 
BRANCH  17  18
ATOM     18  C   UNL     1      -7.159 -18.579  -8.715  1.00  0.00    -0.000 C 
BRANCH  18  19
ATOM     19  C   UNL     1      -6.431 -17.231  -8.802  1.00  0.00    -0.003 C 
ATOM     20  C   UNL     1      -5.796 -16.863  -7.463  1.00  0.00     0.004 C 
ENDBRANCH  18  19
ENDBRANCH  17  18
ENDBRANCH  16  17
ENDBRANCH  15  16
ENDBRANCH  14  15
ENDBRANCH  13  14
ENDBRANCH  12  13
ENDBRANCH   1  12
TORSDOF 16
ENDMDL
