MODEL 1
REMARK VINA RESULT:    -5.933      0.000      0.000
REMARK INTER + INTRA:          -7.233
REMARK INTER:                  -7.147
REMARK INTRA:                  -0.086
REMARK UNBOUND:                -0.086
REMARK SMILES O=c1c(O)c(-c2ccc(O)c(O)c2)oc2cc(O)cc(O)c12
REMARK SMILES IDX 5 1 3 2 2 3 1 4 22 5 20 6 19 7 17 8 16 9 15 10 14 11 6 12
REMARK SMILES IDX 7 13 8 14 9 15 13 16 11 17 10 18 12 20 4 22 21 24 18 26
REMARK H PARENT 10 19 12 21 4 23 21 25 18 27
REMARK Flexibility Score: inf
ROOT
ATOM      1  C   UNL     1      90.107   0.772  -1.322  1.00  0.00     0.180 A 
ATOM      2  C   UNL     1      90.566  -0.518  -1.641  1.00  0.00     0.208 A 
ATOM      3  C   UNL     1      91.868  -0.673  -2.144  1.00  0.00     0.238 A 
ATOM      4  O   UNL     1      92.254  -1.823  -2.480  1.00  0.00    -0.285 OA
ATOM      5  C   UNL     1      92.700   0.461  -2.307  1.00  0.00     0.111 A 
ATOM      6  C   UNL     1      94.049   0.417  -2.771  1.00  0.00     0.134 A 
ATOM      7  C   UNL     1      94.734   1.614  -3.018  1.00  0.00     0.093 A 
ATOM      8  C   UNL     1      94.140   2.851  -2.755  1.00  0.00     0.123 A 
ATOM      9  C   UNL     1      92.845   2.903  -2.246  1.00  0.00     0.094 A 
ATOM     10  C   UNL     1      92.123   1.727  -2.024  1.00  0.00     0.146 A 
ATOM     11  O   UNL     1      90.888   1.822  -1.547  1.00  0.00    -0.452 OA
ENDROOT
BRANCH   1  12
ATOM     12  C   UNL     1      88.757   1.011  -0.763  1.00  0.00     0.025 A 
ATOM     13  C   UNL     1      87.626   0.644  -1.509  1.00  0.00     0.016 A 
ATOM     14  C   UNL     1      86.342   0.880  -1.011  1.00  0.00     0.051 A 
ATOM     15  C   UNL     1      86.169   1.498   0.231  1.00  0.00     0.157 A 
ATOM     16  C   UNL     1      88.580   1.651   0.477  1.00  0.00     0.062 A 
ATOM     17  C   UNL     1      87.292   1.891   0.977  1.00  0.00     0.158 A 
BRANCH  15  18
ATOM     18  O   UNL     1      84.875   1.718   0.705  1.00  0.00    -0.504 OA
ATOM     19  H   UNL     1      84.672   1.815   1.692  1.00  0.00     0.293 HD
ENDBRANCH  15  18
BRANCH  17  20
ATOM     20  O   UNL     1      87.126   2.521   2.210  1.00  0.00    -0.504 OA
ATOM     21  H   UNL     1      87.457   3.465   2.373  1.00  0.00     0.293 HD
ENDBRANCH  17  20
ENDBRANCH   1  12
BRANCH   2  22
ATOM     22  O   UNL     1      89.721  -1.622  -1.494  1.00  0.00    -0.502 OA
ATOM     23  H   UNL     1      88.938  -1.625  -0.849  1.00  0.00     0.293 HD
ENDBRANCH   2  22
BRANCH   6  24
ATOM     24  O   UNL     1      94.764  -0.766  -2.977  1.00  0.00    -0.507 OA
ATOM     25  H   UNL     1      94.617  -1.623  -2.467  1.00  0.00     0.293 HD
ENDBRANCH   6  24
BRANCH   8  26
ATOM     26  O   UNL     1      94.835   4.036  -2.987  1.00  0.00    -0.508 OA
ATOM     27  H   UNL     1      95.567   4.093  -3.685  1.00  0.00     0.293 HD
ENDBRANCH   8  26
TORSDOF 6
ENDMDL
MODEL 2
REMARK VINA RESULT:    -5.779      9.925     12.329
REMARK INTER + INTRA:          -7.048
REMARK INTER:                  -6.863
REMARK INTRA:                  -0.184
REMARK UNBOUND:                -0.086
REMARK SMILES O=c1c(O)c(-c2ccc(O)c(O)c2)oc2cc(O)cc(O)c12
REMARK SMILES IDX 5 1 3 2 2 3 1 4 22 5 20 6 19 7 17 8 16 9 15 10 14 11 6 12
REMARK SMILES IDX 7 13 8 14 9 15 13 16 11 17 10 18 12 20 4 22 21 24 18 26
REMARK H PARENT 10 19 12 21 4 23 21 25 18 27
REMARK Flexibility Score: inf
ROOT
ATOM      1  C   UNL     1     100.085  -5.184  -2.021  1.00  0.00     0.180 A 
ATOM      2  C   UNL     1     100.166  -4.100  -2.912  1.00  0.00     0.208 A 
ATOM      3  C   UNL     1     100.485  -4.346  -4.257  1.00  0.00     0.238 A 
ATOM      4  O   UNL     1     100.610  -3.367  -5.038  1.00  0.00    -0.285 OA
ATOM      5  C   UNL     1     100.704  -5.674  -4.698  1.00  0.00     0.111 A 
ATOM      6  C   UNL     1     100.994  -6.043  -6.046  1.00  0.00     0.134 A 
ATOM      7  C   UNL     1     101.321  -7.372  -6.343  1.00  0.00     0.093 A 
ATOM      8  C   UNL     1     101.304  -8.357  -5.352  1.00  0.00     0.123 A 
ATOM      9  C   UNL     1     100.964  -8.017  -4.044  1.00  0.00     0.094 A 
ATOM     10  C   UNL     1     100.668  -6.693  -3.711  1.00  0.00     0.146 A 
ATOM     11  O   UNL     1     100.359  -6.410  -2.451  1.00  0.00    -0.452 OA
ENDROOT
BRANCH   1  12
ATOM     12  C   UNL     1      99.729  -5.007  -0.595  1.00  0.00     0.025 A 
ATOM     13  C   UNL     1     100.647  -5.384   0.398  1.00  0.00     0.016 A 
ATOM     14  C   UNL     1     100.323  -5.244   1.750  1.00  0.00     0.051 A 
ATOM     15  C   UNL     1      99.076  -4.742   2.130  1.00  0.00     0.157 A 
ATOM     16  C   UNL     1      98.466  -4.520  -0.210  1.00  0.00     0.062 A 
ATOM     17  C   UNL     1      98.139  -4.382   1.147  1.00  0.00     0.158 A 
BRANCH  15  18
ATOM     18  O   UNL     1      98.781  -4.611   3.488  1.00  0.00    -0.504 OA
ATOM     19  H   UNL     1      98.065  -5.167   3.940  1.00  0.00     0.293 HD
ENDBRANCH  15  18
BRANCH  17  20
ATOM     20  O   UNL     1      96.888  -3.893   1.519  1.00  0.00    -0.504 OA
ATOM     21  H   UNL     1      96.461  -4.143   2.404  1.00  0.00     0.293 HD
ENDBRANCH  17  20
ENDBRANCH   1  12
BRANCH   2  22
ATOM     22  O   UNL     1      99.969  -2.795  -2.451  1.00  0.00    -0.502 OA
ATOM     23  H   UNL     1     100.230  -2.503  -1.517  1.00  0.00     0.293 HD
ENDBRANCH   2  22
BRANCH   6  24
ATOM     24  O   UNL     1     100.948  -5.155  -7.125  1.00  0.00    -0.507 OA
ATOM     25  H   UNL     1     101.728  -4.942  -7.727  1.00  0.00     0.293 HD
ENDBRANCH   6  24
BRANCH   8  26
ATOM     26  O   UNL     1     101.614  -9.679  -5.659  1.00  0.00    -0.508 OA
ATOM     27  H   UNL     1     101.036 -10.229  -6.284  1.00  0.00     0.293 HD
ENDBRANCH   8  26
TORSDOF 6
ENDMDL
MODEL 3
REMARK VINA RESULT:    -5.778     10.212     11.736
REMARK INTER + INTRA:          -7.046
REMARK INTER:                  -6.737
REMARK INTRA:                  -0.309
REMARK UNBOUND:                -0.086
REMARK SMILES O=c1c(O)c(-c2ccc(O)c(O)c2)oc2cc(O)cc(O)c12
REMARK SMILES IDX 5 1 3 2 2 3 1 4 22 5 20 6 19 7 17 8 16 9 15 10 14 11 6 12
REMARK SMILES IDX 7 13 8 14 9 15 13 16 11 17 10 18 12 20 4 22 21 24 18 26
REMARK H PARENT 10 19 12 21 4 23 21 25 18 27
REMARK Flexibility Score: inf
ROOT
ATOM      1  C   UNL     1     100.445  -4.349  -2.027  1.00  0.00     0.180 A 
ATOM      2  C   UNL     1      99.793  -5.106  -3.016  1.00  0.00     0.208 A 
ATOM      3  C   UNL     1     100.168  -4.939  -4.359  1.00  0.00     0.238 A 
ATOM      4  O   UNL     1      99.545  -5.578  -5.245  1.00  0.00    -0.285 OA
ATOM      5  C   UNL     1     101.201  -4.029  -4.694  1.00  0.00     0.111 A 
ATOM      6  C   UNL     1     101.689  -3.810  -6.017  1.00  0.00     0.134 A 
ATOM      7  C   UNL     1     102.622  -2.791  -6.248  1.00  0.00     0.093 A 
ATOM      8  C   UNL     1     103.133  -2.029  -5.194  1.00  0.00     0.123 A 
ATOM      9  C   UNL     1     102.706  -2.276  -3.892  1.00  0.00     0.094 A 
ATOM     10  C   UNL     1     101.749  -3.261  -3.634  1.00  0.00     0.146 A 
ATOM     11  O   UNL     1     101.363  -3.457  -2.380  1.00  0.00    -0.452 OA
ENDROOT
BRANCH   1  12
ATOM     12  C   UNL     1     100.122  -4.488  -0.589  1.00  0.00     0.025 A 
ATOM     13  C   UNL     1     100.880  -5.362   0.207  1.00  0.00     0.016 A 
ATOM     14  C   UNL     1     100.579  -5.524   1.562  1.00  0.00     0.051 A 
ATOM     15  C   UNL     1      99.511  -4.831   2.138  1.00  0.00     0.157 A 
ATOM     16  C   UNL     1      99.035  -3.806  -0.012  1.00  0.00     0.062 A 
ATOM     17  C   UNL     1      98.731  -3.971   1.348  1.00  0.00     0.158 A 
BRANCH  15  18
ATOM     18  O   UNL     1      99.236  -5.011   3.494  1.00  0.00    -0.504 OA
ATOM     19  H   UNL     1      99.096  -4.231   4.123  1.00  0.00     0.293 HD
ENDBRANCH  15  18
BRANCH  17  20
ATOM     20  O   UNL     1      97.656  -3.286   1.912  1.00  0.00    -0.504 OA
ATOM     21  H   UNL     1      97.522  -2.292   1.764  1.00  0.00     0.293 HD
ENDBRANCH  17  20
ENDBRANCH   1  12
BRANCH   2  22
ATOM     22  O   UNL     1      98.762  -5.982  -2.666  1.00  0.00    -0.502 OA
ATOM     23  H   UNL     1      97.790  -5.696  -2.643  1.00  0.00     0.293 HD
ENDBRANCH   2  22
BRANCH   6  24
ATOM     24  O   UNL     1     101.313  -4.575  -7.125  1.00  0.00    -0.507 OA
ATOM     25  H   UNL     1     101.667  -4.445  -8.059  1.00  0.00     0.293 HD
ENDBRANCH   6  24
BRANCH   8  26
ATOM     26  O   UNL     1     104.074  -1.029  -5.431  1.00  0.00    -0.508 OA
ATOM     27  H   UNL     1     103.799  -0.107  -5.749  1.00  0.00     0.293 HD
ENDBRANCH   8  26
TORSDOF 6
ENDMDL
MODEL 4
REMARK VINA RESULT:    -5.582     11.334     13.703
REMARK INTER + INTRA:          -6.811
REMARK INTER:                  -6.498
REMARK INTRA:                  -0.313
REMARK UNBOUND:                -0.086
REMARK SMILES O=c1c(O)c(-c2ccc(O)c(O)c2)oc2cc(O)cc(O)c12
REMARK SMILES IDX 5 1 3 2 2 3 1 4 22 5 20 6 19 7 17 8 16 9 15 10 14 11 6 12
REMARK SMILES IDX 7 13 8 14 9 15 13 16 11 17 10 18 12 20 4 22 21 24 18 26
REMARK H PARENT 10 19 12 21 4 23 21 25 18 27
REMARK Flexibility Score: inf
ROOT
ATOM      1  C   UNL     1     100.933  -5.327  -0.802  1.00  0.00     0.180 A 
ATOM      2  C   UNL     1      99.870  -5.029   0.068  1.00  0.00     0.208 A 
ATOM      3  C   UNL     1     100.057  -5.183   1.451  1.00  0.00     0.238 A 
ATOM      4  O   UNL     1      99.085  -4.968   2.220  1.00  0.00    -0.285 OA
ATOM      5  C   UNL     1     101.309  -5.619   1.948  1.00  0.00     0.111 A 
ATOM      6  C   UNL     1     101.623  -5.772   3.332  1.00  0.00     0.134 A 
ATOM      7  C   UNL     1     102.850  -6.335   3.704  1.00  0.00     0.093 A 
ATOM      8  C   UNL     1     103.801  -6.689   2.743  1.00  0.00     0.123 A 
ATOM      9  C   UNL     1     103.527  -6.487   1.392  1.00  0.00     0.094 A 
ATOM     10  C   UNL     1     102.298  -5.962   0.989  1.00  0.00     0.146 A 
ATOM     11  O   UNL     1     102.073  -5.795  -0.309  1.00  0.00    -0.452 OA
ENDROOT
BRANCH   1  12
ATOM     12  C   UNL     1     100.820  -5.164  -2.269  1.00  0.00     0.025 A 
ATOM     13  C   UNL     1     100.623  -6.295  -3.076  1.00  0.00     0.016 A 
ATOM     14  C   UNL     1     100.535  -6.167  -4.464  1.00  0.00     0.051 A 
ATOM     15  C   UNL     1     100.656  -4.912  -5.068  1.00  0.00     0.157 A 
ATOM     16  C   UNL     1     100.962  -3.904  -2.879  1.00  0.00     0.062 A 
ATOM     17  C   UNL     1     100.875  -3.775  -4.274  1.00  0.00     0.158 A 
BRANCH  15  18
ATOM     18  O   UNL     1     100.561  -4.814  -6.456  1.00  0.00    -0.504 OA
ATOM     19  H   UNL     1     101.039  -4.092  -6.980  1.00  0.00     0.293 HD
ENDBRANCH  15  18
BRANCH  17  20
ATOM     20  O   UNL     1     101.011  -2.521  -4.869  1.00  0.00    -0.504 OA
ATOM     21  H   UNL     1     101.758  -1.887  -4.609  1.00  0.00     0.293 HD
ENDBRANCH  17  20
ENDBRANCH   1  12
BRANCH   2  22
ATOM     22  O   UNL     1      98.635  -4.621  -0.445  1.00  0.00    -0.502 OA
ATOM     23  H   UNL     1      98.122  -5.169  -1.126  1.00  0.00     0.293 HD
ENDBRANCH   2  22
BRANCH   6  24
ATOM     24  O   UNL     1     100.781  -5.367   4.372  1.00  0.00    -0.507 OA
ATOM     25  H   UNL     1     100.394  -4.441   4.470  1.00  0.00     0.293 HD
ENDBRANCH   6  24
BRANCH   8  26
ATOM     26  O   UNL     1     105.026  -7.232   3.122  1.00  0.00    -0.508 OA
ATOM     27  H   UNL     1     105.516  -6.910   3.949  1.00  0.00     0.293 HD
ENDBRANCH   8  26
TORSDOF 6
ENDMDL
MODEL 5
REMARK VINA RESULT:    -5.488     12.104     15.189
REMARK INTER + INTRA:          -6.697
REMARK INTER:                  -6.374
REMARK INTRA:                  -0.323
REMARK UNBOUND:                -0.086
REMARK SMILES O=c1c(O)c(-c2ccc(O)c(O)c2)oc2cc(O)cc(O)c12
REMARK SMILES IDX 5 1 3 2 2 3 1 4 22 5 20 6 19 7 17 8 16 9 15 10 14 11 6 12
REMARK SMILES IDX 7 13 8 14 9 15 13 16 11 17 10 18 12 20 4 22 21 24 18 26
REMARK H PARENT 10 19 12 21 4 23 21 25 18 27
REMARK Flexibility Score: inf
ROOT
ATOM      1  C   UNL     1     101.846  -7.297   2.912  1.00  0.00     0.180 A 
ATOM      2  C   UNL     1     102.623  -7.134   1.751  1.00  0.00     0.208 A 
ATOM      3  C   UNL     1     102.238  -6.173   0.803  1.00  0.00     0.238 A 
ATOM      4  O   UNL     1     102.906  -6.070  -0.259  1.00  0.00    -0.285 OA
ATOM      5  C   UNL     1     101.091  -5.376   1.033  1.00  0.00     0.111 A 
ATOM      6  C   UNL     1     100.631  -4.346   0.159  1.00  0.00     0.134 A 
ATOM      7  C   UNL     1      99.411  -3.711   0.422  1.00  0.00     0.093 A 
ATOM      8  C   UNL     1      98.667  -4.023   1.563  1.00  0.00     0.123 A 
ATOM      9  C   UNL     1      99.137  -4.986   2.453  1.00  0.00     0.094 A 
ATOM     10  C   UNL     1     100.333  -5.662   2.198  1.00  0.00     0.146 A 
ATOM     11  O   UNL     1     100.740  -6.580   3.067  1.00  0.00    -0.452 OA
ENDROOT
BRANCH   1  12
ATOM     12  C   UNL     1     102.203  -8.270   3.968  1.00  0.00     0.025 A 
ATOM     13  C   UNL     1     103.078  -7.884   4.996  1.00  0.00     0.016 A 
ATOM     14  C   UNL     1     103.445  -8.793   5.992  1.00  0.00     0.051 A 
ATOM     15  C   UNL     1     102.956 -10.103   5.968  1.00  0.00     0.157 A 
ATOM     16  C   UNL     1     101.728  -9.594   3.936  1.00  0.00     0.062 A 
ATOM     17  C   UNL     1     102.097 -10.509   4.933  1.00  0.00     0.158 A 
BRANCH  15  18
ATOM     18  O   UNL     1     103.337 -10.988   6.977  1.00  0.00    -0.504 OA
ATOM     19  H   UNL     1     103.982 -10.722   7.712  1.00  0.00     0.293 HD
ENDBRANCH  15  18
BRANCH  17  20
ATOM     20  O   UNL     1     101.617 -11.817   4.896  1.00  0.00    -0.504 OA
ATOM     21  H   UNL     1     100.768 -12.085   5.380  1.00  0.00     0.293 HD
ENDBRANCH  17  20
ENDBRANCH   1  12
BRANCH   2  22
ATOM     22  O   UNL     1     103.740  -7.946   1.534  1.00  0.00    -0.502 OA
ATOM     23  H   UNL     1     104.399  -7.774   0.783  1.00  0.00     0.293 HD
ENDBRANCH   2  22
BRANCH   6  24
ATOM     24  O   UNL     1     101.342  -3.894  -0.957  1.00  0.00    -0.507 OA
ATOM     25  H   UNL     1     102.161  -4.342  -1.336  1.00  0.00     0.293 HD
ENDBRANCH   6  24
BRANCH   8  26
ATOM     26  O   UNL     1      97.463  -3.375   1.826  1.00  0.00    -0.508 OA
ATOM     27  H   UNL     1      96.642  -3.526   1.251  1.00  0.00     0.293 HD
ENDBRANCH   8  26
TORSDOF 6
ENDMDL
MODEL 6
REMARK VINA RESULT:    -5.486     10.595     12.771
REMARK INTER + INTRA:          -6.695
REMARK INTER:                  -6.557
REMARK INTRA:                  -0.137
REMARK UNBOUND:                -0.086
REMARK SMILES O=c1c(O)c(-c2ccc(O)c(O)c2)oc2cc(O)cc(O)c12
REMARK SMILES IDX 5 1 3 2 2 3 1 4 22 5 20 6 19 7 17 8 16 9 15 10 14 11 6 12
REMARK SMILES IDX 7 13 8 14 9 15 13 16 11 17 10 18 12 20 4 22 21 24 18 26
REMARK H PARENT 10 19 12 21 4 23 21 25 18 27
REMARK Flexibility Score: inf
ROOT
ATOM      1  C   UNL     1     100.326  -5.086  -0.022  1.00  0.00     0.180 A 
ATOM      2  C   UNL     1      99.777  -3.882  -0.496  1.00  0.00     0.208 A 
ATOM      3  C   UNL     1      99.570  -3.725  -1.876  1.00  0.00     0.238 A 
ATOM      4  O   UNL     1      99.129  -2.625  -2.300  1.00  0.00    -0.285 OA
ATOM      5  C   UNL     1      99.900  -4.779  -2.762  1.00  0.00     0.111 A 
ATOM      6  C   UNL     1      99.695  -4.745  -4.174  1.00  0.00     0.134 A 
ATOM      7  C   UNL     1     100.180  -5.791  -4.968  1.00  0.00     0.093 A 
ATOM      8  C   UNL     1     100.803  -6.902  -4.394  1.00  0.00     0.123 A 
ATOM      9  C   UNL     1     100.954  -6.972  -3.011  1.00  0.00     0.094 A 
ATOM     10  C   UNL     1     100.514  -5.927  -2.196  1.00  0.00     0.146 A 
ATOM     11  O   UNL     1     100.686  -6.029  -0.884  1.00  0.00    -0.452 OA
ENDROOT
BRANCH   1  12
ATOM     12  C   UNL     1     100.550  -5.335   1.421  1.00  0.00     0.025 A 
ATOM     13  C   UNL     1      99.454  -5.341   2.298  1.00  0.00     0.016 A 
ATOM     14  C   UNL     1      99.645  -5.553   3.666  1.00  0.00     0.051 A 
ATOM     15  C   UNL     1     100.930  -5.747   4.180  1.00  0.00     0.157 A 
ATOM     16  C   UNL     1     101.845  -5.510   1.942  1.00  0.00     0.062 A 
ATOM     17  C   UNL     1     102.038  -5.721   3.315  1.00  0.00     0.158 A 
BRANCH  15  18
ATOM     18  O   UNL     1     101.090  -5.959   5.549  1.00  0.00    -0.504 OA
ATOM     19  H   UNL     1     100.980  -5.214   6.226  1.00  0.00     0.293 HD
ENDBRANCH  15  18
BRANCH  17  20
ATOM     20  O   UNL     1     103.324  -5.900   3.822  1.00  0.00    -0.504 OA
ATOM     21  H   UNL     1     103.972  -5.126   3.911  1.00  0.00     0.293 HD
ENDBRANCH  17  20
ENDBRANCH   1  12
BRANCH   2  22
ATOM     22  O   UNL     1      99.479  -2.846   0.394  1.00  0.00    -0.502 OA
ATOM     23  H   UNL     1      99.774  -1.890   0.234  1.00  0.00     0.293 HD
ENDBRANCH   2  22
BRANCH   6  24
ATOM     24  O   UNL     1      99.005  -3.726  -4.838  1.00  0.00    -0.507 OA
ATOM     25  H   UNL     1      98.066  -3.808  -5.197  1.00  0.00     0.293 HD
ENDBRANCH   6  24
BRANCH   8  26
ATOM     26  O   UNL     1     101.267  -7.947  -5.189  1.00  0.00    -0.508 OA
ATOM     27  H   UNL     1     101.148  -7.941  -6.196  1.00  0.00     0.293 HD
ENDBRANCH   8  26
TORSDOF 6
ENDMDL
MODEL 7
REMARK VINA RESULT:    -5.455      1.488      6.898
REMARK INTER + INTRA:          -6.657
REMARK INTER:                  -6.362
REMARK INTRA:                  -0.296
REMARK UNBOUND:                -0.086
REMARK SMILES O=c1c(O)c(-c2ccc(O)c(O)c2)oc2cc(O)cc(O)c12
REMARK SMILES IDX 5 1 3 2 2 3 1 4 22 5 20 6 19 7 17 8 16 9 15 10 14 11 6 12
REMARK SMILES IDX 7 13 8 14 9 15 13 16 11 17 10 18 12 20 4 22 21 24 18 26
REMARK H PARENT 10 19 12 21 4 23 21 25 18 27
REMARK Flexibility Score: inf
ROOT
ATOM      1  C   UNL     1      90.143   0.329  -1.868  1.00  0.00     0.180 A 
ATOM      2  C   UNL     1      89.086   0.081  -2.760  1.00  0.00     0.208 A 
ATOM      3  C   UNL     1      87.766   0.277  -2.323  1.00  0.00     0.238 A 
ATOM      4  O   UNL     1      86.822   0.002  -3.108  1.00  0.00    -0.285 OA
ATOM      5  C   UNL     1      87.520   0.734  -1.006  1.00  0.00     0.111 A 
ATOM      6  C   UNL     1      86.226   1.005  -0.470  1.00  0.00     0.134 A 
ATOM      7  C   UNL     1      86.093   1.327   0.887  1.00  0.00     0.093 A 
ATOM      8  C   UNL     1      87.215   1.451   1.711  1.00  0.00     0.123 A 
ATOM      9  C   UNL     1      88.487   1.246   1.182  1.00  0.00     0.094 A 
ATOM     10  C   UNL     1      88.649   0.889  -0.158  1.00  0.00     0.146 A 
ATOM     11  O   UNL     1      89.878   0.693  -0.619  1.00  0.00    -0.452 OA
ENDROOT
BRANCH   1  12
ATOM     12  C   UNL     1      91.561   0.169  -2.263  1.00  0.00     0.025 A 
ATOM     13  C   UNL     1      92.145  -1.108  -2.239  1.00  0.00     0.016 A 
ATOM     14  C   UNL     1      93.487  -1.278  -2.589  1.00  0.00     0.051 A 
ATOM     15  C   UNL     1      94.269  -0.178  -2.952  1.00  0.00     0.157 A 
ATOM     16  C   UNL     1      92.355   1.277  -2.610  1.00  0.00     0.062 A 
ATOM     17  C   UNL     1      93.703   1.107  -2.959  1.00  0.00     0.158 A 
BRANCH  15  18
ATOM     18  O   UNL     1      95.605  -0.379  -3.298  1.00  0.00    -0.504 OA
ATOM     19  H   UNL     1      96.270   0.382  -3.343  1.00  0.00     0.293 HD
ENDBRANCH  15  18
BRANCH  17  20
ATOM     20  O   UNL     1      94.480   2.211  -3.307  1.00  0.00    -0.504 OA
ATOM     21  H   UNL     1      95.477   2.128  -3.473  1.00  0.00     0.293 HD
ENDBRANCH  17  20
ENDBRANCH   1  12
BRANCH   2  22
ATOM     22  O   UNL     1      89.349  -0.390  -4.049  1.00  0.00    -0.502 OA
ATOM     23  H   UNL     1      89.764  -1.299  -4.222  1.00  0.00     0.293 HD
ENDBRANCH   2  22
BRANCH   6  24
ATOM     24  O   UNL     1      85.051   0.999  -1.227  1.00  0.00    -0.507 OA
ATOM     25  H   UNL     1      84.644   0.179  -1.649  1.00  0.00     0.293 HD
ENDBRANCH   6  24
BRANCH   8  26
ATOM     26  O   UNL     1      87.075   1.788   3.055  1.00  0.00    -0.508 OA
ATOM     27  H   UNL     1      86.232   2.224   3.408  1.00  0.00     0.293 HD
ENDBRANCH   8  26
TORSDOF 6
ENDMDL
MODEL 8
REMARK VINA RESULT:    -5.246     11.748     14.164
REMARK INTER + INTRA:          -6.406
REMARK INTER:                  -6.071
REMARK INTRA:                  -0.334
REMARK UNBOUND:                -0.086
REMARK SMILES O=c1c(O)c(-c2ccc(O)c(O)c2)oc2cc(O)cc(O)c12
REMARK SMILES IDX 5 1 3 2 2 3 1 4 22 5 20 6 19 7 17 8 16 9 15 10 14 11 6 12
REMARK SMILES IDX 7 13 8 14 9 15 13 16 11 17 10 18 12 20 4 22 21 24 18 26
REMARK H PARENT 10 19 12 21 4 23 21 25 18 27
REMARK Flexibility Score: inf
ROOT
ATOM      1  C   UNL     1     101.393  -5.784   1.096  1.00  0.00     0.180 A 
ATOM      2  C   UNL     1     102.381  -6.756   1.330  1.00  0.00     0.208 A 
ATOM      3  C   UNL     1     102.508  -7.302   2.617  1.00  0.00     0.238 A 
ATOM      4  O   UNL     1     103.429  -8.131   2.834  1.00  0.00    -0.285 OA
ATOM      5  C   UNL     1     101.636  -6.881   3.650  1.00  0.00     0.111 A 
ATOM      6  C   UNL     1     101.649  -7.395   4.981  1.00  0.00     0.134 A 
ATOM      7  C   UNL     1     100.828  -6.812   5.955  1.00  0.00     0.093 A 
ATOM      8  C   UNL     1      99.948  -5.777   5.630  1.00  0.00     0.123 A 
ATOM      9  C   UNL     1      99.886  -5.308   4.319  1.00  0.00     0.094 A 
ATOM     10  C   UNL     1     100.718  -5.845   3.334  1.00  0.00     0.146 A 
ATOM     11  O   UNL     1     100.634  -5.363   2.100  1.00  0.00    -0.452 OA
ENDROOT
BRANCH   1  12
ATOM     12  C   UNL     1     101.181  -5.182  -0.240  1.00  0.00     0.025 A 
ATOM     13  C   UNL     1     101.831  -3.981  -0.567  1.00  0.00     0.016 A 
ATOM     14  C   UNL     1     101.629  -3.384  -1.814  1.00  0.00     0.051 A 
ATOM     15  C   UNL     1     100.767  -3.968  -2.746  1.00  0.00     0.157 A 
ATOM     16  C   UNL     1     100.299  -5.757  -1.172  1.00  0.00     0.062 A 
ATOM     17  C   UNL     1     100.094  -5.158  -2.424  1.00  0.00     0.158 A 
BRANCH  15  18
ATOM     18  O   UNL     1     100.587  -3.351  -3.985  1.00  0.00    -0.504 OA
ATOM     19  H   UNL     1     101.241  -2.668  -4.346  1.00  0.00     0.293 HD
ENDBRANCH  15  18
BRANCH  17  20
ATOM     20  O   UNL     1      99.222  -5.739  -3.344  1.00  0.00    -0.504 OA
ATOM     21  H   UNL     1      99.505  -6.522  -3.922  1.00  0.00     0.293 HD
ENDBRANCH  17  20
ENDBRANCH   1  12
BRANCH   2  22
ATOM     22  O   UNL     1     103.246  -7.141   0.301  1.00  0.00    -0.502 OA
ATOM     23  H   UNL     1     104.178  -6.757   0.202  1.00  0.00     0.293 HD
ENDBRANCH   2  22
BRANCH   6  24
ATOM     24  O   UNL     1     102.423  -8.486   5.389  1.00  0.00    -0.507 OA
ATOM     25  H   UNL     1     102.202  -9.088   6.167  1.00  0.00     0.293 HD
ENDBRANCH   6  24
BRANCH   8  26
ATOM     26  O   UNL     1      99.123  -5.214   6.600  1.00  0.00    -0.508 OA
ATOM     27  H   UNL     1      98.125  -5.114   6.456  1.00  0.00     0.293 HD
ENDBRANCH   8  26
TORSDOF 6
ENDMDL
MODEL 9
REMARK VINA RESULT:    -5.220     11.269     13.286
REMARK INTER + INTRA:          -6.375
REMARK INTER:                  -6.087
REMARK INTRA:                  -0.288
REMARK UNBOUND:                -0.086
REMARK SMILES O=c1c(O)c(-c2ccc(O)c(O)c2)oc2cc(O)cc(O)c12
REMARK SMILES IDX 5 1 3 2 2 3 1 4 22 5 20 6 19 7 17 8 16 9 15 10 14 11 6 12
REMARK SMILES IDX 7 13 8 14 9 15 13 16 11 17 10 18 12 20 4 22 21 24 18 26
REMARK H PARENT 10 19 12 21 4 23 21 25 18 27
REMARK Flexibility Score: inf
ROOT
ATOM      1  C   UNL     1     100.043  -6.265   4.304  1.00  0.00     0.180 A 
ATOM      2  C   UNL     1     101.237  -6.891   3.907  1.00  0.00     0.208 A 
ATOM      3  C   UNL     1     101.751  -6.628   2.627  1.00  0.00     0.238 A 
ATOM      4  O   UNL     1     102.791  -7.233   2.257  1.00  0.00    -0.285 OA
ATOM      5  C   UNL     1     101.074  -5.732   1.766  1.00  0.00     0.111 A 
ATOM      6  C   UNL     1     101.524  -5.361   0.464  1.00  0.00     0.134 A 
ATOM      7  C   UNL     1     100.707  -4.569  -0.351  1.00  0.00     0.093 A 
ATOM      8  C   UNL     1      99.484  -4.078   0.115  1.00  0.00     0.123 A 
ATOM      9  C   UNL     1      99.063  -4.386   1.407  1.00  0.00     0.094 A 
ATOM     10  C   UNL     1      99.840  -5.204   2.229  1.00  0.00     0.146 A 
ATOM     11  O   UNL     1      99.397  -5.481   3.450  1.00  0.00    -0.452 OA
ENDROOT
BRANCH   1  12
ATOM     12  C   UNL     1      99.454  -6.472   5.646  1.00  0.00     0.025 A 
ATOM     13  C   UNL     1      98.700  -7.629   5.898  1.00  0.00     0.016 A 
ATOM     14  C   UNL     1      98.117  -7.835   7.151  1.00  0.00     0.051 A 
ATOM     15  C   UNL     1      98.266  -6.884   8.165  1.00  0.00     0.157 A 
ATOM     16  C   UNL     1      99.586  -5.508   6.662  1.00  0.00     0.062 A 
ATOM     17  C   UNL     1      99.000  -5.712   7.920  1.00  0.00     0.158 A 
BRANCH  15  18
ATOM     18  O   UNL     1      97.675  -7.118   9.407  1.00  0.00    -0.504 OA
ATOM     19  H   UNL     1      98.150  -6.911  10.277  1.00  0.00     0.293 HD
ENDBRANCH  15  18
BRANCH  17  20
ATOM     20  O   UNL     1      99.141  -4.753   8.922  1.00  0.00    -0.504 OA
ATOM     21  H   UNL     1      98.473  -3.999   9.034  1.00  0.00     0.293 HD
ENDBRANCH  17  20
ENDBRANCH   1  12
BRANCH   2  22
ATOM     22  O   UNL     1     101.879  -7.790   4.764  1.00  0.00    -0.502 OA
ATOM     23  H   UNL     1     102.695  -7.534   5.309  1.00  0.00     0.293 HD
ENDBRANCH   2  22
BRANCH   6  24
ATOM     24  O   UNL     1     102.769  -5.721  -0.063  1.00  0.00    -0.507 OA
ATOM     25  H   UNL     1     103.315  -6.511   0.243  1.00  0.00     0.293 HD
ENDBRANCH   6  24
BRANCH   8  26
ATOM     26  O   UNL     1      98.684  -3.276  -0.696  1.00  0.00    -0.508 OA
ATOM     27  H   UNL     1      98.233  -3.643  -1.525  1.00  0.00     0.293 HD
ENDBRANCH   8  26
TORSDOF 6
ENDMDL
