MODEL 1
REMARK VINA RESULT:    -6.558      0.000      0.000
REMARK INTER + INTRA:          -7.997
REMARK INTER:                  -7.708
REMARK INTRA:                  -0.289
REMARK UNBOUND:                -0.289
REMARK SMILES O=c1c(O)c(-c2ccc(O)cc2)oc2cc(O)cc(O)c12
REMARK SMILES IDX 5 1 3 2 2 3 1 4 21 5 19 6 18 7 16 8 15 9 14 10 13 11 6 12
REMARK SMILES IDX 7 13 8 14 9 15 12 16 11 17 10 18 4 20 20 22 17 24
REMARK H PARENT 10 19 4 21 20 23 17 25
REMARK Flexibility Score: inf
ROOT
ATOM      1  C   UNL     1     127.859 133.500 129.585  1.00  0.00     0.180 A 
ATOM      2  C   UNL     1     126.954 133.845 130.602  1.00  0.00     0.208 A 
ATOM      3  C   UNL     1     125.827 134.618 130.277  1.00  0.00     0.238 A 
ATOM      4  O   UNL     1     124.992 134.878 131.182  1.00  0.00    -0.285 OA
ATOM      5  C   UNL     1     125.629 135.049 128.943  1.00  0.00     0.111 A 
ATOM      6  C   UNL     1     124.544 135.869 128.510  1.00  0.00     0.134 A 
ATOM      7  C   UNL     1     124.376 136.125 127.143  1.00  0.00     0.093 A 
ATOM      8  C   UNL     1     125.291 135.645 126.203  1.00  0.00     0.123 A 
ATOM      9  C   UNL     1     126.386 134.894 126.623  1.00  0.00     0.094 A 
ATOM     10  C   UNL     1     126.560 134.591 127.975  1.00  0.00     0.146 A 
ATOM     11  O   UNL     1     127.611 133.863 128.332  1.00  0.00    -0.452 OA
ENDROOT
BRANCH   1  12
ATOM     12  C   UNL     1     129.082 132.709 129.853  1.00  0.00     0.021 A 
ATOM     13  C   UNL     1     129.066 131.302 129.822  1.00  0.00     0.016 A 
ATOM     14  C   UNL     1     130.228 130.575 130.103  1.00  0.00     0.047 A 
ATOM     15  C   UNL     1     131.415 131.244 130.431  1.00  0.00     0.115 A 
ATOM     16  C   UNL     1     130.272 133.370 130.203  1.00  0.00     0.016 A 
ATOM     17  C   UNL     1     131.432 132.640 130.483  1.00  0.00     0.047 A 
BRANCH  15  18
ATOM     18  O   UNL     1     132.578 130.530 130.711  1.00  0.00    -0.508 OA
ATOM     19  H   UNL     1     133.493 130.957 130.631  1.00  0.00     0.293 HD
ENDBRANCH  15  18
ENDBRANCH   1  12
BRANCH   2  20
ATOM     20  O   UNL     1     127.157 133.391 131.909  1.00  0.00    -0.502 OA
ATOM     21  H   UNL     1     126.840 132.482 132.223  1.00  0.00     0.293 HD
ENDBRANCH   2  20
BRANCH   6  22
ATOM     22  O   UNL     1     123.628 136.473 129.375  1.00  0.00    -0.507 OA
ATOM     23  H   UNL     1     123.868 136.911 130.251  1.00  0.00     0.293 HD
ENDBRANCH   6  22
BRANCH   8  24
ATOM     24  O   UNL     1     125.125 135.918 124.847  1.00  0.00    -0.508 OA
ATOM     25  H   UNL     1     125.502 136.760 124.425  1.00  0.00     0.293 HD
ENDBRANCH   8  24
TORSDOF 5
ENDMDL
MODEL 2
REMARK VINA RESULT:    -6.548      2.027      2.124
REMARK INTER + INTRA:          -7.985
REMARK INTER:                  -7.697
REMARK INTRA:                  -0.288
REMARK UNBOUND:                -0.289
REMARK SMILES O=c1c(O)c(-c2ccc(O)cc2)oc2cc(O)cc(O)c12
REMARK SMILES IDX 5 1 3 2 2 3 1 4 21 5 19 6 18 7 16 8 15 9 14 10 13 11 6 12
REMARK SMILES IDX 7 13 8 14 9 15 12 16 11 17 10 18 4 20 20 22 17 24
REMARK H PARENT 10 19 4 21 20 23 17 25
REMARK Flexibility Score: inf
ROOT
ATOM      1  C   UNL     1     126.437 132.641 130.619  1.00  0.00     0.180 A 
ATOM      2  C   UNL     1     125.167 132.794 131.200  1.00  0.00     0.208 A 
ATOM      3  C   UNL     1     124.274 133.726 130.646  1.00  0.00     0.238 A 
ATOM      4  O   UNL     1     123.119 133.821 131.137  1.00  0.00    -0.285 OA
ATOM      5  C   UNL     1     124.668 134.504 129.530  1.00  0.00     0.111 A 
ATOM      6  C   UNL     1     123.858 135.505 128.914  1.00  0.00     0.134 A 
ATOM      7  C   UNL     1     124.299 136.119 127.736  1.00  0.00     0.093 A 
ATOM      8  C   UNL     1     125.548 135.816 127.189  1.00  0.00     0.123 A 
ATOM      9  C   UNL     1     126.370 134.883 127.816  1.00  0.00     0.094 A 
ATOM     10  C   UNL     1     125.943 134.226 128.972  1.00  0.00     0.146 A 
ATOM     11  O   UNL     1     126.753 133.336 129.533  1.00  0.00    -0.452 OA
ENDROOT
BRANCH   1  12
ATOM     12  C   UNL     1     127.442 131.697 131.160  1.00  0.00     0.021 A 
ATOM     13  C   UNL     1     127.524 130.370 130.698  1.00  0.00     0.016 A 
ATOM     14  C   UNL     1     128.465 129.489 131.241  1.00  0.00     0.047 A 
ATOM     15  C   UNL     1     129.325 129.919 132.260  1.00  0.00     0.115 A 
ATOM     16  C   UNL     1     128.295 132.112 132.197  1.00  0.00     0.016 A 
ATOM     17  C   UNL     1     129.235 131.229 132.737  1.00  0.00     0.047 A 
BRANCH  15  18
ATOM     18  O   UNL     1     130.267 129.050 132.808  1.00  0.00    -0.508 OA
ATOM     19  H   UNL     1     131.261 129.230 132.728  1.00  0.00     0.293 HD
ENDBRANCH  15  18
ENDBRANCH   1  12
BRANCH   2  20
ATOM     20  O   UNL     1     124.790 132.001 132.288  1.00  0.00    -0.502 OA
ATOM     21  H   UNL     1     124.437 132.396 133.151  1.00  0.00     0.293 HD
ENDBRANCH   2  20
BRANCH   6  22
ATOM     22  O   UNL     1     122.637 135.948 129.430  1.00  0.00    -0.507 OA
ATOM     23  H   UNL     1     122.249 136.867 129.279  1.00  0.00     0.293 HD
ENDBRANCH   6  22
BRANCH   8  24
ATOM     24  O   UNL     1     125.986 136.444 126.025  1.00  0.00    -0.508 OA
ATOM     25  H   UNL     1     125.558 136.251 125.125  1.00  0.00     0.293 HD
ENDBRANCH   8  24
TORSDOF 5
ENDMDL
MODEL 3
REMARK VINA RESULT:    -6.425      1.458      2.977
REMARK INTER + INTRA:          -7.840
REMARK INTER:                  -7.544
REMARK INTRA:                  -0.296
REMARK UNBOUND:                -0.289
REMARK SMILES O=c1c(O)c(-c2ccc(O)cc2)oc2cc(O)cc(O)c12
REMARK SMILES IDX 5 1 3 2 2 3 1 4 21 5 19 6 18 7 16 8 15 9 14 10 13 11 6 12
REMARK SMILES IDX 7 13 8 14 9 15 12 16 11 17 10 18 4 20 20 22 17 24
REMARK H PARENT 10 19 4 21 20 23 17 25
REMARK Flexibility Score: inf
ROOT
ATOM      1  C   UNL     1     127.794 133.728 128.745  1.00  0.00     0.180 A 
ATOM      2  C   UNL     1     127.724 134.591 127.639  1.00  0.00     0.208 A 
ATOM      3  C   UNL     1     126.522 135.270 127.380  1.00  0.00     0.238 A 
ATOM      4  O   UNL     1     126.482 136.082 126.419  1.00  0.00    -0.285 OA
ATOM      5  C   UNL     1     125.401 135.064 128.220  1.00  0.00     0.111 A 
ATOM      6  C   UNL     1     124.123 135.669 128.027  1.00  0.00     0.134 A 
ATOM      7  C   UNL     1     123.126 135.496 128.995  1.00  0.00     0.093 A 
ATOM      8  C   UNL     1     123.340 134.688 130.115  1.00  0.00     0.123 A 
ATOM      9  C   UNL     1     124.565 134.047 130.280  1.00  0.00     0.094 A 
ATOM     10  C   UNL     1     125.592 134.229 129.352  1.00  0.00     0.146 A 
ATOM     11  O   UNL     1     126.748 133.607 129.553  1.00  0.00    -0.452 OA
ENDROOT
BRANCH   1  12
ATOM     12  C   UNL     1     129.018 132.960 129.069  1.00  0.00     0.021 A 
ATOM     13  C   UNL     1     129.232 131.669 128.549  1.00  0.00     0.016 A 
ATOM     14  C   UNL     1     130.384 130.953 128.888  1.00  0.00     0.047 A 
ATOM     15  C   UNL     1     131.329 131.509 129.760  1.00  0.00     0.115 A 
ATOM     16  C   UNL     1     129.961 133.501 129.959  1.00  0.00     0.016 A 
ATOM     17  C   UNL     1     131.112 132.782 130.295  1.00  0.00     0.047 A 
BRANCH  15  18
ATOM     18  O   UNL     1     132.480 130.805 130.104  1.00  0.00    -0.508 OA
ATOM     19  H   UNL     1     132.438 129.841 130.413  1.00  0.00     0.293 HD
ENDBRANCH  15  18
ENDBRANCH   1  12
BRANCH   2  20
ATOM     20  O   UNL     1     128.849 134.797 126.834  1.00  0.00    -0.502 OA
ATOM     21  H   UNL     1     129.401 135.645 126.878  1.00  0.00     0.293 HD
ENDBRANCH   2  20
BRANCH   6  22
ATOM     22  O   UNL     1     123.775 136.418 126.900  1.00  0.00    -0.507 OA
ATOM     23  H   UNL     1     124.102 137.352 126.708  1.00  0.00     0.293 HD
ENDBRANCH   6  22
BRANCH   8  24
ATOM     24  O   UNL     1     122.337 134.510 131.065  1.00  0.00    -0.508 OA
ATOM     25  H   UNL     1     122.535 134.547 132.059  1.00  0.00     0.293 HD
ENDBRANCH   8  24
TORSDOF 5
ENDMDL
MODEL 4
REMARK VINA RESULT:    -6.404      1.702      6.302
REMARK INTER + INTRA:          -7.816
REMARK INTER:                  -7.523
REMARK INTRA:                  -0.293
REMARK UNBOUND:                -0.289
REMARK SMILES O=c1c(O)c(-c2ccc(O)cc2)oc2cc(O)cc(O)c12
REMARK SMILES IDX 5 1 3 2 2 3 1 4 21 5 19 6 18 7 16 8 15 9 14 10 13 11 6 12
REMARK SMILES IDX 7 13 8 14 9 15 12 16 11 17 10 18 4 20 20 22 17 24
REMARK H PARENT 10 19 4 21 20 23 17 25
REMARK Flexibility Score: inf
ROOT
ATOM      1  C   UNL     1     126.561 133.837 128.382  1.00  0.00     0.180 A 
ATOM      2  C   UNL     1     125.719 133.428 129.431  1.00  0.00     0.208 A 
ATOM      3  C   UNL     1     126.295 132.955 130.621  1.00  0.00     0.238 A 
ATOM      4  O   UNL     1     125.537 132.641 131.575  1.00  0.00    -0.285 OA
ATOM      5  C   UNL     1     127.704 132.879 130.741  1.00  0.00     0.111 A 
ATOM      6  C   UNL     1     128.393 132.378 131.886  1.00  0.00     0.134 A 
ATOM      7  C   UNL     1     129.789 132.473 131.946  1.00  0.00     0.093 A 
ATOM      8  C   UNL     1     130.523 132.991 130.877  1.00  0.00     0.123 A 
ATOM      9  C   UNL     1     129.862 133.428 129.731  1.00  0.00     0.094 A 
ATOM     10  C   UNL     1     128.469 133.381 129.655  1.00  0.00     0.146 A 
ATOM     11  O   UNL     1     127.878 133.817 128.550  1.00  0.00    -0.452 OA
ENDROOT
BRANCH   1  12
ATOM     12  C   UNL     1     126.029 134.325 127.089  1.00  0.00     0.021 A 
ATOM     13  C   UNL     1     125.666 133.433 126.062  1.00  0.00     0.016 A 
ATOM     14  C   UNL     1     125.189 133.918 124.841  1.00  0.00     0.047 A 
ATOM     15  C   UNL     1     125.081 135.298 124.624  1.00  0.00     0.115 A 
ATOM     16  C   UNL     1     125.936 135.707 126.855  1.00  0.00     0.016 A 
ATOM     17  C   UNL     1     125.458 136.189 125.633  1.00  0.00     0.047 A 
BRANCH  15  18
ATOM     18  O   UNL     1     124.606 135.792 123.412  1.00  0.00    -0.508 OA
ATOM     19  H   UNL     1     123.764 135.425 122.984  1.00  0.00     0.293 HD
ENDBRANCH  15  18
ENDBRANCH   1  12
BRANCH   2  20
ATOM     20  O   UNL     1     124.331 133.531 129.299  1.00  0.00    -0.502 OA
ATOM     21  H   UNL     1     123.870 134.402 129.065  1.00  0.00     0.293 HD
ENDBRANCH   2  20
BRANCH   6  22
ATOM     22  O   UNL     1     127.762 131.757 132.968  1.00  0.00    -0.507 OA
ATOM     23  H   UNL     1     128.230 131.455 133.808  1.00  0.00     0.293 HD
ENDBRANCH   6  22
BRANCH   8  24
ATOM     24  O   UNL     1     131.913 133.067 130.939  1.00  0.00    -0.508 OA
ATOM     25  H   UNL     1     132.410 132.968 131.817  1.00  0.00     0.293 HD
ENDBRANCH   8  24
TORSDOF 5
ENDMDL
MODEL 5
REMARK VINA RESULT:    -6.297      3.834      9.645
REMARK INTER + INTRA:          -7.690
REMARK INTER:                  -7.408
REMARK INTRA:                  -0.282
REMARK UNBOUND:                -0.289
REMARK SMILES O=c1c(O)c(-c2ccc(O)cc2)oc2cc(O)cc(O)c12
REMARK SMILES IDX 5 1 3 2 2 3 1 4 21 5 19 6 18 7 16 8 15 9 14 10 13 11 6 12
REMARK SMILES IDX 7 13 8 14 9 15 12 16 11 17 10 18 4 20 20 22 17 24
REMARK H PARENT 10 19 4 21 20 23 17 25
REMARK Flexibility Score: inf
ROOT
ATOM      1  C   UNL     1     132.106 129.823 131.246  1.00  0.00     0.180 A 
ATOM      2  C   UNL     1     133.155 130.070 132.147  1.00  0.00     0.208 A 
ATOM      3  C   UNL     1     134.135 129.082 132.338  1.00  0.00     0.238 A 
ATOM      4  O   UNL     1     135.101 129.330 133.105  1.00  0.00    -0.285 OA
ATOM      5  C   UNL     1     134.043 127.854 131.639  1.00  0.00     0.111 A 
ATOM      6  C   UNL     1     134.957 126.768 131.786  1.00  0.00     0.134 A 
ATOM      7  C   UNL     1     134.844 125.653 130.947  1.00  0.00     0.093 A 
ATOM      8  C   UNL     1     133.810 125.556 130.012  1.00  0.00     0.123 A 
ATOM      9  C   UNL     1     132.879 126.585 129.902  1.00  0.00     0.094 A 
ATOM     10  C   UNL     1     132.987 127.727 130.699  1.00  0.00     0.146 A 
ATOM     11  O   UNL     1     132.084 128.690 130.555  1.00  0.00    -0.452 OA
ENDROOT
BRANCH   1  12
ATOM     12  C   UNL     1     131.023 130.806 131.009  1.00  0.00     0.021 A 
ATOM     13  C   UNL     1     131.097 131.738 129.957  1.00  0.00     0.016 A 
ATOM     14  C   UNL     1     130.074 132.673 129.768  1.00  0.00     0.047 A 
ATOM     15  C   UNL     1     128.972 132.697 130.634  1.00  0.00     0.115 A 
ATOM     16  C   UNL     1     129.925 130.851 131.885  1.00  0.00     0.016 A 
ATOM     17  C   UNL     1     128.903 131.786 131.692  1.00  0.00     0.047 A 
BRANCH  15  18
ATOM     18  O   UNL     1     127.947 133.622 130.454  1.00  0.00    -0.508 OA
ATOM     19  H   UNL     1     127.106 133.387 129.941  1.00  0.00     0.293 HD
ENDBRANCH  15  18
ENDBRANCH   1  12
BRANCH   2  20
ATOM     20  O   UNL     1     133.239 131.298 132.811  1.00  0.00    -0.502 OA
ATOM     21  H   UNL     1     132.423 131.775 133.174  1.00  0.00     0.293 HD
ENDBRANCH   2  20
BRANCH   6  22
ATOM     22  O   UNL     1     135.968 126.723 132.750  1.00  0.00    -0.507 OA
ATOM     23  H   UNL     1     135.825 126.488 133.721  1.00  0.00     0.293 HD
ENDBRANCH   6  22
BRANCH   8  24
ATOM     24  O   UNL     1     133.696 124.436 129.192  1.00  0.00    -0.508 OA
ATOM     25  H   UNL     1     133.761 123.496 129.566  1.00  0.00     0.293 HD
ENDBRANCH   8  24
TORSDOF 5
ENDMDL
MODEL 6
REMARK VINA RESULT:    -6.290      5.758      8.168
REMARK INTER + INTRA:          -7.682
REMARK INTER:                  -7.398
REMARK INTRA:                  -0.284
REMARK UNBOUND:                -0.289
REMARK SMILES O=c1c(O)c(-c2ccc(O)cc2)oc2cc(O)cc(O)c12
REMARK SMILES IDX 5 1 3 2 2 3 1 4 21 5 19 6 18 7 16 8 15 9 14 10 13 11 6 12
REMARK SMILES IDX 7 13 8 14 9 15 12 16 11 17 10 18 4 20 20 22 17 24
REMARK H PARENT 10 19 4 21 20 23 17 25
REMARK Flexibility Score: inf
ROOT
ATOM      1  C   UNL     1     132.720 127.895 130.200  1.00  0.00     0.180 A 
ATOM      2  C   UNL     1     133.368 128.768 131.090  1.00  0.00     0.208 A 
ATOM      3  C   UNL     1     132.598 129.678 131.832  1.00  0.00     0.238 A 
ATOM      4  O   UNL     1     133.177 130.420 132.667  1.00  0.00    -0.285 OA
ATOM      5  C   UNL     1     131.192 129.715 131.662  1.00  0.00     0.111 A 
ATOM      6  C   UNL     1     130.319 130.624 132.332  1.00  0.00     0.134 A 
ATOM      7  C   UNL     1     128.934 130.483 132.186  1.00  0.00     0.093 A 
ATOM      8  C   UNL     1     128.393 129.508 131.344  1.00  0.00     0.123 A 
ATOM      9  C   UNL     1     129.240 128.655 130.640  1.00  0.00     0.094 A 
ATOM     10  C   UNL     1     130.625 128.747 130.793  1.00  0.00     0.146 A 
ATOM     11  O   UNL     1     131.396 127.907 130.111  1.00  0.00    -0.452 OA
ENDROOT
BRANCH   1  12
ATOM     12  C   UNL     1     133.466 126.924 129.365  1.00  0.00     0.021 A 
ATOM     13  C   UNL     1     133.685 125.603 129.798  1.00  0.00     0.016 A 
ATOM     14  C   UNL     1     134.412 124.711 129.004  1.00  0.00     0.047 A 
ATOM     15  C   UNL     1     134.942 125.131 127.776  1.00  0.00     0.115 A 
ATOM     16  C   UNL     1     134.018 127.342 128.142  1.00  0.00     0.016 A 
ATOM     17  C   UNL     1     134.745 126.447 127.351  1.00  0.00     0.047 A 
BRANCH  15  18
ATOM     18  O   UNL     1     135.667 124.250 126.977  1.00  0.00    -0.508 OA
ATOM     19  H   UNL     1     135.480 124.159 125.985  1.00  0.00     0.293 HD
ENDBRANCH  15  18
ENDBRANCH   1  12
BRANCH   2  20
ATOM     20  O   UNL     1     134.754 128.700 131.258  1.00  0.00    -0.502 OA
ATOM     21  H   UNL     1     135.367 129.474 131.033  1.00  0.00     0.293 HD
ENDBRANCH   2  20
BRANCH   6  22
ATOM     22  O   UNL     1     130.758 131.689 133.122  1.00  0.00    -0.507 OA
ATOM     23  H   UNL     1     130.303 132.588 133.179  1.00  0.00     0.293 HD
ENDBRANCH   6  22
BRANCH   8  24
ATOM     24  O   UNL     1     127.014 129.385 131.192  1.00  0.00    -0.508 OA
ATOM     25  H   UNL     1     126.368 129.824 131.839  1.00  0.00     0.293 HD
ENDBRANCH   8  24
TORSDOF 5
ENDMDL
MODEL 7
REMARK VINA RESULT:    -6.289      4.347      9.952
REMARK INTER + INTRA:          -7.681
REMARK INTER:                  -7.402
REMARK INTRA:                  -0.279
REMARK UNBOUND:                -0.289
REMARK SMILES O=c1c(O)c(-c2ccc(O)cc2)oc2cc(O)cc(O)c12
REMARK SMILES IDX 5 1 3 2 2 3 1 4 21 5 19 6 18 7 16 8 15 9 14 10 13 11 6 12
REMARK SMILES IDX 7 13 8 14 9 15 12 16 11 17 10 18 4 20 20 22 17 24
REMARK H PARENT 10 19 4 21 20 23 17 25
REMARK Flexibility Score: inf
ROOT
ATOM      1  C   UNL     1     131.458 128.421 130.747  1.00  0.00     0.180 A 
ATOM      2  C   UNL     1     132.207 128.543 131.930  1.00  0.00     0.208 A 
ATOM      3  C   UNL     1     133.361 127.760 132.088  1.00  0.00     0.238 A 
ATOM      4  O   UNL     1     134.058 127.912 133.125  1.00  0.00    -0.285 OA
ATOM      5  C   UNL     1     133.744 126.854 131.069  1.00  0.00     0.111 A 
ATOM      6  C   UNL     1     134.872 125.983 131.141  1.00  0.00     0.134 A 
ATOM      7  C   UNL     1     135.230 125.224 130.020  1.00  0.00     0.093 A 
ATOM      8  C   UNL     1     134.462 125.255 128.854  1.00  0.00     0.123 A 
ATOM      9  C   UNL     1     133.325 126.057 128.795  1.00  0.00     0.094 A 
ATOM     10  C   UNL     1     132.963 126.854 129.883  1.00  0.00     0.146 A 
ATOM     11  O   UNL     1     131.878 127.612 129.782  1.00  0.00    -0.452 OA
ENDROOT
BRANCH   1  12
ATOM     12  C   UNL     1     130.216 129.195 130.518  1.00  0.00     0.021 A 
ATOM     13  C   UNL     1     130.232 130.417 129.819  1.00  0.00     0.016 A 
ATOM     14  C   UNL     1     129.050 131.142 129.636  1.00  0.00     0.047 A 
ATOM     15  C   UNL     1     127.842 130.663 130.159  1.00  0.00     0.115 A 
ATOM     16  C   UNL     1     129.002 128.733 131.056  1.00  0.00     0.016 A 
ATOM     17  C   UNL     1     127.823 129.460 130.870  1.00  0.00     0.047 A 
BRANCH  15  18
ATOM     18  O   UNL     1     126.659 131.376 129.981  1.00  0.00    -0.508 OA
ATOM     19  H   UNL     1     126.394 132.127 130.609  1.00  0.00     0.293 HD
ENDBRANCH  15  18
ENDBRANCH   1  12
BRANCH   2  20
ATOM     20  O   UNL     1     131.824 129.459 132.914  1.00  0.00    -0.502 OA
ATOM     21  H   UNL     1     130.856 129.602 133.176  1.00  0.00     0.293 HD
ENDBRANCH   2  20
BRANCH   6  22
ATOM     22  O   UNL     1     135.651 125.807 132.288  1.00  0.00    -0.507 OA
ATOM     23  H   UNL     1     135.838 126.526 132.971  1.00  0.00     0.293 HD
ENDBRANCH   6  22
BRANCH   8  24
ATOM     24  O   UNL     1     134.817 124.484 127.748  1.00  0.00    -0.508 OA
ATOM     25  H   UNL     1     135.127 123.524 127.849  1.00  0.00     0.293 HD
ENDBRANCH   8  24
TORSDOF 5
ENDMDL
MODEL 8
REMARK VINA RESULT:    -6.152      4.748      9.872
REMARK INTER + INTRA:          -7.519
REMARK INTER:                  -7.238
REMARK INTRA:                  -0.281
REMARK UNBOUND:                -0.289
REMARK SMILES O=c1c(O)c(-c2ccc(O)cc2)oc2cc(O)cc(O)c12
REMARK SMILES IDX 5 1 3 2 2 3 1 4 21 5 19 6 18 7 16 8 15 9 14 10 13 11 6 12
REMARK SMILES IDX 7 13 8 14 9 15 12 16 11 17 10 18 4 20 20 22 17 24
REMARK H PARENT 10 19 4 21 20 23 17 25
REMARK Flexibility Score: inf
ROOT
ATOM      1  C   UNL     1     131.789 129.181 130.380  1.00  0.00     0.180 A 
ATOM      2  C   UNL     1     131.550 128.561 129.143  1.00  0.00     0.208 A 
ATOM      3  C   UNL     1     132.261 127.395 128.817  1.00  0.00     0.238 A 
ATOM      4  O   UNL     1     132.004 126.814 127.731  1.00  0.00    -0.285 OA
ATOM      5  C   UNL     1     133.215 126.874 129.725  1.00  0.00     0.111 A 
ATOM      6  C   UNL     1     134.022 125.722 129.480  1.00  0.00     0.134 A 
ATOM      7  C   UNL     1     134.837 125.222 130.503  1.00  0.00     0.093 A 
ATOM      8  C   UNL     1     134.924 125.869 131.737  1.00  0.00     0.123 A 
ATOM      9  C   UNL     1     134.185 127.028 131.964  1.00  0.00     0.094 A 
ATOM     10  C   UNL     1     133.335 127.531 130.977  1.00  0.00     0.146 A 
ATOM     11  O   UNL     1     132.641 128.632 131.238  1.00  0.00    -0.452 OA
ENDROOT
BRANCH   1  12
ATOM     12  C   UNL     1     131.096 130.426 130.785  1.00  0.00     0.021 A 
ATOM     13  C   UNL     1     131.527 131.686 130.329  1.00  0.00     0.016 A 
ATOM     14  C   UNL     1     130.872 132.850 130.744  1.00  0.00     0.047 A 
ATOM     15  C   UNL     1     129.789 132.771 131.629  1.00  0.00     0.115 A 
ATOM     16  C   UNL     1     130.022 130.359 131.689  1.00  0.00     0.016 A 
ATOM     17  C   UNL     1     129.369 131.524 132.101  1.00  0.00     0.047 A 
BRANCH  15  18
ATOM     18  O   UNL     1     129.129 133.924 132.048  1.00  0.00    -0.508 OA
ATOM     19  H   UNL     1     128.663 134.536 131.389  1.00  0.00     0.293 HD
ENDBRANCH  15  18
ENDBRANCH   1  12
BRANCH   2  20
ATOM     20  O   UNL     1     130.588 129.079 128.270  1.00  0.00    -0.502 OA
ATOM     21  H   UNL     1     130.818 129.746 127.543  1.00  0.00     0.293 HD
ENDBRANCH   2  20
BRANCH   6  22
ATOM     22  O   UNL     1     134.079 125.055 128.253  1.00  0.00    -0.507 OA
ATOM     23  H   UNL     1     134.126 124.054 128.146  1.00  0.00     0.293 HD
ENDBRANCH   6  22
BRANCH   8  24
ATOM     24  O   UNL     1     135.749 125.373 132.744  1.00  0.00    -0.508 OA
ATOM     25  H   UNL     1     136.759 125.370 132.648  1.00  0.00     0.293 HD
ENDBRANCH   8  24
TORSDOF 5
ENDMDL
MODEL 9
REMARK VINA RESULT:    -6.069     11.343     13.035
REMARK INTER + INTRA:          -7.422
REMARK INTER:                  -7.122
REMARK INTRA:                  -0.300
REMARK UNBOUND:                -0.289
REMARK SMILES O=c1c(O)c(-c2ccc(O)cc2)oc2cc(O)cc(O)c12
REMARK SMILES IDX 5 1 3 2 2 3 1 4 21 5 19 6 18 7 16 8 15 9 14 10 13 11 6 12
REMARK SMILES IDX 7 13 8 14 9 15 12 16 11 17 10 18 4 20 20 22 17 24
REMARK H PARENT 10 19 4 21 20 23 17 25
REMARK Flexibility Score: inf
ROOT
ATOM      1  C   UNL     1     126.844 137.061 117.139  1.00  0.00     0.180 A 
ATOM      2  C   UNL     1     126.331 137.644 118.311  1.00  0.00     0.208 A 
ATOM      3  C   UNL     1     125.208 137.065 118.923  1.00  0.00     0.238 A 
ATOM      4  O   UNL     1     124.787 137.559 120.001  1.00  0.00    -0.285 OA
ATOM      5  C   UNL     1     124.602 135.922 118.349  1.00  0.00     0.111 A 
ATOM      6  C   UNL     1     123.437 135.277 118.863  1.00  0.00     0.134 A 
ATOM      7  C   UNL     1     123.002 134.077 118.288  1.00  0.00     0.093 A 
ATOM      8  C   UNL     1     123.652 133.533 117.178  1.00  0.00     0.123 A 
ATOM      9  C   UNL     1     124.754 134.186 116.632  1.00  0.00     0.094 A 
ATOM     10  C   UNL     1     125.235 135.366 117.206  1.00  0.00     0.146 A 
ATOM     11  O   UNL     1     126.295 135.951 116.661  1.00  0.00    -0.452 OA
ENDROOT
BRANCH   1  12
ATOM     12  C   UNL     1     128.009 137.628 116.422  1.00  0.00     0.021 A 
ATOM     13  C   UNL     1     127.852 138.615 115.432  1.00  0.00     0.016 A 
ATOM     14  C   UNL     1     128.965 139.118 114.751  1.00  0.00     0.047 A 
ATOM     15  C   UNL     1     130.246 138.631 115.040  1.00  0.00     0.115 A 
ATOM     16  C   UNL     1     129.296 137.131 116.691  1.00  0.00     0.016 A 
ATOM     17  C   UNL     1     130.407 137.636 116.009  1.00  0.00     0.047 A 
BRANCH  15  18
ATOM     18  O   UNL     1     131.362 139.125 114.369  1.00  0.00    -0.508 OA
ATOM     19  H   UNL     1     132.084 139.645 114.854  1.00  0.00     0.293 HD
ENDBRANCH  15  18
ENDBRANCH   1  12
BRANCH   2  20
ATOM     20  O   UNL     1     126.958 138.760 118.874  1.00  0.00    -0.502 OA
ATOM     21  H   UNL     1     126.883 138.985 119.858  1.00  0.00     0.293 HD
ENDBRANCH   2  20
BRANCH   6  22
ATOM     22  O   UNL     1     122.661 135.785 119.909  1.00  0.00    -0.507 OA
ATOM     23  H   UNL     1     121.823 135.352 120.265  1.00  0.00     0.293 HD
ENDBRANCH   6  22
BRANCH   8  24
ATOM     24  O   UNL     1     123.204 132.346 116.602  1.00  0.00    -0.508 OA
ATOM     25  H   UNL     1     122.215 132.154 116.485  1.00  0.00     0.293 HD
ENDBRANCH   8  24
TORSDOF 5
ENDMDL
