MODEL 1
REMARK VINA RESULT:    -5.286      0.000      0.000
REMARK INTER + INTRA:         -13.988
REMARK INTER:                 -11.466
REMARK INTRA:                  -2.522
REMARK UNBOUND:                -2.522
REMARK SMILES CCCCCCCCCCCCCCCCCCCCCC(=O)[O-]
REMARK SMILES IDX 12 1 11 2 10 3 9 4 8 5 7 6 6 7 5 8 4 9 3 10 2 11 1 12 13 13
REMARK SMILES IDX 14 14 15 15 16 16 17 17 18 18 19 19 20 20 21 21 22 22 23 23
REMARK SMILES IDX 24 24
REMARK H PARENT
REMARK Flexibility Score: inf
ROOT
ATOM      1  C   UNL     1     253.213 257.953 247.667  1.00  0.00     0.000 C 
ENDROOT
BRANCH   1   2
ATOM      2  C   UNL     1     252.943 258.927 246.505  1.00  0.00     0.000 C 
BRANCH   2   3
ATOM      3  C   UNL     1     254.224 259.328 245.754  1.00  0.00     0.000 C 
BRANCH   3   4
ATOM      4  C   UNL     1     254.540 260.826 245.886  1.00  0.00    -0.000 C 
BRANCH   4   5
ATOM      5  C   UNL     1     256.049 261.106 246.001  1.00  0.00    -0.000 C 
BRANCH   5   6
ATOM      6  C   UNL     1     256.800 260.779 244.693  1.00  0.00    -0.000 C 
BRANCH   6   7
ATOM      7  C   UNL     1     258.214 261.383 244.624  1.00  0.00    -0.000 C 
BRANCH   7   8
ATOM      8  C   UNL     1     258.559 262.231 245.859  1.00  0.00    -0.000 C 
BRANCH   8   9
ATOM      9  C   UNL     1     259.726 261.651 246.679  1.00  0.00    -0.000 C 
BRANCH   9  10
ATOM     10  C   UNL     1     259.333 260.577 247.711  1.00  0.00    -0.000 C 
BRANCH  10  11
ATOM     11  C   UNL     1     260.234 259.335 247.657  1.00  0.00    -0.003 C 
ATOM     12  C   UNL     1     260.904 259.200 246.292  1.00  0.00     0.004 C 
ENDBRANCH  10  11
ENDBRANCH   9  10
ENDBRANCH   8   9
ENDBRANCH   7   8
ENDBRANCH   6   7
ENDBRANCH   5   6
ENDBRANCH   4   5
ENDBRANCH   3   4
ENDBRANCH   2   3
ENDBRANCH   1   2
BRANCH   1  13
ATOM     13  C   UNL     1     254.632 257.359 247.699  1.00  0.00     0.000 C 
BRANCH  13  14
ATOM     14  C   UNL     1     255.384 257.683 249.003  1.00  0.00     0.000 C 
BRANCH  14  15
ATOM     15  C   UNL     1     254.629 258.685 249.891  1.00  0.00     0.000 C 
BRANCH  15  16
ATOM     16  C   UNL     1     254.963 260.148 249.548  1.00  0.00     0.000 C 
BRANCH  16  17
ATOM     17  C   UNL     1     256.328 260.588 250.104  1.00  0.00     0.000 C 
BRANCH  17  18
ATOM     18  C   UNL     1     256.206 261.730 251.128  1.00  0.00     0.000 C 
BRANCH  18  19
ATOM     19  C   UNL     1     254.748 262.023 251.516  1.00  0.00     0.000 C 
BRANCH  19  20
ATOM     20  C   UNL     1     254.507 261.922 253.033  1.00  0.00     0.006 C 
BRANCH  20  21
ATOM     21  C   UNL     1     254.790 260.514 253.572  1.00  0.00     0.053 C 
BRANCH  21  22
ATOM     22  C   UNL     1     255.488 260.554 254.896  1.00  0.00     0.041 C 
ATOM     23  O   UNL     1     256.486 261.302 255.062  1.00  0.00    -0.550 OA
ATOM     24  O   UNL     1     255.048 259.751 255.941  1.00  0.00    -0.550 OA
ENDBRANCH  21  22
ENDBRANCH  20  21
ENDBRANCH  19  20
ENDBRANCH  18  19
ENDBRANCH  17  18
ENDBRANCH  16  17
ENDBRANCH  15  16
ENDBRANCH  14  15
ENDBRANCH  13  14
ENDBRANCH   1  13
TORSDOF 20
ENDMDL
MODEL 2
REMARK VINA RESULT:    -5.237      3.053      6.461
REMARK INTER + INTRA:         -13.883
REMARK INTER:                 -10.684
REMARK INTRA:                  -3.198
REMARK UNBOUND:                -2.522
REMARK SMILES CCCCCCCCCCCCCCCCCCCCCC(=O)[O-]
REMARK SMILES IDX 12 1 11 2 10 3 9 4 8 5 7 6 6 7 5 8 4 9 3 10 2 11 1 12 13 13
REMARK SMILES IDX 14 14 15 15 16 16 17 17 18 18 19 19 20 20 21 21 22 22 23 23
REMARK SMILES IDX 24 24
REMARK H PARENT
REMARK Flexibility Score: inf
ROOT
ATOM      1  C   UNL     1     253.193 257.522 248.385  1.00  0.00     0.000 C 
ENDROOT
BRANCH   1   2
ATOM      2  C   UNL     1     254.278 257.273 249.450  1.00  0.00     0.000 C 
BRANCH   2   3
ATOM      3  C   UNL     1     255.685 257.128 248.846  1.00  0.00     0.000 C 
BRANCH   3   4
ATOM      4  C   UNL     1     256.339 255.782 249.193  1.00  0.00    -0.000 C 
BRANCH   4   5
ATOM      5  C   UNL     1     256.496 254.865 247.967  1.00  0.00    -0.000 C 
BRANCH   5   6
ATOM      6  C   UNL     1     255.179 254.143 247.610  1.00  0.00    -0.000 C 
BRANCH   6   7
ATOM      7  C   UNL     1     254.538 253.402 248.796  1.00  0.00    -0.000 C 
BRANCH   7   8
ATOM      8  C   UNL     1     253.016 253.609 248.874  1.00  0.00    -0.000 C 
BRANCH   8   9
ATOM      9  C   UNL     1     252.414 254.141 247.560  1.00  0.00    -0.000 C 
BRANCH   9  10
ATOM     10  C   UNL     1     251.371 253.223 246.896  1.00  0.00    -0.000 C 
BRANCH  10  11
ATOM     11  C   UNL     1     251.383 251.795 247.462  1.00  0.00    -0.003 C 
ATOM     12  C   UNL     1     250.062 251.463 248.149  1.00  0.00     0.004 C 
ENDBRANCH  10  11
ENDBRANCH   9  10
ENDBRANCH   8   9
ENDBRANCH   7   8
ENDBRANCH   6   7
ENDBRANCH   5   6
ENDBRANCH   4   5
ENDBRANCH   3   4
ENDBRANCH   2   3
ENDBRANCH   1   2
BRANCH   1  13
ATOM     13  C   UNL     1     253.704 257.544 246.933  1.00  0.00     0.000 C 
BRANCH  13  14
ATOM     14  C   UNL     1     253.619 258.942 246.294  1.00  0.00     0.000 C 
BRANCH  14  15
ATOM     15  C   UNL     1     252.887 259.959 247.184  1.00  0.00     0.000 C 
BRANCH  15  16
ATOM     16  C   UNL     1     253.809 261.093 247.669  1.00  0.00     0.000 C 
BRANCH  16  17
ATOM     17  C   UNL     1     255.300 260.740 247.532  1.00  0.00     0.000 C 
BRANCH  17  18
ATOM     18  C   UNL     1     256.050 260.825 248.872  1.00  0.00     0.000 C 
BRANCH  18  19
ATOM     19  C   UNL     1     255.104 260.782 250.083  1.00  0.00     0.000 C 
BRANCH  19  20
ATOM     20  C   UNL     1     255.614 261.628 251.263  1.00  0.00     0.006 C 
BRANCH  20  21
ATOM     21  C   UNL     1     254.467 262.158 252.134  1.00  0.00     0.053 C 
BRANCH  21  22
ATOM     22  C   UNL     1     254.307 261.360 253.390  1.00  0.00     0.041 C 
ATOM     23  O   UNL     1     253.877 260.178 253.338  1.00  0.00    -0.550 OA
ATOM     24  O   UNL     1     254.614 261.927 254.620  1.00  0.00    -0.550 OA
ENDBRANCH  21  22
ENDBRANCH  20  21
ENDBRANCH  19  20
ENDBRANCH  18  19
ENDBRANCH  17  18
ENDBRANCH  16  17
ENDBRANCH  15  16
ENDBRANCH  14  15
ENDBRANCH  13  14
ENDBRANCH   1  13
TORSDOF 20
ENDMDL
MODEL 3
REMARK VINA RESULT:    -5.232      1.212      2.131
REMARK INTER + INTRA:         -13.871
REMARK INTER:                 -11.139
REMARK INTRA:                  -2.731
REMARK UNBOUND:                -2.522
REMARK SMILES CCCCCCCCCCCCCCCCCCCCCC(=O)[O-]
REMARK SMILES IDX 12 1 11 2 10 3 9 4 8 5 7 6 6 7 5 8 4 9 3 10 2 11 1 12 13 13
REMARK SMILES IDX 14 14 15 15 16 16 17 17 18 18 19 19 20 20 21 21 22 22 23 23
REMARK SMILES IDX 24 24
REMARK H PARENT
REMARK Flexibility Score: inf
ROOT
ATOM      1  C   UNL     1     254.576 257.509 247.962  1.00  0.00     0.000 C 
ENDROOT
BRANCH   1   2
ATOM      2  C   UNL     1     253.931 258.037 246.667  1.00  0.00     0.000 C 
BRANCH   2   3
ATOM      3  C   UNL     1     252.934 259.181 246.921  1.00  0.00     0.000 C 
BRANCH   3   4
ATOM      4  C   UNL     1     253.464 260.542 246.443  1.00  0.00    -0.000 C 
BRANCH   4   5
ATOM      5  C   UNL     1     254.696 260.412 245.531  1.00  0.00    -0.000 C 
BRANCH   5   6
ATOM      6  C   UNL     1     255.897 261.224 246.060  1.00  0.00    -0.000 C 
BRANCH   6   7
ATOM      7  C   UNL     1     257.120 261.198 245.127  1.00  0.00    -0.000 C 
BRANCH   7   8
ATOM      8  C   UNL     1     258.453 261.171 245.894  1.00  0.00    -0.000 C 
BRANCH   8   9
ATOM      9  C   UNL     1     258.271 261.293 247.418  1.00  0.00    -0.000 C 
BRANCH   9  10
ATOM     10  C   UNL     1     259.476 260.836 248.262  1.00  0.00    -0.000 C 
BRANCH  10  11
ATOM     11  C   UNL     1     259.642 261.644 249.557  1.00  0.00    -0.003 C 
ATOM     12  C   UNL     1     258.967 263.009 249.445  1.00  0.00     0.004 C 
ENDBRANCH  10  11
ENDBRANCH   9  10
ENDBRANCH   8   9
ENDBRANCH   7   8
ENDBRANCH   6   7
ENDBRANCH   5   6
ENDBRANCH   4   5
ENDBRANCH   3   4
ENDBRANCH   2   3
ENDBRANCH   1   2
BRANCH   1  13
ATOM     13  C   UNL     1     255.576 258.471 248.628  1.00  0.00     0.000 C 
BRANCH  13  14
ATOM     14  C   UNL     1     254.966 259.235 249.817  1.00  0.00     0.000 C 
BRANCH  14  15
ATOM     15  C   UNL     1     255.379 260.716 249.847  1.00  0.00     0.000 C 
BRANCH  15  16
ATOM     16  C   UNL     1     256.283 261.054 251.046  1.00  0.00     0.000 C 
BRANCH  16  17
ATOM     17  C   UNL     1     255.834 262.326 251.784  1.00  0.00     0.000 C 
BRANCH  17  18
ATOM     18  C   UNL     1     254.326 262.328 252.090  1.00  0.00     0.000 C 
BRANCH  18  19
ATOM     19  C   UNL     1     253.957 261.391 253.250  1.00  0.00     0.000 C 
BRANCH  19  20
ATOM     20  C   UNL     1     254.884 261.561 254.467  1.00  0.00     0.006 C 
BRANCH  20  21
ATOM     21  C   UNL     1     254.827 260.355 255.413  1.00  0.00     0.053 C 
BRANCH  21  22
ATOM     22  C   UNL     1     256.155 259.676 255.531  1.00  0.00     0.041 C 
ATOM     23  O   UNL     1     256.256 258.441 255.314  1.00  0.00    -0.550 OA
ATOM     24  O   UNL     1     257.280 260.404 255.899  1.00  0.00    -0.550 OA
ENDBRANCH  21  22
ENDBRANCH  20  21
ENDBRANCH  19  20
ENDBRANCH  18  19
ENDBRANCH  17  18
ENDBRANCH  16  17
ENDBRANCH  15  16
ENDBRANCH  14  15
ENDBRANCH  13  14
ENDBRANCH   1  13
TORSDOF 20
ENDMDL
MODEL 4
REMARK VINA RESULT:    -5.219      3.087      6.660
REMARK INTER + INTRA:         -13.844
REMARK INTER:                 -11.456
REMARK INTRA:                  -2.388
REMARK UNBOUND:                -2.522
REMARK SMILES CCCCCCCCCCCCCCCCCCCCCC(=O)[O-]
REMARK SMILES IDX 12 1 11 2 10 3 9 4 8 5 7 6 6 7 5 8 4 9 3 10 2 11 1 12 13 13
REMARK SMILES IDX 14 14 15 15 16 16 17 17 18 18 19 19 20 20 21 21 22 22 23 23
REMARK SMILES IDX 24 24
REMARK H PARENT
REMARK Flexibility Score: inf
ROOT
ATOM      1  C   UNL     1     253.877 258.636 245.795  1.00  0.00     0.000 C 
ENDROOT
BRANCH   1   2
ATOM      2  C   UNL     1     253.485 258.901 247.261  1.00  0.00     0.000 C 
BRANCH   2   3
ATOM      3  C   UNL     1     252.066 258.412 247.596  1.00  0.00     0.000 C 
BRANCH   3   4
ATOM      4  C   UNL     1     250.975 259.343 247.043  1.00  0.00    -0.000 C 
BRANCH   4   5
ATOM      5  C   UNL     1     249.630 258.624 246.837  1.00  0.00    -0.000 C 
BRANCH   5   6
ATOM      6  C   UNL     1     249.751 257.098 247.036  1.00  0.00    -0.000 C 
BRANCH   6   7
ATOM      7  C   UNL     1     249.634 256.292 245.731  1.00  0.00    -0.000 C 
BRANCH   7   8
ATOM      8  C   UNL     1     250.553 255.060 245.709  1.00  0.00    -0.000 C 
BRANCH   8   9
ATOM      9  C   UNL     1     252.021 255.411 245.404  1.00  0.00    -0.000 C 
BRANCH   9  10
ATOM     10  C   UNL     1     253.067 254.599 246.192  1.00  0.00    -0.000 C 
BRANCH  10  11
ATOM     11  C   UNL     1     253.284 255.125 247.618  1.00  0.00    -0.003 C 
ATOM     12  C   UNL     1     254.764 255.378 247.892  1.00  0.00     0.004 C 
ENDBRANCH  10  11
ENDBRANCH   9  10
ENDBRANCH   8   9
ENDBRANCH   7   8
ENDBRANCH   6   7
ENDBRANCH   5   6
ENDBRANCH   4   5
ENDBRANCH   3   4
ENDBRANCH   2   3
ENDBRANCH   1   2
BRANCH   1  13
ATOM     13  C   UNL     1     254.531 259.828 245.073  1.00  0.00     0.000 C 
BRANCH  13  14
ATOM     14  C   UNL     1     254.884 260.982 246.028  1.00  0.00     0.000 C 
BRANCH  14  15
ATOM     15  C   UNL     1     256.399 261.218 246.142  1.00  0.00     0.000 C 
BRANCH  15  16
ATOM     16  C   UNL     1     257.116 261.124 244.783  1.00  0.00     0.000 C 
BRANCH  16  17
ATOM     17  C   UNL     1     258.648 261.158 244.921  1.00  0.00     0.000 C 
BRANCH  17  18
ATOM     18  C   UNL     1     259.143 262.404 245.674  1.00  0.00     0.000 C 
BRANCH  18  19
ATOM     19  C   UNL     1     260.028 262.052 246.881  1.00  0.00     0.000 C 
BRANCH  19  20
ATOM     20  C   UNL     1     259.631 262.826 248.151  1.00  0.00     0.006 C 
BRANCH  20  21
ATOM     21  C   UNL     1     258.572 262.083 248.976  1.00  0.00     0.053 C 
BRANCH  21  22
ATOM     22  C   UNL     1     258.507 262.587 250.383  1.00  0.00     0.041 C 
ATOM     23  O   UNL     1     257.392 262.776 250.937  1.00  0.00    -0.550 OA
ATOM     24  O   UNL     1     259.676 262.868 251.078  1.00  0.00    -0.550 OA
ENDBRANCH  21  22
ENDBRANCH  20  21
ENDBRANCH  19  20
ENDBRANCH  18  19
ENDBRANCH  17  18
ENDBRANCH  16  17
ENDBRANCH  15  16
ENDBRANCH  14  15
ENDBRANCH  13  14
ENDBRANCH   1  13
TORSDOF 20
ENDMDL
MODEL 5
REMARK VINA RESULT:    -5.213      2.321      6.320
REMARK INTER + INTRA:         -13.830
REMARK INTER:                 -11.582
REMARK INTRA:                  -2.248
REMARK UNBOUND:                -2.522
REMARK SMILES CCCCCCCCCCCCCCCCCCCCCC(=O)[O-]
REMARK SMILES IDX 12 1 11 2 10 3 9 4 8 5 7 6 6 7 5 8 4 9 3 10 2 11 1 12 13 13
REMARK SMILES IDX 14 14 15 15 16 16 17 17 18 18 19 19 20 20 21 21 22 22 23 23
REMARK SMILES IDX 24 24
REMARK H PARENT
REMARK Flexibility Score: inf
ROOT
ATOM      1  C   UNL     1     255.260 260.292 244.796  1.00  0.00     0.000 C 
ENDROOT
BRANCH   1   2
ATOM      2  C   UNL     1     254.148 259.869 245.774  1.00  0.00     0.000 C 
BRANCH   2   3
ATOM      3  C   UNL     1     253.636 261.036 246.635  1.00  0.00     0.000 C 
BRANCH   3   4
ATOM      4  C   UNL     1     252.245 260.764 247.228  1.00  0.00    -0.000 C 
BRANCH   4   5
ATOM      5  C   UNL     1     251.714 259.363 246.879  1.00  0.00    -0.000 C 
BRANCH   5   6
ATOM      6  C   UNL     1     250.173 259.325 246.818  1.00  0.00    -0.000 C 
BRANCH   6   7
ATOM      7  C   UNL     1     249.553 258.127 247.559  1.00  0.00    -0.000 C 
BRANCH   7   8
ATOM      8  C   UNL     1     250.327 256.819 247.326  1.00  0.00    -0.000 C 
BRANCH   8   9
ATOM      9  C   UNL     1     250.075 256.212 245.933  1.00  0.00    -0.000 C 
BRANCH   9  10
ATOM     10  C   UNL     1     251.172 255.259 245.424  1.00  0.00    -0.000 C 
BRANCH  10  11
ATOM     11  C   UNL     1     252.584 255.685 245.852  1.00  0.00    -0.003 C 
ATOM     12  C   UNL     1     253.353 254.514 246.456  1.00  0.00     0.004 C 
ENDBRANCH  10  11
ENDBRANCH   9  10
ENDBRANCH   8   9
ENDBRANCH   7   8
ENDBRANCH   6   7
ENDBRANCH   5   6
ENDBRANCH   4   5
ENDBRANCH   3   4
ENDBRANCH   2   3
ENDBRANCH   1   2
BRANCH   1  13
ATOM     13  C   UNL     1     256.288 261.283 245.372  1.00  0.00     0.000 C 
BRANCH  13  14
ATOM     14  C   UNL     1     257.636 261.240 244.631  1.00  0.00     0.000 C 
BRANCH  14  15
ATOM     15  C   UNL     1     258.555 262.416 245.000  1.00  0.00     0.000 C 
BRANCH  15  16
ATOM     16  C   UNL     1     258.764 262.550 246.519  1.00  0.00     0.000 C 
BRANCH  16  17
ATOM     17  C   UNL     1     259.560 261.374 247.111  1.00  0.00     0.000 C 
BRANCH  17  18
ATOM     18  C   UNL     1     259.043 260.954 248.498  1.00  0.00     0.000 C 
BRANCH  18  19
ATOM     19  C   UNL     1     257.658 261.539 248.815  1.00  0.00     0.000 C 
BRANCH  19  20
ATOM     20  C   UNL     1     256.564 260.460 248.902  1.00  0.00     0.006 C 
BRANCH  20  21
ATOM     21  C   UNL     1     255.358 260.921 249.731  1.00  0.00     0.053 C 
BRANCH  21  22
ATOM     22  C   UNL     1     255.614 260.798 251.200  1.00  0.00     0.041 C 
ATOM     23  O   UNL     1     255.607 259.667 251.752  1.00  0.00    -0.550 OA
ATOM     24  O   UNL     1     255.840 261.935 251.966  1.00  0.00    -0.550 OA
ENDBRANCH  21  22
ENDBRANCH  20  21
ENDBRANCH  19  20
ENDBRANCH  18  19
ENDBRANCH  17  18
ENDBRANCH  16  17
ENDBRANCH  15  16
ENDBRANCH  14  15
ENDBRANCH  13  14
ENDBRANCH   1  13
TORSDOF 20
ENDMDL
MODEL 6
REMARK VINA RESULT:    -5.160      4.212      7.334
REMARK INTER + INTRA:         -13.715
REMARK INTER:                 -10.722
REMARK INTRA:                  -2.992
REMARK UNBOUND:                -2.522
REMARK SMILES CCCCCCCCCCCCCCCCCCCCCC(=O)[O-]
REMARK SMILES IDX 12 1 11 2 10 3 9 4 8 5 7 6 6 7 5 8 4 9 3 10 2 11 1 12 13 13
REMARK SMILES IDX 14 14 15 15 16 16 17 17 18 18 19 19 20 20 21 21 22 22 23 23
REMARK SMILES IDX 24 24
REMARK H PARENT
REMARK Flexibility Score: inf
ROOT
ATOM      1  C   UNL     1     250.367 259.871 246.945  1.00  0.00     0.000 C 
ENDROOT
BRANCH   1   2
ATOM      2  C   UNL     1     249.614 258.568 247.270  1.00  0.00     0.000 C 
BRANCH   2   3
ATOM      3  C   UNL     1     250.552 257.430 247.707  1.00  0.00     0.000 C 
BRANCH   3   4
ATOM      4  C   UNL     1     250.057 256.049 247.252  1.00  0.00    -0.000 C 
BRANCH   4   5
ATOM      5  C   UNL     1     250.116 255.871 245.724  1.00  0.00    -0.000 C 
BRANCH   5   6
ATOM      6  C   UNL     1     251.247 254.913 245.296  1.00  0.00    -0.000 C 
BRANCH   6   7
ATOM      7  C   UNL     1     252.650 255.383 245.717  1.00  0.00    -0.000 C 
BRANCH   7   8
ATOM      8  C   UNL     1     253.450 254.290 246.444  1.00  0.00    -0.000 C 
BRANCH   8   9
ATOM      9  C   UNL     1     252.971 254.056 247.889  1.00  0.00    -0.000 C 
BRANCH   9  10
ATOM     10  C   UNL     1     252.819 252.579 248.298  1.00  0.00    -0.000 C 
BRANCH  10  11
ATOM     11  C   UNL     1     251.357 252.110 248.321  1.00  0.00    -0.003 C 
ATOM     12  C   UNL     1     250.957 251.489 246.986  1.00  0.00     0.004 C 
ENDBRANCH  10  11
ENDBRANCH   9  10
ENDBRANCH   8   9
ENDBRANCH   7   8
ENDBRANCH   6   7
ENDBRANCH   5   6
ENDBRANCH   4   5
ENDBRANCH   3   4
ENDBRANCH   2   3
ENDBRANCH   1   2
BRANCH   1  13
ATOM     13  C   UNL     1     251.900 259.741 246.901  1.00  0.00     0.000 C 
BRANCH  13  14
ATOM     14  C   UNL     1     252.619 261.057 247.248  1.00  0.00     0.000 C 
BRANCH  14  15
ATOM     15  C   UNL     1     254.146 260.897 247.328  1.00  0.00     0.000 C 
BRANCH  15  16
ATOM     16  C   UNL     1     254.660 260.829 248.777  1.00  0.00     0.000 C 
BRANCH  16  17
ATOM     17  C   UNL     1     255.423 259.526 249.073  1.00  0.00     0.000 C 
BRANCH  17  18
ATOM     18  C   UNL     1     254.483 258.322 249.256  1.00  0.00     0.000 C 
BRANCH  18  19
ATOM     19  C   UNL     1     254.766 257.194 248.253  1.00  0.00     0.000 C 
BRANCH  19  20
ATOM     20  C   UNL     1     255.965 256.321 248.665  1.00  0.00     0.006 C 
BRANCH  20  21
ATOM     21  C   UNL     1     255.787 255.715 250.063  1.00  0.00     0.053 C 
BRANCH  21  22
ATOM     22  C   UNL     1     256.044 254.241 250.068  1.00  0.00     0.041 C 
ATOM     23  O   UNL     1     256.325 253.644 248.996  1.00  0.00    -0.550 OA
ATOM     24  O   UNL     1     255.955 253.521 251.253  1.00  0.00    -0.550 OA
ENDBRANCH  21  22
ENDBRANCH  20  21
ENDBRANCH  19  20
ENDBRANCH  18  19
ENDBRANCH  17  18
ENDBRANCH  16  17
ENDBRANCH  15  16
ENDBRANCH  14  15
ENDBRANCH  13  14
ENDBRANCH   1  13
TORSDOF 20
ENDMDL
MODEL 7
REMARK VINA RESULT:    -5.147      3.213      5.793
REMARK INTER + INTRA:         -13.686
REMARK INTER:                 -10.573
REMARK INTRA:                  -3.113
REMARK UNBOUND:                -2.522
REMARK SMILES CCCCCCCCCCCCCCCCCCCCCC(=O)[O-]
REMARK SMILES IDX 12 1 11 2 10 3 9 4 8 5 7 6 6 7 5 8 4 9 3 10 2 11 1 12 13 13
REMARK SMILES IDX 14 14 15 15 16 16 17 17 18 18 19 19 20 20 21 21 22 22 23 23
REMARK SMILES IDX 24 24
REMARK H PARENT
REMARK Flexibility Score: inf
ROOT
ATOM      1  C   UNL     1     248.817 257.537 246.287  1.00  0.00     0.000 C 
ENDROOT
BRANCH   1   2
ATOM      2  C   UNL     1     249.352 258.436 247.417  1.00  0.00     0.000 C 
BRANCH   2   3
ATOM      3  C   UNL     1     250.204 259.606 246.896  1.00  0.00     0.000 C 
BRANCH   3   4
ATOM      4  C   UNL     1     251.709 259.303 246.937  1.00  0.00    -0.000 C 
BRANCH   4   5
ATOM      5  C   UNL     1     252.572 260.577 246.899  1.00  0.00    -0.000 C 
BRANCH   5   6
ATOM      6  C   UNL     1     253.960 260.319 246.274  1.00  0.00    -0.000 C 
BRANCH   6   7
ATOM      7  C   UNL     1     255.132 260.627 247.222  1.00  0.00    -0.000 C 
BRANCH   7   8
ATOM      8  C   UNL     1     254.684 260.806 248.682  1.00  0.00    -0.000 C 
BRANCH   8   9
ATOM      9  C   UNL     1     255.702 260.250 249.695  1.00  0.00    -0.000 C 
BRANCH   9  10
ATOM     10  C   UNL     1     255.294 260.380 251.174  1.00  0.00    -0.000 C 
BRANCH  10  11
ATOM     11  C   UNL     1     255.433 261.812 251.711  1.00  0.00    -0.003 C 
ATOM     12  C   UNL     1     256.789 262.408 251.343  1.00  0.00     0.004 C 
ENDBRANCH  10  11
ENDBRANCH   9  10
ENDBRANCH   8   9
ENDBRANCH   7   8
ENDBRANCH   6   7
ENDBRANCH   5   6
ENDBRANCH   4   5
ENDBRANCH   3   4
ENDBRANCH   2   3
ENDBRANCH   1   2
BRANCH   1  13
ATOM     13  C   UNL     1     249.188 256.048 246.411  1.00  0.00     0.000 C 
BRANCH  13  14
ATOM     14  C   UNL     1     250.227 255.604 245.366  1.00  0.00     0.000 C 
BRANCH  14  15
ATOM     15  C   UNL     1     251.672 255.728 245.874  1.00  0.00     0.000 C 
BRANCH  15  16
ATOM     16  C   UNL     1     252.149 254.467 246.616  1.00  0.00     0.000 C 
BRANCH  16  17
ATOM     17  C   UNL     1     252.754 254.786 247.994  1.00  0.00     0.000 C 
BRANCH  17  18
ATOM     18  C   UNL     1     252.278 256.140 248.546  1.00  0.00     0.000 C 
BRANCH  18  19
ATOM     19  C   UNL     1     253.443 257.071 248.916  1.00  0.00     0.000 C 
BRANCH  19  20
ATOM     20  C   UNL     1     254.709 256.795 248.084  1.00  0.00     0.006 C 
BRANCH  20  21
ATOM     21  C   UNL     1     255.963 256.671 248.958  1.00  0.00     0.053 C 
BRANCH  21  22
ATOM     22  C   UNL     1     255.666 256.002 250.264  1.00  0.00     0.041 C 
ATOM     23  O   UNL     1     255.656 256.671 251.330  1.00  0.00    -0.550 OA
ATOM     24  O   UNL     1     255.420 254.635 250.308  1.00  0.00    -0.550 OA
ENDBRANCH  21  22
ENDBRANCH  20  21
ENDBRANCH  19  20
ENDBRANCH  18  19
ENDBRANCH  17  18
ENDBRANCH  16  17
ENDBRANCH  15  16
ENDBRANCH  14  15
ENDBRANCH  13  14
ENDBRANCH   1  13
TORSDOF 20
ENDMDL
MODEL 8
REMARK VINA RESULT:    -5.111      3.152      6.448
REMARK INTER + INTRA:         -13.609
REMARK INTER:                 -10.150
REMARK INTRA:                  -3.459
REMARK UNBOUND:                -2.522
REMARK SMILES CCCCCCCCCCCCCCCCCCCCCC(=O)[O-]
REMARK SMILES IDX 12 1 11 2 10 3 9 4 8 5 7 6 6 7 5 8 4 9 3 10 2 11 1 12 13 13
REMARK SMILES IDX 14 14 15 15 16 16 17 17 18 18 19 19 20 20 21 21 22 22 23 23
REMARK SMILES IDX 24 24
REMARK H PARENT
REMARK Flexibility Score: inf
ROOT
ATOM      1  C   UNL     1     253.766 257.516 248.817  1.00  0.00     0.000 C 
ENDROOT
BRANCH   1   2
ATOM      2  C   UNL     1     255.002 257.154 249.662  1.00  0.00     0.000 C 
BRANCH   2   3
ATOM      3  C   UNL     1     256.185 256.664 248.810  1.00  0.00     0.000 C 
BRANCH   3   4
ATOM      4  C   UNL     1     256.757 255.328 249.309  1.00  0.00    -0.000 C 
BRANCH   4   5
ATOM      5  C   UNL     1     256.461 254.161 248.351  1.00  0.00    -0.000 C 
BRANCH   5   6
ATOM      6  C   UNL     1     255.002 253.672 248.466  1.00  0.00    -0.000 C 
BRANCH   6   7
ATOM      7  C   UNL     1     254.827 252.460 249.397  1.00  0.00    -0.000 C 
BRANCH   7   8
ATOM      8  C   UNL     1     253.618 252.603 250.337  1.00  0.00    -0.000 C 
BRANCH   8   9
ATOM      9  C   UNL     1     253.361 254.058 250.769  1.00  0.00    -0.000 C 
BRANCH   9  10
ATOM     10  C   UNL     1     254.197 254.545 251.967  1.00  0.00    -0.000 C 
BRANCH  10  11
ATOM     11  C   UNL     1     254.936 253.406 252.685  1.00  0.00    -0.003 C 
ATOM     12  C   UNL     1     256.449 253.594 252.601  1.00  0.00     0.004 C 
ENDBRANCH  10  11
ENDBRANCH   9  10
ENDBRANCH   8   9
ENDBRANCH   7   8
ENDBRANCH   6   7
ENDBRANCH   5   6
ENDBRANCH   4   5
ENDBRANCH   3   4
ENDBRANCH   2   3
ENDBRANCH   1   2
BRANCH   1  13
ATOM     13  C   UNL     1     253.945 257.336 247.298  1.00  0.00     0.000 C 
BRANCH  13  14
ATOM     14  C   UNL     1     253.197 258.405 246.480  1.00  0.00     0.000 C 
BRANCH  14  15
ATOM     15  C   UNL     1     252.886 259.669 247.298  1.00  0.00     0.000 C 
BRANCH  15  16
ATOM     16  C   UNL     1     253.612 260.915 246.760  1.00  0.00     0.000 C 
BRANCH  16  17
ATOM     17  C   UNL     1     254.944 260.571 246.072  1.00  0.00     0.000 C 
BRANCH  17  18
ATOM     18  C   UNL     1     256.164 261.057 246.875  1.00  0.00     0.000 C 
BRANCH  18  19
ATOM     19  C   UNL     1     256.426 260.205 248.126  1.00  0.00     0.000 C 
BRANCH  19  20
ATOM     20  C   UNL     1     256.504 261.048 249.411  1.00  0.00     0.006 C 
BRANCH  20  21
ATOM     21  C   UNL     1     255.219 260.955 250.245  1.00  0.00     0.053 C 
BRANCH  21  22
ATOM     22  C   UNL     1     255.272 261.841 251.450  1.00  0.00     0.041 C 
ATOM     23  O   UNL     1     256.381 262.205 251.920  1.00  0.00    -0.550 OA
ATOM     24  O   UNL     1     254.096 262.250 252.067  1.00  0.00    -0.550 OA
ENDBRANCH  21  22
ENDBRANCH  20  21
ENDBRANCH  19  20
ENDBRANCH  18  19
ENDBRANCH  17  18
ENDBRANCH  16  17
ENDBRANCH  15  16
ENDBRANCH  14  15
ENDBRANCH  13  14
ENDBRANCH   1  13
TORSDOF 20
ENDMDL
MODEL 9
REMARK VINA RESULT:    -5.095      4.143      7.724
REMARK INTER + INTRA:         -13.573
REMARK INTER:                 -10.019
REMARK INTRA:                  -3.555
REMARK UNBOUND:                -2.522
REMARK SMILES CCCCCCCCCCCCCCCCCCCCCC(=O)[O-]
REMARK SMILES IDX 12 1 11 2 10 3 9 4 8 5 7 6 6 7 5 8 4 9 3 10 2 11 1 12 13 13
REMARK SMILES IDX 14 14 15 15 16 16 17 17 18 18 19 19 20 20 21 21 22 22 23 23
REMARK SMILES IDX 24 24
REMARK H PARENT
REMARK Flexibility Score: inf
ROOT
ATOM      1  C   UNL     1     255.895 259.914 248.621  1.00  0.00     0.000 C 
ENDROOT
BRANCH   1   2
ATOM      2  C   UNL     1     255.329 260.857 247.543  1.00  0.00     0.000 C 
BRANCH   2   3
ATOM      3  C   UNL     1     254.009 260.347 246.939  1.00  0.00     0.000 C 
BRANCH   3   4
ATOM      4  C   UNL     1     254.229 259.259 245.876  1.00  0.00    -0.000 C 
BRANCH   4   5
ATOM      5  C   UNL     1     253.438 257.973 246.172  1.00  0.00    -0.000 C 
BRANCH   5   6
ATOM      6  C   UNL     1     252.091 258.266 246.864  1.00  0.00    -0.000 C 
BRANCH   6   7
ATOM      7  C   UNL     1     251.692 257.215 247.914  1.00  0.00    -0.000 C 
BRANCH   7   8
ATOM      8  C   UNL     1     250.372 256.503 247.572  1.00  0.00    -0.000 C 
BRANCH   8   9
ATOM      9  C   UNL     1     250.143 256.360 246.056  1.00  0.00    -0.000 C 
BRANCH   9  10
ATOM     10  C   UNL     1     250.734 255.087 245.420  1.00  0.00    -0.000 C 
BRANCH  10  11
ATOM     11  C   UNL     1     250.866 253.925 246.415  1.00  0.00    -0.003 C 
ATOM     12  C   UNL     1     249.629 253.032 246.385  1.00  0.00     0.004 C 
ENDBRANCH  10  11
ENDBRANCH   9  10
ENDBRANCH   8   9
ENDBRANCH   7   8
ENDBRANCH   6   7
ENDBRANCH   5   6
ENDBRANCH   4   5
ENDBRANCH   3   4
ENDBRANCH   2   3
ENDBRANCH   1   2
BRANCH   1  13
ATOM     13  C   UNL     1     254.853 259.357 249.608  1.00  0.00     0.000 C 
BRANCH  13  14
ATOM     14  C   UNL     1     254.850 257.819 249.664  1.00  0.00     0.000 C 
BRANCH  14  15
ATOM     15  C   UNL     1     255.915 257.188 248.752  1.00  0.00     0.000 C 
BRANCH  15  16
ATOM     16  C   UNL     1     256.266 255.746 249.162  1.00  0.00     0.000 C 
BRANCH  16  17
ATOM     17  C   UNL     1     256.169 254.758 247.987  1.00  0.00     0.000 C 
BRANCH  17  18
ATOM     18  C   UNL     1     254.715 254.495 247.559  1.00  0.00     0.000 C 
BRANCH  18  19
ATOM     19  C   UNL     1     253.795 254.185 248.750  1.00  0.00     0.000 C 
BRANCH  19  20
ATOM     20  C   UNL     1     253.469 252.686 248.873  1.00  0.00     0.006 C 
BRANCH  20  21
ATOM     21  C   UNL     1     253.796 252.133 250.266  1.00  0.00     0.053 C 
BRANCH  21  22
ATOM     22  C   UNL     1     255.252 252.260 250.588  1.00  0.00     0.041 C 
ATOM     23  O   UNL     1     256.106 251.620 249.920  1.00  0.00    -0.550 OA
ATOM     24  O   UNL     1     255.667 253.071 251.637  1.00  0.00    -0.550 OA
ENDBRANCH  21  22
ENDBRANCH  20  21
ENDBRANCH  19  20
ENDBRANCH  18  19
ENDBRANCH  17  18
ENDBRANCH  16  17
ENDBRANCH  15  16
ENDBRANCH  14  15
ENDBRANCH  13  14
ENDBRANCH   1  13
TORSDOF 20
ENDMDL
