MODEL 1
REMARK VINA RESULT:    -5.526      0.000      0.000
REMARK INTER + INTRA:         -13.525
REMARK INTER:                 -10.695
REMARK INTRA:                  -2.831
REMARK UNBOUND:                -2.831
REMARK SMILES CCCCCCCCCCCCCCCCCC(=O)[O-]
REMARK SMILES IDX 10 1 11 2 12 3 13 4 14 5 15 6 16 7 17 8 18 9 19 10 20 11
REMARK SMILES IDX 9 12 8 13 7 14 6 15 5 16 4 17 3 18 2 19 1 20
REMARK H PARENT
REMARK Flexibility Score: inf
ROOT
ATOM      1  C   UNL     1      20.730  -2.691 -37.927  1.00  0.00     0.000 C 
ENDROOT
BRANCH   1   2
ATOM      2  C   UNL     1      21.507  -3.015 -36.634  1.00  0.00     0.000 C 
BRANCH   2   3
ATOM      3  C   UNL     1      21.700  -4.515 -36.346  1.00  0.00     0.000 C 
BRANCH   3   4
ATOM      4  C   UNL     1      23.165  -4.890 -36.077  1.00  0.00     0.000 C 
BRANCH   4   5
ATOM      5  C   UNL     1      23.429  -6.359 -36.431  1.00  0.00     0.000 C 
BRANCH   5   6
ATOM      6  C   UNL     1      22.287  -6.936 -37.275  1.00  0.00     0.000 C 
BRANCH   6   7
ATOM      7  C   UNL     1      22.691  -8.275 -37.906  1.00  0.00     0.006 C 
BRANCH   7   8
ATOM      8  C   UNL     1      24.214  -8.407 -37.987  1.00  0.00     0.053 C 
BRANCH   8   9
ATOM      9  C   UNL     1      24.652  -8.539 -39.412  1.00  0.00     0.041 C 
ATOM     10  O   UNL     1      25.570  -7.803 -39.862  1.00  0.00    -0.550 OA
ATOM     11  O   UNL     1      24.077  -9.503 -40.229  1.00  0.00    -0.550 OA
ENDBRANCH   8   9
ENDBRANCH   7   8
ENDBRANCH   6   7
ENDBRANCH   5   6
ENDBRANCH   4   5
ENDBRANCH   3   4
ENDBRANCH   2   3
ENDBRANCH   1   2
BRANCH   1  12
ATOM     12  C   UNL     1      20.521  -3.885 -38.880  1.00  0.00     0.000 C 
BRANCH  12  13
ATOM     13  C   UNL     1      21.482  -3.926 -40.083  1.00  0.00    -0.000 C 
BRANCH  13  14
ATOM     14  C   UNL     1      22.369  -5.189 -40.121  1.00  0.00    -0.000 C 
BRANCH  14  15
ATOM     15  C   UNL     1      23.862  -4.860 -39.940  1.00  0.00    -0.000 C 
BRANCH  15  16
ATOM     16  C   UNL     1      24.100  -3.390 -39.559  1.00  0.00    -0.000 C 
BRANCH  16  17
ATOM     17  C   UNL     1      25.453  -3.175 -38.862  1.00  0.00    -0.000 C 
BRANCH  17  18
ATOM     18  C   UNL     1      25.898  -4.392 -38.032  1.00  0.00    -0.000 C 
BRANCH  18  19
ATOM     19  C   UNL     1      27.426  -4.598 -38.012  1.00  0.00    -0.003 C 
ATOM     20  C   UNL     1      27.817  -6.017 -37.606  1.00  0.00     0.004 C 
ENDBRANCH  18  19
ENDBRANCH  17  18
ENDBRANCH  16  17
ENDBRANCH  15  16
ENDBRANCH  14  15
ENDBRANCH  13  14
ENDBRANCH  12  13
ENDBRANCH   1  12
TORSDOF 16
ENDMDL
MODEL 2
REMARK VINA RESULT:    -5.194      0.821      3.691
REMARK INTER + INTRA:         -12.882
REMARK INTER:                 -10.182
REMARK INTRA:                  -2.701
REMARK UNBOUND:                -2.831
REMARK SMILES CCCCCCCCCCCCCCCCCC(=O)[O-]
REMARK SMILES IDX 10 1 11 2 12 3 13 4 14 5 15 6 16 7 17 8 18 9 19 10 20 11
REMARK SMILES IDX 9 12 8 13 7 14 6 15 5 16 4 17 3 18 2 19 1 20
REMARK H PARENT
REMARK Flexibility Score: inf
ROOT
ATOM      1  C   UNL     1      23.675  -4.888 -39.757  1.00  0.00     0.000 C 
ENDROOT
BRANCH   1   2
ATOM      2  C   UNL     1      24.126  -3.434 -39.507  1.00  0.00     0.000 C 
BRANCH   2   3
ATOM      3  C   UNL     1      25.501  -3.283 -38.832  1.00  0.00     0.000 C 
BRANCH   3   4
ATOM      4  C   UNL     1      25.871  -4.487 -37.952  1.00  0.00     0.000 C 
BRANCH   4   5
ATOM      5  C   UNL     1      27.215  -5.088 -38.383  1.00  0.00     0.000 C 
BRANCH   5   6
ATOM      6  C   UNL     1      27.298  -6.573 -38.013  1.00  0.00     0.000 C 
BRANCH   6   7
ATOM      7  C   UNL     1      25.926  -7.250 -38.142  1.00  0.00     0.006 C 
BRANCH   7   8
ATOM      8  C   UNL     1      25.688  -7.738 -39.574  1.00  0.00     0.053 C 
BRANCH   8   9
ATOM      9  C   UNL     1      24.841  -8.972 -39.571  1.00  0.00     0.041 C 
ATOM     10  O   UNL     1      25.342 -10.082 -39.250  1.00  0.00    -0.550 OA
ATOM     11  O   UNL     1      23.490  -8.888 -39.880  1.00  0.00    -0.550 OA
ENDBRANCH   8   9
ENDBRANCH   7   8
ENDBRANCH   6   7
ENDBRANCH   5   6
ENDBRANCH   4   5
ENDBRANCH   3   4
ENDBRANCH   2   3
ENDBRANCH   1   2
BRANCH   1  12
ATOM     12  C   UNL     1      22.204  -5.050 -40.186  1.00  0.00     0.000 C 
BRANCH  12  13
ATOM     13  C   UNL     1      21.355  -3.770 -40.078  1.00  0.00    -0.000 C 
BRANCH  13  14
ATOM     14  C   UNL     1      20.498  -3.703 -38.795  1.00  0.00    -0.000 C 
BRANCH  14  15
ATOM     15  C   UNL     1      20.908  -2.537 -37.879  1.00  0.00    -0.000 C 
BRANCH  15  16
ATOM     16  C   UNL     1      21.437  -3.015 -36.517  1.00  0.00    -0.000 C 
BRANCH  16  17
ATOM     17  C   UNL     1      21.617  -4.540 -36.458  1.00  0.00    -0.000 C 
BRANCH  17  18
ATOM     18  C   UNL     1      23.057  -4.957 -36.109  1.00  0.00    -0.000 C 
BRANCH  18  19
ATOM     19  C   UNL     1      23.339  -6.454 -36.349  1.00  0.00    -0.003 C 
ATOM     20  C   UNL     1      22.236  -7.131 -37.161  1.00  0.00     0.004 C 
ENDBRANCH  18  19
ENDBRANCH  17  18
ENDBRANCH  16  17
ENDBRANCH  15  16
ENDBRANCH  14  15
ENDBRANCH  13  14
ENDBRANCH  12  13
ENDBRANCH   1  12
TORSDOF 16
ENDMDL
MODEL 3
REMARK VINA RESULT:    -5.190      1.050      2.057
REMARK INTER + INTRA:         -12.876
REMARK INTER:                  -9.914
REMARK INTRA:                  -2.962
REMARK UNBOUND:                -2.831
REMARK SMILES CCCCCCCCCCCCCCCCCC(=O)[O-]
REMARK SMILES IDX 10 1 11 2 12 3 13 4 14 5 15 6 16 7 17 8 18 9 19 10 20 11
REMARK SMILES IDX 9 12 8 13 7 14 6 15 5 16 4 17 3 18 2 19 1 20
REMARK H PARENT
REMARK Flexibility Score: inf
ROOT
ATOM      1  C   UNL     1      20.880  -3.764 -38.729  1.00  0.00     0.000 C 
ENDROOT
BRANCH   1   2
ATOM      2  C   UNL     1      21.210  -2.581 -37.794  1.00  0.00     0.000 C 
BRANCH   2   3
ATOM      3  C   UNL     1      21.649  -2.976 -36.373  1.00  0.00     0.000 C 
BRANCH   3   4
ATOM      4  C   UNL     1      21.767  -4.496 -36.182  1.00  0.00     0.000 C 
BRANCH   4   5
ATOM      5  C   UNL     1      23.229  -4.912 -35.981  1.00  0.00     0.000 C 
BRANCH   5   6
ATOM      6  C   UNL     1      23.463  -6.350 -36.460  1.00  0.00     0.000 C 
BRANCH   6   7
ATOM      7  C   UNL     1      22.236  -6.888 -37.207  1.00  0.00     0.006 C 
BRANCH   7   8
ATOM      8  C   UNL     1      22.503  -8.288 -37.766  1.00  0.00     0.053 C 
BRANCH   8   9
ATOM      9  C   UNL     1      22.515  -8.259 -39.262  1.00  0.00     0.041 C 
ATOM     10  O   UNL     1      21.748  -7.479 -39.886  1.00  0.00    -0.550 OA
ATOM     11  O   UNL     1      23.403  -9.062 -39.966  1.00  0.00    -0.550 OA
ENDBRANCH   8   9
ENDBRANCH   7   8
ENDBRANCH   6   7
ENDBRANCH   5   6
ENDBRANCH   4   5
ENDBRANCH   3   4
ENDBRANCH   2   3
ENDBRANCH   1   2
BRANCH   1  12
ATOM     12  C   UNL     1      21.826  -3.925 -39.936  1.00  0.00     0.000 C 
BRANCH  12  13
ATOM     13  C   UNL     1      23.257  -4.370 -39.579  1.00  0.00    -0.000 C 
BRANCH  13  14
ATOM     14  C   UNL     1      24.303  -3.241 -39.702  1.00  0.00    -0.000 C 
BRANCH  14  15
ATOM     15  C   UNL     1      25.155  -3.093 -38.429  1.00  0.00    -0.000 C 
BRANCH  15  16
ATOM     16  C   UNL     1      26.648  -2.898 -38.738  1.00  0.00    -0.000 C 
BRANCH  16  17
ATOM     17  C   UNL     1      27.518  -4.035 -38.180  1.00  0.00    -0.000 C 
BRANCH  17  18
ATOM     18  C   UNL     1      26.688  -5.188 -37.588  1.00  0.00    -0.000 C 
BRANCH  18  19
ATOM     19  C   UNL     1      27.076  -6.574 -38.142  1.00  0.00    -0.003 C 
ATOM     20  C   UNL     1      25.997  -7.161 -39.050  1.00  0.00     0.004 C 
ENDBRANCH  18  19
ENDBRANCH  17  18
ENDBRANCH  16  17
ENDBRANCH  15  16
ENDBRANCH  14  15
ENDBRANCH  13  14
ENDBRANCH  12  13
ENDBRANCH   1  12
TORSDOF 16
ENDMDL
MODEL 4
REMARK VINA RESULT:    -5.112      1.174      4.249
REMARK INTER + INTRA:         -12.724
REMARK INTER:                  -9.752
REMARK INTRA:                  -2.971
REMARK UNBOUND:                -2.831
REMARK SMILES CCCCCCCCCCCCCCCCCC(=O)[O-]
REMARK SMILES IDX 10 1 11 2 12 3 13 4 14 5 15 6 16 7 17 8 18 9 19 10 20 11
REMARK SMILES IDX 9 12 8 13 7 14 6 15 5 16 4 17 3 18 2 19 1 20
REMARK H PARENT
REMARK Flexibility Score: inf
ROOT
ATOM      1  C   UNL     1      20.714  -3.988 -38.872  1.00  0.00     0.000 C 
ENDROOT
BRANCH   1   2
ATOM      2  C   UNL     1      21.557  -4.072 -40.162  1.00  0.00     0.000 C 
BRANCH   2   3
ATOM      3  C   UNL     1      22.553  -5.244 -40.216  1.00  0.00     0.000 C 
BRANCH   3   4
ATOM      4  C   UNL     1      23.918  -4.899 -39.601  1.00  0.00     0.000 C 
BRANCH   4   5
ATOM      5  C   UNL     1      24.236  -3.409 -39.774  1.00  0.00     0.000 C 
BRANCH   5   6
ATOM      6  C   UNL     1      25.411  -2.990 -38.883  1.00  0.00     0.000 C 
BRANCH   6   7
ATOM      7  C   UNL     1      25.692  -4.049 -37.809  1.00  0.00     0.006 C 
BRANCH   7   8
ATOM      8  C   UNL     1      27.136  -4.551 -37.897  1.00  0.00     0.053 C 
BRANCH   8   9
ATOM      9  C   UNL     1      27.169  -6.047 -37.899  1.00  0.00     0.041 C 
ATOM     10  O   UNL     1      27.320  -6.675 -38.980  1.00  0.00    -0.550 OA
ATOM     11  O   UNL     1      27.077  -6.746 -36.702  1.00  0.00    -0.550 OA
ENDBRANCH   8   9
ENDBRANCH   7   8
ENDBRANCH   6   7
ENDBRANCH   5   6
ENDBRANCH   4   5
ENDBRANCH   3   4
ENDBRANCH   2   3
ENDBRANCH   1   2
BRANCH   1  12
ATOM     12  C   UNL     1      21.007  -2.766 -37.980  1.00  0.00     0.000 C 
BRANCH  12  13
ATOM     13  C   UNL     1      21.818  -3.075 -36.708  1.00  0.00    -0.000 C 
BRANCH  13  14
ATOM     14  C   UNL     1      21.764  -4.560 -36.286  1.00  0.00    -0.000 C 
BRANCH  14  15
ATOM     15  C   UNL     1      23.128  -5.076 -35.794  1.00  0.00    -0.000 C 
BRANCH  15  16
ATOM     16  C   UNL     1      23.543  -6.390 -36.476  1.00  0.00    -0.000 C 
BRANCH  16  17
ATOM     17  C   UNL     1      22.350  -7.131 -37.100  1.00  0.00    -0.000 C 
BRANCH  17  18
ATOM     18  C   UNL     1      22.780  -8.307 -37.995  1.00  0.00    -0.000 C 
BRANCH  18  19
ATOM     19  C   UNL     1      24.278  -8.286 -38.361  1.00  0.00    -0.003 C 
ATOM     20  C   UNL     1      24.632  -9.325 -39.423  1.00  0.00     0.004 C 
ENDBRANCH  18  19
ENDBRANCH  17  18
ENDBRANCH  16  17
ENDBRANCH  15  16
ENDBRANCH  14  15
ENDBRANCH  13  14
ENDBRANCH  12  13
ENDBRANCH   1  12
TORSDOF 16
ENDMDL
MODEL 5
REMARK VINA RESULT:    -5.106      1.211      4.366
REMARK INTER + INTRA:         -12.712
REMARK INTER:                 -10.063
REMARK INTRA:                  -2.649
REMARK UNBOUND:                -2.831
REMARK SMILES CCCCCCCCCCCCCCCCCC(=O)[O-]
REMARK SMILES IDX 10 1 11 2 12 3 13 4 14 5 15 6 16 7 17 8 18 9 19 10 20 11
REMARK SMILES IDX 9 12 8 13 7 14 6 15 5 16 4 17 3 18 2 19 1 20
REMARK H PARENT
REMARK Flexibility Score: inf
ROOT
ATOM      1  C   UNL     1      22.260  -5.337 -40.186  1.00  0.00     0.000 C 
ENDROOT
BRANCH   1   2
ATOM      2  C   UNL     1      23.729  -4.885 -40.053  1.00  0.00     0.000 C 
BRANCH   2   3
ATOM      3  C   UNL     1      23.934  -3.520 -39.373  1.00  0.00     0.000 C 
BRANCH   3   4
ATOM      4  C   UNL     1      24.931  -3.577 -38.205  1.00  0.00     0.000 C 
BRANCH   4   5
ATOM      5  C   UNL     1      25.962  -4.691 -38.419  1.00  0.00     0.000 C 
BRANCH   5   6
ATOM      6  C   UNL     1      25.606  -5.936 -37.597  1.00  0.00     0.000 C 
BRANCH   6   7
ATOM      7  C   UNL     1      26.295  -7.185 -38.162  1.00  0.00     0.006 C 
BRANCH   7   8
ATOM      8  C   UNL     1      25.661  -7.609 -39.490  1.00  0.00     0.053 C 
BRANCH   8   9
ATOM      9  C   UNL     1      24.942  -8.912 -39.333  1.00  0.00     0.041 C 
ATOM     10  O   UNL     1      24.700  -9.626 -40.341  1.00  0.00    -0.550 OA
ATOM     11  O   UNL     1      24.577  -9.356 -38.069  1.00  0.00    -0.550 OA
ENDBRANCH   8   9
ENDBRANCH   7   8
ENDBRANCH   6   7
ENDBRANCH   5   6
ENDBRANCH   4   5
ENDBRANCH   3   4
ENDBRANCH   2   3
ENDBRANCH   1   2
BRANCH   1  12
ATOM     12  C   UNL     1      21.926  -6.680 -39.507  1.00  0.00     0.000 C 
BRANCH  12  13
ATOM     13  C   UNL     1      22.129  -6.699 -37.981  1.00  0.00    -0.000 C 
BRANCH  13  14
ATOM     14  C   UNL     1      21.398  -5.556 -37.245  1.00  0.00    -0.000 C 
BRANCH  14  15
ATOM     15  C   UNL     1      22.329  -4.783 -36.294  1.00  0.00    -0.000 C 
BRANCH  15  16
ATOM     16  C   UNL     1      21.643  -3.565 -35.657  1.00  0.00    -0.000 C 
BRANCH  16  17
ATOM     17  C   UNL     1      21.789  -2.294 -36.508  1.00  0.00    -0.000 C 
BRANCH  17  18
ATOM     18  C   UNL     1      20.498  -1.928 -37.261  1.00  0.00    -0.000 C 
BRANCH  18  19
ATOM     19  C   UNL     1      20.442  -2.490 -38.697  1.00  0.00    -0.003 C 
ATOM     20  C   UNL     1      19.019  -2.826 -39.135  1.00  0.00     0.004 C 
ENDBRANCH  18  19
ENDBRANCH  17  18
ENDBRANCH  16  17
ENDBRANCH  15  16
ENDBRANCH  14  15
ENDBRANCH  13  14
ENDBRANCH  12  13
ENDBRANCH   1  12
TORSDOF 16
ENDMDL
MODEL 6
REMARK VINA RESULT:    -5.012      1.606      4.105
REMARK INTER + INTRA:         -12.531
REMARK INTER:                  -9.714
REMARK INTRA:                  -2.818
REMARK UNBOUND:                -2.831
REMARK SMILES CCCCCCCCCCCCCCCCCC(=O)[O-]
REMARK SMILES IDX 10 1 11 2 12 3 13 4 14 5 15 6 16 7 17 8 18 9 19 10 20 11
REMARK SMILES IDX 9 12 8 13 7 14 6 15 5 16 4 17 3 18 2 19 1 20
REMARK H PARENT
REMARK Flexibility Score: inf
ROOT
ATOM      1  C   UNL     1      21.901  -6.252 -39.397  1.00  0.00     0.000 C 
ENDROOT
BRANCH   1   2
ATOM      2  C   UNL     1      21.645  -5.940 -37.908  1.00  0.00     0.000 C 
BRANCH   2   3
ATOM      3  C   UNL     1      22.455  -6.792 -36.913  1.00  0.00     0.000 C 
BRANCH   3   4
ATOM      4  C   UNL     1      23.508  -5.978 -36.147  1.00  0.00     0.000 C 
BRANCH   4   5
ATOM      5  C   UNL     1      24.926  -6.353 -36.597  1.00  0.00     0.000 C 
BRANCH   5   6
ATOM      6  C   UNL     1      24.907  -7.595 -37.496  1.00  0.00     0.000 C 
BRANCH   6   7
ATOM      7  C   UNL     1      25.976  -7.498 -38.592  1.00  0.00     0.006 C 
BRANCH   7   8
ATOM      8  C   UNL     1      25.401  -7.889 -39.956  1.00  0.00     0.053 C 
BRANCH   8   9
ATOM      9  C   UNL     1      24.732  -9.225 -39.878  1.00  0.00     0.041 C 
ATOM     10  O   UNL     1      25.376 -10.233 -39.487  1.00  0.00    -0.550 OA
ATOM     11  O   UNL     1      23.386  -9.348 -40.196  1.00  0.00    -0.550 OA
ENDBRANCH   8   9
ENDBRANCH   7   8
ENDBRANCH   6   7
ENDBRANCH   5   6
ENDBRANCH   4   5
ENDBRANCH   3   4
ENDBRANCH   2   3
ENDBRANCH   1   2
BRANCH   1  12
ATOM     12  C   UNL     1      22.516  -5.096 -40.209  1.00  0.00     0.000 C 
BRANCH  12  13
ATOM     13  C   UNL     1      23.779  -4.471 -39.588  1.00  0.00    -0.000 C 
BRANCH  13  14
ATOM     14  C   UNL     1      23.581  -3.014 -39.118  1.00  0.00    -0.000 C 
BRANCH  14  15
ATOM     15  C   UNL     1      23.766  -2.859 -37.598  1.00  0.00    -0.000 C 
BRANCH  15  16
ATOM     16  C   UNL     1      22.651  -2.023 -36.950  1.00  0.00    -0.000 C 
BRANCH  16  17
ATOM     17  C   UNL     1      21.296  -2.747 -36.949  1.00  0.00    -0.000 C 
BRANCH  17  18
ATOM     18  C   UNL     1      20.206  -1.977 -37.715  1.00  0.00    -0.000 C 
BRANCH  18  19
ATOM     19  C   UNL     1      19.751  -2.679 -39.010  1.00  0.00    -0.003 C 
ATOM     20  C   UNL     1      18.661  -1.900 -39.743  1.00  0.00     0.004 C 
ENDBRANCH  18  19
ENDBRANCH  17  18
ENDBRANCH  16  17
ENDBRANCH  15  16
ENDBRANCH  14  15
ENDBRANCH  13  14
ENDBRANCH  12  13
ENDBRANCH   1  12
TORSDOF 16
ENDMDL
MODEL 7
REMARK VINA RESULT:    -5.012      1.869      4.516
REMARK INTER + INTRA:         -12.531
REMARK INTER:                  -9.748
REMARK INTRA:                  -2.783
REMARK UNBOUND:                -2.831
REMARK SMILES CCCCCCCCCCCCCCCCCC(=O)[O-]
REMARK SMILES IDX 10 1 11 2 12 3 13 4 14 5 15 6 16 7 17 8 18 9 19 10 20 11
REMARK SMILES IDX 9 12 8 13 7 14 6 15 5 16 4 17 3 18 2 19 1 20
REMARK H PARENT
REMARK Flexibility Score: inf
ROOT
ATOM      1  C   UNL     1      21.236  -3.079 -36.959  1.00  0.00     0.000 C 
ENDROOT
BRANCH   1   2
ATOM      2  C   UNL     1      20.734  -3.685 -38.287  1.00  0.00     0.000 C 
BRANCH   2   3
ATOM      3  C   UNL     1      21.637  -3.424 -39.506  1.00  0.00     0.000 C 
BRANCH   3   4
ATOM      4  C   UNL     1      22.390  -4.680 -39.973  1.00  0.00     0.000 C 
BRANCH   4   5
ATOM      5  C   UNL     1      23.907  -4.481 -39.865  1.00  0.00     0.000 C 
BRANCH   5   6
ATOM      6  C   UNL     1      24.248  -3.026 -39.523  1.00  0.00     0.000 C 
BRANCH   6   7
ATOM      7  C   UNL     1      25.539  -2.943 -38.697  1.00  0.00     0.006 C 
BRANCH   7   8
ATOM      8  C   UNL     1      26.087  -4.340 -38.394  1.00  0.00     0.053 C 
BRANCH   8   9
ATOM      9  C   UNL     1      27.545  -4.269 -38.063  1.00  0.00     0.041 C 
ATOM     10  O   UNL     1      28.193  -3.212 -38.282  1.00  0.00    -0.550 OA
ATOM     11  O   UNL     1      28.178  -5.355 -37.474  1.00  0.00    -0.550 OA
ENDBRANCH   8   9
ENDBRANCH   7   8
ENDBRANCH   6   7
ENDBRANCH   5   6
ENDBRANCH   4   5
ENDBRANCH   3   4
ENDBRANCH   2   3
ENDBRANCH   1   2
BRANCH   1  12
ATOM     12  C   UNL     1      21.797  -4.098 -35.948  1.00  0.00     0.000 C 
BRANCH  12  13
ATOM     13  C   UNL     1      23.255  -4.526 -36.204  1.00  0.00    -0.000 C 
BRANCH  13  14
ATOM     14  C   UNL     1      23.418  -6.039 -36.465  1.00  0.00    -0.000 C 
BRANCH  14  15
ATOM     15  C   UNL     1      22.087  -6.714 -36.841  1.00  0.00    -0.000 C 
BRANCH  15  16
ATOM     16  C   UNL     1      22.145  -7.411 -38.209  1.00  0.00    -0.000 C 
BRANCH  16  17
ATOM     17  C   UNL     1      23.090  -8.623 -38.213  1.00  0.00    -0.000 C 
BRANCH  17  18
ATOM     18  C   UNL     1      23.720  -8.884 -39.592  1.00  0.00    -0.000 C 
BRANCH  18  19
ATOM     19  C   UNL     1      25.261  -8.818 -39.588  1.00  0.00    -0.003 C 
ATOM     20  C   UNL     1      25.797  -7.793 -38.590  1.00  0.00     0.004 C 
ENDBRANCH  18  19
ENDBRANCH  17  18
ENDBRANCH  16  17
ENDBRANCH  15  16
ENDBRANCH  14  15
ENDBRANCH  13  14
ENDBRANCH  12  13
ENDBRANCH   1  12
TORSDOF 16
ENDMDL
MODEL 8
REMARK VINA RESULT:    -5.010      1.200      4.032
REMARK INTER + INTRA:         -12.527
REMARK INTER:                  -9.975
REMARK INTRA:                  -2.553
REMARK UNBOUND:                -2.831
REMARK SMILES CCCCCCCCCCCCCCCCCC(=O)[O-]
REMARK SMILES IDX 10 1 11 2 12 3 13 4 14 5 15 6 16 7 17 8 18 9 19 10 20 11
REMARK SMILES IDX 9 12 8 13 7 14 6 15 5 16 4 17 3 18 2 19 1 20
REMARK H PARENT
REMARK Flexibility Score: inf
ROOT
ATOM      1  C   UNL     1      25.489  -3.000 -38.867  1.00  0.00     0.000 C 
ENDROOT
BRANCH   1   2
ATOM      2  C   UNL     1      25.948  -4.113 -37.902  1.00  0.00     0.000 C 
BRANCH   2   3
ATOM      3  C   UNL     1      27.443  -4.473 -37.983  1.00  0.00     0.000 C 
BRANCH   3   4
ATOM      4  C   UNL     1      27.729  -5.931 -37.594  1.00  0.00     0.000 C 
BRANCH   4   5
ATOM      5  C   UNL     1      26.483  -6.805 -37.785  1.00  0.00     0.000 C 
BRANCH   5   6
ATOM      6  C   UNL     1      26.427  -7.381 -39.205  1.00  0.00     0.000 C 
BRANCH   6   7
ATOM      7  C   UNL     1      25.127  -8.164 -39.430  1.00  0.00     0.006 C 
BRANCH   7   8
ATOM      8  C   UNL     1      24.426  -8.458 -38.101  1.00  0.00     0.053 C 
BRANCH   8   9
ATOM      9  C   UNL     1      22.952  -8.236 -38.227  1.00  0.00     0.041 C 
ATOM     10  O   UNL     1      22.390  -8.341 -39.349  1.00  0.00    -0.550 OA
ATOM     11  O   UNL     1      22.192  -7.953 -37.100  1.00  0.00    -0.550 OA
ENDBRANCH   8   9
ENDBRANCH   7   8
ENDBRANCH   6   7
ENDBRANCH   5   6
ENDBRANCH   4   5
ENDBRANCH   3   4
ENDBRANCH   2   3
ENDBRANCH   1   2
BRANCH   1  12
ATOM     12  C   UNL     1      24.131  -3.249 -39.551  1.00  0.00     0.000 C 
BRANCH  12  13
ATOM     13  C   UNL     1      23.839  -4.723 -39.890  1.00  0.00    -0.000 C 
BRANCH  13  14
ATOM     14  C   UNL     1      22.333  -5.052 -39.975  1.00  0.00    -0.000 C 
BRANCH  14  15
ATOM     15  C   UNL     1      21.457  -3.787 -39.961  1.00  0.00    -0.000 C 
BRANCH  15  16
ATOM     16  C   UNL     1      20.572  -3.695 -38.708  1.00  0.00    -0.000 C 
BRANCH  16  17
ATOM     17  C   UNL     1      20.965  -2.524 -37.794  1.00  0.00    -0.000 C 
BRANCH  17  18
ATOM     18  C   UNL     1      21.417  -2.983 -36.397  1.00  0.00    -0.000 C 
BRANCH  18  19
ATOM     19  C   UNL     1      21.696  -4.497 -36.306  1.00  0.00    -0.003 C 
ATOM     20  C   UNL     1      23.185  -4.807 -36.168  1.00  0.00     0.004 C 
ENDBRANCH  18  19
ENDBRANCH  17  18
ENDBRANCH  16  17
ENDBRANCH  15  16
ENDBRANCH  14  15
ENDBRANCH  13  14
ENDBRANCH  12  13
ENDBRANCH   1  12
TORSDOF 16
ENDMDL
MODEL 9
REMARK VINA RESULT:    -4.886      2.635      5.254
REMARK INTER + INTRA:         -12.286
REMARK INTER:                  -9.506
REMARK INTRA:                  -2.781
REMARK UNBOUND:                -2.831
REMARK SMILES CCCCCCCCCCCCCCCCCC(=O)[O-]
REMARK SMILES IDX 10 1 11 2 12 3 13 4 14 5 15 6 16 7 17 8 18 9 19 10 20 11
REMARK SMILES IDX 9 12 8 13 7 14 6 15 5 16 4 17 3 18 2 19 1 20
REMARK H PARENT
REMARK Flexibility Score: inf
ROOT
ATOM      1  C   UNL     1      24.439  -8.844 -39.210  1.00  0.00     0.000 C 
ENDROOT
BRANCH   1   2
ATOM      2  C   UNL     1      23.519  -8.561 -38.003  1.00  0.00     0.000 C 
BRANCH   2   3
ATOM      3  C   UNL     1      22.266  -7.724 -38.319  1.00  0.00     0.000 C 
BRANCH   3   4
ATOM      4  C   UNL     1      22.048  -6.573 -37.325  1.00  0.00     0.000 C 
BRANCH   4   5
ATOM      5  C   UNL     1      23.320  -6.304 -36.511  1.00  0.00     0.000 C 
BRANCH   5   6
ATOM      6  C   UNL     1      23.475  -4.808 -36.211  1.00  0.00     0.000 C 
BRANCH   6   7
ATOM      7  C   UNL     1      22.106  -4.126 -36.091  1.00  0.00     0.006 C 
BRANCH   7   8
ATOM      8  C   UNL     1      22.114  -2.753 -36.769  1.00  0.00     0.053 C 
BRANCH   8   9
ATOM      9  C   UNL     1      20.828  -2.522 -37.497  1.00  0.00     0.041 C 
ATOM     10  O   UNL     1      20.681  -2.947 -38.674  1.00  0.00    -0.550 OA
ATOM     11  O   UNL     1      19.776  -1.875 -36.862  1.00  0.00    -0.550 OA
ENDBRANCH   8   9
ENDBRANCH   7   8
ENDBRANCH   6   7
ENDBRANCH   5   6
ENDBRANCH   4   5
ENDBRANCH   3   4
ENDBRANCH   2   3
ENDBRANCH   1   2
BRANCH   1  12
ATOM     12  C   UNL     1      25.587  -7.835 -39.406  1.00  0.00     0.000 C 
BRANCH  12  13
ATOM     13  C   UNL     1      26.159  -7.247 -38.103  1.00  0.00    -0.000 C 
BRANCH  13  14
ATOM     14  C   UNL     1      27.284  -6.215 -38.333  1.00  0.00    -0.000 C 
BRANCH  14  15
ATOM     15  C   UNL     1      26.966  -4.851 -37.695  1.00  0.00    -0.000 C 
BRANCH  15  16
ATOM     16  C   UNL     1      26.774  -3.740 -38.740  1.00  0.00    -0.000 C 
BRANCH  16  17
ATOM     17  C   UNL     1      25.491  -2.928 -38.507  1.00  0.00    -0.000 C 
BRANCH  17  18
ATOM     18  C   UNL     1      24.443  -3.138 -39.614  1.00  0.00    -0.000 C 
BRANCH  18  19
ATOM     19  C   UNL     1      24.158  -4.623 -39.919  1.00  0.00    -0.003 C 
ATOM     20  C   UNL     1      22.702  -4.868 -40.308  1.00  0.00     0.004 C 
ENDBRANCH  18  19
ENDBRANCH  17  18
ENDBRANCH  16  17
ENDBRANCH  15  16
ENDBRANCH  14  15
ENDBRANCH  13  14
ENDBRANCH  12  13
ENDBRANCH   1  12
TORSDOF 16
ENDMDL
