MODEL 1
REMARK VINA RESULT:    -3.117      0.000      0.000
REMARK INTER + INTRA:          -6.273
REMARK INTER:                  -4.939
REMARK INTRA:                  -1.334
REMARK UNBOUND:                -1.334
REMARK SMILES CCCCCCCCCCCC(=O)[O-]
REMARK SMILES IDX 7 1 8 2 9 3 10 4 11 5 12 6 13 7 14 8 6 9 5 10 4 11 3 12 2 13
REMARK SMILES IDX 1 14
REMARK H PARENT
REMARK Flexibility Score: inf
ROOT
ATOM      1  C   UNL     1       7.989   9.218   8.415  1.00  0.00     0.000 C 
ENDROOT
BRANCH   1   2
ATOM      2  C   UNL     1       6.844   9.611   7.469  1.00  0.00     0.000 C 
BRANCH   2   3
ATOM      3  C   UNL     1       5.773  10.424   8.212  1.00  0.00     0.000 C 
BRANCH   3   4
ATOM      4  C   UNL     1       5.619  11.849   7.657  1.00  0.00     0.006 C 
BRANCH   4   5
ATOM      5  C   UNL     1       6.109  12.921   8.638  1.00  0.00     0.053 C 
BRANCH   5   6
ATOM      6  C   UNL     1       7.604  12.987   8.634  1.00  0.00     0.041 C 
ATOM      7  O   UNL     1       8.259  12.588   9.633  1.00  0.00    -0.550 OA
ATOM      8  O   UNL     1       8.277  13.444   7.508  1.00  0.00    -0.550 OA
ENDBRANCH   5   6
ENDBRANCH   4   5
ENDBRANCH   3   4
ENDBRANCH   2   3
ENDBRANCH   1   2
BRANCH   1   9
ATOM      9  C   UNL     1       9.365   9.662   7.896  1.00  0.00     0.000 C 
BRANCH   9  10
ATOM     10  C   UNL     1       9.315  10.187   6.450  1.00  0.00    -0.000 C 
BRANCH  10  11
ATOM     11  C   UNL     1      10.431   9.582   5.572  1.00  0.00    -0.000 C 
BRANCH  11  12
ATOM     12  C   UNL     1      10.038   8.252   4.908  1.00  0.00    -0.000 C 
BRANCH  12  13
ATOM     13  C   UNL     1       8.660   8.304   4.235  1.00  0.00    -0.003 C 
ATOM     14  C   UNL     1       7.736   7.223   4.787  1.00  0.00     0.004 C 
ENDBRANCH  12  13
ENDBRANCH  11  12
ENDBRANCH  10  11
ENDBRANCH   9  10
ENDBRANCH   1   9
TORSDOF 10
ENDMDL
MODEL 2
REMARK VINA RESULT:    -3.062      1.119      1.971
REMARK INTER + INTRA:          -6.186
REMARK INTER:                  -5.055
REMARK INTRA:                  -1.131
REMARK UNBOUND:                -1.334
REMARK SMILES CCCCCCCCCCCC(=O)[O-]
REMARK SMILES IDX 7 1 8 2 9 3 10 4 11 5 12 6 13 7 14 8 6 9 5 10 4 11 3 12 2 13
REMARK SMILES IDX 1 14
REMARK H PARENT
REMARK Flexibility Score: inf
ROOT
ATOM      1  C   UNL     1       5.400   8.702   7.480  1.00  0.00     0.000 C 
ENDROOT
BRANCH   1   2
ATOM      2  C   UNL     1       5.254   9.942   8.376  1.00  0.00     0.000 C 
BRANCH   2   3
ATOM      3  C   UNL     1       4.669  11.123   7.586  1.00  0.00     0.000 C 
BRANCH   3   4
ATOM      4  C   UNL     1       5.493  12.410   7.748  1.00  0.00     0.006 C 
BRANCH   4   5
ATOM      5  C   UNL     1       6.124  12.537   9.141  1.00  0.00     0.053 C 
BRANCH   5   6
ATOM      6  C   UNL     1       7.580  12.860   9.027  1.00  0.00     0.041 C 
ATOM      7  O   UNL     1       8.372  12.558   9.958  1.00  0.00    -0.550 OA
ATOM      8  O   UNL     1       8.072  13.452   7.869  1.00  0.00    -0.550 OA
ENDBRANCH   5   6
ENDBRANCH   4   5
ENDBRANCH   3   4
ENDBRANCH   2   3
ENDBRANCH   1   2
BRANCH   1   9
ATOM      9  C   UNL     1       6.845   8.478   7.008  1.00  0.00     0.000 C 
BRANCH   9  10
ATOM     10  C   UNL     1       7.861   9.347   7.771  1.00  0.00    -0.000 C 
BRANCH  10  11
ATOM     11  C   UNL     1       8.778  10.143   6.819  1.00  0.00    -0.000 C 
BRANCH  11  12
ATOM     12  C   UNL     1       9.157   9.373   5.542  1.00  0.00    -0.000 C 
BRANCH  12  13
ATOM     13  C   UNL     1      10.654   9.043   5.466  1.00  0.00    -0.003 C 
ATOM     14  C   UNL     1      11.005   7.866   6.370  1.00  0.00     0.004 C 
ENDBRANCH  12  13
ENDBRANCH  11  12
ENDBRANCH  10  11
ENDBRANCH   9  10
ENDBRANCH   1   9
TORSDOF 10
ENDMDL
MODEL 3
REMARK VINA RESULT:    -3.056      2.524      5.197
REMARK INTER + INTRA:          -6.177
REMARK INTER:                  -4.678
REMARK INTRA:                  -1.499
REMARK UNBOUND:                -1.334
REMARK SMILES CCCCCCCCCCCC(=O)[O-]
REMARK SMILES IDX 7 1 8 2 9 3 10 4 11 5 12 6 13 7 14 8 6 9 5 10 4 11 3 12 2 13
REMARK SMILES IDX 1 14
REMARK H PARENT
REMARK Flexibility Score: inf
ROOT
ATOM      1  C   UNL     1       4.610   9.995   8.446  1.00  0.00     0.000 C 
ENDROOT
BRANCH   1   2
ATOM      2  C   UNL     1       6.001   9.349   8.546  1.00  0.00     0.000 C 
BRANCH   2   3
ATOM      3  C   UNL     1       6.822   9.616   7.275  1.00  0.00     0.000 C 
BRANCH   3   4
ATOM      4  C   UNL     1       8.263   9.095   7.381  1.00  0.00     0.006 C 
BRANCH   4   5
ATOM      5  C   UNL     1       9.286  10.058   6.764  1.00  0.00     0.053 C 
BRANCH   5   6
ATOM      6  C   UNL     1       9.844   9.486   5.499  1.00  0.00     0.041 C 
ATOM      7  O   UNL     1       9.072   9.026   4.617  1.00  0.00    -0.550 OA
ATOM      8  O   UNL     1      11.215   9.505   5.272  1.00  0.00    -0.550 OA
ENDBRANCH   5   6
ENDBRANCH   4   5
ENDBRANCH   3   4
ENDBRANCH   2   3
ENDBRANCH   1   2
BRANCH   1   9
ATOM      9  C   UNL     1       4.602  11.249   7.558  1.00  0.00     0.000 C 
BRANCH   9  10
ATOM     10  C   UNL     1       4.979  12.526   8.330  1.00  0.00    -0.000 C 
BRANCH  10  11
ATOM     11  C   UNL     1       6.120  13.306   7.642  1.00  0.00    -0.000 C 
BRANCH  11  12
ATOM     12  C   UNL     1       7.508  13.023   8.242  1.00  0.00    -0.000 C 
BRANCH  12  13
ATOM     13  C   UNL     1       7.456  12.704   9.742  1.00  0.00    -0.003 C 
ATOM     14  C   UNL     1       8.521  11.681  10.125  1.00  0.00     0.004 C 
ENDBRANCH  12  13
ENDBRANCH  11  12
ENDBRANCH  10  11
ENDBRANCH   9  10
ENDBRANCH   1   9
TORSDOF 10
ENDMDL
MODEL 4
REMARK VINA RESULT:    -3.052      2.491      5.142
REMARK INTER + INTRA:          -6.171
REMARK INTER:                  -4.592
REMARK INTRA:                  -1.579
REMARK UNBOUND:                -1.334
REMARK SMILES CCCCCCCCCCCC(=O)[O-]
REMARK SMILES IDX 7 1 8 2 9 3 10 4 11 5 12 6 13 7 14 8 6 9 5 10 4 11 3 12 2 13
REMARK SMILES IDX 1 14
REMARK H PARENT
REMARK Flexibility Score: inf
ROOT
ATOM      1  C   UNL     1       7.471  11.444  11.071  1.00  0.00     0.000 C 
ENDROOT
BRANCH   1   2
ATOM      2  C   UNL     1       7.768  10.594   9.826  1.00  0.00     0.000 C 
BRANCH   2   3
ATOM      3  C   UNL     1       9.113  10.991   9.199  1.00  0.00     0.000 C 
BRANCH   3   4
ATOM      4  C   UNL     1       9.013  11.234   7.685  1.00  0.00     0.006 C 
BRANCH   4   5
ATOM      5  C   UNL     1       8.326  10.079   6.946  1.00  0.00     0.053 C 
BRANCH   5   6
ATOM      6  C   UNL     1       9.313   9.342   6.096  1.00  0.00     0.041 C 
ATOM      7  O   UNL     1       9.109   9.204   4.861  1.00  0.00    -0.550 OA
ATOM      8  O   UNL     1      10.485   8.851   6.659  1.00  0.00    -0.550 OA
ENDBRANCH   5   6
ENDBRANCH   4   5
ENDBRANCH   3   4
ENDBRANCH   2   3
ENDBRANCH   1   2
BRANCH   1   9
ATOM      9  C   UNL     1       7.565  12.953  10.795  1.00  0.00     0.000 C 
BRANCH   9  10
ATOM     10  C   UNL     1       6.337  13.498  10.044  1.00  0.00    -0.000 C 
BRANCH  10  11
ATOM     11  C   UNL     1       6.696  13.999   8.629  1.00  0.00    -0.000 C 
BRANCH  11  12
ATOM     12  C   UNL     1       5.920  13.287   7.508  1.00  0.00    -0.000 C 
BRANCH  12  13
ATOM     13  C   UNL     1       4.706  12.504   8.027  1.00  0.00    -0.003 C 
ATOM     14  C   UNL     1       4.783  11.036   7.619  1.00  0.00     0.004 C 
ENDBRANCH  12  13
ENDBRANCH  11  12
ENDBRANCH  10  11
ENDBRANCH   9  10
ENDBRANCH   1   9
TORSDOF 10
ENDMDL
MODEL 5
REMARK VINA RESULT:    -3.033      2.734      5.708
REMARK INTER + INTRA:          -6.140
REMARK INTER:                  -5.052
REMARK INTRA:                  -1.088
REMARK UNBOUND:                -1.334
REMARK SMILES CCCCCCCCCCCC(=O)[O-]
REMARK SMILES IDX 7 1 8 2 9 3 10 4 11 5 12 6 13 7 14 8 6 9 5 10 4 11 3 12 2 13
REMARK SMILES IDX 1 14
REMARK H PARENT
REMARK Flexibility Score: inf
ROOT
ATOM      1  C   UNL     1       6.578   9.573   8.288  1.00  0.00     0.000 C 
ENDROOT
BRANCH   1   2
ATOM      2  C   UNL     1       7.519   9.488   7.076  1.00  0.00     0.000 C 
BRANCH   2   3
ATOM      3  C   UNL     1       8.667  10.503   7.201  1.00  0.00     0.000 C 
BRANCH   3   4
ATOM      4  C   UNL     1       9.714  10.353   6.087  1.00  0.00     0.006 C 
BRANCH   4   5
ATOM      5  C   UNL     1       9.574   9.032   5.319  1.00  0.00     0.053 C 
BRANCH   5   6
ATOM      6  C   UNL     1      10.923   8.485   4.972  1.00  0.00     0.041 C 
ATOM      7  O   UNL     1      11.931   9.240   4.969  1.00  0.00    -0.550 OA
ATOM      8  O   UNL     1      11.076   7.131   4.700  1.00  0.00    -0.550 OA
ENDBRANCH   5   6
ENDBRANCH   4   5
ENDBRANCH   3   4
ENDBRANCH   2   3
ENDBRANCH   1   2
BRANCH   1   9
ATOM      9  C   UNL     1       5.095   9.567   7.888  1.00  0.00     0.000 C 
BRANCH   9  10
ATOM     10  C   UNL     1       4.571  10.968   7.523  1.00  0.00    -0.000 C 
BRANCH  10  11
ATOM     11  C   UNL     1       5.184  12.068   8.414  1.00  0.00    -0.000 C 
BRANCH  11  12
ATOM     12  C   UNL     1       5.782  13.242   7.621  1.00  0.00    -0.000 C 
BRANCH  12  13
ATOM     13  C   UNL     1       7.144  13.697   8.164  1.00  0.00    -0.003 C 
ATOM     14  C   UNL     1       7.449  13.039   9.506  1.00  0.00     0.004 C 
ENDBRANCH  12  13
ENDBRANCH  11  12
ENDBRANCH  10  11
ENDBRANCH   9  10
ENDBRANCH   1   9
TORSDOF 10
ENDMDL
MODEL 6
REMARK VINA RESULT:    -3.003      2.373      4.773
REMARK INTER + INTRA:          -6.093
REMARK INTER:                  -4.669
REMARK INTRA:                  -1.424
REMARK UNBOUND:                -1.334
REMARK SMILES CCCCCCCCCCCC(=O)[O-]
REMARK SMILES IDX 7 1 8 2 9 3 10 4 11 5 12 6 13 7 14 8 6 9 5 10 4 11 3 12 2 13
REMARK SMILES IDX 1 14
REMARK H PARENT
REMARK Flexibility Score: inf
ROOT
ATOM      1  C   UNL     1       7.838   9.138   7.709  1.00  0.00     0.000 C 
ENDROOT
BRANCH   1   2
ATOM      2  C   UNL     1       8.637  10.290   7.078  1.00  0.00     0.000 C 
BRANCH   2   3
ATOM      3  C   UNL     1       9.164  11.247   8.159  1.00  0.00     0.000 C 
BRANCH   3   4
ATOM      4  C   UNL     1       8.940  10.714   9.582  1.00  0.00     0.006 C 
BRANCH   4   5
ATOM      5  C   UNL     1       8.280  11.749  10.503  1.00  0.00     0.053 C 
BRANCH   5   6
ATOM      6  C   UNL     1       9.176  12.067  11.658  1.00  0.00     0.041 C 
ATOM      7  O   UNL     1      10.406  12.261  11.471  1.00  0.00    -0.550 OA
ATOM      8  O   UNL     1       8.645  12.198  12.935  1.00  0.00    -0.550 OA
ENDBRANCH   5   6
ENDBRANCH   4   5
ENDBRANCH   3   4
ENDBRANCH   2   3
ENDBRANCH   1   2
BRANCH   1   9
ATOM      9  C   UNL     1       6.371   9.117   7.255  1.00  0.00     0.000 C 
BRANCH   9  10
ATOM     10  C   UNL     1       5.428   9.811   8.254  1.00  0.00    -0.000 C 
BRANCH  10  11
ATOM     11  C   UNL     1       4.624  10.953   7.599  1.00  0.00    -0.000 C 
BRANCH  11  12
ATOM     12  C   UNL     1       4.904  12.335   8.214  1.00  0.00    -0.000 C 
BRANCH  12  13
ATOM     13  C   UNL     1       6.105  13.042   7.572  1.00  0.00    -0.003 C 
ATOM     14  C   UNL     1       6.600  14.190   8.447  1.00  0.00     0.004 C 
ENDBRANCH  12  13
ENDBRANCH  11  12
ENDBRANCH  10  11
ENDBRANCH   9  10
ENDBRANCH   1   9
TORSDOF 10
ENDMDL
MODEL 7
REMARK VINA RESULT:    -2.959      1.833      4.963
REMARK INTER + INTRA:          -6.022
REMARK INTER:                  -5.034
REMARK INTRA:                  -0.988
REMARK UNBOUND:                -1.334
REMARK SMILES CCCCCCCCCCCC(=O)[O-]
REMARK SMILES IDX 7 1 8 2 9 3 10 4 11 5 12 6 13 7 14 8 6 9 5 10 4 11 3 12 2 13
REMARK SMILES IDX 1 14
REMARK H PARENT
REMARK Flexibility Score: inf
ROOT
ATOM      1  C   UNL     1       5.423   9.535   8.054  1.00  0.00     0.000 C 
ENDROOT
BRANCH   1   2
ATOM      2  C   UNL     1       5.824   8.334   7.183  1.00  0.00     0.000 C 
BRANCH   2   3
ATOM      3  C   UNL     1       7.346   8.290   6.978  1.00  0.00     0.000 C 
BRANCH   3   4
ATOM      4  C   UNL     1       7.961   9.687   6.807  1.00  0.00     0.006 C 
BRANCH   4   5
ATOM      5  C   UNL     1       9.171   9.916   7.723  1.00  0.00     0.053 C 
BRANCH   5   6
ATOM      6  C   UNL     1       9.179  11.321   8.236  1.00  0.00     0.041 C 
ATOM      7  O   UNL     1       9.273  11.545   9.471  1.00  0.00    -0.550 OA
ATOM      8  O   UNL     1       9.131  12.387   7.345  1.00  0.00    -0.550 OA
ENDBRANCH   5   6
ENDBRANCH   4   5
ENDBRANCH   3   4
ENDBRANCH   2   3
ENDBRANCH   1   2
BRANCH   1   9
ATOM      9  C   UNL     1       4.145  10.226   7.557  1.00  0.00     0.000 C 
BRANCH   9  10
ATOM     10  C   UNL     1       4.171  11.750   7.771  1.00  0.00    -0.000 C 
BRANCH  10  11
ATOM     11  C   UNL     1       5.609  12.303   7.841  1.00  0.00    -0.000 C 
BRANCH  11  12
ATOM     12  C   UNL     1       5.712  13.799   7.499  1.00  0.00    -0.000 C 
BRANCH  12  13
ATOM     13  C   UNL     1       6.157  14.656   8.692  1.00  0.00    -0.003 C 
ATOM     14  C   UNL     1       6.558  13.783   9.877  1.00  0.00     0.004 C 
ENDBRANCH  12  13
ENDBRANCH  11  12
ENDBRANCH  10  11
ENDBRANCH   9  10
ENDBRANCH   1   9
TORSDOF 10
ENDMDL
MODEL 8
REMARK VINA RESULT:    -2.953      1.580      3.211
REMARK INTER + INTRA:          -6.014
REMARK INTER:                  -4.963
REMARK INTRA:                  -1.050
REMARK UNBOUND:                -1.334
REMARK SMILES CCCCCCCCCCCC(=O)[O-]
REMARK SMILES IDX 7 1 8 2 9 3 10 4 11 5 12 6 13 7 14 8 6 9 5 10 4 11 3 12 2 13
REMARK SMILES IDX 1 14
REMARK H PARENT
REMARK Flexibility Score: inf
ROOT
ATOM      1  C   UNL     1       4.666  11.212   7.551  1.00  0.00     0.000 C 
ENDROOT
BRANCH   1   2
ATOM      2  C   UNL     1       4.712  12.655   8.078  1.00  0.00     0.000 C 
BRANCH   2   3
ATOM      3  C   UNL     1       5.895  13.424   7.469  1.00  0.00     0.000 C 
BRANCH   3   4
ATOM      4  C   UNL     1       6.994  13.732   8.497  1.00  0.00     0.006 C 
BRANCH   4   5
ATOM      5  C   UNL     1       6.542  13.473   9.940  1.00  0.00     0.053 C 
BRANCH   5   6
ATOM      6  C   UNL     1       7.622  12.776  10.707  1.00  0.00     0.041 C 
ATOM      7  O   UNL     1       8.733  12.538  10.164  1.00  0.00    -0.550 OA
ATOM      8  O   UNL     1       7.419  12.432  12.038  1.00  0.00    -0.550 OA
ENDBRANCH   5   6
ENDBRANCH   4   5
ENDBRANCH   3   4
ENDBRANCH   2   3
ENDBRANCH   1   2
BRANCH   1   9
ATOM      9  C   UNL     1       5.465  10.235   8.427  1.00  0.00     0.000 C 
BRANCH   9  10
ATOM     10  C   UNL     1       6.559   9.489   7.643  1.00  0.00    -0.000 C 
BRANCH  10  11
ATOM     11  C   UNL     1       7.856  10.317   7.524  1.00  0.00    -0.000 C 
BRANCH  11  12
ATOM     12  C   UNL     1       9.102   9.591   8.058  1.00  0.00    -0.000 C 
BRANCH  12  13
ATOM     13  C   UNL     1       9.882   8.857   6.960  1.00  0.00    -0.003 C 
ATOM     14  C   UNL     1       9.883   9.654   5.659  1.00  0.00     0.004 C 
ENDBRANCH  12  13
ENDBRANCH  11  12
ENDBRANCH  10  11
ENDBRANCH   9  10
ENDBRANCH   1   9
TORSDOF 10
ENDMDL
MODEL 9
REMARK VINA RESULT:    -2.942      2.762      5.235
REMARK INTER + INTRA:          -5.996
REMARK INTER:                  -4.633
REMARK INTRA:                  -1.363
REMARK UNBOUND:                -1.334
REMARK SMILES CCCCCCCCCCCC(=O)[O-]
REMARK SMILES IDX 7 1 8 2 9 3 10 4 11 5 12 6 13 7 14 8 6 9 5 10 4 11 3 12 2 13
REMARK SMILES IDX 1 14
REMARK H PARENT
REMARK Flexibility Score: inf
ROOT
ATOM      1  C   UNL     1       8.011  12.153   9.080  1.00  0.00     0.000 C 
ENDROOT
BRANCH   1   2
ATOM      2  C   UNL     1       9.066  11.109   8.680  1.00  0.00     0.000 C 
BRANCH   2   3
ATOM      3  C   UNL     1       9.086  10.907   7.157  1.00  0.00     0.000 C 
BRANCH   3   4
ATOM      4  C   UNL     1       9.351   9.447   6.757  1.00  0.00     0.006 C 
BRANCH   4   5
ATOM      5  C   UNL     1       9.180   9.207   5.252  1.00  0.00     0.053 C 
BRANCH   5   6
ATOM      6  C   UNL     1       8.463   7.916   5.008  1.00  0.00     0.041 C 
ATOM      7  O   UNL     1       7.639   7.478   5.854  1.00  0.00    -0.550 OA
ATOM      8  O   UNL     1       8.668   7.220   3.823  1.00  0.00    -0.550 OA
ENDBRANCH   5   6
ENDBRANCH   4   5
ENDBRANCH   3   4
ENDBRANCH   2   3
ENDBRANCH   1   2
BRANCH   1   9
ATOM      9  C   UNL     1       7.586  13.046   7.904  1.00  0.00     0.000 C 
BRANCH   9  10
ATOM     10  C   UNL     1       6.063  13.054   7.684  1.00  0.00    -0.000 C 
BRANCH  10  11
ATOM     11  C   UNL     1       5.356  11.926   8.464  1.00  0.00    -0.000 C 
BRANCH  11  12
ATOM     12  C   UNL     1       4.722  10.855   7.561  1.00  0.00    -0.000 C 
BRANCH  12  13
ATOM     13  C   UNL     1       5.448   9.505   7.635  1.00  0.00    -0.003 C 
ATOM     14  C   UNL     1       5.872   9.186   9.065  1.00  0.00     0.004 C 
ENDBRANCH  12  13
ENDBRANCH  11  12
ENDBRANCH  10  11
ENDBRANCH   9  10
ENDBRANCH   1   9
TORSDOF 10
ENDMDL
