MODEL 1
REMARK VINA RESULT:    86.204      0.000      0.000
REMARK INTER + INTRA:         141.973
REMARK INTER:                 141.638
REMARK INTRA:                   0.335
REMARK UNBOUND:                 0.335
REMARK SMILES C[C@H]1O[C@@H](OC[C@H]2O[C@@H](Oc3c(-c4ccc(O)c(O)c4)oc4cc(O)cc(O)c4c3=O)[C@H](O)[C@H](O)[C@H]2O)[C@@H](O)[C@H](O)[C@H]1O
REMARK SMILES IDX 7 1 36 2 34 3 32 4 9 5 8 6 6 7 5 8 4 9 1 10 2 11 42 12 3 13
REMARK SMILES IDX 40 14 38 15 43 16 41 18 39 20 37 22 35 24 10 26 11 27 12 28
REMARK SMILES IDX 30 29 21 30 29 31 31 32 22 33 27 34 23 35 26 36 24 37 13 38
REMARK SMILES IDX 20 39 14 40 18 41 15 42 16 43 19 44 17 46 28 48 25 50 33 52
REMARK H PARENT 43 17 41 19 39 21 37 23 35 25 19 45 17 47 28 49 25 51 33 53
REMARK Flexibility Score: inf
ROOT
ATOM      1  C   UNL     1      15.767   0.675  27.253  1.00  0.00     0.180 C 
ATOM      2  C   UNL     1      16.067   1.607  26.053  1.00  0.00     0.177 C 
ATOM      3  C   UNL     1      14.783   2.333  25.585  1.00  0.00     0.180 C 
ATOM      4  C   UNL     1      13.996   2.907  26.786  1.00  0.00     0.214 C 
ATOM      5  C   UNL     1      13.849   1.847  27.899  1.00  0.00     0.339 C 
ATOM      6  O   UNL     1      15.135   1.399  28.293  1.00  0.00    -0.332 OA
ENDROOT
BRANCH   1   7
ATOM      7  C   UNL     1      17.046   0.033  27.824  1.00  0.00     0.198 C 
BRANCH   7   8
ATOM      8  O   UNL     1      18.190   0.472  27.110  1.00  0.00    -0.347 OA
BRANCH   8   9
ATOM      9  C   UNL     1      18.974  -0.596  26.591  1.00  0.00     0.281 C 
ATOM     10  C   UNL     1      19.972  -3.690  28.279  1.00  0.00     0.041 C 
ATOM     11  C   UNL     1      19.927  -2.642  27.168  1.00  0.00     0.150 C 
ATOM     12  C   UNL     1      21.351  -2.257  26.703  1.00  0.00     0.174 C 
ATOM     13  O   UNL     1      19.237  -1.502  27.649  1.00  0.00    -0.344 OA
ATOM     14  C   UNL     1      21.278  -1.142  25.639  1.00  0.00     0.179 C 
ATOM     15  C   UNL     1      20.300  -0.015  26.051  1.00  0.00     0.202 C 
BRANCH  12  16
ATOM     16  O   UNL     1      22.124  -1.829  27.798  1.00  0.00    -0.388 OA
ATOM     17  H   UNL     1      21.628  -2.079  28.623  1.00  0.00     0.211 HD
ENDBRANCH  12  16
BRANCH  14  18
ATOM     18  O   UNL     1      20.852  -1.701  24.420  1.00  0.00    -0.387 OA
ATOM     19  H   UNL     1      21.132  -2.653  24.418  1.00  0.00     0.211 HD
ENDBRANCH  14  18
BRANCH  15  20
ATOM     20  O   UNL     1      20.895   0.858  26.980  1.00  0.00    -0.385 OA
ATOM     21  H   UNL     1      20.460   1.743  26.900  1.00  0.00     0.211 HD
ENDBRANCH  15  20
ENDBRANCH   8   9
ENDBRANCH   7   8
ENDBRANCH   1   7
BRANCH   2  22
ATOM     22  O   UNL     1      17.031   2.560  26.426  1.00  0.00    -0.387 OA
ATOM     23  H   UNL     1      16.851   3.381  25.895  1.00  0.00     0.211 HD
ENDBRANCH   2  22
BRANCH   3  24
ATOM     24  O   UNL     1      13.969   1.500  24.791  1.00  0.00    -0.387 OA
ATOM     25  H   UNL     1      13.571   0.801  25.373  1.00  0.00     0.211 HD
ENDBRANCH   3  24
BRANCH   5  26
ATOM     26  O   UNL     1      13.218   2.428  29.042  1.00  0.00    -0.454 OA
BRANCH  26  27
ATOM     27  C   UNL     1      11.824   2.452  29.229  1.00  0.00     0.214 A 
ATOM     28  C   UNL     1      11.114   3.667  29.179  1.00  0.00     0.180 A 
ATOM     29  C   UNL     1      11.100   1.258  29.383  1.00  0.00     0.239 A 
ATOM     30  O   UNL     1       9.791   3.665  29.247  1.00  0.00    -0.452 OA
ATOM     31  C   UNL     1       9.690   1.292  29.506  1.00  0.00     0.111 A 
ATOM     32  O   UNL     1      11.726   0.169  29.349  1.00  0.00    -0.285 OA
ATOM     33  C   UNL     1       9.068   2.562  29.397  1.00  0.00     0.146 A 
ATOM     34  C   UNL     1       8.856   0.144  29.689  1.00  0.00     0.134 A 
ATOM     35  C   UNL     1       7.675   2.683  29.442  1.00  0.00     0.094 A 
ATOM     36  C   UNL     1       7.463   0.295  29.699  1.00  0.00     0.093 A 
ATOM     37  C   UNL     1       6.872   1.550  29.585  1.00  0.00     0.123 A 
BRANCH  28  38
ATOM     38  C   UNL     1      11.787   4.969  29.026  1.00  0.00     0.025 A 
ATOM     39  C   UNL     1      11.026   6.144  29.043  1.00  0.00     0.062 A 
ATOM     40  C   UNL     1      13.184   5.057  29.007  1.00  0.00     0.016 A 
ATOM     41  C   UNL     1      11.643   7.401  29.008  1.00  0.00     0.158 A 
ATOM     42  C   UNL     1      13.808   6.304  28.935  1.00  0.00     0.051 A 
ATOM     43  C   UNL     1      13.055   7.482  28.934  1.00  0.00     0.157 A 
BRANCH  41  44
ATOM     44  O   UNL     1      10.829   8.532  29.064  1.00  0.00    -0.504 OA
ATOM     45  H   UNL     1       9.823   8.507  28.981  1.00  0.00     0.293 HD
ENDBRANCH  41  44
BRANCH  43  46
ATOM     46  O   UNL     1      13.742   8.699  28.873  1.00  0.00    -0.504 OA
ATOM     47  H   UNL     1      13.349   9.578  29.175  1.00  0.00     0.293 HD
ENDBRANCH  43  46
ENDBRANCH  28  38
BRANCH  34  48
ATOM     48  O   UNL     1       9.334  -1.157  29.884  1.00  0.00    -0.507 OA
ATOM     49  H   UNL     1       9.910  -1.464  30.650  1.00  0.00     0.293 HD
ENDBRANCH  34  48
BRANCH  37  50
ATOM     50  O   UNL     1       5.484   1.660  29.621  1.00  0.00    -0.508 OA
ATOM     51  H   UNL     1       5.003   2.095  30.406  1.00  0.00     0.293 HD
ENDBRANCH  37  50
ENDBRANCH  26  27
ENDBRANCH   5  26
BRANCH   4  52
ATOM     52  O   UNL     1      12.736   3.352  26.365  1.00  0.00    -0.384 OA
ATOM     53  H   UNL     1      12.610   3.019  25.440  1.00  0.00     0.211 HD
ENDBRANCH   4  52
TORSDOF 16
ENDMDL
MODEL 2
REMARK VINA RESULT:    86.298      2.878     10.066
REMARK INTER + INTRA:         142.127
REMARK INTER:                 139.517
REMARK INTRA:                   2.610
REMARK UNBOUND:                 0.335
REMARK SMILES C[C@H]1O[C@@H](OC[C@H]2O[C@@H](Oc3c(-c4ccc(O)c(O)c4)oc4cc(O)cc(O)c4c3=O)[C@H](O)[C@H](O)[C@H]2O)[C@@H](O)[C@H](O)[C@H]1O
REMARK SMILES IDX 7 1 36 2 34 3 32 4 9 5 8 6 6 7 5 8 4 9 1 10 2 11 42 12 3 13
REMARK SMILES IDX 40 14 38 15 43 16 41 18 39 20 37 22 35 24 10 26 11 27 12 28
REMARK SMILES IDX 30 29 21 30 29 31 31 32 22 33 27 34 23 35 26 36 24 37 13 38
REMARK SMILES IDX 20 39 14 40 18 41 15 42 16 43 19 44 17 46 28 48 25 50 33 52
REMARK H PARENT 43 17 41 19 39 21 37 23 35 25 19 45 17 47 28 49 25 51 33 53
REMARK Flexibility Score: inf
ROOT
ATOM      1  C   UNL     1       7.587   1.673  30.304  1.00  0.00     0.180 C 
ATOM      2  C   UNL     1       7.684   0.549  29.243  1.00  0.00     0.177 C 
ATOM      3  C   UNL     1       8.396   1.056  27.967  1.00  0.00     0.180 C 
ATOM      4  C   UNL     1       9.675   1.851  28.319  1.00  0.00     0.214 C 
ATOM      5  C   UNL     1       9.389   2.882  29.432  1.00  0.00     0.339 C 
ATOM      6  O   UNL     1       8.869   2.213  30.568  1.00  0.00    -0.332 OA
ENDROOT
BRANCH   1   7
ATOM      7  C   UNL     1       6.996   1.166  31.634  1.00  0.00     0.198 C 
BRANCH   7   8
ATOM      8  O   UNL     1       6.725  -0.224  31.567  1.00  0.00    -0.347 OA
BRANCH   8   9
ATOM      9  C   UNL     1       5.354  -0.541  31.774  1.00  0.00     0.281 C 
ATOM     10  C   UNL     1       3.284   0.197  34.705  1.00  0.00     0.041 C 
ATOM     11  C   UNL     1       3.639  -0.403  33.345  1.00  0.00     0.150 C 
ATOM     12  C   UNL     1       3.288  -1.908  33.286  1.00  0.00     0.174 C 
ATOM     13  O   UNL     1       5.022  -0.205  33.110  1.00  0.00    -0.344 OA
ATOM     14  C   UNL     1       3.729  -2.503  31.933  1.00  0.00     0.179 C 
ATOM     15  C   UNL     1       5.160  -2.057  31.546  1.00  0.00     0.202 C 
BRANCH  12  16
ATOM     16  O   UNL     1       3.913  -2.596  34.343  1.00  0.00    -0.388 OA
ATOM     17  H   UNL     1       4.380  -1.917  34.900  1.00  0.00     0.211 HD
ENDBRANCH  12  16
BRANCH  14  18
ATOM     18  O   UNL     1       2.829  -2.085  30.935  1.00  0.00    -0.387 OA
ATOM     19  H   UNL     1       3.322  -2.079  30.075  1.00  0.00     0.211 HD
ENDBRANCH  14  18
BRANCH  15  20
ATOM     20  O   UNL     1       6.130  -2.809  32.235  1.00  0.00    -0.385 OA
ATOM     21  H   UNL     1       5.848  -3.757  32.236  1.00  0.00     0.211 HD
ENDBRANCH  15  20
ENDBRANCH   8   9
ENDBRANCH   7   8
ENDBRANCH   1   7
BRANCH   2  22
ATOM     22  O   UNL     1       8.399  -0.540  29.774  1.00  0.00    -0.387 OA
ATOM     23  H   UNL     1       8.714  -0.270  30.677  1.00  0.00     0.211 HD
ENDBRANCH   2  22
BRANCH   3  24
ATOM     24  O   UNL     1       7.533   1.813  27.150  1.00  0.00    -0.387 OA
ATOM     25  H   UNL     1       7.312   2.658  27.621  1.00  0.00     0.211 HD
ENDBRANCH   3  24
BRANCH   5  26
ATOM     26  O   UNL     1      10.603   3.528  29.820  1.00  0.00    -0.454 OA
BRANCH  26  27
ATOM     27  C   UNL     1      11.821   3.364  29.136  1.00  0.00     0.214 A 
ATOM     28  C   UNL     1      12.572   4.485  28.732  1.00  0.00     0.180 A 
ATOM     29  C   UNL     1      12.355   2.083  28.918  1.00  0.00     0.239 A 
ATOM     30  O   UNL     1      13.769   4.318  28.186  1.00  0.00    -0.452 OA
ATOM     31  C   UNL     1      13.614   1.936  28.286  1.00  0.00     0.111 A 
ATOM     32  O   UNL     1      11.721   1.088  29.350  1.00  0.00    -0.285 OA
ATOM     33  C   UNL     1      14.309   3.127  27.959  1.00  0.00     0.146 A 
ATOM     34  C   UNL     1      14.241   0.684  27.995  1.00  0.00     0.134 A 
ATOM     35  C   UNL     1      15.587   3.077  27.390  1.00  0.00     0.094 A 
ATOM     36  C   UNL     1      15.534   0.667  27.453  1.00  0.00     0.093 A 
ATOM     37  C   UNL     1      16.202   1.848  27.145  1.00  0.00     0.123 A 
BRANCH  28  38
ATOM     38  C   UNL     1      12.091   5.866  28.912  1.00  0.00     0.025 A 
ATOM     39  C   UNL     1      12.679   6.902  28.176  1.00  0.00     0.062 A 
ATOM     40  C   UNL     1      10.965   6.136  29.699  1.00  0.00     0.016 A 
ATOM     41  C   UNL     1      12.175   8.206  28.243  1.00  0.00     0.158 A 
ATOM     42  C   UNL     1      10.479   7.440  29.802  1.00  0.00     0.051 A 
ATOM     43  C   UNL     1      11.069   8.485  29.084  1.00  0.00     0.157 A 
BRANCH  41  44
ATOM     44  O   UNL     1      12.784   9.184  27.457  1.00  0.00    -0.504 OA
ATOM     45  H   UNL     1      12.291   9.760  26.790  1.00  0.00     0.293 HD
ENDBRANCH  41  44
BRANCH  43  46
ATOM     46  O   UNL     1      10.526   9.766  29.222  1.00  0.00    -0.504 OA
ATOM     47  H   UNL     1      10.757  10.393  29.977  1.00  0.00     0.293 HD
ENDBRANCH  43  46
ENDBRANCH  28  38
BRANCH  34  48
ATOM     48  O   UNL     1      13.643  -0.566  28.195  1.00  0.00    -0.507 OA
ATOM     49  H   UNL     1      14.056  -1.457  27.979  1.00  0.00     0.293 HD
ENDBRANCH  34  48
BRANCH  37  50
ATOM     50  O   UNL     1      17.478   1.789  26.589  1.00  0.00    -0.508 OA
ATOM     51  H   UNL     1      17.951   0.900  26.435  1.00  0.00     0.293 HD
ENDBRANCH  37  50
ENDBRANCH  26  27
ENDBRANCH   5  26
BRANCH   4  52
ATOM     52  O   UNL     1      10.173   2.491  27.176  1.00  0.00    -0.384 OA
ATOM     53  H   UNL     1      11.118   2.723  27.368  1.00  0.00     0.211 HD
ENDBRANCH   4  52
TORSDOF 16
ENDMDL
MODEL 3
REMARK VINA RESULT:    86.962      0.818      4.722
REMARK INTER + INTRA:         143.218
REMARK INTER:                 140.944
REMARK INTRA:                   2.274
REMARK UNBOUND:                 0.335
REMARK SMILES C[C@H]1O[C@@H](OC[C@H]2O[C@@H](Oc3c(-c4ccc(O)c(O)c4)oc4cc(O)cc(O)c4c3=O)[C@H](O)[C@H](O)[C@H]2O)[C@@H](O)[C@H](O)[C@H]1O
REMARK SMILES IDX 7 1 36 2 34 3 32 4 9 5 8 6 6 7 5 8 4 9 1 10 2 11 42 12 3 13
REMARK SMILES IDX 40 14 38 15 43 16 41 18 39 20 37 22 35 24 10 26 11 27 12 28
REMARK SMILES IDX 30 29 21 30 29 31 31 32 22 33 27 34 23 35 26 36 24 37 13 38
REMARK SMILES IDX 20 39 14 40 18 41 15 42 16 43 19 44 17 46 28 48 25 50 33 52
REMARK H PARENT 43 17 41 19 39 21 37 23 35 25 19 45 17 47 28 49 25 51 33 53
REMARK Flexibility Score: inf
ROOT
ATOM      1  C   UNL     1      15.705   0.337  27.192  1.00  0.00     0.180 C 
ATOM      2  C   UNL     1      16.102   1.315  26.058  1.00  0.00     0.177 C 
ATOM      3  C   UNL     1      14.871   2.110  25.560  1.00  0.00     0.180 C 
ATOM      4  C   UNL     1      14.041   2.654  26.745  1.00  0.00     0.214 C 
ATOM      5  C   UNL     1      13.797   1.547  27.794  1.00  0.00     0.339 C 
ATOM      6  O   UNL     1      15.042   1.033  28.232  1.00  0.00    -0.332 OA
ENDROOT
BRANCH   1   7
ATOM      7  C   UNL     1      16.928  -0.378  27.796  1.00  0.00     0.198 C 
BRANCH   7   8
ATOM      8  O   UNL     1      18.132   0.134  27.249  1.00  0.00    -0.347 OA
BRANCH   8   9
ATOM      9  C   UNL     1      18.968  -0.871  26.688  1.00  0.00     0.281 C 
ATOM     10  C   UNL     1      20.029  -4.032  28.204  1.00  0.00     0.041 C 
ATOM     11  C   UNL     1      19.978  -2.916  27.162  1.00  0.00     0.150 C 
ATOM     12  C   UNL     1      21.400  -2.454  26.766  1.00  0.00     0.174 C 
ATOM     13  O   UNL     1      19.233  -1.834  27.693  1.00  0.00    -0.344 OA
ATOM     14  C   UNL     1      21.317  -1.275  25.773  1.00  0.00     0.179 C 
ATOM     15  C   UNL     1      20.288  -0.211  26.227  1.00  0.00     0.202 C 
BRANCH  12  16
ATOM     16  O   UNL     1      22.125  -2.071  27.910  1.00  0.00    -0.388 OA
ATOM     17  H   UNL     1      22.075  -2.826  28.555  1.00  0.00     0.211 HD
ENDBRANCH  12  16
BRANCH  14  18
ATOM     18  O   UNL     1      20.946  -1.769  24.509  1.00  0.00    -0.387 OA
ATOM     19  H   UNL     1      21.334  -2.676  24.420  1.00  0.00     0.211 HD
ENDBRANCH  14  18
BRANCH  15  20
ATOM     20  O   UNL     1      20.823   0.620  27.227  1.00  0.00    -0.385 OA
ATOM     21  H   UNL     1      21.776   0.786  27.018  1.00  0.00     0.211 HD
ENDBRANCH  15  20
ENDBRANCH   8   9
ENDBRANCH   7   8
ENDBRANCH   1   7
BRANCH   2  22
ATOM     22  O   UNL     1      17.077   2.213  26.529  1.00  0.00    -0.387 OA
ATOM     23  H   UNL     1      17.582   1.745  27.246  1.00  0.00     0.211 HD
ENDBRANCH   2  22
BRANCH   3  24
ATOM     24  O   UNL     1      14.074   1.348  24.683  1.00  0.00    -0.387 OA
ATOM     25  H   UNL     1      14.604   0.567  24.374  1.00  0.00     0.211 HD
ENDBRANCH   3  24
BRANCH   5  26
ATOM     26  O   UNL     1      13.124   2.094  28.930  1.00  0.00    -0.454 OA
BRANCH  26  27
ATOM     27  C   UNL     1      12.511   3.360  28.933  1.00  0.00     0.214 A 
ATOM     28  C   UNL     1      11.139   3.493  29.219  1.00  0.00     0.180 A 
ATOM     29  C   UNL     1      13.271   4.526  28.735  1.00  0.00     0.239 A 
ATOM     30  O   UNL     1      10.598   4.698  29.326  1.00  0.00    -0.452 OA
ATOM     31  C   UNL     1      12.653   5.798  28.805  1.00  0.00     0.111 A 
ATOM     32  O   UNL     1      14.510   4.411  28.558  1.00  0.00    -0.285 OA
ATOM     33  C   UNL     1      11.277   5.823  29.144  1.00  0.00     0.146 A 
ATOM     34  C   UNL     1      13.323   7.045  28.599  1.00  0.00     0.134 A 
ATOM     35  C   UNL     1      10.599   7.038  29.297  1.00  0.00     0.094 A 
ATOM     36  C   UNL     1      12.625   8.245  28.791  1.00  0.00     0.093 A 
ATOM     37  C   UNL     1      11.275   8.248  29.129  1.00  0.00     0.123 A 
BRANCH  28  38
ATOM     38  C   UNL     1      10.261   2.329  29.434  1.00  0.00     0.025 A 
ATOM     39  C   UNL     1       8.872   2.507  29.451  1.00  0.00     0.062 A 
ATOM     40  C   UNL     1      10.787   1.032  29.479  1.00  0.00     0.016 A 
ATOM     41  C   UNL     1       8.008   1.409  29.545  1.00  0.00     0.158 A 
ATOM     42  C   UNL     1       9.935  -0.066  29.610  1.00  0.00     0.051 A 
ATOM     43  C   UNL     1       8.548   0.103  29.646  1.00  0.00     0.157 A 
BRANCH  41  44
ATOM     44  O   UNL     1       6.635   1.653  29.521  1.00  0.00    -0.504 OA
ATOM     45  H   UNL     1       6.165   2.163  28.786  1.00  0.00     0.293 HD
ENDBRANCH  41  44
BRANCH  43  46
ATOM     46  O   UNL     1       7.750  -1.039  29.766  1.00  0.00    -0.504 OA
ATOM     47  H   UNL     1       6.785  -1.018  30.064  1.00  0.00     0.293 HD
ENDBRANCH  43  46
ENDBRANCH  28  38
BRANCH  34  48
ATOM     48  O   UNL     1      14.656   7.169  28.191  1.00  0.00    -0.507 OA
ATOM     49  H   UNL     1      15.246   7.969  28.342  1.00  0.00     0.293 HD
ENDBRANCH  34  48
BRANCH  37  50
ATOM     50  O   UNL     1      10.612   9.462  29.290  1.00  0.00    -0.508 OA
ATOM     51  H   UNL     1      10.900  10.299  28.785  1.00  0.00     0.293 HD
ENDBRANCH  37  50
ENDBRANCH  26  27
ENDBRANCH   5  26
BRANCH   4  52
ATOM     52  O   UNL     1      12.821   3.166  26.282  1.00  0.00    -0.384 OA
ATOM     53  H   UNL     1      12.189   3.131  27.045  1.00  0.00     0.211 HD
ENDBRANCH   4  52
TORSDOF 16
ENDMDL
MODEL 4
REMARK VINA RESULT:    88.147      3.216     10.490
REMARK INTER + INTRA:         145.166
REMARK INTER:                 144.615
REMARK INTRA:                   0.551
REMARK UNBOUND:                 0.335
REMARK SMILES C[C@H]1O[C@@H](OC[C@H]2O[C@@H](Oc3c(-c4ccc(O)c(O)c4)oc4cc(O)cc(O)c4c3=O)[C@H](O)[C@H](O)[C@H]2O)[C@@H](O)[C@H](O)[C@H]1O
REMARK SMILES IDX 7 1 36 2 34 3 32 4 9 5 8 6 6 7 5 8 4 9 1 10 2 11 42 12 3 13
REMARK SMILES IDX 40 14 38 15 43 16 41 18 39 20 37 22 35 24 10 26 11 27 12 28
REMARK SMILES IDX 30 29 21 30 29 31 31 32 22 33 27 34 23 35 26 36 24 37 13 38
REMARK SMILES IDX 20 39 14 40 18 41 15 42 16 43 19 44 17 46 28 48 25 50 33 52
REMARK H PARENT 43 17 41 19 39 21 37 23 35 25 19 45 17 47 28 49 25 51 33 53
REMARK Flexibility Score: inf
ROOT
ATOM      1  C   UNL     1       7.782   1.629  30.205  1.00  0.00     0.180 C 
ATOM      2  C   UNL     1       7.774   0.563  29.083  1.00  0.00     0.177 C 
ATOM      3  C   UNL     1       8.545   1.065  27.839  1.00  0.00     0.180 C 
ATOM      4  C   UNL     1       9.895   1.703  28.240  1.00  0.00     0.214 C 
ATOM      5  C   UNL     1       9.705   2.694  29.408  1.00  0.00     0.339 C 
ATOM      6  O   UNL     1       9.110   2.020  30.504  1.00  0.00    -0.332 OA
ENDROOT
BRANCH   1   7
ATOM      7  C   UNL     1       7.131   1.112  31.502  1.00  0.00     0.198 C 
BRANCH   7   8
ATOM      8  O   UNL     1       6.842  -0.273  31.403  1.00  0.00    -0.347 OA
BRANCH   8   9
ATOM      9  C   UNL     1       5.475  -0.582  31.643  1.00  0.00     0.281 C 
ATOM     10  C   UNL     1       3.471   0.198  34.609  1.00  0.00     0.041 C 
ATOM     11  C   UNL     1       3.794  -0.419  33.248  1.00  0.00     0.150 C 
ATOM     12  C   UNL     1       3.436  -1.923  33.215  1.00  0.00     0.174 C 
ATOM     13  O   UNL     1       5.173  -0.230  32.982  1.00  0.00    -0.344 OA
ATOM     14  C   UNL     1       3.846  -2.535  31.859  1.00  0.00     0.179 C 
ATOM     15  C   UNL     1       5.270  -2.100  31.437  1.00  0.00     0.202 C 
BRANCH  12  16
ATOM     16  O   UNL     1       4.081  -2.602  34.265  1.00  0.00    -0.388 OA
ATOM     17  H   UNL     1       3.821  -2.148  35.111  1.00  0.00     0.211 HD
ENDBRANCH  12  16
BRANCH  14  18
ATOM     18  O   UNL     1       2.926  -2.125  30.876  1.00  0.00    -0.387 OA
ATOM     19  H   UNL     1       2.017  -2.283  31.238  1.00  0.00     0.211 HD
ENDBRANCH  14  18
BRANCH  15  20
ATOM     20  O   UNL     1       6.251  -2.847  32.113  1.00  0.00    -0.385 OA
ATOM     21  H   UNL     1       6.065  -2.802  33.084  1.00  0.00     0.211 HD
ENDBRANCH  15  20
ENDBRANCH   8   9
ENDBRANCH   7   8
ENDBRANCH   1   7
BRANCH   2  22
ATOM     22  O   UNL     1       8.369  -0.622  29.553  1.00  0.00    -0.387 OA
ATOM     23  H   UNL     1       9.220  -0.364  29.997  1.00  0.00     0.211 HD
ENDBRANCH   2  22
BRANCH   3  24
ATOM     24  O   UNL     1       7.771   1.950  27.063  1.00  0.00    -0.387 OA
ATOM     25  H   UNL     1       7.777   2.841  27.502  1.00  0.00     0.211 HD
ENDBRANCH   3  24
BRANCH   5  26
ATOM     26  O   UNL     1      10.975   3.190  29.836  1.00  0.00    -0.454 OA
BRANCH  26  27
ATOM     27  C   UNL     1      11.536   4.392  29.369  1.00  0.00     0.214 A 
ATOM     28  C   UNL     1      12.699   4.380  28.574  1.00  0.00     0.180 A 
ATOM     29  C   UNL     1      10.901   5.623  29.611  1.00  0.00     0.239 A 
ATOM     30  O   UNL     1      13.154   5.509  28.050  1.00  0.00    -0.452 OA
ATOM     31  C   UNL     1      11.442   6.818  29.079  1.00  0.00     0.111 A 
ATOM     32  O   UNL     1       9.821   5.623  30.253  1.00  0.00    -0.285 OA
ATOM     33  C   UNL     1      12.589   6.692  28.256  1.00  0.00     0.146 A 
ATOM     34  C   UNL     1      10.893   8.124  29.281  1.00  0.00     0.134 A 
ATOM     35  C   UNL     1      13.152   7.813  27.636  1.00  0.00     0.094 A 
ATOM     36  C   UNL     1      11.462   9.223  28.622  1.00  0.00     0.093 A 
ATOM     37  C   UNL     1      12.585   9.076  27.813  1.00  0.00     0.123 A 
BRANCH  28  38
ATOM     38  C   UNL     1      13.436   3.141  28.271  1.00  0.00     0.025 A 
ATOM     39  C   UNL     1      14.678   3.218  27.629  1.00  0.00     0.062 A 
ATOM     40  C   UNL     1      12.982   1.903  28.741  1.00  0.00     0.016 A 
ATOM     41  C   UNL     1      15.452   2.069  27.425  1.00  0.00     0.158 A 
ATOM     42  C   UNL     1      13.729   0.747  28.509  1.00  0.00     0.051 A 
ATOM     43  C   UNL     1      14.962   0.811  27.853  1.00  0.00     0.157 A 
BRANCH  41  44
ATOM     44  O   UNL     1      16.696   2.220  26.811  1.00  0.00    -0.504 OA
ATOM     45  H   UNL     1      16.873   2.019  25.837  1.00  0.00     0.293 HD
ENDBRANCH  41  44
BRANCH  43  46
ATOM     46  O   UNL     1      15.667  -0.382  27.663  1.00  0.00    -0.504 OA
ATOM     47  H   UNL     1      16.322  -0.757  28.332  1.00  0.00     0.293 HD
ENDBRANCH  43  46
ENDBRANCH  28  38
BRANCH  34  48
ATOM     48  O   UNL     1       9.812   8.406  30.124  1.00  0.00    -0.507 OA
ATOM     49  H   UNL     1       9.070   9.057  29.931  1.00  0.00     0.293 HD
ENDBRANCH  34  48
BRANCH  37  50
ATOM     50  O   UNL     1      13.133  10.196  27.192  1.00  0.00    -0.508 OA
ATOM     51  H   UNL     1      13.942  10.123  26.576  1.00  0.00     0.293 HD
ENDBRANCH  37  50
ENDBRANCH  26  27
ENDBRANCH   5  26
BRANCH   4  52
ATOM     52  O   UNL     1      10.466   2.352  27.136  1.00  0.00    -0.384 OA
ATOM     53  H   UNL     1      10.831   1.643  26.547  1.00  0.00     0.211 HD
ENDBRANCH   4  52
TORSDOF 16
ENDMDL
MODEL 5
REMARK VINA RESULT:    88.701      4.588      8.874
REMARK INTER + INTRA:         146.075
REMARK INTER:                 146.954
REMARK INTRA:                  -0.879
REMARK UNBOUND:                 0.335
REMARK SMILES C[C@H]1O[C@@H](OC[C@H]2O[C@@H](Oc3c(-c4ccc(O)c(O)c4)oc4cc(O)cc(O)c4c3=O)[C@H](O)[C@H](O)[C@H]2O)[C@@H](O)[C@H](O)[C@H]1O
REMARK SMILES IDX 7 1 36 2 34 3 32 4 9 5 8 6 6 7 5 8 4 9 1 10 2 11 42 12 3 13
REMARK SMILES IDX 40 14 38 15 43 16 41 18 39 20 37 22 35 24 10 26 11 27 12 28
REMARK SMILES IDX 30 29 21 30 29 31 31 32 22 33 27 34 23 35 26 36 24 37 13 38
REMARK SMILES IDX 20 39 14 40 18 41 15 42 16 43 19 44 17 46 28 48 25 50 33 52
REMARK H PARENT 43 17 41 19 39 21 37 23 35 25 19 45 17 47 28 49 25 51 33 53
REMARK Flexibility Score: inf
ROOT
ATOM      1  C   UNL     1      13.199   5.040  32.435  1.00  0.00     0.180 C 
ATOM      2  C   UNL     1      12.411   6.312  32.833  1.00  0.00     0.177 C 
ATOM      3  C   UNL     1      12.273   7.275  31.629  1.00  0.00     0.180 C 
ATOM      4  C   UNL     1      11.849   6.514  30.352  1.00  0.00     0.214 C 
ATOM      5  C   UNL     1      12.713   5.250  30.157  1.00  0.00     0.339 C 
ATOM      6  O   UNL     1      12.605   4.426  31.305  1.00  0.00    -0.332 OA
ENDROOT
BRANCH   1   7
ATOM      7  C   UNL     1      13.245   4.006  33.575  1.00  0.00     0.198 C 
BRANCH   7   8
ATOM      8  O   UNL     1      13.177   4.646  34.839  1.00  0.00    -0.347 OA
BRANCH   8   9
ATOM      9  C   UNL     1      14.289   4.357  35.677  1.00  0.00     0.281 C 
ATOM     10  C   UNL     1      16.275   1.282  35.816  1.00  0.00     0.041 C 
ATOM     11  C   UNL     1      15.804   2.676  36.230  1.00  0.00     0.150 C 
ATOM     12  C   UNL     1      15.527   2.746  37.750  1.00  0.00     0.174 C 
ATOM     13  O   UNL     1      14.634   2.995  35.496  1.00  0.00    -0.344 OA
ATOM     14  C   UNL     1      14.979   4.139  38.125  1.00  0.00     0.179 C 
ATOM     15  C   UNL     1      13.876   4.607  37.145  1.00  0.00     0.202 C 
BRANCH  12  16
ATOM     16  O   UNL     1      14.607   1.749  38.125  1.00  0.00    -0.388 OA
ATOM     17  H   UNL     1      15.119   1.043  38.604  1.00  0.00     0.211 HD
ENDBRANCH  12  16
BRANCH  14  18
ATOM     18  O   UNL     1      16.037   5.066  38.107  1.00  0.00    -0.387 OA
ATOM     19  H   UNL     1      15.671   5.938  38.403  1.00  0.00     0.211 HD
ENDBRANCH  14  18
BRANCH  15  20
ATOM     20  O   UNL     1      12.642   4.000  37.442  1.00  0.00    -0.385 OA
ATOM     21  H   UNL     1      12.750   3.020  37.369  1.00  0.00     0.211 HD
ENDBRANCH  15  20
ENDBRANCH   8   9
ENDBRANCH   7   8
ENDBRANCH   1   7
BRANCH   2  22
ATOM     22  O   UNL     1      11.130   5.950  33.289  1.00  0.00    -0.387 OA
ATOM     23  H   UNL     1      10.472   6.372  32.675  1.00  0.00     0.211 HD
ENDBRANCH   2  22
BRANCH   3  24
ATOM     24  O   UNL     1      13.450   8.019  31.415  1.00  0.00    -0.387 OA
ATOM     25  H   UNL     1      13.462   8.781  32.052  1.00  0.00     0.211 HD
ENDBRANCH   3  24
BRANCH   5  26
ATOM     26  O   UNL     1      12.236   4.503  29.036  1.00  0.00    -0.454 OA
BRANCH  26  27
ATOM     27  C   UNL     1      12.878   3.355  28.539  1.00  0.00     0.214 A 
ATOM     28  C   UNL     1      12.165   2.153  28.363  1.00  0.00     0.180 A 
ATOM     29  C   UNL     1      14.221   3.404  28.129  1.00  0.00     0.239 A 
ATOM     30  O   UNL     1      12.753   1.111  27.793  1.00  0.00    -0.452 OA
ATOM     31  C   UNL     1      14.837   2.257  27.571  1.00  0.00     0.111 A 
ATOM     32  O   UNL     1      14.834   4.498  28.214  1.00  0.00    -0.285 OA
ATOM     33  C   UNL     1      14.019   1.113  27.395  1.00  0.00     0.146 A 
ATOM     34  C   UNL     1      16.199   2.189  27.141  1.00  0.00     0.134 A 
ATOM     35  C   UNL     1      14.526  -0.043  26.793  1.00  0.00     0.094 A 
ATOM     36  C   UNL     1      16.669   1.027  26.513  1.00  0.00     0.093 A 
ATOM     37  C   UNL     1      15.848  -0.084  26.345  1.00  0.00     0.123 A 
BRANCH  28  38
ATOM     38  C   UNL     1      10.756   2.004  28.769  1.00  0.00     0.025 A 
ATOM     39  C   UNL     1      10.240   0.724  29.009  1.00  0.00     0.062 A 
ATOM     40  C   UNL     1       9.969   3.126  29.055  1.00  0.00     0.016 A 
ATOM     41  C   UNL     1       8.940   0.555  29.499  1.00  0.00     0.158 A 
ATOM     42  C   UNL     1       8.659   2.966  29.508  1.00  0.00     0.051 A 
ATOM     43  C   UNL     1       8.129   1.692  29.734  1.00  0.00     0.157 A 
BRANCH  41  44
ATOM     44  O   UNL     1       8.500  -0.745  29.751  1.00  0.00    -0.504 OA
ATOM     45  H   UNL     1       9.087  -1.478  30.120  1.00  0.00     0.293 HD
ENDBRANCH  41  44
BRANCH  43  46
ATOM     46  O   UNL     1       6.814   1.602  30.201  1.00  0.00    -0.504 OA
ATOM     47  H   UNL     1       6.027   2.036  29.742  1.00  0.00     0.293 HD
ENDBRANCH  43  46
ENDBRANCH  28  38
BRANCH  34  48
ATOM     48  O   UNL     1      17.138   3.212  27.318  1.00  0.00    -0.507 OA
ATOM     49  H   UNL     1      16.930   4.163  27.575  1.00  0.00     0.293 HD
ENDBRANCH  34  48
BRANCH  37  50
ATOM     50  O   UNL     1      16.358  -1.227  25.735  1.00  0.00    -0.508 OA
ATOM     51  H   UNL     1      16.715  -1.209  24.780  1.00  0.00     0.293 HD
ENDBRANCH  37  50
ENDBRANCH  26  27
ENDBRANCH   5  26
BRANCH   4  52
ATOM     52  O   UNL     1      11.954   7.355  29.235  1.00  0.00    -0.384 OA
ATOM     53  H   UNL     1      11.030   7.617  28.988  1.00  0.00     0.211 HD
ENDBRANCH   4  52
TORSDOF 16
ENDMDL
