MODEL 1
REMARK VINA RESULT:    -3.716      0.000      0.000
REMARK INTER + INTRA:          -9.540
REMARK INTER:                  -8.060
REMARK INTRA:                  -1.480
REMARK UNBOUND:                -1.480
REMARK SMILES CCCCCCCCCCCCCCCCCCCCCC(=O)[O-]
REMARK SMILES IDX 12 1 11 2 10 3 9 4 8 5 7 6 6 7 5 8 4 9 3 10 2 11 1 12 13 13
REMARK SMILES IDX 14 14 15 15 16 16 17 17 18 18 19 19 20 20 21 21 22 22 23 23
REMARK SMILES IDX 24 24
REMARK H PARENT
REMARK Flexibility Score: inf
ROOT
ATOM      1  C   UNL     1       6.029 -34.807  24.678  1.00  0.00     0.000 C 
ENDROOT
BRANCH   1   2
ATOM      2  C   UNL     1       5.930 -36.289  25.076  1.00  0.00     0.000 C 
BRANCH   2   3
ATOM      3  C   UNL     1       4.474 -36.774  25.199  1.00  0.00     0.000 C 
BRANCH   3   4
ATOM      4  C   UNL     1       4.367 -38.307  25.242  1.00  0.00    -0.000 C 
BRANCH   4   5
ATOM      5  C   UNL     1       5.025 -38.979  24.023  1.00  0.00    -0.000 C 
BRANCH   5   6
ATOM      6  C   UNL     1       4.295 -38.666  22.707  1.00  0.00    -0.000 C 
BRANCH   6   7
ATOM      7  C   UNL     1       5.148 -37.825  21.744  1.00  0.00    -0.000 C 
BRANCH   7   8
ATOM      8  C   UNL     1       5.127 -38.364  20.303  1.00  0.00    -0.000 C 
BRANCH   8   9
ATOM      9  C   UNL     1       4.207 -37.565  19.356  1.00  0.00    -0.000 C 
BRANCH   9  10
ATOM     10  C   UNL     1       2.724 -37.686  19.750  1.00  0.00    -0.000 C 
BRANCH  10  11
ATOM     11  C   UNL     1       1.800 -37.846  18.533  1.00  0.00    -0.003 C 
ATOM     12  C   UNL     1       0.331 -37.590  18.868  1.00  0.00     0.004 C 
ENDBRANCH  10  11
ENDBRANCH   9  10
ENDBRANCH   8   9
ENDBRANCH   7   8
ENDBRANCH   6   7
ENDBRANCH   5   6
ENDBRANCH   4   5
ENDBRANCH   3   4
ENDBRANCH   2   3
ENDBRANCH   1   2
BRANCH   1  13
ATOM     13  C   UNL     1       6.121 -34.610  23.155  1.00  0.00     0.000 C 
BRANCH  13  14
ATOM     14  C   UNL     1       5.290 -33.414  22.665  1.00  0.00     0.000 C 
BRANCH  14  15
ATOM     15  C   UNL     1       3.910 -33.831  22.133  1.00  0.00     0.000 C 
BRANCH  15  16
ATOM     16  C   UNL     1       4.020 -34.407  20.713  1.00  0.00     0.000 C 
BRANCH  16  17
ATOM     17  C   UNL     1       5.470 -34.465  20.197  1.00  0.00     0.000 C 
BRANCH  17  18
ATOM     18  C   UNL     1       5.631 -34.256  18.680  1.00  0.00     0.000 C 
BRANCH  18  19
ATOM     19  C   UNL     1       4.296 -34.299  17.924  1.00  0.00     0.000 C 
BRANCH  19  20
ATOM     20  C   UNL     1       4.249 -35.491  16.959  1.00  0.00     0.006 C 
BRANCH  20  21
ATOM     21  C   UNL     1       2.809 -35.801  16.539  1.00  0.00     0.053 C 
BRANCH  21  22
ATOM     22  C   UNL     1       2.794 -36.685  15.332  1.00  0.00     0.041 C 
ATOM     23  O   UNL     1       3.325 -37.826  15.376  1.00  0.00    -0.550 OA
ATOM     24  O   UNL     1       2.151 -36.269  14.174  1.00  0.00    -0.550 OA
ENDBRANCH  21  22
ENDBRANCH  20  21
ENDBRANCH  19  20
ENDBRANCH  18  19
ENDBRANCH  17  18
ENDBRANCH  16  17
ENDBRANCH  15  16
ENDBRANCH  14  15
ENDBRANCH  13  14
ENDBRANCH   1  13
TORSDOF 20
ENDMDL
MODEL 2
REMARK VINA RESULT:    -3.616      1.430      4.755
REMARK INTER + INTRA:          -9.325
REMARK INTER:                  -8.107
REMARK INTRA:                  -1.218
REMARK UNBOUND:                -1.480
REMARK SMILES CCCCCCCCCCCCCCCCCCCCCC(=O)[O-]
REMARK SMILES IDX 12 1 11 2 10 3 9 4 8 5 7 6 6 7 5 8 4 9 3 10 2 11 1 12 13 13
REMARK SMILES IDX 14 14 15 15 16 16 17 17 18 18 19 19 20 20 21 21 22 22 23 23
REMARK SMILES IDX 24 24
REMARK H PARENT
REMARK Flexibility Score: inf
ROOT
ATOM      1  C   UNL     1       4.993 -35.203  23.191  1.00  0.00     0.000 C 
ENDROOT
BRANCH   1   2
ATOM      2  C   UNL     1       5.388 -33.786  22.745  1.00  0.00     0.000 C 
BRANCH   2   3
ATOM      3  C   UNL     1       4.317 -33.121  21.862  1.00  0.00     0.000 C 
BRANCH   3   4
ATOM      4  C   UNL     1       4.087 -33.880  20.545  1.00  0.00    -0.000 C 
BRANCH   4   5
ATOM      5  C   UNL     1       5.398 -34.383  19.917  1.00  0.00    -0.000 C 
BRANCH   5   6
ATOM      6  C   UNL     1       5.346 -34.418  18.381  1.00  0.00    -0.000 C 
BRANCH   6   7
ATOM      7  C   UNL     1       3.921 -34.623  17.843  1.00  0.00    -0.000 C 
BRANCH   7   8
ATOM      8  C   UNL     1       3.867 -35.602  16.657  1.00  0.00    -0.000 C 
BRANCH   8   9
ATOM      9  C   UNL     1       2.455 -35.772  16.059  1.00  0.00    -0.000 C 
BRANCH   9  10
ATOM     10  C   UNL     1       2.489 -36.438  14.671  1.00  0.00    -0.000 C 
BRANCH  10  11
ATOM     11  C   UNL     1       3.897 -36.910  14.276  1.00  0.00    -0.003 C 
ATOM     12  C   UNL     1       4.040 -38.432  14.307  1.00  0.00     0.004 C 
ENDBRANCH  10  11
ENDBRANCH   9  10
ENDBRANCH   8   9
ENDBRANCH   7   8
ENDBRANCH   6   7
ENDBRANCH   5   6
ENDBRANCH   4   5
ENDBRANCH   3   4
ENDBRANCH   2   3
ENDBRANCH   1   2
BRANCH   1  13
ATOM     13  C   UNL     1       6.057 -35.858  24.088  1.00  0.00     0.000 C 
BRANCH  13  14
ATOM     14  C   UNL     1       5.455 -36.480  25.358  1.00  0.00     0.000 C 
BRANCH  14  15
ATOM     15  C   UNL     1       4.557 -37.689  25.056  1.00  0.00     0.000 C 
BRANCH  15  16
ATOM     16  C   UNL     1       4.415 -37.903  23.542  1.00  0.00     0.000 C 
BRANCH  16  17
ATOM     17  C   UNL     1       4.953 -39.268  23.074  1.00  0.00     0.000 C 
BRANCH  17  18
ATOM     18  C   UNL     1       5.435 -39.312  21.612  1.00  0.00     0.000 C 
BRANCH  18  19
ATOM     19  C   UNL     1       5.395 -37.940  20.926  1.00  0.00     0.000 C 
BRANCH  19  20
ATOM     20  C   UNL     1       4.476 -37.967  19.697  1.00  0.00     0.006 C 
BRANCH  20  21
ATOM     21  C   UNL     1       3.103 -37.372  20.025  1.00  0.00     0.053 C 
BRANCH  21  22
ATOM     22  C   UNL     1       2.112 -37.727  18.963  1.00  0.00     0.041 C 
ATOM     23  O   UNL     1       2.506 -38.086  17.822  1.00  0.00    -0.550 OA
ATOM     24  O   UNL     1       0.752 -37.710  19.247  1.00  0.00    -0.550 OA
ENDBRANCH  21  22
ENDBRANCH  20  21
ENDBRANCH  19  20
ENDBRANCH  18  19
ENDBRANCH  17  18
ENDBRANCH  16  17
ENDBRANCH  15  16
ENDBRANCH  14  15
ENDBRANCH  13  14
ENDBRANCH   1  13
TORSDOF 20
ENDMDL
MODEL 3
REMARK VINA RESULT:    -3.401      2.517      5.508
REMARK INTER + INTRA:          -8.858
REMARK INTER:                  -7.342
REMARK INTRA:                  -1.516
REMARK UNBOUND:                -1.480
REMARK SMILES CCCCCCCCCCCCCCCCCCCCCC(=O)[O-]
REMARK SMILES IDX 12 1 11 2 10 3 9 4 8 5 7 6 6 7 5 8 4 9 3 10 2 11 1 12 13 13
REMARK SMILES IDX 14 14 15 15 16 16 17 17 18 18 19 19 20 20 21 21 22 22 23 23
REMARK SMILES IDX 24 24
REMARK H PARENT
REMARK Flexibility Score: inf
ROOT
ATOM      1  C   UNL     1       4.809 -39.472  22.743  1.00  0.00     0.000 C 
ENDROOT
BRANCH   1   2
ATOM      2  C   UNL     1       4.985 -38.216  21.874  1.00  0.00     0.000 C 
BRANCH   2   3
ATOM      3  C   UNL     1       4.897 -38.520  20.367  1.00  0.00     0.000 C 
BRANCH   3   4
ATOM      4  C   UNL     1       4.976 -37.249  19.505  1.00  0.00    -0.000 C 
BRANCH   4   5
ATOM      5  C   UNL     1       3.587 -36.678  19.169  1.00  0.00    -0.000 C 
BRANCH   5   6
ATOM      6  C   UNL     1       2.600 -37.756  18.693  1.00  0.00    -0.000 C 
BRANCH   6   7
ATOM      7  C   UNL     1       1.540 -37.203  17.728  1.00  0.00    -0.000 C 
BRANCH   7   8
ATOM      8  C   UNL     1       2.086 -36.089  16.818  1.00  0.00    -0.000 C 
BRANCH   8   9
ATOM      9  C   UNL     1       2.322 -36.539  15.361  1.00  0.00    -0.000 C 
BRANCH   9  10
ATOM     10  C   UNL     1       3.698 -37.205  15.176  1.00  0.00    -0.000 C 
BRANCH  10  11
ATOM     11  C   UNL     1       3.792 -38.016  13.875  1.00  0.00    -0.003 C 
ATOM     12  C   UNL     1       4.753 -39.200  13.985  1.00  0.00     0.004 C 
ENDBRANCH  10  11
ENDBRANCH   9  10
ENDBRANCH   8   9
ENDBRANCH   7   8
ENDBRANCH   6   7
ENDBRANCH   5   6
ENDBRANCH   4   5
ENDBRANCH   3   4
ENDBRANCH   2   3
ENDBRANCH   1   2
BRANCH   1  13
ATOM     13  C   UNL     1       4.882 -39.162  24.248  1.00  0.00     0.000 C 
BRANCH  13  14
ATOM     14  C   UNL     1       4.006 -37.965  24.647  1.00  0.00     0.000 C 
BRANCH  14  15
ATOM     15  C   UNL     1       4.678 -37.060  25.690  1.00  0.00     0.000 C 
BRANCH  15  16
ATOM     16  C   UNL     1       6.100 -36.678  25.251  1.00  0.00     0.000 C 
BRANCH  16  17
ATOM     17  C   UNL     1       6.125 -35.816  23.975  1.00  0.00     0.000 C 
BRANCH  17  18
ATOM     18  C   UNL     1       6.026 -34.298  24.212  1.00  0.00     0.000 C 
BRANCH  18  19
ATOM     19  C   UNL     1       5.426 -33.542  23.018  1.00  0.00     0.000 C 
BRANCH  19  20
ATOM     20  C   UNL     1       5.842 -34.190  21.692  1.00  0.00     0.006 C 
BRANCH  20  21
ATOM     21  C   UNL     1       4.818 -33.895  20.592  1.00  0.00     0.053 C 
BRANCH  21  22
ATOM     22  C   UNL     1       3.570 -33.316  21.179  1.00  0.00     0.041 C 
ATOM     23  O   UNL     1       3.295 -32.099  21.010  1.00  0.00    -0.550 OA
ATOM     24  O   UNL     1       2.685 -34.132  21.872  1.00  0.00    -0.550 OA
ENDBRANCH  21  22
ENDBRANCH  20  21
ENDBRANCH  19  20
ENDBRANCH  18  19
ENDBRANCH  17  18
ENDBRANCH  16  17
ENDBRANCH  15  16
ENDBRANCH  14  15
ENDBRANCH  13  14
ENDBRANCH   1  13
TORSDOF 20
ENDMDL
MODEL 4
REMARK VINA RESULT:    -3.313      2.693      5.977
REMARK INTER + INTRA:          -8.667
REMARK INTER:                  -6.959
REMARK INTRA:                  -1.708
REMARK UNBOUND:                -1.480
REMARK SMILES CCCCCCCCCCCCCCCCCCCCCC(=O)[O-]
REMARK SMILES IDX 12 1 11 2 10 3 9 4 8 5 7 6 6 7 5 8 4 9 3 10 2 11 1 12 13 13
REMARK SMILES IDX 14 14 15 15 16 16 17 17 18 18 19 19 20 20 21 21 22 22 23 23
REMARK SMILES IDX 24 24
REMARK H PARENT
REMARK Flexibility Score: inf
ROOT
ATOM      1  C   UNL     1       5.580 -35.111  20.333  1.00  0.00     0.000 C 
ENDROOT
BRANCH   1   2
ATOM      2  C   UNL     1       4.827 -36.398  20.705  1.00  0.00     0.000 C 
BRANCH   2   3
ATOM      3  C   UNL     1       4.940 -37.487  19.622  1.00  0.00     0.000 C 
BRANCH   3   4
ATOM      4  C   UNL     1       4.073 -37.182  18.390  1.00  0.00    -0.000 C 
BRANCH   4   5
ATOM      5  C   UNL     1       2.696 -37.867  18.454  1.00  0.00    -0.000 C 
BRANCH   5   6
ATOM      6  C   UNL     1       1.588 -37.035  17.790  1.00  0.00    -0.000 C 
BRANCH   6   7
ATOM      7  C   UNL     1       2.141 -35.992  16.806  1.00  0.00    -0.000 C 
BRANCH   7   8
ATOM      8  C   UNL     1       1.458 -36.049  15.429  1.00  0.00    -0.000 C 
BRANCH   8   9
ATOM      9  C   UNL     1       2.219 -36.906  14.396  1.00  0.00    -0.000 C 
BRANCH   9  10
ATOM     10  C   UNL     1       3.583 -36.296  14.028  1.00  0.00    -0.000 C 
BRANCH  10  11
ATOM     11  C   UNL     1       4.686 -37.356  13.882  1.00  0.00    -0.003 C 
ATOM     12  C   UNL     1       4.207 -38.761  14.247  1.00  0.00     0.004 C 
ENDBRANCH  10  11
ENDBRANCH   9  10
ENDBRANCH   8   9
ENDBRANCH   7   8
ENDBRANCH   6   7
ENDBRANCH   5   6
ENDBRANCH   4   5
ENDBRANCH   3   4
ENDBRANCH   2   3
ENDBRANCH   1   2
BRANCH   1  13
ATOM     13  C   UNL     1       4.640 -34.001  19.831  1.00  0.00     0.000 C 
BRANCH  13  14
ATOM     14  C   UNL     1       4.090 -33.134  20.973  1.00  0.00     0.000 C 
BRANCH  14  15
ATOM     15  C   UNL     1       4.334 -33.753  22.358  1.00  0.00     0.000 C 
BRANCH  15  16
ATOM     16  C   UNL     1       5.494 -33.050  23.077  1.00  0.00     0.000 C 
BRANCH  16  17
ATOM     17  C   UNL     1       6.097 -33.894  24.216  1.00  0.00     0.000 C 
BRANCH  17  18
ATOM     18  C   UNL     1       6.124 -35.412  23.958  1.00  0.00     0.000 C 
BRANCH  18  19
ATOM     19  C   UNL     1       5.225 -36.201  24.921  1.00  0.00     0.000 C 
BRANCH  19  20
ATOM     20  C   UNL     1       4.544 -37.372  24.201  1.00  0.00     0.006 C 
BRANCH  20  21
ATOM     21  C   UNL     1       5.539 -38.124  23.313  1.00  0.00     0.053 C 
BRANCH  21  22
ATOM     22  C   UNL     1       4.889 -39.324  22.699  1.00  0.00     0.041 C 
ATOM     23  O   UNL     1       3.657 -39.529  22.859  1.00  0.00    -0.550 OA
ATOM     24  O   UNL     1       5.634 -40.189  21.908  1.00  0.00    -0.550 OA
ENDBRANCH  21  22
ENDBRANCH  20  21
ENDBRANCH  19  20
ENDBRANCH  18  19
ENDBRANCH  17  18
ENDBRANCH  16  17
ENDBRANCH  15  16
ENDBRANCH  14  15
ENDBRANCH  13  14
ENDBRANCH   1  13
TORSDOF 20
ENDMDL
MODEL 5
REMARK VINA RESULT:    -3.241      1.529      4.600
REMARK INTER + INTRA:          -8.511
REMARK INTER:                  -6.463
REMARK INTRA:                  -2.048
REMARK UNBOUND:                -1.480
REMARK SMILES CCCCCCCCCCCCCCCCCCCCCC(=O)[O-]
REMARK SMILES IDX 12 1 11 2 10 3 9 4 8 5 7 6 6 7 5 8 4 9 3 10 2 11 1 12 13 13
REMARK SMILES IDX 14 14 15 15 16 16 17 17 18 18 19 19 20 20 21 21 22 22 23 23
REMARK SMILES IDX 24 24
REMARK H PARENT
REMARK Flexibility Score: inf
ROOT
ATOM      1  C   UNL     1       5.995 -35.695  23.949  1.00  0.00     0.000 C 
ENDROOT
BRANCH   1   2
ATOM      2  C   UNL     1       6.063 -34.870  22.655  1.00  0.00     0.000 C 
BRANCH   2   3
ATOM      3  C   UNL     1       5.308 -33.533  22.763  1.00  0.00     0.000 C 
BRANCH   3   4
ATOM      4  C   UNL     1       4.275 -33.347  21.639  1.00  0.00    -0.000 C 
BRANCH   4   5
ATOM      5  C   UNL     1       4.353 -34.460  20.578  1.00  0.00    -0.000 C 
BRANCH   5   6
ATOM      6  C   UNL     1       5.416 -34.182  19.504  1.00  0.00    -0.000 C 
BRANCH   6   7
ATOM      7  C   UNL     1       4.825 -34.130  18.086  1.00  0.00    -0.000 C 
BRANCH   7   8
ATOM      8  C   UNL     1       4.249 -35.482  17.629  1.00  0.00    -0.000 C 
BRANCH   8   9
ATOM      9  C   UNL     1       3.231 -35.363  16.477  1.00  0.00    -0.000 C 
BRANCH   9  10
ATOM     10  C   UNL     1       2.958 -36.720  15.803  1.00  0.00    -0.000 C 
BRANCH  10  11
ATOM     11  C   UNL     1       3.294 -36.714  14.303  1.00  0.00    -0.003 C 
ATOM     12  C   UNL     1       4.216 -37.864  13.900  1.00  0.00     0.004 C 
ENDBRANCH  10  11
ENDBRANCH   9  10
ENDBRANCH   8   9
ENDBRANCH   7   8
ENDBRANCH   6   7
ENDBRANCH   5   6
ENDBRANCH   4   5
ENDBRANCH   3   4
ENDBRANCH   2   3
ENDBRANCH   1   2
BRANCH   1  13
ATOM     13  C   UNL     1       4.558 -36.106  24.313  1.00  0.00     0.000 C 
BRANCH  13  14
ATOM     14  C   UNL     1       4.511 -37.354  25.209  1.00  0.00     0.000 C 
BRANCH  14  15
ATOM     15  C   UNL     1       5.178 -38.575  24.559  1.00  0.00     0.000 C 
BRANCH  15  16
ATOM     16  C   UNL     1       4.358 -39.075  23.360  1.00  0.00     0.000 C 
BRANCH  16  17
ATOM     17  C   UNL     1       5.233 -39.647  22.228  1.00  0.00     0.000 C 
BRANCH  17  18
ATOM     18  C   UNL     1       5.404 -38.724  21.008  1.00  0.00     0.000 C 
BRANCH  18  19
ATOM     19  C   UNL     1       4.300 -37.663  20.898  1.00  0.00     0.000 C 
BRANCH  19  20
ATOM     20  C   UNL     1       3.476 -37.857  19.618  1.00  0.00     0.006 C 
BRANCH  20  21
ATOM     21  C   UNL     1       2.143 -37.108  19.704  1.00  0.00     0.053 C 
BRANCH  21  22
ATOM     22  C   UNL     1       1.113 -37.774  18.848  1.00  0.00     0.041 C 
ATOM     23  O   UNL     1       0.840 -38.992  19.017  1.00  0.00    -0.550 OA
ATOM     24  O   UNL     1       0.417 -37.039  17.898  1.00  0.00    -0.550 OA
ENDBRANCH  21  22
ENDBRANCH  20  21
ENDBRANCH  19  20
ENDBRANCH  18  19
ENDBRANCH  17  18
ENDBRANCH  16  17
ENDBRANCH  15  16
ENDBRANCH  14  15
ENDBRANCH  13  14
ENDBRANCH   1  13
TORSDOF 20
ENDMDL
MODEL 6
REMARK VINA RESULT:    -2.874      3.538      6.466
REMARK INTER + INTRA:          -7.714
REMARK INTER:                  -6.577
REMARK INTRA:                  -1.138
REMARK UNBOUND:                -1.480
REMARK SMILES CCCCCCCCCCCCCCCCCCCCCC(=O)[O-]
REMARK SMILES IDX 12 1 11 2 10 3 9 4 8 5 7 6 6 7 5 8 4 9 3 10 2 11 1 12 13 13
REMARK SMILES IDX 14 14 15 15 16 16 17 17 18 18 19 19 20 20 21 21 22 22 23 23
REMARK SMILES IDX 24 24
REMARK H PARENT
REMARK Flexibility Score: inf
ROOT
ATOM      1  C   UNL     1       4.219 -33.853  22.520  1.00  0.00     0.000 C 
ENDROOT
BRANCH   1   2
ATOM      2  C   UNL     1       4.234 -32.919  21.299  1.00  0.00     0.000 C 
BRANCH   2   3
ATOM      3  C   UNL     1       3.792 -33.627  20.005  1.00  0.00     0.000 C 
BRANCH   3   4
ATOM      4  C   UNL     1       4.979 -33.997  19.102  1.00  0.00    -0.000 C 
BRANCH   4   5
ATOM      5  C   UNL     1       4.671 -35.193  18.184  1.00  0.00    -0.000 C 
BRANCH   5   6
ATOM      6  C   UNL     1       3.629 -36.150  18.784  1.00  0.00    -0.000 C 
BRANCH   6   7
ATOM      7  C   UNL     1       3.198 -37.248  17.799  1.00  0.00    -0.000 C 
BRANCH   7   8
ATOM      8  C   UNL     1       1.833 -36.965  17.149  1.00  0.00    -0.000 C 
BRANCH   8   9
ATOM      9  C   UNL     1       1.929 -36.178  15.826  1.00  0.00    -0.000 C 
BRANCH   9  10
ATOM     10  C   UNL     1       3.335 -36.255  15.206  1.00  0.00    -0.000 C 
BRANCH  10  11
ATOM     11  C   UNL     1       3.392 -37.182  13.981  1.00  0.00    -0.003 C 
ATOM     12  C   UNL     1       4.161 -38.474  14.253  1.00  0.00     0.004 C 
ENDBRANCH  10  11
ENDBRANCH   9  10
ENDBRANCH   8   9
ENDBRANCH   7   8
ENDBRANCH   6   7
ENDBRANCH   5   6
ENDBRANCH   4   5
ENDBRANCH   3   4
ENDBRANCH   2   3
ENDBRANCH   1   2
BRANCH   1  13
ATOM     13  C   UNL     1       5.632 -34.154  23.050  1.00  0.00     0.000 C 
BRANCH  13  14
ATOM     14  C   UNL     1       6.125 -35.554  22.653  1.00  0.00     0.000 C 
BRANCH  14  15
ATOM     15  C   UNL     1       5.032 -36.397  21.980  1.00  0.00     0.000 C 
BRANCH  15  16
ATOM     16  C   UNL     1       5.589 -37.144  20.758  1.00  0.00     0.000 C 
BRANCH  16  17
ATOM     17  C   UNL     1       5.373 -38.667  20.833  1.00  0.00     0.000 C 
BRANCH  17  18
ATOM     18  C   UNL     1       4.385 -39.132  21.918  1.00  0.00     0.000 C 
BRANCH  18  19
ATOM     19  C   UNL     1       5.053 -39.966  23.020  1.00  0.00     0.000 C 
BRANCH  19  20
ATOM     20  C   UNL     1       4.784 -39.363  24.405  1.00  0.00     0.006 C 
BRANCH  20  21
ATOM     21  C   UNL     1       4.397 -37.885  24.294  1.00  0.00     0.053 C 
BRANCH  21  22
ATOM     22  C   UNL     1       4.462 -37.225  25.635  1.00  0.00     0.041 C 
ATOM     23  O   UNL     1       3.707 -37.607  26.568  1.00  0.00    -0.550 OA
ATOM     24  O   UNL     1       5.392 -36.221  25.871  1.00  0.00    -0.550 OA
ENDBRANCH  21  22
ENDBRANCH  20  21
ENDBRANCH  19  20
ENDBRANCH  18  19
ENDBRANCH  17  18
ENDBRANCH  16  17
ENDBRANCH  15  16
ENDBRANCH  14  15
ENDBRANCH  13  14
ENDBRANCH   1  13
TORSDOF 20
ENDMDL
MODEL 7
REMARK VINA RESULT:    -2.840      1.291      4.099
REMARK INTER + INTRA:          -7.641
REMARK INTER:                  -6.067
REMARK INTRA:                  -1.574
REMARK UNBOUND:                -1.480
REMARK SMILES CCCCCCCCCCCCCCCCCCCCCC(=O)[O-]
REMARK SMILES IDX 12 1 11 2 10 3 9 4 8 5 7 6 6 7 5 8 4 9 3 10 2 11 1 12 13 13
REMARK SMILES IDX 14 14 15 15 16 16 17 17 18 18 19 19 20 20 21 21 22 22 23 23
REMARK SMILES IDX 24 24
REMARK H PARENT
REMARK Flexibility Score: inf
ROOT
ATOM      1  C   UNL     1       4.528 -33.147  21.900  1.00  0.00     0.000 C 
ENDROOT
BRANCH   1   2
ATOM      2  C   UNL     1       5.345 -34.187  22.683  1.00  0.00     0.000 C 
BRANCH   2   3
ATOM      3  C   UNL     1       4.792 -35.616  22.528  1.00  0.00     0.000 C 
BRANCH   3   4
ATOM      4  C   UNL     1       5.748 -36.535  21.752  1.00  0.00    -0.000 C 
BRANCH   4   5
ATOM      5  C   UNL     1       5.017 -37.706  21.071  1.00  0.00    -0.000 C 
BRANCH   5   6
ATOM      6  C   UNL     1       5.898 -38.958  20.935  1.00  0.00    -0.000 C 
BRANCH   6   7
ATOM      7  C   UNL     1       5.588 -40.018  22.005  1.00  0.00    -0.000 C 
BRANCH   7   8
ATOM      8  C   UNL     1       4.452 -39.593  22.953  1.00  0.00    -0.000 C 
BRANCH   8   9
ATOM      9  C   UNL     1       4.944 -39.124  24.337  1.00  0.00    -0.000 C 
BRANCH   9  10
ATOM     10  C   UNL     1       4.278 -37.806  24.773  1.00  0.00    -0.000 C 
BRANCH  10  11
ATOM     11  C   UNL     1       5.018 -37.126  25.935  1.00  0.00    -0.003 C 
ATOM     12  C   UNL     1       6.105 -36.162  25.461  1.00  0.00     0.004 C 
ENDBRANCH  10  11
ENDBRANCH   9  10
ENDBRANCH   8   9
ENDBRANCH   7   8
ENDBRANCH   6   7
ENDBRANCH   5   6
ENDBRANCH   4   5
ENDBRANCH   3   4
ENDBRANCH   2   3
ENDBRANCH   1   2
BRANCH   1  13
ATOM     13  C   UNL     1       4.110 -33.652  20.508  1.00  0.00     0.000 C 
BRANCH  13  14
ATOM     14  C   UNL     1       5.314 -33.915  19.590  1.00  0.00     0.000 C 
BRANCH  14  15
ATOM     15  C   UNL     1       5.026 -34.988  18.530  1.00  0.00     0.000 C 
BRANCH  15  16
ATOM     16  C   UNL     1       3.697 -35.701  18.816  1.00  0.00     0.000 C 
BRANCH  16  17
ATOM     17  C   UNL     1       3.602 -37.089  18.153  1.00  0.00     0.000 C 
BRANCH  17  18
ATOM     18  C   UNL     1       2.231 -37.425  17.539  1.00  0.00     0.000 C 
BRANCH  18  19
ATOM     19  C   UNL     1       1.667 -36.291  16.672  1.00  0.00     0.000 C 
BRANCH  19  20
ATOM     20  C   UNL     1       1.724 -36.657  15.183  1.00  0.00     0.006 C 
BRANCH  20  21
ATOM     21  C   UNL     1       3.025 -36.160  14.545  1.00  0.00     0.053 C 
BRANCH  21  22
ATOM     22  C   UNL     1       3.970 -37.299  14.328  1.00  0.00     0.041 C 
ATOM     23  O   UNL     1       5.126 -37.087  13.875  1.00  0.00    -0.550 OA
ATOM     24  O   UNL     1       3.593 -38.591  14.673  1.00  0.00    -0.550 OA
ENDBRANCH  21  22
ENDBRANCH  20  21
ENDBRANCH  19  20
ENDBRANCH  18  19
ENDBRANCH  17  18
ENDBRANCH  16  17
ENDBRANCH  15  16
ENDBRANCH  14  15
ENDBRANCH  13  14
ENDBRANCH   1  13
TORSDOF 20
ENDMDL
MODEL 8
REMARK VINA RESULT:    -2.801      1.173      3.938
REMARK INTER + INTRA:          -7.556
REMARK INTER:                  -7.141
REMARK INTRA:                  -0.415
REMARK UNBOUND:                -1.480
REMARK SMILES CCCCCCCCCCCCCCCCCCCCCC(=O)[O-]
REMARK SMILES IDX 12 1 11 2 10 3 9 4 8 5 7 6 6 7 5 8 4 9 3 10 2 11 1 12 13 13
REMARK SMILES IDX 14 14 15 15 16 16 17 17 18 18 19 19 20 20 21 21 22 22 23 23
REMARK SMILES IDX 24 24
REMARK H PARENT
REMARK Flexibility Score: inf
ROOT
ATOM      1  C   UNL     1       4.629 -39.365  22.805  1.00  0.00     0.000 C 
ENDROOT
BRANCH   1   2
ATOM      2  C   UNL     1       4.992 -39.178  24.286  1.00  0.00     0.000 C 
BRANCH   2   3
ATOM      3  C   UNL     1       3.981 -38.294  25.039  1.00  0.00     0.000 C 
BRANCH   3   4
ATOM      4  C   UNL     1       4.656 -37.131  25.783  1.00  0.00    -0.000 C 
BRANCH   4   5
ATOM      5  C   UNL     1       5.877 -36.576  25.028  1.00  0.00    -0.000 C 
BRANCH   5   6
ATOM      6  C   UNL     1       6.022 -35.053  25.171  1.00  0.00    -0.000 C 
BRANCH   6   7
ATOM      7  C   UNL     1       6.125 -34.339  23.813  1.00  0.00    -0.000 C 
BRANCH   7   8
ATOM      8  C   UNL     1       5.550 -35.174  22.656  1.00  0.00    -0.000 C 
BRANCH   8   9
ATOM      9  C   UNL     1       5.917 -34.630  21.259  1.00  0.00    -0.000 C 
BRANCH   9  10
ATOM     10  C   UNL     1       4.689 -34.080  20.510  1.00  0.00    -0.000 C 
BRANCH  10  11
ATOM     11  C   UNL     1       3.565 -33.641  21.461  1.00  0.00    -0.003 C 
ATOM     12  C   UNL     1       2.991 -32.269  21.104  1.00  0.00     0.004 C 
ENDBRANCH  10  11
ENDBRANCH   9  10
ENDBRANCH   8   9
ENDBRANCH   7   8
ENDBRANCH   6   7
ENDBRANCH   5   6
ENDBRANCH   4   5
ENDBRANCH   3   4
ENDBRANCH   2   3
ENDBRANCH   1   2
BRANCH   1  13
ATOM     13  C   UNL     1       5.316 -38.332  21.894  1.00  0.00     0.000 C 
BRANCH  13  14
ATOM     14  C   UNL     1       5.820 -38.949  20.579  1.00  0.00     0.000 C 
BRANCH  14  15
ATOM     15  C   UNL     1       5.100 -38.382  19.346  1.00  0.00     0.000 C 
BRANCH  15  16
ATOM     16  C   UNL     1       4.340 -37.094  19.698  1.00  0.00     0.000 C 
BRANCH  16  17
ATOM     17  C   UNL     1       3.276 -36.718  18.649  1.00  0.00     0.000 C 
BRANCH  17  18
ATOM     18  C   UNL     1       2.007 -37.591  18.667  1.00  0.00     0.000 C 
BRANCH  18  19
ATOM     19  C   UNL     1       0.970 -37.163  17.619  1.00  0.00     0.000 C 
BRANCH  19  20
ATOM     20  C   UNL     1       1.617 -36.306  16.523  1.00  0.00     0.006 C 
BRANCH  20  21
ATOM     21  C   UNL     1       2.977 -36.878  16.112  1.00  0.00     0.053 C 
BRANCH  21  22
ATOM     22  C   UNL     1       3.085 -36.950  14.621  1.00  0.00     0.041 C 
ATOM     23  O   UNL     1       2.177 -36.466  13.895  1.00  0.00    -0.550 OA
ATOM     24  O   UNL     1       4.213 -37.508  14.032  1.00  0.00    -0.550 OA
ENDBRANCH  21  22
ENDBRANCH  20  21
ENDBRANCH  19  20
ENDBRANCH  18  19
ENDBRANCH  17  18
ENDBRANCH  16  17
ENDBRANCH  15  16
ENDBRANCH  14  15
ENDBRANCH  13  14
ENDBRANCH   1  13
TORSDOF 20
ENDMDL
