MODEL 1
REMARK VINA RESULT:    -4.676      0.000      0.000
REMARK INTER + INTRA:         -15.344
REMARK INTER:                 -11.784
REMARK INTRA:                  -3.560
REMARK UNBOUND:                -3.560
REMARK SMILES CCCCCCCCCCCCCCCCCCCCCCCCCCCC(=O)[O-]
REMARK SMILES IDX 15 1 16 2 17 3 18 4 19 5 20 6 21 7 22 8 23 9 24 10 25 11
REMARK SMILES IDX 26 12 27 13 28 14 29 15 30 16 14 17 13 18 12 19 11 20 10 21
REMARK SMILES IDX 9 22 8 23 7 24 6 25 5 26 4 27 3 28 2 29 1 30
REMARK H PARENT
REMARK Flexibility Score: inf
ROOT
ATOM      1  C   UNL     1      11.616  -5.525  -0.729  1.00  0.00     0.000 C 
ENDROOT
BRANCH   1   2
ATOM      2  C   UNL     1      12.523  -6.159   0.340  1.00  0.00     0.000 C 
BRANCH   2   3
ATOM      3  C   UNL     1      11.979  -7.507   0.842  1.00  0.00     0.000 C 
BRANCH   3   4
ATOM      4  C   UNL     1      11.442  -8.385  -0.298  1.00  0.00     0.000 C 
BRANCH   4   5
ATOM      5  C   UNL     1      12.588  -8.916  -1.172  1.00  0.00     0.000 C 
BRANCH   5   6
ATOM      6  C   UNL     1      12.389  -8.592  -2.667  1.00  0.00     0.000 C 
BRANCH   6   7
ATOM      7  C   UNL     1      10.938  -8.761  -3.161  1.00  0.00     0.000 C 
BRANCH   7   8
ATOM      8  C   UNL     1      10.213  -7.455  -3.526  1.00  0.00     0.000 C 
BRANCH   8   9
ATOM      9  C   UNL     1       8.732  -7.458  -3.119  1.00  0.00     0.000 C 
BRANCH   9  10
ATOM     10  C   UNL     1       8.488  -6.507  -1.938  1.00  0.00     0.000 C 
BRANCH  10  11
ATOM     11  C   UNL     1       7.902  -5.151  -2.370  1.00  0.00     0.000 C 
BRANCH  11  12
ATOM     12  C   UNL     1       7.071  -5.177  -3.669  1.00  0.00     0.006 C 
BRANCH  12  13
ATOM     13  C   UNL     1       5.777  -4.350  -3.617  1.00  0.00     0.053 C 
BRANCH  13  14
ATOM     14  C   UNL     1       4.718  -4.906  -4.519  1.00  0.00     0.041 C 
ATOM     15  O   UNL     1       4.268  -6.067  -4.324  1.00  0.00    -0.550 OA
ATOM     16  O   UNL     1       4.255  -4.159  -5.596  1.00  0.00    -0.550 OA
ENDBRANCH  13  14
ENDBRANCH  12  13
ENDBRANCH  11  12
ENDBRANCH  10  11
ENDBRANCH   9  10
ENDBRANCH   8   9
ENDBRANCH   7   8
ENDBRANCH   6   7
ENDBRANCH   5   6
ENDBRANCH   4   5
ENDBRANCH   3   4
ENDBRANCH   2   3
ENDBRANCH   1   2
BRANCH   1  17
ATOM     17  C   UNL     1      10.880  -4.272  -0.223  1.00  0.00     0.000 C 
BRANCH  17  18
ATOM     18  C   UNL     1      11.788  -3.084   0.149  1.00  0.00     0.000 C 
BRANCH  18  19
ATOM     19  C   UNL     1      11.004  -1.876   0.689  1.00  0.00     0.000 C 
BRANCH  19  20
ATOM     20  C   UNL     1      11.576  -0.533   0.201  1.00  0.00     0.000 C 
BRANCH  20  21
ATOM     21  C   UNL     1      11.313   0.652   1.149  1.00  0.00     0.000 C 
BRANCH  21  22
ATOM     22  C   UNL     1      10.766   0.205   2.515  1.00  0.00    -0.000 C 
BRANCH  22  23
ATOM     23  C   UNL     1      11.515   0.841   3.701  1.00  0.00    -0.000 C 
BRANCH  23  24
ATOM     24  C   UNL     1      12.673   0.003   4.279  1.00  0.00    -0.000 C 
BRANCH  24  25
ATOM     25  C   UNL     1      12.651  -1.460   3.806  1.00  0.00    -0.000 C 
BRANCH  25  26
ATOM     26  C   UNL     1      13.972  -1.891   3.150  1.00  0.00    -0.000 C 
BRANCH  26  27
ATOM     27  C   UNL     1      14.623  -0.767   2.324  1.00  0.00    -0.000 C 
BRANCH  27  28
ATOM     28  C   UNL     1      15.029  -1.243   0.913  1.00  0.00    -0.000 C 
BRANCH  28  29
ATOM     29  C   UNL     1      15.284  -0.089  -0.073  1.00  0.00    -0.003 C 
ATOM     30  C   UNL     1      15.000  -0.469  -1.524  1.00  0.00     0.004 C 
ENDBRANCH  28  29
ENDBRANCH  27  28
ENDBRANCH  26  27
ENDBRANCH  25  26
ENDBRANCH  24  25
ENDBRANCH  23  24
ENDBRANCH  22  23
ENDBRANCH  21  22
ENDBRANCH  20  21
ENDBRANCH  19  20
ENDBRANCH  18  19
ENDBRANCH  17  18
ENDBRANCH   1  17
TORSDOF 26
ENDMDL
MODEL 2
REMARK VINA RESULT:    -4.606      3.012      4.419
REMARK INTER + INTRA:         -15.168
REMARK INTER:                 -11.723
REMARK INTRA:                  -3.445
REMARK UNBOUND:                -3.560
REMARK SMILES CCCCCCCCCCCCCCCCCCCCCCCCCCCC(=O)[O-]
REMARK SMILES IDX 15 1 16 2 17 3 18 4 19 5 20 6 21 7 22 8 23 9 24 10 25 11
REMARK SMILES IDX 26 12 27 13 28 14 29 15 30 16 14 17 13 18 12 19 11 20 10 21
REMARK SMILES IDX 9 22 8 23 7 24 6 25 5 26 4 27 3 28 2 29 1 30
REMARK H PARENT
REMARK Flexibility Score: inf
ROOT
ATOM      1  C   UNL     1       8.970  -4.167  -0.187  1.00  0.00     0.000 C 
ENDROOT
BRANCH   1   2
ATOM      2  C   UNL     1       8.473  -5.003  -1.379  1.00  0.00     0.000 C 
BRANCH   2   3
ATOM      3  C   UNL     1       9.328  -6.261  -1.606  1.00  0.00     0.000 C 
BRANCH   3   4
ATOM      4  C   UNL     1       8.519  -7.420  -2.207  1.00  0.00     0.000 C 
BRANCH   4   5
ATOM      5  C   UNL     1       9.156  -7.919  -3.512  1.00  0.00     0.000 C 
BRANCH   5   6
ATOM      6  C   UNL     1       8.237  -7.714  -4.734  1.00  0.00     0.000 C 
BRANCH   6   7
ATOM      7  C   UNL     1       7.465  -6.379  -4.726  1.00  0.00     0.000 C 
BRANCH   7   8
ATOM      8  C   UNL     1       8.213  -5.186  -5.343  1.00  0.00     0.000 C 
BRANCH   8   9
ATOM      9  C   UNL     1       8.836  -5.511  -6.709  1.00  0.00     0.000 C 
BRANCH   9  10
ATOM     10  C   UNL     1      10.360  -5.336  -6.670  1.00  0.00     0.000 C 
BRANCH  10  11
ATOM     11  C   UNL     1      11.095  -6.244  -7.673  1.00  0.00     0.000 C 
BRANCH  11  12
ATOM     12  C   UNL     1      12.262  -7.064  -7.085  1.00  0.00     0.006 C 
BRANCH  12  13
ATOM     13  C   UNL     1      11.834  -8.184  -6.123  1.00  0.00     0.053 C 
BRANCH  13  14
ATOM     14  C   UNL     1      12.627  -8.165  -4.852  1.00  0.00     0.041 C 
ATOM     15  O   UNL     1      12.527  -7.191  -4.059  1.00  0.00    -0.550 OA
ATOM     16  O   UNL     1      13.505  -9.203  -4.561  1.00  0.00    -0.550 OA
ENDBRANCH  13  14
ENDBRANCH  12  13
ENDBRANCH  11  12
ENDBRANCH  10  11
ENDBRANCH   9  10
ENDBRANCH   8   9
ENDBRANCH   7   8
ENDBRANCH   6   7
ENDBRANCH   5   6
ENDBRANCH   4   5
ENDBRANCH   3   4
ENDBRANCH   2   3
ENDBRANCH   1   2
BRANCH   1  17
ATOM     17  C   UNL     1      10.474  -3.848  -0.264  1.00  0.00     0.000 C 
BRANCH  17  18
ATOM     18  C   UNL     1      10.913  -2.578   0.489  1.00  0.00     0.000 C 
BRANCH  18  19
ATOM     19  C   UNL     1      12.293  -2.065   0.043  1.00  0.00     0.000 C 
BRANCH  19  20
ATOM     20  C   UNL     1      12.360  -0.529  -0.022  1.00  0.00     0.000 C 
BRANCH  20  21
ATOM     21  C   UNL     1      11.290   0.191   0.820  1.00  0.00     0.000 C 
BRANCH  21  22
ATOM     22  C   UNL     1      11.859   0.778   2.123  1.00  0.00    -0.000 C 
BRANCH  22  23
ATOM     23  C   UNL     1      11.375   0.034   3.381  1.00  0.00    -0.000 C 
BRANCH  23  24
ATOM     24  C   UNL     1      12.478  -0.657   4.207  1.00  0.00    -0.000 C 
BRANCH  24  25
ATOM     25  C   UNL     1      12.955  -1.980   3.586  1.00  0.00    -0.000 C 
BRANCH  25  26
ATOM     26  C   UNL     1      14.482  -2.146   3.648  1.00  0.00    -0.000 C 
BRANCH  26  27
ATOM     27  C   UNL     1      15.165  -1.904   2.290  1.00  0.00    -0.000 C 
BRANCH  27  28
ATOM     28  C   UNL     1      15.830  -0.513   2.214  1.00  0.00    -0.000 C 
BRANCH  28  29
ATOM     29  C   UNL     1      15.785   0.111   0.809  1.00  0.00    -0.003 C 
ATOM     30  C   UNL     1      16.069  -0.897  -0.303  1.00  0.00     0.004 C 
ENDBRANCH  28  29
ENDBRANCH  27  28
ENDBRANCH  26  27
ENDBRANCH  25  26
ENDBRANCH  24  25
ENDBRANCH  23  24
ENDBRANCH  22  23
ENDBRANCH  21  22
ENDBRANCH  20  21
ENDBRANCH  19  20
ENDBRANCH  18  19
ENDBRANCH  17  18
ENDBRANCH   1  17
TORSDOF 26
ENDMDL
MODEL 3
REMARK VINA RESULT:    -4.571      2.123      3.327
REMARK INTER + INTRA:         -15.079
REMARK INTER:                 -11.787
REMARK INTRA:                  -3.292
REMARK UNBOUND:                -3.560
REMARK SMILES CCCCCCCCCCCCCCCCCCCCCCCCCCCC(=O)[O-]
REMARK SMILES IDX 15 1 16 2 17 3 18 4 19 5 20 6 21 7 22 8 23 9 24 10 25 11
REMARK SMILES IDX 26 12 27 13 28 14 29 15 30 16 14 17 13 18 12 19 11 20 10 21
REMARK SMILES IDX 9 22 8 23 7 24 6 25 5 26 4 27 3 28 2 29 1 30
REMARK H PARENT
REMARK Flexibility Score: inf
ROOT
ATOM      1  C   UNL     1      11.307  -3.174   0.102  1.00  0.00     0.000 C 
ENDROOT
BRANCH   1   2
ATOM      2  C   UNL     1      10.044  -3.973  -0.262  1.00  0.00     0.000 C 
BRANCH   2   3
ATOM      3  C   UNL     1      10.359  -5.437  -0.610  1.00  0.00     0.000 C 
BRANCH   3   4
ATOM      4  C   UNL     1       9.158  -6.164  -1.234  1.00  0.00     0.000 C 
BRANCH   4   5
ATOM      5  C   UNL     1       9.223  -7.673  -0.957  1.00  0.00     0.000 C 
BRANCH   5   6
ATOM      6  C   UNL     1       9.126  -8.515  -2.246  1.00  0.00     0.000 C 
BRANCH   6   7
ATOM      7  C   UNL     1      10.437  -9.231  -2.631  1.00  0.00     0.000 C 
BRANCH   7   8
ATOM      8  C   UNL     1      11.717  -8.399  -2.444  1.00  0.00     0.000 C 
BRANCH   8   9
ATOM      9  C   UNL     1      11.885  -7.309  -3.512  1.00  0.00     0.000 C 
BRANCH   9  10
ATOM     10  C   UNL     1      12.742  -7.816  -4.681  1.00  0.00     0.000 C 
BRANCH  10  11
ATOM     11  C   UNL     1      11.915  -8.124  -5.943  1.00  0.00     0.000 C 
BRANCH  11  12
ATOM     12  C   UNL     1      10.460  -7.613  -5.916  1.00  0.00     0.006 C 
BRANCH  12  13
ATOM     13  C   UNL     1      10.233  -6.292  -6.669  1.00  0.00     0.053 C 
BRANCH  13  14
ATOM     14  C   UNL     1       9.189  -5.443  -6.010  1.00  0.00     0.041 C 
ATOM     15  O   UNL     1       8.932  -4.294  -6.461  1.00  0.00    -0.550 OA
ATOM     16  O   UNL     1       8.529  -5.901  -4.876  1.00  0.00    -0.550 OA
ENDBRANCH  13  14
ENDBRANCH  12  13
ENDBRANCH  11  12
ENDBRANCH  10  11
ENDBRANCH   9  10
ENDBRANCH   8   9
ENDBRANCH   7   8
ENDBRANCH   6   7
ENDBRANCH   5   6
ENDBRANCH   4   5
ENDBRANCH   3   4
ENDBRANCH   2   3
ENDBRANCH   1   2
BRANCH   1  17
ATOM     17  C   UNL     1      11.000  -1.912   0.928  1.00  0.00     0.000 C 
BRANCH  17  18
ATOM     18  C   UNL     1      11.634  -0.612   0.398  1.00  0.00     0.000 C 
BRANCH  18  19
ATOM     19  C   UNL     1      11.253   0.623   1.232  1.00  0.00     0.000 C 
BRANCH  19  20
ATOM     20  C   UNL     1      10.613   0.251   2.582  1.00  0.00     0.000 C 
BRANCH  20  21
ATOM     21  C   UNL     1      11.268   0.923   3.804  1.00  0.00     0.000 C 
BRANCH  21  22
ATOM     22  C   UNL     1      12.172  -0.040   4.594  1.00  0.00    -0.000 C 
BRANCH  22  23
ATOM     23  C   UNL     1      13.594  -0.144   4.013  1.00  0.00    -0.000 C 
BRANCH  23  24
ATOM     24  C   UNL     1      14.283  -1.512   4.191  1.00  0.00    -0.000 C 
BRANCH  24  25
ATOM     25  C   UNL     1      13.833  -2.551   3.150  1.00  0.00    -0.000 C 
BRANCH  25  26
ATOM     26  C   UNL     1      14.921  -2.856   2.109  1.00  0.00    -0.000 C 
BRANCH  26  27
ATOM     27  C   UNL     1      14.819  -1.965   0.858  1.00  0.00    -0.000 C 
BRANCH  27  28
ATOM     28  C   UNL     1      15.711  -0.709   0.965  1.00  0.00    -0.000 C 
BRANCH  28  29
ATOM     29  C   UNL     1      15.646   0.195  -0.278  1.00  0.00    -0.003 C 
ATOM     30  C   UNL     1      14.879  -0.437  -1.438  1.00  0.00     0.004 C 
ENDBRANCH  28  29
ENDBRANCH  27  28
ENDBRANCH  26  27
ENDBRANCH  25  26
ENDBRANCH  24  25
ENDBRANCH  23  24
ENDBRANCH  22  23
ENDBRANCH  21  22
ENDBRANCH  20  21
ENDBRANCH  19  20
ENDBRANCH  18  19
ENDBRANCH  17  18
ENDBRANCH   1  17
TORSDOF 26
ENDMDL
MODEL 4
REMARK VINA RESULT:    -4.565      2.749      4.450
REMARK INTER + INTRA:         -15.064
REMARK INTER:                 -11.574
REMARK INTRA:                  -3.490
REMARK UNBOUND:                -3.560
REMARK SMILES CCCCCCCCCCCCCCCCCCCCCCCCCCCC(=O)[O-]
REMARK SMILES IDX 15 1 16 2 17 3 18 4 19 5 20 6 21 7 22 8 23 9 24 10 25 11
REMARK SMILES IDX 26 12 27 13 28 14 29 15 30 16 14 17 13 18 12 19 11 20 10 21
REMARK SMILES IDX 9 22 8 23 7 24 6 25 5 26 4 27 3 28 2 29 1 30
REMARK H PARENT
REMARK Flexibility Score: inf
ROOT
ATOM      1  C   UNL     1      11.225  -3.331  -0.013  1.00  0.00     0.000 C 
ENDROOT
BRANCH   1   2
ATOM      2  C   UNL     1       9.932  -4.129  -0.257  1.00  0.00     0.000 C 
BRANCH   2   3
ATOM      3  C   UNL     1      10.206  -5.512  -0.869  1.00  0.00     0.000 C 
BRANCH   3   4
ATOM      4  C   UNL     1       8.922  -6.215  -1.331  1.00  0.00     0.000 C 
BRANCH   4   5
ATOM      5  C   UNL     1       8.232  -5.423  -2.452  1.00  0.00     0.000 C 
BRANCH   5   6
ATOM      6  C   UNL     1       7.570  -6.340  -3.502  1.00  0.00     0.000 C 
BRANCH   6   7
ATOM      7  C   UNL     1       8.569  -7.062  -4.428  1.00  0.00     0.000 C 
BRANCH   7   8
ATOM      8  C   UNL     1       9.162  -6.196  -5.553  1.00  0.00     0.000 C 
BRANCH   8   9
ATOM      9  C   UNL     1      10.251  -6.922  -6.356  1.00  0.00     0.000 C 
BRANCH   9  10
ATOM     10  C   UNL     1      11.650  -6.499  -5.886  1.00  0.00     0.000 C 
BRANCH  10  11
ATOM     11  C   UNL     1      12.357  -7.581  -5.050  1.00  0.00     0.000 C 
BRANCH  11  12
ATOM     12  C   UNL     1      12.190  -7.445  -3.523  1.00  0.00     0.006 C 
BRANCH  12  13
ATOM     13  C   UNL     1      11.502  -8.641  -2.846  1.00  0.00     0.053 C 
BRANCH  13  14
ATOM     14  C   UNL     1      11.813  -8.714  -1.382  1.00  0.00     0.041 C 
ATOM     15  O   UNL     1      11.141  -9.468  -0.630  1.00  0.00    -0.550 OA
ATOM     16  O   UNL     1      12.819  -7.920  -0.842  1.00  0.00    -0.550 OA
ENDBRANCH  13  14
ENDBRANCH  12  13
ENDBRANCH  11  12
ENDBRANCH  10  11
ENDBRANCH   9  10
ENDBRANCH   8   9
ENDBRANCH   7   8
ENDBRANCH   6   7
ENDBRANCH   5   6
ENDBRANCH   4   5
ENDBRANCH   3   4
ENDBRANCH   2   3
ENDBRANCH   1   2
BRANCH   1  17
ATOM     17  C   UNL     1      11.002  -2.084   0.862  1.00  0.00     0.000 C 
BRANCH  17  18
ATOM     18  C   UNL     1      11.561  -0.771   0.284  1.00  0.00     0.000 C 
BRANCH  18  19
ATOM     19  C   UNL     1      11.257   0.450   1.168  1.00  0.00     0.000 C 
BRANCH  19  20
ATOM     20  C   UNL     1      10.539   0.069   2.476  1.00  0.00     0.000 C 
BRANCH  20  21
ATOM     21  C   UNL     1      10.906   0.952   3.684  1.00  0.00     0.000 C 
BRANCH  21  22
ATOM     22  C   UNL     1      12.179   0.471   4.401  1.00  0.00    -0.000 C 
BRANCH  22  23
ATOM     23  C   UNL     1      12.399  -1.049   4.285  1.00  0.00    -0.000 C 
BRANCH  23  24
ATOM     24  C   UNL     1      13.817  -1.483   3.864  1.00  0.00    -0.000 C 
BRANCH  24  25
ATOM     25  C   UNL     1      13.836  -2.819   3.103  1.00  0.00    -0.000 C 
BRANCH  25  26
ATOM     26  C   UNL     1      14.556  -2.719   1.749  1.00  0.00    -0.000 C 
BRANCH  26  27
ATOM     27  C   UNL     1      15.177  -1.332   1.503  1.00  0.00    -0.000 C 
BRANCH  27  28
ATOM     28  C   UNL     1      15.044  -0.889   0.030  1.00  0.00    -0.000 C 
BRANCH  28  29
ATOM     29  C   UNL     1      15.995   0.258  -0.352  1.00  0.00    -0.003 C 
ATOM     30  C   UNL     1      16.778   0.808   0.838  1.00  0.00     0.004 C 
ENDBRANCH  28  29
ENDBRANCH  27  28
ENDBRANCH  26  27
ENDBRANCH  25  26
ENDBRANCH  24  25
ENDBRANCH  23  24
ENDBRANCH  22  23
ENDBRANCH  21  22
ENDBRANCH  20  21
ENDBRANCH  19  20
ENDBRANCH  18  19
ENDBRANCH  17  18
ENDBRANCH   1  17
TORSDOF 26
ENDMDL
MODEL 5
REMARK VINA RESULT:    -4.520      3.423      6.162
REMARK INTER + INTRA:         -14.950
REMARK INTER:                 -10.834
REMARK INTRA:                  -4.116
REMARK UNBOUND:                -3.560
REMARK SMILES CCCCCCCCCCCCCCCCCCCCCCCCCCCC(=O)[O-]
REMARK SMILES IDX 15 1 16 2 17 3 18 4 19 5 20 6 21 7 22 8 23 9 24 10 25 11
REMARK SMILES IDX 26 12 27 13 28 14 29 15 30 16 14 17 13 18 12 19 11 20 10 21
REMARK SMILES IDX 9 22 8 23 7 24 6 25 5 26 4 27 3 28 2 29 1 30
REMARK H PARENT
REMARK Flexibility Score: inf
ROOT
ATOM      1  C   UNL     1      10.601   0.642   3.693  1.00  0.00     0.000 C 
ENDROOT
BRANCH   1   2
ATOM      2  C   UNL     1      10.349   0.193   2.244  1.00  0.00     0.000 C 
BRANCH   2   3
ATOM      3  C   UNL     1       9.409  -1.021   2.164  1.00  0.00     0.000 C 
BRANCH   3   4
ATOM      4  C   UNL     1      10.113  -2.275   1.626  1.00  0.00     0.000 C 
BRANCH   4   5
ATOM      5  C   UNL     1       9.142  -3.152   0.822  1.00  0.00     0.000 C 
BRANCH   5   6
ATOM      6  C   UNL     1       9.864  -4.027  -0.224  1.00  0.00     0.000 C 
BRANCH   6   7
ATOM      7  C   UNL     1       8.942  -5.023  -0.957  1.00  0.00     0.000 C 
BRANCH   7   8
ATOM      8  C   UNL     1       9.391  -6.493  -0.902  1.00  0.00     0.000 C 
BRANCH   8   9
ATOM      9  C   UNL     1       9.855  -7.028  -2.265  1.00  0.00     0.000 C 
BRANCH   9  10
ATOM     10  C   UNL     1      11.385  -7.145  -2.314  1.00  0.00     0.000 C 
BRANCH  10  11
ATOM     11  C   UNL     1      11.967  -7.928  -1.123  1.00  0.00     0.000 C 
BRANCH  11  12
ATOM     12  C   UNL     1      13.065  -7.192  -0.328  1.00  0.00     0.006 C 
BRANCH  12  13
ATOM     13  C   UNL     1      12.657  -6.786   1.097  1.00  0.00     0.053 C 
BRANCH  13  14
ATOM     14  C   UNL     1      12.678  -7.949   2.042  1.00  0.00     0.041 C 
ATOM     15  O   UNL     1      11.609  -8.346   2.578  1.00  0.00    -0.550 OA
ATOM     16  O   UNL     1      13.881  -8.569   2.359  1.00  0.00    -0.550 OA
ENDBRANCH  13  14
ENDBRANCH  12  13
ENDBRANCH  11  12
ENDBRANCH  10  11
ENDBRANCH   9  10
ENDBRANCH   8   9
ENDBRANCH   7   8
ENDBRANCH   6   7
ENDBRANCH   5   6
ENDBRANCH   4   5
ENDBRANCH   3   4
ENDBRANCH   2   3
ENDBRANCH   1   2
BRANCH   1  17
ATOM     17  C   UNL     1      12.069   0.473   4.126  1.00  0.00     0.000 C 
BRANCH  17  18
ATOM     18  C   UNL     1      12.942  -0.356   3.165  1.00  0.00     0.000 C 
BRANCH  18  19
ATOM     19  C   UNL     1      13.174  -1.795   3.657  1.00  0.00     0.000 C 
BRANCH  19  20
ATOM     20  C   UNL     1      13.759  -2.707   2.563  1.00  0.00     0.000 C 
BRANCH  20  21
ATOM     21  C   UNL     1      15.275  -2.951   2.682  1.00  0.00     0.000 C 
BRANCH  21  22
ATOM     22  C   UNL     1      15.875  -2.330   3.955  1.00  0.00    -0.000 C 
BRANCH  22  23
ATOM     23  C   UNL     1      16.925  -1.243   3.659  1.00  0.00    -0.000 C 
BRANCH  23  24
ATOM     24  C   UNL     1      16.386   0.200   3.599  1.00  0.00    -0.000 C 
BRANCH  24  25
ATOM     25  C   UNL     1      16.492   0.823   2.197  1.00  0.00    -0.000 C 
BRANCH  25  26
ATOM     26  C   UNL     1      17.284  -0.056   1.217  1.00  0.00    -0.000 C 
BRANCH  26  27
ATOM     27  C   UNL     1      16.437  -0.533   0.023  1.00  0.00    -0.000 C 
BRANCH  27  28
ATOM     28  C   UNL     1      15.031   0.102   0.018  1.00  0.00    -0.000 C 
BRANCH  28  29
ATOM     29  C   UNL     1      14.086  -0.512  -1.030  1.00  0.00    -0.003 C 
ATOM     30  C   UNL     1      12.736  -0.927  -0.448  1.00  0.00     0.004 C 
ENDBRANCH  28  29
ENDBRANCH  27  28
ENDBRANCH  26  27
ENDBRANCH  25  26
ENDBRANCH  24  25
ENDBRANCH  23  24
ENDBRANCH  22  23
ENDBRANCH  21  22
ENDBRANCH  20  21
ENDBRANCH  19  20
ENDBRANCH  18  19
ENDBRANCH  17  18
ENDBRANCH   1  17
TORSDOF 26
ENDMDL
MODEL 6
REMARK VINA RESULT:    -4.516      2.380      4.639
REMARK INTER + INTRA:         -14.939
REMARK INTER:                 -11.476
REMARK INTRA:                  -3.463
REMARK UNBOUND:                -3.560
REMARK SMILES CCCCCCCCCCCCCCCCCCCCCCCCCCCC(=O)[O-]
REMARK SMILES IDX 15 1 16 2 17 3 18 4 19 5 20 6 21 7 22 8 23 9 24 10 25 11
REMARK SMILES IDX 26 12 27 13 28 14 29 15 30 16 14 17 13 18 12 19 11 20 10 21
REMARK SMILES IDX 9 22 8 23 7 24 6 25 5 26 4 27 3 28 2 29 1 30
REMARK H PARENT
REMARK Flexibility Score: inf
ROOT
ATOM      1  C   UNL     1      14.476  -2.820   2.680  1.00  0.00     0.000 C 
ENDROOT
BRANCH   1   2
ATOM      2  C   UNL     1      14.814  -4.037   1.802  1.00  0.00     0.000 C 
BRANCH   2   3
ATOM      3  C   UNL     1      13.558  -4.807   1.362  1.00  0.00     0.000 C 
BRANCH   3   4
ATOM      4  C   UNL     1      13.866  -6.261   0.975  1.00  0.00     0.000 C 
BRANCH   4   5
ATOM      5  C   UNL     1      12.639  -6.935   0.343  1.00  0.00     0.000 C 
BRANCH   5   6
ATOM      6  C   UNL     1      11.768  -5.945  -0.457  1.00  0.00     0.000 C 
BRANCH   6   7
ATOM      7  C   UNL     1      10.261  -6.270  -0.434  1.00  0.00     0.000 C 
BRANCH   7   8
ATOM      8  C   UNL     1       9.326  -5.053  -0.536  1.00  0.00     0.000 C 
BRANCH   8   9
ATOM      9  C   UNL     1       8.324  -5.163  -1.694  1.00  0.00     0.000 C 
BRANCH   9  10
ATOM     10  C   UNL     1       8.390  -6.552  -2.345  1.00  0.00     0.000 C 
BRANCH  10  11
ATOM     11  C   UNL     1       8.406  -6.495  -3.883  1.00  0.00     0.000 C 
BRANCH  11  12
ATOM     12  C   UNL     1       9.620  -7.171  -4.553  1.00  0.00     0.006 C 
BRANCH  12  13
ATOM     13  C   UNL     1       9.629  -7.092  -6.088  1.00  0.00     0.053 C 
BRANCH  13  14
ATOM     14  C   UNL     1      10.671  -6.143  -6.595  1.00  0.00     0.041 C 
ATOM     15  O   UNL     1      10.409  -4.916  -6.705  1.00  0.00    -0.550 OA
ATOM     16  O   UNL     1      11.919  -6.619  -6.985  1.00  0.00    -0.550 OA
ENDBRANCH  13  14
ENDBRANCH  12  13
ENDBRANCH  11  12
ENDBRANCH  10  11
ENDBRANCH   9  10
ENDBRANCH   8   9
ENDBRANCH   7   8
ENDBRANCH   6   7
ENDBRANCH   5   6
ENDBRANCH   4   5
ENDBRANCH   3   4
ENDBRANCH   2   3
ENDBRANCH   1   2
BRANCH   1  17
ATOM     17  C   UNL     1      15.728  -2.082   3.188  1.00  0.00     0.000 C 
BRANCH  17  18
ATOM     18  C   UNL     1      16.395  -1.145   2.164  1.00  0.00     0.000 C 
BRANCH  18  19
ATOM     19  C   UNL     1      15.408  -0.148   1.532  1.00  0.00     0.000 C 
BRANCH  19  20
ATOM     20  C   UNL     1      15.686   0.093   0.037  1.00  0.00     0.000 C 
BRANCH  20  21
ATOM     21  C   UNL     1      14.655  -0.546  -0.912  1.00  0.00     0.000 C 
BRANCH  21  22
ATOM     22  C   UNL     1      13.232  -0.541  -0.328  1.00  0.00    -0.000 C 
BRANCH  22  23
ATOM     23  C   UNL     1      12.646  -1.955  -0.155  1.00  0.00    -0.000 C 
BRANCH  23  24
ATOM     24  C   UNL     1      11.161  -2.011   0.253  1.00  0.00    -0.000 C 
BRANCH  24  25
ATOM     25  C   UNL     1      10.953  -1.973   1.776  1.00  0.00    -0.000 C 
BRANCH  25  26
ATOM     26  C   UNL     1      10.161  -0.738   2.235  1.00  0.00    -0.000 C 
BRANCH  26  27
ATOM     27  C   UNL     1      11.022   0.536   2.297  1.00  0.00    -0.000 C 
BRANCH  27  28
ATOM     28  C   UNL     1      12.355   0.301   3.041  1.00  0.00    -0.000 C 
BRANCH  28  29
ATOM     29  C   UNL     1      12.233   0.426   4.570  1.00  0.00    -0.003 C 
ATOM     30  C   UNL     1      11.225   1.488   5.004  1.00  0.00     0.004 C 
ENDBRANCH  28  29
ENDBRANCH  27  28
ENDBRANCH  26  27
ENDBRANCH  25  26
ENDBRANCH  24  25
ENDBRANCH  23  24
ENDBRANCH  22  23
ENDBRANCH  21  22
ENDBRANCH  20  21
ENDBRANCH  19  20
ENDBRANCH  18  19
ENDBRANCH  17  18
ENDBRANCH   1  17
TORSDOF 26
ENDMDL
MODEL 7
REMARK VINA RESULT:    -4.495      2.241      3.668
REMARK INTER + INTRA:         -14.886
REMARK INTER:                 -11.464
REMARK INTRA:                  -3.422
REMARK UNBOUND:                -3.560
REMARK SMILES CCCCCCCCCCCCCCCCCCCCCCCCCCCC(=O)[O-]
REMARK SMILES IDX 15 1 16 2 17 3 18 4 19 5 20 6 21 7 22 8 23 9 24 10 25 11
REMARK SMILES IDX 26 12 27 13 28 14 29 15 30 16 14 17 13 18 12 19 11 20 10 21
REMARK SMILES IDX 9 22 8 23 7 24 6 25 5 26 4 27 3 28 2 29 1 30
REMARK H PARENT
REMARK Flexibility Score: inf
ROOT
ATOM      1  C   UNL     1      15.002  -4.536   1.621  1.00  0.00     0.000 C 
ENDROOT
BRANCH   1   2
ATOM      2  C   UNL     1      13.575  -5.003   1.284  1.00  0.00     0.000 C 
BRANCH   2   3
ATOM      3  C   UNL     1      13.530  -6.480   0.855  1.00  0.00     0.000 C 
BRANCH   3   4
ATOM      4  C   UNL     1      12.558  -6.724  -0.308  1.00  0.00     0.000 C 
BRANCH   4   5
ATOM      5  C   UNL     1      11.540  -5.580  -0.425  1.00  0.00     0.000 C 
BRANCH   5   6
ATOM      6  C   UNL     1      10.100  -6.092  -0.643  1.00  0.00     0.000 C 
BRANCH   6   7
ATOM      7  C   UNL     1       9.040  -4.975  -0.723  1.00  0.00     0.000 C 
BRANCH   7   8
ATOM      8  C   UNL     1       8.249  -4.915  -2.041  1.00  0.00     0.000 C 
BRANCH   8   9
ATOM      9  C   UNL     1       8.356  -6.208  -2.862  1.00  0.00     0.000 C 
BRANCH   9  10
ATOM     10  C   UNL     1       7.078  -6.445  -3.678  1.00  0.00     0.000 C 
BRANCH  10  11
ATOM     11  C   UNL     1       6.675  -5.230  -4.532  1.00  0.00     0.000 C 
BRANCH  11  12
ATOM     12  C   UNL     1       6.670  -5.470  -6.056  1.00  0.00     0.006 C 
BRANCH  12  13
ATOM     13  C   UNL     1       7.940  -4.998  -6.781  1.00  0.00     0.053 C 
BRANCH  13  14
ATOM     14  C   UNL     1       9.008  -6.050  -6.786  1.00  0.00     0.041 C 
ATOM     15  O   UNL     1       8.742  -7.219  -7.174  1.00  0.00    -0.550 OA
ATOM     16  O   UNL     1      10.286  -5.750  -6.326  1.00  0.00    -0.550 OA
ENDBRANCH  13  14
ENDBRANCH  12  13
ENDBRANCH  11  12
ENDBRANCH  10  11
ENDBRANCH   9  10
ENDBRANCH   8   9
ENDBRANCH   7   8
ENDBRANCH   6   7
ENDBRANCH   5   6
ENDBRANCH   4   5
ENDBRANCH   3   4
ENDBRANCH   2   3
ENDBRANCH   1   2
BRANCH   1  17
ATOM     17  C   UNL     1      15.103  -3.012   1.809  1.00  0.00     0.000 C 
BRANCH  17  18
ATOM     18  C   UNL     1      15.713  -2.557   3.149  1.00  0.00     0.000 C 
BRANCH  18  19
ATOM     19  C   UNL     1      14.652  -2.301   4.233  1.00  0.00     0.000 C 
BRANCH  19  20
ATOM     20  C   UNL     1      13.947  -0.943   4.062  1.00  0.00     0.000 C 
BRANCH  20  21
ATOM     21  C   UNL     1      12.408  -1.017   4.092  1.00  0.00     0.000 C 
BRANCH  21  22
ATOM     22  C   UNL     1      11.748   0.069   3.226  1.00  0.00    -0.000 C 
BRANCH  22  23
ATOM     23  C   UNL     1      10.958  -0.507   2.036  1.00  0.00    -0.000 C 
BRANCH  23  24
ATOM     24  C   UNL     1      11.480  -1.847   1.481  1.00  0.00    -0.000 C 
BRANCH  24  25
ATOM     25  C   UNL     1      12.133  -1.712   0.096  1.00  0.00    -0.000 C 
BRANCH  25  26
ATOM     26  C   UNL     1      13.087  -0.510   0.007  1.00  0.00    -0.000 C 
BRANCH  26  27
ATOM     27  C   UNL     1      13.992  -0.556  -1.237  1.00  0.00    -0.000 C 
BRANCH  27  28
ATOM     28  C   UNL     1      15.487  -0.435  -0.874  1.00  0.00    -0.000 C 
BRANCH  28  29
ATOM     29  C   UNL     1      15.735   0.280   0.466  1.00  0.00    -0.003 C 
ATOM     30  C   UNL     1      17.194   0.222   0.914  1.00  0.00     0.004 C 
ENDBRANCH  28  29
ENDBRANCH  27  28
ENDBRANCH  26  27
ENDBRANCH  25  26
ENDBRANCH  24  25
ENDBRANCH  23  24
ENDBRANCH  22  23
ENDBRANCH  21  22
ENDBRANCH  20  21
ENDBRANCH  19  20
ENDBRANCH  18  19
ENDBRANCH  17  18
ENDBRANCH   1  17
TORSDOF 26
ENDMDL
MODEL 8
REMARK VINA RESULT:    -4.482      4.562      9.604
REMARK INTER + INTRA:         -14.854
REMARK INTER:                 -11.095
REMARK INTRA:                  -3.759
REMARK UNBOUND:                -3.560
REMARK SMILES CCCCCCCCCCCCCCCCCCCCCCCCCCCC(=O)[O-]
REMARK SMILES IDX 15 1 16 2 17 3 18 4 19 5 20 6 21 7 22 8 23 9 24 10 25 11
REMARK SMILES IDX 26 12 27 13 28 14 29 15 30 16 14 17 13 18 12 19 11 20 10 21
REMARK SMILES IDX 9 22 8 23 7 24 6 25 5 26 4 27 3 28 2 29 1 30
REMARK H PARENT
REMARK Flexibility Score: inf
ROOT
ATOM      1  C   UNL     1      13.556  -0.666   3.889  1.00  0.00     0.000 C 
ENDROOT
BRANCH   1   2
ATOM      2  C   UNL     1      12.301  -0.060   4.542  1.00  0.00     0.000 C 
BRANCH   2   3
ATOM      3  C   UNL     1      11.563   0.908   3.602  1.00  0.00     0.000 C 
BRANCH   3   4
ATOM      4  C   UNL     1      10.299   0.285   2.993  1.00  0.00     0.000 C 
BRANCH   4   5
ATOM      5  C   UNL     1      10.471   0.053   1.484  1.00  0.00     0.000 C 
BRANCH   5   6
ATOM      6  C   UNL     1      10.854  -1.405   1.151  1.00  0.00     0.000 C 
BRANCH   6   7
ATOM      7  C   UNL     1      11.930  -1.538   0.055  1.00  0.00     0.000 C 
BRANCH   7   8
ATOM      8  C   UNL     1      12.914  -0.360  -0.044  1.00  0.00     0.000 C 
BRANCH   8   9
ATOM      9  C   UNL     1      14.014  -0.585  -1.092  1.00  0.00     0.000 C 
BRANCH   9  10
ATOM     10  C   UNL     1      15.389  -0.718  -0.423  1.00  0.00     0.000 C 
BRANCH  10  11
ATOM     11  C   UNL     1      15.504   0.092   0.881  1.00  0.00     0.000 C 
BRANCH  11  12
ATOM     12  C   UNL     1      16.939   0.487   1.285  1.00  0.00     0.006 C 
BRANCH  12  13
ATOM     13  C   UNL     1      17.088   0.949   2.744  1.00  0.00     0.053 C 
BRANCH  13  14
ATOM     14  C   UNL     1      17.298  -0.202   3.679  1.00  0.00     0.041 C 
ATOM     15  O   UNL     1      17.875  -1.247   3.275  1.00  0.00    -0.550 OA
ATOM     16  O   UNL     1      16.823  -0.138   4.984  1.00  0.00    -0.550 OA
ENDBRANCH  13  14
ENDBRANCH  12  13
ENDBRANCH  11  12
ENDBRANCH  10  11
ENDBRANCH   9  10
ENDBRANCH   8   9
ENDBRANCH   7   8
ENDBRANCH   6   7
ENDBRANCH   5   6
ENDBRANCH   4   5
ENDBRANCH   3   4
ENDBRANCH   2   3
ENDBRANCH   1   2
BRANCH   1  17
ATOM     17  C   UNL     1      13.461  -2.193   3.715  1.00  0.00     0.000 C 
BRANCH  17  18
ATOM     18  C   UNL     1      14.642  -2.840   2.966  1.00  0.00     0.000 C 
BRANCH  18  19
ATOM     19  C   UNL     1      14.211  -3.552   1.672  1.00  0.00     0.000 C 
BRANCH  19  20
ATOM     20  C   UNL     1      14.582  -5.046   1.668  1.00  0.00     0.000 C 
BRANCH  20  21
ATOM     21  C   UNL     1      13.533  -5.959   1.004  1.00  0.00     0.000 C 
BRANCH  21  22
ATOM     22  C   UNL     1      13.792  -7.451   1.277  1.00  0.00    -0.000 C 
BRANCH  22  23
ATOM     23  C   UNL     1      12.498  -8.280   1.374  1.00  0.00    -0.000 C 
BRANCH  23  24
ATOM     24  C   UNL     1      11.264  -7.664   0.684  1.00  0.00    -0.000 C 
BRANCH  24  25
ATOM     25  C   UNL     1      10.642  -8.590  -0.374  1.00  0.00    -0.000 C 
BRANCH  25  26
ATOM     26  C   UNL     1      11.043  -8.204  -1.807  1.00  0.00    -0.000 C 
BRANCH  26  27
ATOM     27  C   UNL     1      10.092  -7.171  -2.436  1.00  0.00    -0.000 C 
BRANCH  27  28
ATOM     28  C   UNL     1       8.908  -6.829  -1.507  1.00  0.00    -0.000 C 
BRANCH  28  29
ATOM     29  C   UNL     1       8.632  -5.319  -1.397  1.00  0.00    -0.003 C 
ATOM     30  C   UNL     1       9.542  -4.617  -0.391  1.00  0.00     0.004 C 
ENDBRANCH  28  29
ENDBRANCH  27  28
ENDBRANCH  26  27
ENDBRANCH  25  26
ENDBRANCH  24  25
ENDBRANCH  23  24
ENDBRANCH  22  23
ENDBRANCH  21  22
ENDBRANCH  20  21
ENDBRANCH  19  20
ENDBRANCH  18  19
ENDBRANCH  17  18
ENDBRANCH   1  17
TORSDOF 26
ENDMDL
MODEL 9
REMARK VINA RESULT:    -4.468      6.467      9.472
REMARK INTER + INTRA:         -14.819
REMARK INTER:                 -10.694
REMARK INTRA:                  -4.125
REMARK UNBOUND:                -3.560
REMARK SMILES CCCCCCCCCCCCCCCCCCCCCCCCCCCC(=O)[O-]
REMARK SMILES IDX 15 1 16 2 17 3 18 4 19 5 20 6 21 7 22 8 23 9 24 10 25 11
REMARK SMILES IDX 26 12 27 13 28 14 29 15 30 16 14 17 13 18 12 19 11 20 10 21
REMARK SMILES IDX 9 22 8 23 7 24 6 25 5 26 4 27 3 28 2 29 1 30
REMARK H PARENT
REMARK Flexibility Score: inf
ROOT
ATOM      1  C   UNL     1      13.130  -0.547   0.245  1.00  0.00     0.000 C 
ENDROOT
BRANCH   1   2
ATOM      2  C   UNL     1      12.271  -1.811   0.426  1.00  0.00     0.000 C 
BRANCH   2   3
ATOM      3  C   UNL     1      10.856  -1.487   0.935  1.00  0.00     0.000 C 
BRANCH   3   4
ATOM      4  C   UNL     1      10.686  -0.004   1.294  1.00  0.00     0.000 C 
BRANCH   4   5
ATOM      5  C   UNL     1      10.453   0.175   2.802  1.00  0.00     0.000 C 
BRANCH   5   6
ATOM      6  C   UNL     1      11.584   0.974   3.483  1.00  0.00     0.000 C 
BRANCH   6   7
ATOM      7  C   UNL     1      12.357   0.183   4.558  1.00  0.00     0.000 C 
BRANCH   7   8
ATOM      8  C   UNL     1      12.675  -1.277   4.194  1.00  0.00     0.000 C 
BRANCH   8   9
ATOM      9  C   UNL     1      14.168  -1.517   3.931  1.00  0.00     0.000 C 
BRANCH   9  10
ATOM     10  C   UNL     1      14.374  -2.722   3.002  1.00  0.00     0.000 C 
BRANCH  10  11
ATOM     11  C   UNL     1      15.855  -2.984   2.676  1.00  0.00     0.000 C 
BRANCH  11  12
ATOM     12  C   UNL     1      16.867  -2.223   3.557  1.00  0.00     0.006 C 
BRANCH  12  13
ATOM     13  C   UNL     1      17.496  -3.064   4.680  1.00  0.00     0.053 C 
BRANCH  13  14
ATOM     14  C   UNL     1      16.949  -2.701   6.027  1.00  0.00     0.041 C 
ATOM     15  O   UNL     1      16.546  -3.603   6.809  1.00  0.00    -0.550 OA
ATOM     16  O   UNL     1      16.849  -1.366   6.404  1.00  0.00    -0.550 OA
ENDBRANCH  13  14
ENDBRANCH  12  13
ENDBRANCH  11  12
ENDBRANCH  10  11
ENDBRANCH   9  10
ENDBRANCH   8   9
ENDBRANCH   7   8
ENDBRANCH   6   7
ENDBRANCH   5   6
ENDBRANCH   4   5
ENDBRANCH   3   4
ENDBRANCH   2   3
ENDBRANCH   1   2
BRANCH   1  17
ATOM     17  C   UNL     1      13.844  -0.500  -1.118  1.00  0.00     0.000 C 
BRANCH  17  18
ATOM     18  C   UNL     1      15.360  -0.233  -1.053  1.00  0.00     0.000 C 
BRANCH  18  19
ATOM     19  C   UNL     1      15.848   0.101   0.367  1.00  0.00     0.000 C 
BRANCH  19  20
ATOM     20  C   UNL     1      17.380   0.029   0.498  1.00  0.00     0.000 C 
BRANCH  20  21
ATOM     21  C   UNL     1      17.949   0.769   1.723  1.00  0.00     0.000 C 
BRANCH  21  22
ATOM     22  C   UNL     1      16.852   1.422   2.581  1.00  0.00    -0.000 C 
BRANCH  22  23
ATOM     23  C   UNL     1      17.293   1.673   4.035  1.00  0.00    -0.000 C 
BRANCH  23  24
ATOM     24  C   UNL     1      17.612   3.139   4.387  1.00  0.00    -0.000 C 
BRANCH  24  25
ATOM     25  C   UNL     1      18.916   3.641   3.746  1.00  0.00    -0.000 C 
BRANCH  25  26
ATOM     26  C   UNL     1      18.720   4.935   2.940  1.00  0.00    -0.000 C 
BRANCH  26  27
ATOM     27  C   UNL     1      17.554   4.845   1.940  1.00  0.00    -0.000 C 
BRANCH  27  28
ATOM     28  C   UNL     1      18.012   4.335   0.557  1.00  0.00    -0.000 C 
BRANCH  28  29
ATOM     29  C   UNL     1      17.219   4.943  -0.613  1.00  0.00    -0.003 C 
ATOM     30  C   UNL     1      18.067   5.851  -1.502  1.00  0.00     0.004 C 
ENDBRANCH  28  29
ENDBRANCH  27  28
ENDBRANCH  26  27
ENDBRANCH  25  26
ENDBRANCH  24  25
ENDBRANCH  23  24
ENDBRANCH  22  23
ENDBRANCH  21  22
ENDBRANCH  20  21
ENDBRANCH  19  20
ENDBRANCH  18  19
ENDBRANCH  17  18
ENDBRANCH   1  17
TORSDOF 26
ENDMDL
