MODEL 1
REMARK VINA RESULT:    -6.640      0.000      0.000
REMARK INTER + INTRA:          -7.686
REMARK INTER:                  -7.804
REMARK INTRA:                   0.118
REMARK UNBOUND:                 0.118
REMARK SMILES O=c1c(O)c(-c2ccc(O)cc2)oc2cc(O)cc(O)c12
REMARK SMILES IDX 5 1 3 2 2 3 1 4 21 5 19 6 18 7 16 8 15 9 14 10 13 11 6 12
REMARK SMILES IDX 7 13 8 14 9 15 12 16 11 17 10 18 4 20 20 22 17 24
REMARK H PARENT 10 19 4 21 20 23 17 25
REMARK Flexibility Score: inf
ROOT
ATOM      1  C   UNL     1       9.985  -2.726  19.116  1.00  0.00     0.180 A 
ATOM      2  C   UNL     1      11.211  -2.220  18.650  1.00  0.00     0.208 A 
ATOM      3  C   UNL     1      11.361  -0.833  18.493  1.00  0.00     0.238 A 
ATOM      4  O   UNL     1      12.484  -0.383  18.148  1.00  0.00    -0.285 OA
ATOM      5  C   UNL     1      10.266   0.028  18.749  1.00  0.00     0.111 A 
ATOM      6  C   UNL     1      10.290   1.446  18.581  1.00  0.00     0.134 A 
ATOM      7  C   UNL     1       9.180   2.206  18.968  1.00  0.00     0.093 A 
ATOM      8  C   UNL     1       8.025   1.598  19.455  1.00  0.00     0.123 A 
ATOM      9  C   UNL     1       7.969   0.208  19.572  1.00  0.00     0.094 A 
ATOM     10  C   UNL     1       9.075  -0.575  19.232  1.00  0.00     0.146 A 
ATOM     11  O   UNL     1       8.987  -1.891  19.379  1.00  0.00    -0.452 OA
ENDROOT
BRANCH   1  12
ATOM     12  C   UNL     1       9.756  -4.174  19.321  1.00  0.00     0.021 A 
ATOM     13  C   UNL     1       8.518  -4.735  18.966  1.00  0.00     0.016 A 
ATOM     14  C   UNL     1       8.272  -6.096  19.171  1.00  0.00     0.047 A 
ATOM     15  C   UNL     1       9.251  -6.909  19.748  1.00  0.00     0.115 A 
ATOM     16  C   UNL     1      10.731  -4.994  19.920  1.00  0.00     0.016 A 
ATOM     17  C   UNL     1      10.481  -6.354  20.125  1.00  0.00     0.047 A 
BRANCH  15  18
ATOM     18  O   UNL     1       8.992  -8.263  19.946  1.00  0.00    -0.508 OA
ATOM     19  H   UNL     1       9.651  -8.864  20.429  1.00  0.00     0.293 HD
ENDBRANCH  15  18
ENDBRANCH   1  12
BRANCH   2  20
ATOM     20  O   UNL     1      12.255  -3.092  18.330  1.00  0.00    -0.502 OA
ATOM     21  H   UNL     1      12.095  -4.018  17.952  1.00  0.00     0.293 HD
ENDBRANCH   2  20
BRANCH   6  22
ATOM     22  O   UNL     1      11.361   2.149  18.019  1.00  0.00    -0.507 OA
ATOM     23  H   UNL     1      12.280   1.770  17.858  1.00  0.00     0.293 HD
ENDBRANCH   6  22
BRANCH   8  24
ATOM     24  O   UNL     1       6.932   2.385  19.813  1.00  0.00    -0.508 OA
ATOM     25  H   UNL     1       6.080   1.975  20.177  1.00  0.00     0.293 HD
ENDBRANCH   8  24
TORSDOF 5
ENDMDL
MODEL 2
REMARK VINA RESULT:    -6.016      1.348      3.148
REMARK INTER + INTRA:          -6.953
REMARK INTER:                  -7.393
REMARK INTRA:                   0.440
REMARK UNBOUND:                 0.118
REMARK SMILES O=c1c(O)c(-c2ccc(O)cc2)oc2cc(O)cc(O)c12
REMARK SMILES IDX 5 1 3 2 2 3 1 4 21 5 19 6 18 7 16 8 15 9 14 10 13 11 6 12
REMARK SMILES IDX 7 13 8 14 9 15 12 16 11 17 10 18 4 20 20 22 17 24
REMARK H PARENT 10 19 4 21 20 23 17 25
REMARK Flexibility Score: inf
ROOT
ATOM      1  C   UNL     1       8.637  -2.809  19.246  1.00  0.00     0.180 A 
ATOM      2  C   UNL     1       7.341  -2.292  19.078  1.00  0.00     0.208 A 
ATOM      3  C   UNL     1       7.181  -0.918  18.836  1.00  0.00     0.238 A 
ATOM      4  O   UNL     1       6.025  -0.476  18.612  1.00  0.00    -0.285 OA
ATOM      5  C   UNL     1       8.314  -0.068  18.821  1.00  0.00     0.111 A 
ATOM      6  C   UNL     1       8.267   1.346  18.630  1.00  0.00     0.134 A 
ATOM      7  C   UNL     1       9.461   2.069  18.527  1.00  0.00     0.093 A 
ATOM      8  C   UNL     1      10.697   1.443  18.673  1.00  0.00     0.123 A 
ATOM      9  C   UNL     1      10.755   0.070  18.916  1.00  0.00     0.094 A 
ATOM     10  C   UNL     1       9.582  -0.686  18.983  1.00  0.00     0.146 A 
ATOM     11  O   UNL     1       9.682  -1.993  19.194  1.00  0.00    -0.452 OA
ENDROOT
BRANCH   1  12
ATOM     12  C   UNL     1       8.886  -4.248  19.490  1.00  0.00     0.021 A 
ATOM     13  C   UNL     1      10.161  -4.667  19.905  1.00  0.00     0.016 A 
ATOM     14  C   UNL     1      10.425  -6.023  20.120  1.00  0.00     0.047 A 
ATOM     15  C   UNL     1       9.426  -6.977  19.907  1.00  0.00     0.115 A 
ATOM     16  C   UNL     1       7.891  -5.215  19.258  1.00  0.00     0.016 A 
ATOM     17  C   UNL     1       8.158  -6.570  19.472  1.00  0.00     0.047 A 
BRANCH  15  18
ATOM     18  O   UNL     1       9.704  -8.325  20.125  1.00  0.00    -0.508 OA
ATOM     19  H   UNL     1       9.045  -9.050  19.865  1.00  0.00     0.293 HD
ENDBRANCH  15  18
ENDBRANCH   1  12
BRANCH   2  20
ATOM     20  O   UNL     1       6.230  -3.134  19.172  1.00  0.00    -0.502 OA
ATOM     21  H   UNL     1       6.249  -4.097  18.858  1.00  0.00     0.293 HD
ENDBRANCH   2  20
BRANCH   6  22
ATOM     22  O   UNL     1       7.083   2.088  18.560  1.00  0.00    -0.507 OA
ATOM     23  H   UNL     1       6.264   1.924  19.124  1.00  0.00     0.293 HD
ENDBRANCH   6  22
BRANCH   8  24
ATOM     24  O   UNL     1      11.865   2.197  18.583  1.00  0.00    -0.508 OA
ATOM     25  H   UNL     1      12.543   2.217  19.336  1.00  0.00     0.293 HD
ENDBRANCH   8  24
TORSDOF 5
ENDMDL
MODEL 3
REMARK VINA RESULT:    -5.851      2.898      5.137
REMARK INTER + INTRA:          -6.759
REMARK INTER:                  -7.209
REMARK INTRA:                   0.450
REMARK UNBOUND:                 0.118
REMARK SMILES O=c1c(O)c(-c2ccc(O)cc2)oc2cc(O)cc(O)c12
REMARK SMILES IDX 5 1 3 2 2 3 1 4 21 5 19 6 18 7 16 8 15 9 14 10 13 11 6 12
REMARK SMILES IDX 7 13 8 14 9 15 12 16 11 17 10 18 4 20 20 22 17 24
REMARK H PARENT 10 19 4 21 20 23 17 25
REMARK Flexibility Score: inf
ROOT
ATOM      1  C   UNL     1      10.834  -4.400  19.580  1.00  0.00     0.180 A 
ATOM      2  C   UNL     1      10.755  -3.058  19.168  1.00  0.00     0.208 A 
ATOM      3  C   UNL     1      11.940  -2.320  19.020  1.00  0.00     0.238 A 
ATOM      4  O   UNL     1      11.866  -1.144  18.579  1.00  0.00    -0.285 OA
ATOM      5  C   UNL     1      13.185  -2.914  19.341  1.00  0.00     0.111 A 
ATOM      6  C   UNL     1      14.445  -2.246  19.272  1.00  0.00     0.134 A 
ATOM      7  C   UNL     1      15.622  -2.966  19.510  1.00  0.00     0.093 A 
ATOM      8  C   UNL     1      15.582  -4.310  19.877  1.00  0.00     0.123 A 
ATOM      9  C   UNL     1      14.354  -4.959  20.002  1.00  0.00     0.094 A 
ATOM     10  C   UNL     1      13.164  -4.278  19.732  1.00  0.00     0.146 A 
ATOM     11  O   UNL     1      12.018  -4.939  19.842  1.00  0.00    -0.452 OA
ENDROOT
BRANCH   1  12
ATOM     12  C   UNL     1       9.630  -5.247  19.744  1.00  0.00     0.021 A 
ATOM     13  C   UNL     1       9.768  -6.644  19.779  1.00  0.00     0.016 A 
ATOM     14  C   UNL     1       8.643  -7.464  19.910  1.00  0.00     0.047 A 
ATOM     15  C   UNL     1       7.367  -6.899  19.993  1.00  0.00     0.115 A 
ATOM     16  C   UNL     1       8.341  -4.685  19.808  1.00  0.00     0.016 A 
ATOM     17  C   UNL     1       7.218  -5.507  19.939  1.00  0.00     0.047 A 
BRANCH  15  18
ATOM     18  O   UNL     1       6.255  -7.728  20.124  1.00  0.00    -0.508 OA
ATOM     19  H   UNL     1       6.332  -8.663  20.506  1.00  0.00     0.293 HD
ENDBRANCH  15  18
ENDBRANCH   1  12
BRANCH   2  20
ATOM     20  O   UNL     1       9.511  -2.468  18.930  1.00  0.00    -0.502 OA
ATOM     21  H   UNL     1       9.405  -1.478  18.741  1.00  0.00     0.293 HD
ENDBRANCH   2  20
BRANCH   6  22
ATOM     22  O   UNL     1      14.595  -0.882  19.001  1.00  0.00    -0.507 OA
ATOM     23  H   UNL     1      15.247  -0.493  18.338  1.00  0.00     0.293 HD
ENDBRANCH   6  22
BRANCH   8  24
ATOM     24  O   UNL     1      16.773  -4.990  20.124  1.00  0.00    -0.508 OA
ATOM     25  H   UNL     1      17.320  -5.393  19.372  1.00  0.00     0.293 HD
ENDBRANCH   8  24
TORSDOF 5
ENDMDL
MODEL 4
REMARK VINA RESULT:    -5.653      1.991      2.912
REMARK INTER + INTRA:          -6.526
REMARK INTER:                  -7.021
REMARK INTRA:                   0.494
REMARK UNBOUND:                 0.118
REMARK SMILES O=c1c(O)c(-c2ccc(O)cc2)oc2cc(O)cc(O)c12
REMARK SMILES IDX 5 1 3 2 2 3 1 4 21 5 19 6 18 7 16 8 15 9 14 10 13 11 6 12
REMARK SMILES IDX 7 13 8 14 9 15 12 16 11 17 10 18 4 20 20 22 17 24
REMARK H PARENT 10 19 4 21 20 23 17 25
REMARK Flexibility Score: inf
ROOT
ATOM      1  C   UNL     1      10.606  -3.983  19.613  1.00  0.00     0.180 A 
ATOM      2  C   UNL     1      11.963  -4.333  19.711  1.00  0.00     0.208 A 
ATOM      3  C   UNL     1      12.936  -3.324  19.626  1.00  0.00     0.238 A 
ATOM      4  O   UNL     1      14.143  -3.634  19.790  1.00  0.00    -0.285 OA
ATOM      5  C   UNL     1      12.542  -1.984  19.386  1.00  0.00     0.111 A 
ATOM      6  C   UNL     1      13.443  -0.887  19.237  1.00  0.00     0.134 A 
ATOM      7  C   UNL     1      12.935   0.412  19.110  1.00  0.00     0.093 A 
ATOM      8  C   UNL     1      11.562   0.646  19.062  1.00  0.00     0.123 A 
ATOM      9  C   UNL     1      10.672  -0.424  19.151  1.00  0.00     0.094 A 
ATOM     10  C   UNL     1      11.148  -1.727  19.319  1.00  0.00     0.146 A 
ATOM     11  O   UNL     1      10.266  -2.714  19.421  1.00  0.00    -0.452 OA
ENDROOT
BRANCH   1  12
ATOM     12  C   UNL     1       9.523  -4.989  19.708  1.00  0.00     0.021 A 
ATOM     13  C   UNL     1       8.187  -4.561  19.777  1.00  0.00     0.016 A 
ATOM     14  C   UNL     1       7.150  -5.492  19.890  1.00  0.00     0.047 A 
ATOM     15  C   UNL     1       7.435  -6.859  19.951  1.00  0.00     0.115 A 
ATOM     16  C   UNL     1       9.805  -6.365  19.789  1.00  0.00     0.016 A 
ATOM     17  C   UNL     1       8.766  -7.294  19.903  1.00  0.00     0.047 A 
BRANCH  15  18
ATOM     18  O   UNL     1       6.392  -7.775  20.063  1.00  0.00    -0.508 OA
ATOM     19  H   UNL     1       6.238  -8.491  19.362  1.00  0.00     0.293 HD
ENDBRANCH  15  18
ENDBRANCH   1  12
BRANCH   2  20
ATOM     20  O   UNL     1      12.335  -5.671  19.871  1.00  0.00    -0.502 OA
ATOM     21  H   UNL     1      12.972  -6.138  19.237  1.00  0.00     0.293 HD
ENDBRANCH   2  20
BRANCH   6  22
ATOM     22  O   UNL     1      14.835  -1.019  19.182  1.00  0.00    -0.507 OA
ATOM     23  H   UNL     1      15.328  -1.889  19.061  1.00  0.00     0.293 HD
ENDBRANCH   6  22
BRANCH   8  24
ATOM     24  O   UNL     1      11.093   1.950  18.917  1.00  0.00    -0.508 OA
ATOM     25  H   UNL     1      10.258   2.269  19.394  1.00  0.00     0.293 HD
ENDBRANCH   8  24
TORSDOF 5
ENDMDL
MODEL 5
REMARK VINA RESULT:    -5.495      2.174      3.564
REMARK INTER + INTRA:          -6.341
REMARK INTER:                  -6.350
REMARK INTRA:                   0.009
REMARK UNBOUND:                 0.118
REMARK SMILES O=c1c(O)c(-c2ccc(O)cc2)oc2cc(O)cc(O)c12
REMARK SMILES IDX 5 1 3 2 2 3 1 4 21 5 19 6 18 7 16 8 15 9 14 10 13 11 6 12
REMARK SMILES IDX 7 13 8 14 9 15 12 16 11 17 10 18 4 20 20 22 17 24
REMARK H PARENT 10 19 4 21 20 23 17 25
REMARK Flexibility Score: inf
ROOT
ATOM      1  C   UNL     1      10.399  -2.359  19.070  1.00  0.00     0.180 A 
ATOM      2  C   UNL     1       9.207  -2.850  18.510  1.00  0.00     0.208 A 
ATOM      3  C   UNL     1       8.125  -1.973  18.332  1.00  0.00     0.238 A 
ATOM      4  O   UNL     1       7.089  -2.401  17.762  1.00  0.00    -0.285 OA
ATOM      5  C   UNL     1       8.228  -0.630  18.770  1.00  0.00     0.111 A 
ATOM      6  C   UNL     1       7.180   0.336  18.681  1.00  0.00     0.134 A 
ATOM      7  C   UNL     1       7.432   1.664  19.047  1.00  0.00     0.093 A 
ATOM      8  C   UNL     1       8.670   2.048  19.557  1.00  0.00     0.123 A 
ATOM      9  C   UNL     1       9.685   1.101  19.701  1.00  0.00     0.094 A 
ATOM     10  C   UNL     1       9.477  -0.223  19.307  1.00  0.00     0.146 A 
ATOM     11  O   UNL     1      10.477  -1.087  19.440  1.00  0.00    -0.452 OA
ENDROOT
BRANCH   1  12
ATOM     12  C   UNL     1      11.587  -3.219  19.275  1.00  0.00     0.021 A 
ATOM     13  C   UNL     1      12.820  -2.838  18.720  1.00  0.00     0.016 A 
ATOM     14  C   UNL     1      13.950  -3.646  18.881  1.00  0.00     0.047 A 
ATOM     15  C   UNL     1      13.858  -4.850  19.585  1.00  0.00     0.115 A 
ATOM     16  C   UNL     1      11.497  -4.442  19.965  1.00  0.00     0.016 A 
ATOM     17  C   UNL     1      12.629  -5.248  20.124  1.00  0.00     0.047 A 
BRANCH  15  18
ATOM     18  O   UNL     1      14.992  -5.645  19.738  1.00  0.00    -0.508 OA
ATOM     19  H   UNL     1      14.969  -6.503  20.277  1.00  0.00     0.293 HD
ENDBRANCH  15  18
ENDBRANCH   1  12
BRANCH   2  20
ATOM     20  O   UNL     1       9.100  -4.198  18.156  1.00  0.00    -0.502 OA
ATOM     21  H   UNL     1       8.257  -4.589  17.753  1.00  0.00     0.293 HD
ENDBRANCH   2  20
BRANCH   6  22
ATOM     22  O   UNL     1       5.876   0.041  18.268  1.00  0.00    -0.507 OA
ATOM     23  H   UNL     1       5.138  -0.284  18.873  1.00  0.00     0.293 HD
ENDBRANCH   6  22
BRANCH   8  24
ATOM     24  O   UNL     1       8.879   3.374  19.929  1.00  0.00    -0.508 OA
ATOM     25  H   UNL     1       9.124   3.627  20.879  1.00  0.00     0.293 HD
ENDBRANCH   8  24
TORSDOF 5
ENDMDL
MODEL 6
REMARK VINA RESULT:    -5.367      4.479      6.766
REMARK INTER + INTRA:          -6.190
REMARK INTER:                  -6.524
REMARK INTRA:                   0.334
REMARK UNBOUND:                 0.118
REMARK SMILES O=c1c(O)c(-c2ccc(O)cc2)oc2cc(O)cc(O)c12
REMARK SMILES IDX 5 1 3 2 2 3 1 4 21 5 19 6 18 7 16 8 15 9 14 10 13 11 6 12
REMARK SMILES IDX 7 13 8 14 9 15 12 16 11 17 10 18 4 20 20 22 17 24
REMARK H PARENT 10 19 4 21 20 23 17 25
REMARK Flexibility Score: inf
ROOT
ATOM      1  C   UNL     1      14.902  -2.996  19.156  1.00  0.00     0.180 A 
ATOM      2  C   UNL     1      14.322  -4.203  19.584  1.00  0.00     0.208 A 
ATOM      3  C   UNL     1      12.929  -4.356  19.505  1.00  0.00     0.238 A 
ATOM      4  O   UNL     1      12.425  -5.465  19.818  1.00  0.00    -0.285 OA
ATOM      5  C   UNL     1      12.126  -3.280  19.054  1.00  0.00     0.111 A 
ATOM      6  C   UNL     1      10.700  -3.307  18.976  1.00  0.00     0.134 A 
ATOM      7  C   UNL     1      10.019  -2.220  18.412  1.00  0.00     0.093 A 
ATOM      8  C   UNL     1      10.704  -1.084  17.985  1.00  0.00     0.123 A 
ATOM      9  C   UNL     1      12.092  -1.024  18.108  1.00  0.00     0.094 A 
ATOM     10  C   UNL     1      12.804  -2.107  18.628  1.00  0.00     0.146 A 
ATOM     11  O   UNL     1      14.126  -2.017  18.708  1.00  0.00    -0.452 OA
ENDROOT
BRANCH   1  12
ATOM     12  C   UNL     1      16.364  -2.766  19.195  1.00  0.00     0.021 A 
ATOM     13  C   UNL     1      16.954  -1.913  18.248  1.00  0.00     0.016 A 
ATOM     14  C   UNL     1      18.336  -1.699  18.252  1.00  0.00     0.047 A 
ATOM     15  C   UNL     1      19.145  -2.345  19.190  1.00  0.00     0.115 A 
ATOM     16  C   UNL     1      17.186  -3.429  20.124  1.00  0.00     0.016 A 
ATOM     17  C   UNL     1      18.568  -3.213  20.125  1.00  0.00     0.047 A 
BRANCH  15  18
ATOM     18  O   UNL     1      20.520  -2.122  19.182  1.00  0.00    -0.508 OA
ATOM     19  H   UNL     1      21.174  -2.850  18.920  1.00  0.00     0.293 HD
ENDBRANCH  15  18
ENDBRANCH   1  12
BRANCH   2  20
ATOM     20  O   UNL     1      15.125  -5.225  20.097  1.00  0.00    -0.502 OA
ATOM     21  H   UNL     1      15.919  -5.044  20.699  1.00  0.00     0.293 HD
ENDBRANCH   2  20
BRANCH   6  22
ATOM     22  O   UNL     1       9.909  -4.356  19.455  1.00  0.00    -0.507 OA
ATOM     23  H   UNL     1       8.906  -4.402  19.383  1.00  0.00     0.293 HD
ENDBRANCH   6  22
BRANCH   8  24
ATOM     24  O   UNL     1       9.991  -0.015  17.447  1.00  0.00    -0.508 OA
ATOM     25  H   UNL     1      10.386   0.917  17.403  1.00  0.00     0.293 HD
ENDBRANCH   8  24
TORSDOF 5
ENDMDL
MODEL 7
REMARK VINA RESULT:    -5.336      2.586      5.237
REMARK INTER + INTRA:          -6.154
REMARK INTER:                  -5.998
REMARK INTRA:                  -0.156
REMARK UNBOUND:                 0.118
REMARK SMILES O=c1c(O)c(-c2ccc(O)cc2)oc2cc(O)cc(O)c12
REMARK SMILES IDX 5 1 3 2 2 3 1 4 21 5 19 6 18 7 16 8 15 9 14 10 13 11 6 12
REMARK SMILES IDX 7 13 8 14 9 15 12 16 11 17 10 18 4 20 20 22 17 24
REMARK H PARENT 10 19 4 21 20 23 17 25
REMARK Flexibility Score: inf
ROOT
ATOM      1  C   UNL     1      10.923  -2.171  18.700  1.00  0.00     0.180 A 
ATOM      2  C   UNL     1      10.279  -1.052  18.145  1.00  0.00     0.208 A 
ATOM      3  C   UNL     1       8.877  -1.033  18.082  1.00  0.00     0.238 A 
ATOM      4  O   UNL     1       8.306   0.002  17.654  1.00  0.00    -0.285 OA
ATOM      5  C   UNL     1       8.137  -2.158  18.523  1.00  0.00     0.111 A 
ATOM      6  C   UNL     1       6.714  -2.268  18.465  1.00  0.00     0.134 A 
ATOM      7  C   UNL     1       6.085  -3.384  19.029  1.00  0.00     0.093 A 
ATOM      8  C   UNL     1       6.826  -4.423  19.589  1.00  0.00     0.123 A 
ATOM      9  C   UNL     1       8.220  -4.352  19.602  1.00  0.00     0.094 A 
ATOM     10  C   UNL     1       8.875  -3.233  19.083  1.00  0.00     0.146 A 
ATOM     11  O   UNL     1      10.201  -3.197  19.134  1.00  0.00    -0.452 OA
ENDROOT
BRANCH   1  12
ATOM     12  C   UNL     1      12.397  -2.258  18.813  1.00  0.00     0.021 A 
ATOM     13  C   UNL     1      13.084  -3.272  18.127  1.00  0.00     0.016 A 
ATOM     14  C   UNL     1      14.474  -3.386  18.238  1.00  0.00     0.047 A 
ATOM     15  C   UNL     1      15.190  -2.500  19.047  1.00  0.00     0.115 A 
ATOM     16  C   UNL     1      13.121  -1.381  19.642  1.00  0.00     0.016 A 
ATOM     17  C   UNL     1      14.511  -1.499  19.752  1.00  0.00     0.047 A 
BRANCH  15  18
ATOM     18  O   UNL     1      16.574  -2.626  19.148  1.00  0.00    -0.508 OA
ATOM     19  H   UNL     1      17.196  -1.878  18.863  1.00  0.00     0.293 HD
ENDBRANCH  15  18
ENDBRANCH   1  12
BRANCH   2  20
ATOM     20  O   UNL     1      11.031   0.016  17.645  1.00  0.00    -0.502 OA
ATOM     21  H   UNL     1      11.965  -0.103  17.273  1.00  0.00     0.293 HD
ENDBRANCH   2  20
BRANCH   6  22
ATOM     22  O   UNL     1       5.881  -1.330  17.848  1.00  0.00    -0.507 OA
ATOM     23  H   UNL     1       6.178  -0.660  17.156  1.00  0.00     0.293 HD
ENDBRANCH   6  22
BRANCH   8  24
ATOM     24  O   UNL     1       6.166  -5.527  20.125  1.00  0.00    -0.508 OA
ATOM     25  H   UNL     1       5.154  -5.590  20.127  1.00  0.00     0.293 HD
ENDBRANCH   8  24
TORSDOF 5
ENDMDL
MODEL 8
REMARK VINA RESULT:    -5.225      2.575      6.445
REMARK INTER + INTRA:          -6.023
REMARK INTER:                  -5.803
REMARK INTRA:                  -0.220
REMARK UNBOUND:                 0.118
REMARK SMILES O=c1c(O)c(-c2ccc(O)cc2)oc2cc(O)cc(O)c12
REMARK SMILES IDX 5 1 3 2 2 3 1 4 21 5 19 6 18 7 16 8 15 9 14 10 13 11 6 12
REMARK SMILES IDX 7 13 8 14 9 15 12 16 11 17 10 18 4 20 20 22 17 24
REMARK H PARENT 10 19 4 21 20 23 17 25
REMARK Flexibility Score: inf
ROOT
ATOM      1  C   UNL     1      10.463  -2.930  19.339  1.00  0.00     0.180 A 
ATOM      2  C   UNL     1      10.217  -4.294  19.577  1.00  0.00     0.208 A 
ATOM      3  C   UNL     1      11.301  -5.148  19.833  1.00  0.00     0.238 A 
ATOM      4  O   UNL     1      11.067  -6.350  20.119  1.00  0.00    -0.285 OA
ATOM      5  C   UNL     1      12.623  -4.641  19.790  1.00  0.00     0.111 A 
ATOM      6  C   UNL     1      13.800  -5.424  19.989  1.00  0.00     0.134 A 
ATOM      7  C   UNL     1      15.050  -4.794  20.030  1.00  0.00     0.093 A 
ATOM      8  C   UNL     1      15.172  -3.423  19.817  1.00  0.00     0.123 A 
ATOM      9  C   UNL     1      14.034  -2.655  19.566  1.00  0.00     0.094 A 
ATOM     10  C   UNL     1      12.770  -3.248  19.559  1.00  0.00     0.146 A 
ATOM     11  O   UNL     1      11.711  -2.478  19.338  1.00  0.00    -0.452 OA
ENDROOT
BRANCH   1  12
ATOM     12  C   UNL     1       9.371  -1.965  19.077  1.00  0.00     0.021 A 
ATOM     13  C   UNL     1       9.235  -1.408  17.795  1.00  0.00     0.016 A 
ATOM     14  C   UNL     1       8.225  -0.478  17.531  1.00  0.00     0.047 A 
ATOM     15  C   UNL     1       7.350  -0.081  18.546  1.00  0.00     0.115 A 
ATOM     16  C   UNL     1       8.500  -1.548  20.100  1.00  0.00     0.016 A 
ATOM     17  C   UNL     1       7.492  -0.616  19.833  1.00  0.00     0.047 A 
BRANCH  15  18
ATOM     18  O   UNL     1       6.348   0.846  18.269  1.00  0.00    -0.508 OA
ATOM     19  H   UNL     1       5.470   0.845  18.774  1.00  0.00     0.293 HD
ENDBRANCH  15  18
ENDBRANCH   1  12
BRANCH   2  20
ATOM     20  O   UNL     1       8.910  -4.789  19.539  1.00  0.00    -0.502 OA
ATOM     21  H   UNL     1       8.109  -4.197  19.357  1.00  0.00     0.293 HD
ENDBRANCH   2  20
BRANCH   6  22
ATOM     22  O   UNL     1      13.801  -6.817  20.124  1.00  0.00    -0.507 OA
ATOM     23  H   UNL     1      14.283  -7.456  19.512  1.00  0.00     0.293 HD
ENDBRANCH   6  22
BRANCH   8  24
ATOM     24  O   UNL     1      16.434  -2.833  19.847  1.00  0.00    -0.508 OA
ATOM     25  H   UNL     1      17.273  -3.364  19.648  1.00  0.00     0.293 HD
ENDBRANCH   8  24
TORSDOF 5
ENDMDL
