MODEL 1
REMARK VINA RESULT:    -8.230      0.000      0.000
REMARK INTER + INTRA:          -9.991
REMARK INTER:                  -9.673
REMARK INTRA:                  -0.318
REMARK UNBOUND:                -0.318
REMARK SMILES O=c1cc(-c2ccc(O)c(O)c2)oc2cc(O)cc(O)c12
REMARK SMILES IDX 4 1 3 2 2 3 1 4 21 5 19 6 18 7 16 8 15 9 14 10 13 11 5 12
REMARK SMILES IDX 6 13 7 14 8 15 12 16 10 17 9 18 11 20 20 22 17 24
REMARK H PARENT 9 19 11 21 20 23 17 25
REMARK Flexibility Score: inf
ROOT
ATOM      1  C   UNL     1      50.370  57.964   6.391  1.00  0.00     0.138 A 
ATOM      2  C   UNL     1      49.265  58.236   7.209  1.00  0.00     0.100 A 
ATOM      3  C   UNL     1      47.976  58.125   6.687  1.00  0.00     0.197 A 
ATOM      4  O   UNL     1      47.003  58.315   7.462  1.00  0.00    -0.289 OA
ATOM      5  C   UNL     1      47.795  57.770   5.330  1.00  0.00     0.107 A 
ATOM      6  C   UNL     1      46.529  57.666   4.678  1.00  0.00     0.134 A 
ATOM      7  C   UNL     1      46.467  57.192   3.362  1.00  0.00     0.093 A 
ATOM      8  C   UNL     1      47.627  56.878   2.653  1.00  0.00     0.123 A 
ATOM      9  C   UNL     1      48.874  57.026   3.263  1.00  0.00     0.094 A 
ATOM     10  C   UNL     1      48.967  57.463   4.586  1.00  0.00     0.146 A 
ATOM     11  O   UNL     1      50.171  57.579   5.135  1.00  0.00    -0.456 OA
ENDROOT
BRANCH   1  12
ATOM     12  C   UNL     1      51.763  58.068   6.895  1.00  0.00     0.021 A 
ATOM     13  C   UNL     1      51.993  58.529   8.203  1.00  0.00     0.016 A 
ATOM     14  C   UNL     1      53.293  58.630   8.703  1.00  0.00     0.051 A 
ATOM     15  C   UNL     1      54.386  58.263   7.912  1.00  0.00     0.157 A 
ATOM     16  C   UNL     1      52.866  57.688   6.105  1.00  0.00     0.062 A 
ATOM     17  C   UNL     1      54.173  57.787   6.608  1.00  0.00     0.158 A 
BRANCH  15  18
ATOM     18  O   UNL     1      55.672  58.377   8.438  1.00  0.00    -0.504 OA
ATOM     19  H   UNL     1      56.478  57.964   7.982  1.00  0.00     0.293 HD
ENDBRANCH  15  18
BRANCH  17  20
ATOM     20  O   UNL     1      55.257  57.411   5.817  1.00  0.00    -0.504 OA
ATOM     21  H   UNL     1      56.204  57.410   6.178  1.00  0.00     0.293 HD
ENDBRANCH  17  20
ENDBRANCH   1  12
BRANCH   6  22
ATOM     22  O   UNL     1      45.316  58.035   5.266  1.00  0.00    -0.507 OA
ATOM     23  H   UNL     1      45.047  57.824   6.215  1.00  0.00     0.293 HD
ENDBRANCH   6  22
BRANCH   8  24
ATOM     24  O   UNL     1      47.528  56.424   1.340  1.00  0.00    -0.508 OA
ATOM     25  H   UNL     1      47.275  57.046   0.582  1.00  0.00     0.293 HD
ENDBRANCH   8  24
TORSDOF 5
ENDMDL
MODEL 2
REMARK VINA RESULT:    -8.051      1.516      2.116
REMARK INTER + INTRA:          -9.781
REMARK INTER:                  -9.498
REMARK INTRA:                  -0.283
REMARK UNBOUND:                -0.318
REMARK SMILES O=c1cc(-c2ccc(O)c(O)c2)oc2cc(O)cc(O)c12
REMARK SMILES IDX 4 1 3 2 2 3 1 4 21 5 19 6 18 7 16 8 15 9 14 10 13 11 5 12
REMARK SMILES IDX 6 13 7 14 8 15 12 16 10 17 9 18 11 20 20 22 17 24
REMARK H PARENT 9 19 11 21 20 23 17 25
REMARK Flexibility Score: inf
ROOT
ATOM      1  C   UNL     1      50.642  58.841   6.875  1.00  0.00     0.138 A 
ATOM      2  C   UNL     1      49.534  58.555   7.685  1.00  0.00     0.100 A 
ATOM      3  C   UNL     1      48.333  58.161   7.096  1.00  0.00     0.197 A 
ATOM      4  O   UNL     1      47.375  57.851   7.852  1.00  0.00    -0.289 OA
ATOM      5  C   UNL     1      48.232  58.082   5.687  1.00  0.00     0.107 A 
ATOM      6  C   UNL     1      47.045  57.731   4.975  1.00  0.00     0.134 A 
ATOM      7  C   UNL     1      47.097  57.572   3.585  1.00  0.00     0.093 A 
ATOM      8  C   UNL     1      48.273  57.811   2.875  1.00  0.00     0.123 A 
ATOM      9  C   UNL     1      49.426  58.207   3.555  1.00  0.00     0.094 A 
ATOM     10  C   UNL     1      49.416  58.340   4.945  1.00  0.00     0.146 A 
ATOM     11  O   UNL     1      50.537  58.706   5.557  1.00  0.00    -0.456 OA
ENDROOT
BRANCH   1  12
ATOM     12  C   UNL     1      51.944  59.266   7.449  1.00  0.00     0.021 A 
ATOM     13  C   UNL     1      53.139  58.798   6.874  1.00  0.00     0.016 A 
ATOM     14  C   UNL     1      54.377  59.189   7.390  1.00  0.00     0.051 A 
ATOM     15  C   UNL     1      54.445  60.060   8.481  1.00  0.00     0.157 A 
ATOM     16  C   UNL     1      52.018  60.154   8.539  1.00  0.00     0.062 A 
ATOM     17  C   UNL     1      53.261  60.548   9.057  1.00  0.00     0.158 A 
BRANCH  15  18
ATOM     18  O   UNL     1      55.695  60.430   8.975  1.00  0.00    -0.504 OA
ATOM     19  H   UNL     1      55.819  60.780   9.919  1.00  0.00     0.293 HD
ENDBRANCH  15  18
BRANCH  17  20
ATOM     20  O   UNL     1      53.323  61.425  10.139  1.00  0.00    -0.504 OA
ATOM     21  H   UNL     1      52.638  62.162  10.265  1.00  0.00     0.293 HD
ENDBRANCH  17  20
ENDBRANCH   1  12
BRANCH   6  22
ATOM     22  O   UNL     1      45.798  57.553   5.578  1.00  0.00    -0.507 OA
ATOM     23  H   UNL     1      45.057  58.237   5.587  1.00  0.00     0.293 HD
ENDBRANCH   6  22
BRANCH   8  24
ATOM     24  O   UNL     1      48.283  57.658   1.490  1.00  0.00    -0.508 OA
ATOM     25  H   UNL     1      49.092  57.289   1.004  1.00  0.00     0.293 HD
ENDBRANCH   8  24
TORSDOF 5
ENDMDL
MODEL 3
REMARK VINA RESULT:    -7.983      7.480      9.497
REMARK INTER + INTRA:          -9.701
REMARK INTER:                  -9.413
REMARK INTRA:                  -0.288
REMARK UNBOUND:                -0.318
REMARK SMILES O=c1cc(-c2ccc(O)c(O)c2)oc2cc(O)cc(O)c12
REMARK SMILES IDX 4 1 3 2 2 3 1 4 21 5 19 6 18 7 16 8 15 9 14 10 13 11 5 12
REMARK SMILES IDX 6 13 7 14 8 15 12 16 10 17 9 18 11 20 20 22 17 24
REMARK H PARENT 9 19 11 21 20 23 17 25
REMARK Flexibility Score: inf
ROOT
ATOM      1  C   UNL     1      52.541  61.755  -0.165  1.00  0.00     0.138 A 
ATOM      2  C   UNL     1      52.353  62.874  -0.988  1.00  0.00     0.100 A 
ATOM      3  C   UNL     1      52.307  64.148  -0.421  1.00  0.00     0.197 A 
ATOM      4  O   UNL     1      52.200  65.137  -1.191  1.00  0.00    -0.289 OA
ATOM      5  C   UNL     1      52.419  64.299   0.982  1.00  0.00     0.107 A 
ATOM      6  C   UNL     1      52.344  65.544   1.674  1.00  0.00     0.134 A 
ATOM      7  C   UNL     1      52.586  65.583   3.053  1.00  0.00     0.093 A 
ATOM      8  C   UNL     1      52.837  64.415   3.774  1.00  0.00     0.123 A 
ATOM      9  C   UNL     1      52.859  63.185   3.116  1.00  0.00     0.094 A 
ATOM     10  C   UNL     1      52.657  63.117   1.735  1.00  0.00     0.146 A 
ATOM     11  O   UNL     1      52.698  61.928   1.143  1.00  0.00    -0.456 OA
ENDROOT
BRANCH   1  12
ATOM     12  C   UNL     1      52.597  60.377  -0.715  1.00  0.00     0.021 A 
ATOM     13  C   UNL     1      53.363  59.400  -0.056  1.00  0.00     0.016 A 
ATOM     14  C   UNL     1      53.426  58.094  -0.550  1.00  0.00     0.051 A 
ATOM     15  C   UNL     1      52.719  57.738  -1.701  1.00  0.00     0.157 A 
ATOM     16  C   UNL     1      51.876  60.011  -1.868  1.00  0.00     0.062 A 
ATOM     17  C   UNL     1      51.938  58.699  -2.363  1.00  0.00     0.158 A 
BRANCH  15  18
ATOM     18  O   UNL     1      52.804  56.428  -2.171  1.00  0.00    -0.504 OA
ATOM     19  H   UNL     1      53.333  56.187  -3.001  1.00  0.00     0.293 HD
ENDBRANCH  15  18
BRANCH  17  20
ATOM     20  O   UNL     1      51.222  58.348  -3.507  1.00  0.00    -0.504 OA
ATOM     21  H   UNL     1      50.988  59.032  -4.218  1.00  0.00     0.293 HD
ENDBRANCH  17  20
ENDBRANCH   1  12
BRANCH   6  22
ATOM     22  O   UNL     1      52.017  66.758   1.064  1.00  0.00    -0.507 OA
ATOM     23  H   UNL     1      52.019  67.655   1.525  1.00  0.00     0.293 HD
ENDBRANCH   6  22
BRANCH   8  24
ATOM     24  O   UNL     1      53.058  64.489   5.147  1.00  0.00    -0.508 OA
ATOM     25  H   UNL     1      53.184  63.656   5.710  1.00  0.00     0.293 HD
ENDBRANCH   8  24
TORSDOF 5
ENDMDL
MODEL 4
REMARK VINA RESULT:    -7.796      8.700     10.745
REMARK INTER + INTRA:          -9.481
REMARK INTER:                  -9.166
REMARK INTRA:                  -0.315
REMARK UNBOUND:                -0.318
REMARK SMILES O=c1cc(-c2ccc(O)c(O)c2)oc2cc(O)cc(O)c12
REMARK SMILES IDX 4 1 3 2 2 3 1 4 21 5 19 6 18 7 16 8 15 9 14 10 13 11 5 12
REMARK SMILES IDX 6 13 7 14 8 15 12 16 10 17 9 18 11 20 20 22 17 24
REMARK H PARENT 9 19 11 21 20 23 17 25
REMARK Flexibility Score: inf
ROOT
ATOM      1  C   UNL     1      47.796  66.126   2.674  1.00  0.00     0.138 A 
ATOM      2  C   UNL     1      48.954  66.912   2.757  1.00  0.00     0.100 A 
ATOM      3  C   UNL     1      50.143  66.451   2.191  1.00  0.00     0.197 A 
ATOM      4  O   UNL     1      51.149  67.206   2.226  1.00  0.00    -0.289 OA
ATOM      5  C   UNL     1      50.180  65.182   1.566  1.00  0.00     0.107 A 
ATOM      6  C   UNL     1      51.345  64.592   0.992  1.00  0.00     0.134 A 
ATOM      7  C   UNL     1      51.235  63.381   0.298  1.00  0.00     0.093 A 
ATOM      8  C   UNL     1      50.016  62.708   0.210  1.00  0.00     0.123 A 
ATOM      9  C   UNL     1      48.880  63.250   0.814  1.00  0.00     0.094 A 
ATOM     10  C   UNL     1      48.950  64.473   1.484  1.00  0.00     0.146 A 
ATOM     11  O   UNL     1      47.844  64.962   2.035  1.00  0.00    -0.456 OA
ENDROOT
BRANCH   1  12
ATOM     12  C   UNL     1      46.505  66.567   3.260  1.00  0.00     0.021 A 
ATOM     13  C   UNL     1      46.339  67.912   3.633  1.00  0.00     0.016 A 
ATOM     14  C   UNL     1      45.132  68.354   4.180  1.00  0.00     0.051 A 
ATOM     15  C   UNL     1      44.067  67.467   4.354  1.00  0.00     0.157 A 
ATOM     16  C   UNL     1      45.425  65.679   3.425  1.00  0.00     0.062 A 
ATOM     17  C   UNL     1      44.211  66.123   3.972  1.00  0.00     0.158 A 
BRANCH  15  18
ATOM     18  O   UNL     1      42.875  67.937   4.904  1.00  0.00    -0.504 OA
ATOM     19  H   UNL     1      42.860  68.619   5.653  1.00  0.00     0.293 HD
ENDBRANCH  15  18
BRANCH  17  20
ATOM     20  O   UNL     1      43.149  65.234   4.133  1.00  0.00    -0.504 OA
ATOM     21  H   UNL     1      42.807  64.670   3.364  1.00  0.00     0.293 HD
ENDBRANCH  17  20
ENDBRANCH   1  12
BRANCH   6  22
ATOM     22  O   UNL     1      52.628  65.137   1.095  1.00  0.00    -0.507 OA
ATOM     23  H   UNL     1      53.285  65.213   0.334  1.00  0.00     0.293 HD
ENDBRANCH   6  22
BRANCH   8  24
ATOM     24  O   UNL     1      49.946  61.498  -0.476  1.00  0.00    -0.508 OA
ATOM     25  H   UNL     1      50.783  61.000  -0.758  1.00  0.00     0.293 HD
ENDBRANCH   8  24
TORSDOF 5
ENDMDL
MODEL 5
REMARK VINA RESULT:    -7.458      2.184      7.204
REMARK INTER + INTRA:          -9.083
REMARK INTER:                  -8.802
REMARK INTRA:                  -0.282
REMARK UNBOUND:                -0.318
REMARK SMILES O=c1cc(-c2ccc(O)c(O)c2)oc2cc(O)cc(O)c12
REMARK SMILES IDX 4 1 3 2 2 3 1 4 21 5 19 6 18 7 16 8 15 9 14 10 13 11 5 12
REMARK SMILES IDX 6 13 7 14 8 15 12 16 10 17 9 18 11 20 20 22 17 24
REMARK H PARENT 9 19 11 21 20 23 17 25
REMARK Flexibility Score: inf
ROOT
ATOM      1  C   UNL     1      50.774  59.694   6.748  1.00  0.00     0.138 A 
ATOM      2  C   UNL     1      51.250  60.810   7.449  1.00  0.00     0.100 A 
ATOM      3  C   UNL     1      52.557  60.813   7.938  1.00  0.00     0.197 A 
ATOM      4  O   UNL     1      52.975  61.854   8.509  1.00  0.00    -0.289 OA
ATOM      5  C   UNL     1      53.380  59.678   7.751  1.00  0.00     0.107 A 
ATOM      6  C   UNL     1      54.714  59.551   8.242  1.00  0.00     0.134 A 
ATOM      7  C   UNL     1      55.474  58.427   7.894  1.00  0.00     0.093 A 
ATOM      8  C   UNL     1      54.928  57.398   7.126  1.00  0.00     0.123 A 
ATOM      9  C   UNL     1      53.607  57.486   6.686  1.00  0.00     0.094 A 
ATOM     10  C   UNL     1      52.835  58.611   6.986  1.00  0.00     0.146 A 
ATOM     11  O   UNL     1      51.585  58.663   6.538  1.00  0.00    -0.456 OA
ENDROOT
BRANCH   1  12
ATOM     12  C   UNL     1      49.392  59.638   6.207  1.00  0.00     0.021 A 
ATOM     13  C   UNL     1      48.951  60.647   5.332  1.00  0.00     0.016 A 
ATOM     14  C   UNL     1      47.658  60.614   4.804  1.00  0.00     0.051 A 
ATOM     15  C   UNL     1      46.787  59.570   5.130  1.00  0.00     0.157 A 
ATOM     16  C   UNL     1      48.516  58.582   6.522  1.00  0.00     0.062 A 
ATOM     17  C   UNL     1      47.218  58.547   5.991  1.00  0.00     0.158 A 
BRANCH  15  18
ATOM     18  O   UNL     1      45.502  59.566   4.589  1.00  0.00    -0.504 OA
ATOM     19  H   UNL     1      45.323  59.826   3.626  1.00  0.00     0.293 HD
ENDBRANCH  15  18
BRANCH  17  20
ATOM     20  O   UNL     1      46.358  57.498   6.312  1.00  0.00    -0.504 OA
ATOM     21  H   UNL     1      45.360  57.559   6.145  1.00  0.00     0.293 HD
ENDBRANCH  17  20
ENDBRANCH   1  12
BRANCH   6  22
ATOM     22  O   UNL     1      55.327  60.481   9.086  1.00  0.00    -0.507 OA
ATOM     23  H   UNL     1      55.653  61.392   8.802  1.00  0.00     0.293 HD
ENDBRANCH   6  22
BRANCH   8  24
ATOM     24  O   UNL     1      55.709  56.287   6.812  1.00  0.00    -0.508 OA
ATOM     25  H   UNL     1      55.296  55.373   6.669  1.00  0.00     0.293 HD
ENDBRANCH   8  24
TORSDOF 5
ENDMDL
MODEL 6
REMARK VINA RESULT:    -7.384      2.020      3.393
REMARK INTER + INTRA:          -8.996
REMARK INTER:                  -8.698
REMARK INTRA:                  -0.298
REMARK UNBOUND:                -0.318
REMARK SMILES O=c1cc(-c2ccc(O)c(O)c2)oc2cc(O)cc(O)c12
REMARK SMILES IDX 4 1 3 2 2 3 1 4 21 5 19 6 18 7 16 8 15 9 14 10 13 11 5 12
REMARK SMILES IDX 6 13 7 14 8 15 12 16 10 17 9 18 11 20 20 22 17 24
REMARK H PARENT 9 19 11 21 20 23 17 25
REMARK Flexibility Score: inf
ROOT
ATOM      1  C   UNL     1      51.160  59.221   5.589  1.00  0.00     0.138 A 
ATOM      2  C   UNL     1      51.391  59.245   4.207  1.00  0.00     0.100 A 
ATOM      3  C   UNL     1      50.380  58.852   3.330  1.00  0.00     0.197 A 
ATOM      4  O   UNL     1      50.596  58.943   2.093  1.00  0.00    -0.289 OA
ATOM      5  C   UNL     1      49.140  58.403   3.843  1.00  0.00     0.107 A 
ATOM      6  C   UNL     1      48.050  57.939   3.046  1.00  0.00     0.134 A 
ATOM      7  C   UNL     1      46.830  57.630   3.658  1.00  0.00     0.093 A 
ATOM      8  C   UNL     1      46.678  57.708   5.043  1.00  0.00     0.123 A 
ATOM      9  C   UNL     1      47.753  58.109   5.837  1.00  0.00     0.094 A 
ATOM     10  C   UNL     1      48.972  58.458   5.253  1.00  0.00     0.146 A 
ATOM     11  O   UNL     1      49.968  58.847   6.042  1.00  0.00    -0.456 OA
ENDROOT
BRANCH   1  12
ATOM     12  C   UNL     1      52.201  59.628   6.566  1.00  0.00     0.021 A 
ATOM     13  C   UNL     1      53.542  59.276   6.333  1.00  0.00     0.016 A 
ATOM     14  C   UNL     1      54.542  59.652   7.233  1.00  0.00     0.051 A 
ATOM     15  C   UNL     1      54.224  60.394   8.374  1.00  0.00     0.157 A 
ATOM     16  C   UNL     1      51.887  60.386   7.710  1.00  0.00     0.062 A 
ATOM     17  C   UNL     1      52.891  60.766   8.614  1.00  0.00     0.158 A 
BRANCH  15  18
ATOM     18  O   UNL     1      55.244  60.753   9.256  1.00  0.00    -0.504 OA
ATOM     19  H   UNL     1      56.106  60.225   9.325  1.00  0.00     0.293 HD
ENDBRANCH  15  18
BRANCH  17  20
ATOM     20  O   UNL     1      52.568  61.514   9.745  1.00  0.00    -0.504 OA
ATOM     21  H   UNL     1      52.221  61.076  10.590  1.00  0.00     0.293 HD
ENDBRANCH  17  20
ENDBRANCH   1  12
BRANCH   6  22
ATOM     22  O   UNL     1      48.122  57.743   1.664  1.00  0.00    -0.507 OA
ATOM     23  H   UNL     1      48.144  56.843   1.209  1.00  0.00     0.293 HD
ENDBRANCH   6  22
BRANCH   8  24
ATOM     24  O   UNL     1      45.453  57.378   5.619  1.00  0.00    -0.508 OA
ATOM     25  H   UNL     1      44.590  57.813   5.315  1.00  0.00     0.293 HD
ENDBRANCH   8  24
TORSDOF 5
ENDMDL
MODEL 7
REMARK VINA RESULT:    -7.347      6.869      8.849
REMARK INTER + INTRA:          -8.953
REMARK INTER:                  -8.645
REMARK INTRA:                  -0.308
REMARK UNBOUND:                -0.318
REMARK SMILES O=c1cc(-c2ccc(O)c(O)c2)oc2cc(O)cc(O)c12
REMARK SMILES IDX 4 1 3 2 2 3 1 4 21 5 19 6 18 7 16 8 15 9 14 10 13 11 5 12
REMARK SMILES IDX 6 13 7 14 8 15 12 16 10 17 9 18 11 20 20 22 17 24
REMARK H PARENT 9 19 11 21 20 23 17 25
REMARK Flexibility Score: inf
ROOT
ATOM      1  C   UNL     1      52.103  61.510   1.327  1.00  0.00     0.138 A 
ATOM      2  C   UNL     1      52.322  61.244   2.686  1.00  0.00     0.100 A 
ATOM      3  C   UNL     1      52.435  62.303   3.588  1.00  0.00     0.197 A 
ATOM      4  O   UNL     1      52.569  62.031   4.809  1.00  0.00    -0.289 OA
ATOM      5  C   UNL     1      52.359  63.636   3.120  1.00  0.00     0.107 A 
ATOM      6  C   UNL     1      52.502  64.795   3.941  1.00  0.00     0.134 A 
ATOM      7  C   UNL     1      52.291  66.063   3.387  1.00  0.00     0.093 A 
ATOM      8  C   UNL     1      52.005  66.219   2.030  1.00  0.00     0.123 A 
ATOM      9  C   UNL     1      51.916  65.096   1.207  1.00  0.00     0.094 A 
ATOM     10  C   UNL     1      52.086  63.815   1.737  1.00  0.00     0.146 A 
ATOM     11  O   UNL     1      51.981  62.770   0.922  1.00  0.00    -0.456 OA
ENDROOT
BRANCH   1  12
ATOM     12  C   UNL     1      51.977  60.422   0.325  1.00  0.00     0.021 A 
ATOM     13  C   UNL     1      52.604  59.186   0.563  1.00  0.00     0.016 A 
ATOM     14  C   UNL     1      52.495  58.144  -0.360  1.00  0.00     0.051 A 
ATOM     15  C   UNL     1      51.751  58.312  -1.531  1.00  0.00     0.157 A 
ATOM     16  C   UNL     1      51.218  60.582  -0.850  1.00  0.00     0.062 A 
ATOM     17  C   UNL     1      51.106  59.535  -1.778  1.00  0.00     0.158 A 
BRANCH  15  18
ATOM     18  O   UNL     1      51.662  57.254  -2.436  1.00  0.00    -0.504 OA
ATOM     19  H   UNL     1      50.870  56.621  -2.447  1.00  0.00     0.293 HD
ENDBRANCH  15  18
BRANCH  17  20
ATOM     20  O   UNL     1      50.354  59.706  -2.939  1.00  0.00    -0.504 OA
ATOM     21  H   UNL     1      50.772  59.626  -3.859  1.00  0.00     0.293 HD
ENDBRANCH  17  20
ENDBRANCH   1  12
BRANCH   6  22
ATOM     22  O   UNL     1      52.869  64.756   5.289  1.00  0.00    -0.507 OA
ATOM     23  H   UNL     1      52.313  65.116   6.049  1.00  0.00     0.293 HD
ENDBRANCH   6  22
BRANCH   8  24
ATOM     24  O   UNL     1      51.816  67.497   1.510  1.00  0.00    -0.508 OA
ATOM     25  H   UNL     1      50.929  67.782   1.113  1.00  0.00     0.293 HD
ENDBRANCH   8  24
TORSDOF 5
ENDMDL
MODEL 8
REMARK VINA RESULT:    -7.321      7.274      8.575
REMARK INTER + INTRA:          -8.922
REMARK INTER:                  -8.649
REMARK INTRA:                  -0.273
REMARK UNBOUND:                -0.318
REMARK SMILES O=c1cc(-c2ccc(O)c(O)c2)oc2cc(O)cc(O)c12
REMARK SMILES IDX 4 1 3 2 2 3 1 4 21 5 19 6 18 7 16 8 15 9 14 10 13 11 5 12
REMARK SMILES IDX 6 13 7 14 8 15 12 16 10 17 9 18 11 20 20 22 17 24
REMARK H PARENT 9 19 11 21 20 23 17 25
REMARK Flexibility Score: inf
ROOT
ATOM      1  C   UNL     1      52.504  62.003   0.629  1.00  0.00     0.138 A 
ATOM      2  C   UNL     1      51.381  61.641  -0.128  1.00  0.00     0.100 A 
ATOM      3  C   UNL     1      51.408  60.468  -0.884  1.00  0.00     0.197 A 
ATOM      4  O   UNL     1      50.363  60.137  -1.503  1.00  0.00    -0.289 OA
ATOM      5  C   UNL     1      52.576  59.671  -0.905  1.00  0.00     0.107 A 
ATOM      6  C   UNL     1      52.732  58.477  -1.671  1.00  0.00     0.134 A 
ATOM      7  C   UNL     1      53.893  57.708  -1.522  1.00  0.00     0.093 A 
ATOM      8  C   UNL     1      54.929  58.121  -0.683  1.00  0.00     0.123 A 
ATOM      9  C   UNL     1      54.810  59.314   0.030  1.00  0.00     0.094 A 
ATOM     10  C   UNL     1      53.649  60.086  -0.070  1.00  0.00     0.146 A 
ATOM     11  O   UNL     1      53.569  61.209   0.635  1.00  0.00    -0.456 OA
ENDROOT
BRANCH   1  12
ATOM     12  C   UNL     1      52.530  63.241   1.449  1.00  0.00     0.021 A 
ATOM     13  C   UNL     1      52.903  63.165   2.802  1.00  0.00     0.016 A 
ATOM     14  C   UNL     1      52.942  64.316   3.594  1.00  0.00     0.051 A 
ATOM     15  C   UNL     1      52.621  65.561   3.048  1.00  0.00     0.157 A 
ATOM     16  C   UNL     1      52.219  64.500   0.900  1.00  0.00     0.062 A 
ATOM     17  C   UNL     1      52.261  65.656   1.694  1.00  0.00     0.158 A 
BRANCH  15  18
ATOM     18  O   UNL     1      52.668  66.692   3.864  1.00  0.00    -0.504 OA
ATOM     19  H   UNL     1      53.455  67.330   3.855  1.00  0.00     0.293 HD
ENDBRANCH  15  18
BRANCH  17  20
ATOM     20  O   UNL     1      51.949  66.897   1.140  1.00  0.00    -0.504 OA
ATOM     21  H   UNL     1      51.394  67.579   1.644  1.00  0.00     0.293 HD
ENDBRANCH  17  20
ENDBRANCH   1  12
BRANCH   6  22
ATOM     22  O   UNL     1      51.796  58.019  -2.602  1.00  0.00    -0.507 OA
ATOM     23  H   UNL     1      51.958  57.941  -3.594  1.00  0.00     0.293 HD
ENDBRANCH   6  22
BRANCH   8  24
ATOM     24  O   UNL     1      56.076  57.338  -0.571  1.00  0.00    -0.508 OA
ATOM     25  H   UNL     1      56.206  56.697   0.203  1.00  0.00     0.293 HD
ENDBRANCH   8  24
TORSDOF 5
ENDMDL
MODEL 9
REMARK VINA RESULT:    -7.173      2.784      3.712
REMARK INTER + INTRA:          -8.748
REMARK INTER:                  -8.463
REMARK INTRA:                  -0.285
REMARK UNBOUND:                -0.318
REMARK SMILES O=c1cc(-c2ccc(O)c(O)c2)oc2cc(O)cc(O)c12
REMARK SMILES IDX 4 1 3 2 2 3 1 4 21 5 19 6 18 7 16 8 15 9 14 10 13 11 5 12
REMARK SMILES IDX 6 13 7 14 8 15 12 16 10 17 9 18 11 20 20 22 17 24
REMARK H PARENT 9 19 11 21 20 23 17 25
REMARK Flexibility Score: inf
ROOT
ATOM      1  C   UNL     1      50.396  59.863   6.491  1.00  0.00     0.138 A 
ATOM      2  C   UNL     1      49.934  58.619   6.038  1.00  0.00     0.100 A 
ATOM      3  C   UNL     1      48.683  58.529   5.427  1.00  0.00     0.197 A 
ATOM      4  O   UNL     1      48.322  57.410   4.975  1.00  0.00    -0.289 OA
ATOM      5  C   UNL     1      47.877  59.684   5.298  1.00  0.00     0.107 A 
ATOM      6  C   UNL     1      46.568  59.704   4.731  1.00  0.00     0.134 A 
ATOM      7  C   UNL     1      45.913  60.928   4.550  1.00  0.00     0.093 A 
ATOM      8  C   UNL     1      46.492  62.125   4.971  1.00  0.00     0.123 A 
ATOM      9  C   UNL     1      47.749  62.112   5.576  1.00  0.00     0.094 A 
ATOM     10  C   UNL     1      48.443  60.911   5.739  1.00  0.00     0.146 A 
ATOM     11  O   UNL     1      49.644  60.943   6.308  1.00  0.00    -0.456 OA
ENDROOT
BRANCH   1  12
ATOM     12  C   UNL     1      51.719  60.016   7.148  1.00  0.00     0.021 A 
ATOM     13  C   UNL     1      52.871  59.530   6.505  1.00  0.00     0.016 A 
ATOM     14  C   UNL     1      54.128  59.668   7.099  1.00  0.00     0.051 A 
ATOM     15  C   UNL     1      54.259  60.301   8.338  1.00  0.00     0.157 A 
ATOM     16  C   UNL     1      51.857  60.665   8.390  1.00  0.00     0.062 A 
ATOM     17  C   UNL     1      53.120  60.805   8.987  1.00  0.00     0.158 A 
BRANCH  15  18
ATOM     18  O   UNL     1      55.527  60.422   8.907  1.00  0.00    -0.504 OA
ATOM     19  H   UNL     1      55.927  61.323   9.142  1.00  0.00     0.293 HD
ENDBRANCH  15  18
BRANCH  17  20
ATOM     20  O   UNL     1      53.245  61.447  10.218  1.00  0.00    -0.504 OA
ATOM     21  H   UNL     1      53.969  61.191  10.879  1.00  0.00     0.293 HD
ENDBRANCH  17  20
ENDBRANCH   1  12
BRANCH   6  22
ATOM     22  O   UNL     1      45.864  58.557   4.354  1.00  0.00    -0.507 OA
ATOM     23  H   UNL     1      46.002  57.639   4.748  1.00  0.00     0.293 HD
ENDBRANCH   6  22
BRANCH   8  24
ATOM     24  O   UNL     1      45.804  63.323   4.788  1.00  0.00    -0.508 OA
ATOM     25  H   UNL     1      45.799  64.045   5.499  1.00  0.00     0.293 HD
ENDBRANCH   8  24
TORSDOF 5
ENDMDL
