MODEL 1
REMARK VINA RESULT:    -6.145      0.000      0.000
REMARK INTER + INTRA:          -7.718
REMARK INTER:                  -7.403
REMARK INTRA:                  -0.316
REMARK UNBOUND:                -0.316
REMARK SMILES O=c1c(O)c(-c2ccc(O)c(O)c2)oc2cc(O)cc(O)c12
REMARK SMILES IDX 5 1 3 2 2 3 1 4 22 5 20 6 19 7 17 8 16 9 15 10 14 11 6 12
REMARK SMILES IDX 7 13 8 14 9 15 13 16 11 17 10 18 12 20 4 22 21 24 18 26
REMARK H PARENT 10 19 12 21 4 23 21 25 18 27
REMARK Flexibility Score: inf
ROOT
ATOM      1  C   UNL     1       5.331   4.587   6.797  1.00  0.00     0.180 A 
ATOM      2  C   UNL     1       4.514   4.176   7.867  1.00  0.00     0.208 A 
ATOM      3  C   UNL     1       3.499   5.037   8.315  1.00  0.00     0.238 A 
ATOM      4  O   UNL     1       2.755   4.675   9.266  1.00  0.00    -0.285 OA
ATOM      5  C   UNL     1       3.332   6.296   7.702  1.00  0.00     0.111 A 
ATOM      6  C   UNL     1       2.337   7.222   8.096  1.00  0.00     0.134 A 
ATOM      7  C   UNL     1       2.241   8.460   7.442  1.00  0.00     0.093 A 
ATOM      8  C   UNL     1       3.120   8.786   6.403  1.00  0.00     0.123 A 
ATOM      9  C   UNL     1       4.102   7.876   6.011  1.00  0.00     0.094 A 
ATOM     10  C   UNL     1       4.213   6.637   6.649  1.00  0.00     0.146 A 
ATOM     11  O   UNL     1       5.154   5.788   6.252  1.00  0.00    -0.452 OA
ENDROOT
BRANCH   1  12
ATOM     12  C   UNL     1       6.409   3.728   6.255  1.00  0.00     0.025 A 
ATOM     13  C   UNL     1       7.679   3.756   6.852  1.00  0.00     0.016 A 
ATOM     14  C   UNL     1       8.717   2.970   6.345  1.00  0.00     0.051 A 
ATOM     15  C   UNL     1       8.505   2.156   5.225  1.00  0.00     0.157 A 
ATOM     16  C   UNL     1       6.206   2.926   5.118  1.00  0.00     0.062 A 
ATOM     17  C   UNL     1       7.244   2.138   4.607  1.00  0.00     0.158 A 
BRANCH  15  18
ATOM     18  O   UNL     1       9.542   1.371   4.723  1.00  0.00    -0.504 OA
ATOM     19  H   UNL     1       9.535   1.032   3.768  1.00  0.00     0.293 HD
ENDBRANCH  15  18
BRANCH  17  20
ATOM     20  O   UNL     1       7.005   1.351   3.481  1.00  0.00    -0.504 OA
ATOM     21  H   UNL     1       6.386   0.549   3.507  1.00  0.00     0.293 HD
ENDBRANCH  17  20
ENDBRANCH   1  12
BRANCH   2  22
ATOM     22  O   UNL     1       4.732   2.945   8.490  1.00  0.00    -0.502 OA
ATOM     23  H   UNL     1       4.227   2.659   9.321  1.00  0.00     0.293 HD
ENDBRANCH   2  22
BRANCH   6  24
ATOM     24  O   UNL     1       1.447   6.925   9.129  1.00  0.00    -0.507 OA
ATOM     25  H   UNL     1       1.769   6.648  10.048  1.00  0.00     0.293 HD
ENDBRANCH   6  24
BRANCH   8  26
ATOM     26  O   UNL     1       3.026  10.016   5.753  1.00  0.00    -0.508 OA
ATOM     27  H   UNL     1       2.398  10.154   4.970  1.00  0.00     0.293 HD
ENDBRANCH   8  26
TORSDOF 6
ENDMDL
MODEL 2
REMARK VINA RESULT:    -6.056     17.849     19.014
REMARK INTER + INTRA:          -7.611
REMARK INTER:                  -7.417
REMARK INTRA:                  -0.195
REMARK UNBOUND:                -0.316
REMARK SMILES O=c1c(O)c(-c2ccc(O)c(O)c2)oc2cc(O)cc(O)c12
REMARK SMILES IDX 5 1 3 2 2 3 1 4 22 5 20 6 19 7 17 8 16 9 15 10 14 11 6 12
REMARK SMILES IDX 7 13 8 14 9 15 13 16 11 17 10 18 12 20 4 22 21 24 18 26
REMARK H PARENT 10 19 12 21 4 23 21 25 18 27
REMARK Flexibility Score: inf
ROOT
ATOM      1  C   UNL     1      -8.032   2.520  -5.688  1.00  0.00     0.180 A 
ATOM      2  C   UNL     1      -6.670   2.575  -6.044  1.00  0.00     0.208 A 
ATOM      3  C   UNL     1      -6.237   3.586  -6.916  1.00  0.00     0.238 A 
ATOM      4  O   UNL     1      -5.019   3.651  -7.234  1.00  0.00    -0.285 OA
ATOM      5  C   UNL     1      -7.171   4.509  -7.431  1.00  0.00     0.111 A 
ATOM      6  C   UNL     1      -6.817   5.554  -8.317  1.00  0.00     0.134 A 
ATOM      7  C   UNL     1      -7.807   6.427  -8.794  1.00  0.00     0.093 A 
ATOM      8  C   UNL     1      -9.141   6.274  -8.401  1.00  0.00     0.123 A 
ATOM      9  C   UNL     1      -9.495   5.245  -7.526  1.00  0.00     0.094 A 
ATOM     10  C   UNL     1      -8.522   4.366  -7.040  1.00  0.00     0.146 A 
ATOM     11  O   UNL     1      -8.886   3.399  -6.205  1.00  0.00    -0.452 OA
ENDROOT
BRANCH   1  12
ATOM     12  C   UNL     1      -8.561   1.496  -4.759  1.00  0.00     0.025 A 
ATOM     13  C   UNL     1      -8.621   0.155  -5.171  1.00  0.00     0.016 A 
ATOM     14  C   UNL     1      -9.136  -0.825  -4.319  1.00  0.00     0.051 A 
ATOM     15  C   UNL     1      -9.614  -0.478  -3.049  1.00  0.00     0.157 A 
ATOM     16  C   UNL     1      -9.061   1.844  -3.492  1.00  0.00     0.062 A 
ATOM     17  C   UNL     1      -9.579   0.865  -2.636  1.00  0.00     0.158 A 
BRANCH  15  18
ATOM     18  O   UNL     1     -10.125  -1.458  -2.200  1.00  0.00    -0.504 OA
ATOM     19  H   UNL     1     -10.678  -2.229  -2.554  1.00  0.00     0.293 HD
ENDBRANCH  15  18
BRANCH  17  20
ATOM     20  O   UNL     1     -10.061   1.246  -1.384  1.00  0.00    -0.504 OA
ATOM     21  H   UNL     1      -9.757   2.097  -0.927  1.00  0.00     0.293 HD
ENDBRANCH  17  20
ENDBRANCH   1  12
BRANCH   2  22
ATOM     22  O   UNL     1      -5.774   1.618  -5.560  1.00  0.00    -0.502 OA
ATOM     23  H   UNL     1      -5.521   1.558  -4.581  1.00  0.00     0.293 HD
ENDBRANCH   2  22
BRANCH   6  24
ATOM     24  O   UNL     1      -5.495   5.733  -8.728  1.00  0.00    -0.507 OA
ATOM     25  H   UNL     1      -4.717   5.594  -8.096  1.00  0.00     0.293 HD
ENDBRANCH   6  24
BRANCH   8  26
ATOM     26  O   UNL     1     -10.125   7.140  -8.874  1.00  0.00    -0.508 OA
ATOM     27  H   UNL     1     -10.637   7.752  -8.249  1.00  0.00     0.293 HD
ENDBRANCH   8  26
TORSDOF 6
ENDMDL
MODEL 3
REMARK VINA RESULT:    -5.663      5.757      9.702
REMARK INTER + INTRA:          -7.138
REMARK INTER:                  -6.858
REMARK INTRA:                  -0.280
REMARK UNBOUND:                -0.316
REMARK SMILES O=c1c(O)c(-c2ccc(O)c(O)c2)oc2cc(O)cc(O)c12
REMARK SMILES IDX 5 1 3 2 2 3 1 4 22 5 20 6 19 7 17 8 16 9 15 10 14 11 6 12
REMARK SMILES IDX 7 13 8 14 9 15 13 16 11 17 10 18 12 20 4 22 21 24 18 26
REMARK H PARENT 10 19 12 21 4 23 21 25 18 27
REMARK Flexibility Score: inf
ROOT
ATOM      1  C   UNL     1      -2.037   5.799   6.392  1.00  0.00     0.180 A 
ATOM      2  C   UNL     1      -0.671   5.977   6.682  1.00  0.00     0.208 A 
ATOM      3  C   UNL     1       0.062   4.894   7.191  1.00  0.00     0.238 A 
ATOM      4  O   UNL     1       1.288   5.039   7.444  1.00  0.00    -0.285 OA
ATOM      5  C   UNL     1      -0.585   3.662   7.421  1.00  0.00     0.111 A 
ATOM      6  C   UNL     1       0.080   2.523   7.935  1.00  0.00     0.134 A 
ATOM      7  C   UNL     1      -0.636   1.335   8.144  1.00  0.00     0.093 A 
ATOM      8  C   UNL     1      -2.002   1.265   7.849  1.00  0.00     0.123 A 
ATOM      9  C   UNL     1      -2.662   2.385   7.341  1.00  0.00     0.094 A 
ATOM     10  C   UNL     1      -1.965   3.578   7.124  1.00  0.00     0.146 A 
ATOM     11  O   UNL     1      -2.618   4.627   6.635  1.00  0.00    -0.452 OA
ENDROOT
BRANCH   1  12
ATOM     12  C   UNL     1      -2.873   6.888   5.835  1.00  0.00     0.025 A 
ATOM     13  C   UNL     1      -3.831   7.509   6.650  1.00  0.00     0.016 A 
ATOM     14  C   UNL     1      -4.644   8.524   6.141  1.00  0.00     0.051 A 
ATOM     15  C   UNL     1      -4.522   8.923   4.803  1.00  0.00     0.157 A 
ATOM     16  C   UNL     1      -2.767   7.276   4.488  1.00  0.00     0.062 A 
ATOM     17  C   UNL     1      -3.581   8.291   3.972  1.00  0.00     0.158 A 
BRANCH  15  18
ATOM     18  O   UNL     1      -5.333   9.937   4.297  1.00  0.00    -0.504 OA
ATOM     19  H   UNL     1      -6.343   9.879   4.340  1.00  0.00     0.293 HD
ENDBRANCH  15  18
BRANCH  17  20
ATOM     20  O   UNL     1      -3.445   8.654   2.633  1.00  0.00    -0.504 OA
ATOM     21  H   UNL     1      -2.546   8.878   2.224  1.00  0.00     0.293 HD
ENDBRANCH  17  20
ENDBRANCH   1  12
BRANCH   2  22
ATOM     22  O   UNL     1      -0.066   7.222   6.492  1.00  0.00    -0.502 OA
ATOM     23  H   UNL     1      -0.437   7.915   5.853  1.00  0.00     0.293 HD
ENDBRANCH   2  22
BRANCH   6  24
ATOM     24  O   UNL     1       1.442   2.561   8.239  1.00  0.00    -0.507 OA
ATOM     25  H   UNL     1       1.810   2.150   9.087  1.00  0.00     0.293 HD
ENDBRANCH   6  24
BRANCH   8  26
ATOM     26  O   UNL     1      -2.714   0.086   8.058  1.00  0.00    -0.508 OA
ATOM     27  H   UNL     1      -2.349  -0.658   8.641  1.00  0.00     0.293 HD
ENDBRANCH   8  26
TORSDOF 6
ENDMDL
MODEL 4
REMARK VINA RESULT:    -5.554     10.114     11.170
REMARK INTER + INTRA:          -7.006
REMARK INTER:                  -6.674
REMARK INTRA:                  -0.332
REMARK UNBOUND:                -0.316
REMARK SMILES O=c1c(O)c(-c2ccc(O)c(O)c2)oc2cc(O)cc(O)c12
REMARK SMILES IDX 5 1 3 2 2 3 1 4 22 5 20 6 19 7 17 8 16 9 15 10 14 11 6 12
REMARK SMILES IDX 7 13 8 14 9 15 13 16 11 17 10 18 12 20 4 22 21 24 18 26
REMARK H PARENT 10 19 12 21 4 23 21 25 18 27
REMARK Flexibility Score: inf
ROOT
ATOM      1  C   UNL     1       6.961   5.894  -4.190  1.00  0.00     0.180 A 
ATOM      2  C   UNL     1       7.968   6.592  -3.497  1.00  0.00     0.208 A 
ATOM      3  C   UNL     1       7.620   7.746  -2.777  1.00  0.00     0.238 A 
ATOM      4  O   UNL     1       8.511   8.374  -2.143  1.00  0.00    -0.285 OA
ATOM      5  C   UNL     1       6.282   8.192  -2.779  1.00  0.00     0.111 A 
ATOM      6  C   UNL     1       5.850   9.346  -2.083  1.00  0.00     0.134 A 
ATOM      7  C   UNL     1       4.501   9.729  -2.142  1.00  0.00     0.093 A 
ATOM      8  C   UNL     1       3.580   8.981  -2.882  1.00  0.00     0.123 A 
ATOM      9  C   UNL     1       4.001   7.842  -3.570  1.00  0.00     0.094 A 
ATOM     10  C   UNL     1       5.340   7.443  -3.522  1.00  0.00     0.146 A 
ATOM     11  O   UNL     1       5.712   6.351  -4.182  1.00  0.00    -0.452 OA
ENDROOT
BRANCH   1  12
ATOM     12  C   UNL     1       7.245   4.658  -4.956  1.00  0.00     0.025 A 
ATOM     13  C   UNL     1       7.530   4.746  -6.328  1.00  0.00     0.016 A 
ATOM     14  C   UNL     1       7.781   3.593  -7.075  1.00  0.00     0.051 A 
ATOM     15  C   UNL     1       7.736   2.333  -6.465  1.00  0.00     0.157 A 
ATOM     16  C   UNL     1       7.180   3.390  -4.352  1.00  0.00     0.062 A 
ATOM     17  C   UNL     1       7.430   2.232  -5.097  1.00  0.00     0.158 A 
BRANCH  15  18
ATOM     18  O   UNL     1       7.989   1.183  -7.212  1.00  0.00    -0.504 OA
ATOM     19  H   UNL     1       7.237   0.597  -7.554  1.00  0.00     0.293 HD
ENDBRANCH  15  18
BRANCH  17  20
ATOM     20  O   UNL     1       7.361   0.992  -4.464  1.00  0.00    -0.504 OA
ATOM     21  H   UNL     1       7.743   0.838  -3.538  1.00  0.00     0.293 HD
ENDBRANCH  17  20
ENDBRANCH   1  12
BRANCH   2  22
ATOM     22  O   UNL     1       9.295   6.158  -3.551  1.00  0.00    -0.502 OA
ATOM     23  H   UNL     1      10.078   6.800  -3.519  1.00  0.00     0.293 HD
ENDBRANCH   2  22
BRANCH   6  24
ATOM     24  O   UNL     1       6.745  10.113  -1.336  1.00  0.00    -0.507 OA
ATOM     25  H   UNL     1       7.321   9.704  -0.611  1.00  0.00     0.293 HD
ENDBRANCH   6  24
BRANCH   8  26
ATOM     26  O   UNL     1       2.240   9.362  -2.942  1.00  0.00    -0.508 OA
ATOM     27  H   UNL     1       1.586   9.114  -2.209  1.00  0.00     0.293 HD
ENDBRANCH   8  26
TORSDOF 6
ENDMDL
MODEL 5
REMARK VINA RESULT:    -5.543      6.337      8.219
REMARK INTER + INTRA:          -6.992
REMARK INTER:                  -6.698
REMARK INTRA:                  -0.294
REMARK UNBOUND:                -0.316
REMARK SMILES O=c1c(O)c(-c2ccc(O)c(O)c2)oc2cc(O)cc(O)c12
REMARK SMILES IDX 5 1 3 2 2 3 1 4 22 5 20 6 19 7 17 8 16 9 15 10 14 11 6 12
REMARK SMILES IDX 7 13 8 14 9 15 13 16 11 17 10 18 12 20 4 22 21 24 18 26
REMARK H PARENT 10 19 12 21 4 23 21 25 18 27
REMARK Flexibility Score: inf
ROOT
ATOM      1  C   UNL     1      -1.994   3.732   7.424  1.00  0.00     0.180 A 
ATOM      2  C   UNL     1      -0.764   4.233   6.956  1.00  0.00     0.208 A 
ATOM      3  C   UNL     1      -0.642   5.609   6.709  1.00  0.00     0.238 A 
ATOM      4  O   UNL     1       0.458   6.070   6.300  1.00  0.00    -0.285 OA
ATOM      5  C   UNL     1      -1.752   6.454   6.911  1.00  0.00     0.111 A 
ATOM      6  C   UNL     1      -1.713   7.850   6.681  1.00  0.00     0.134 A 
ATOM      7  C   UNL     1      -2.864   8.623   6.898  1.00  0.00     0.093 A 
ATOM      8  C   UNL     1      -4.050   8.026   7.339  1.00  0.00     0.123 A 
ATOM      9  C   UNL     1      -4.094   6.650   7.568  1.00  0.00     0.094 A 
ATOM     10  C   UNL     1      -2.957   5.863   7.359  1.00  0.00     0.146 A 
ATOM     11  O   UNL     1      -3.024   4.556   7.590  1.00  0.00    -0.452 OA
ENDROOT
BRANCH   1  12
ATOM     12  C   UNL     1      -2.195   2.296   7.727  1.00  0.00     0.025 A 
ATOM     13  C   UNL     1      -1.711   1.771   8.935  1.00  0.00     0.016 A 
ATOM     14  C   UNL     1      -1.870   0.415   9.233  1.00  0.00     0.051 A 
ATOM     15  C   UNL     1      -2.503  -0.439   8.320  1.00  0.00     0.157 A 
ATOM     16  C   UNL     1      -2.811   1.432   6.804  1.00  0.00     0.062 A 
ATOM     17  C   UNL     1      -2.971   0.072   7.098  1.00  0.00     0.158 A 
BRANCH  15  18
ATOM     18  O   UNL     1      -2.663  -1.791   8.620  1.00  0.00    -0.504 OA
ATOM     19  H   UNL     1      -1.897  -2.448   8.531  1.00  0.00     0.293 HD
ENDBRANCH  15  18
BRANCH  17  20
ATOM     20  O   UNL     1      -3.591  -0.754   6.162  1.00  0.00    -0.504 OA
ATOM     21  H   UNL     1      -3.545  -0.570   5.166  1.00  0.00     0.293 HD
ENDBRANCH  17  20
ENDBRANCH   1  12
BRANCH   2  22
ATOM     22  O   UNL     1       0.306   3.366   6.716  1.00  0.00    -0.502 OA
ATOM     23  H   UNL     1       0.986   3.534   5.984  1.00  0.00     0.293 HD
ENDBRANCH   2  22
BRANCH   6  24
ATOM     24  O   UNL     1      -0.546   8.475   6.240  1.00  0.00    -0.507 OA
ATOM     25  H   UNL     1      -0.214   8.374   5.289  1.00  0.00     0.293 HD
ENDBRANCH   6  24
BRANCH   8  26
ATOM     26  O   UNL     1      -5.195   8.793   7.554  1.00  0.00    -0.508 OA
ATOM     27  H   UNL     1      -5.141   9.794   7.703  1.00  0.00     0.293 HD
ENDBRANCH   8  26
TORSDOF 6
ENDMDL
MODEL 6
REMARK VINA RESULT:    -5.478     13.275     15.375
REMARK INTER + INTRA:          -6.915
REMARK INTER:                  -6.759
REMARK INTRA:                  -0.156
REMARK UNBOUND:                -0.316
REMARK SMILES O=c1c(O)c(-c2ccc(O)c(O)c2)oc2cc(O)cc(O)c12
REMARK SMILES IDX 5 1 3 2 2 3 1 4 22 5 20 6 19 7 17 8 16 9 15 10 14 11 6 12
REMARK SMILES IDX 7 13 8 14 9 15 13 16 11 17 10 18 12 20 4 22 21 24 18 26
REMARK H PARENT 10 19 12 21 4 23 21 25 18 27
REMARK Flexibility Score: inf
ROOT
ATOM      1  C   UNL     1       5.402  -2.356  -5.276  1.00  0.00     0.180 A 
ATOM      2  C   UNL     1       6.495  -1.737  -4.639  1.00  0.00     0.208 A 
ATOM      3  C   UNL     1       7.229  -2.466  -3.690  1.00  0.00     0.238 A 
ATOM      4  O   UNL     1       8.216  -1.926  -3.121  1.00  0.00    -0.285 OA
ATOM      5  C   UNL     1       6.848  -3.788  -3.380  1.00  0.00     0.111 A 
ATOM      6  C   UNL     1       7.531  -4.588  -2.434  1.00  0.00     0.134 A 
ATOM      7  C   UNL     1       7.084  -5.892  -2.173  1.00  0.00     0.093 A 
ATOM      8  C   UNL     1       5.968  -6.409  -2.841  1.00  0.00     0.123 A 
ATOM      9  C   UNL     1       5.291  -5.624  -3.776  1.00  0.00     0.094 A 
ATOM     10  C   UNL     1       5.723  -4.323  -4.050  1.00  0.00     0.146 A 
ATOM     11  O   UNL     1       5.062  -3.599  -4.948  1.00  0.00    -0.452 OA
ENDROOT
BRANCH   1  12
ATOM     12  C   UNL     1       4.592  -1.660  -6.302  1.00  0.00     0.025 A 
ATOM     13  C   UNL     1       5.194  -1.264  -7.506  1.00  0.00     0.016 A 
ATOM     14  C   UNL     1       4.455  -0.587  -8.479  1.00  0.00     0.051 A 
ATOM     15  C   UNL     1       3.106  -0.282  -8.256  1.00  0.00     0.157 A 
ATOM     16  C   UNL     1       3.243  -1.333  -6.072  1.00  0.00     0.062 A 
ATOM     17  C   UNL     1       2.499  -0.654  -7.044  1.00  0.00     0.158 A 
BRANCH  15  18
ATOM     18  O   UNL     1       2.369   0.391  -9.229  1.00  0.00    -0.504 OA
ATOM     19  H   UNL     1       2.576   0.289 -10.216  1.00  0.00     0.293 HD
ENDBRANCH  15  18
BRANCH  17  20
ATOM     20  O   UNL     1       1.163  -0.352  -6.785  1.00  0.00    -0.504 OA
ATOM     21  H   UNL     1       0.767   0.558  -6.993  1.00  0.00     0.293 HD
ENDBRANCH  17  20
ENDBRANCH   1  12
BRANCH   2  22
ATOM     22  O   UNL     1       6.822  -0.410  -4.928  1.00  0.00    -0.502 OA
ATOM     23  H   UNL     1       7.582   0.075  -4.467  1.00  0.00     0.293 HD
ENDBRANCH   2  22
BRANCH   6  24
ATOM     24  O   UNL     1       8.647  -4.101  -1.751  1.00  0.00    -0.507 OA
ATOM     25  H   UNL     1       9.328  -3.503  -2.202  1.00  0.00     0.293 HD
ENDBRANCH   6  24
BRANCH   8  26
ATOM     26  O   UNL     1       5.523  -7.704  -2.583  1.00  0.00    -0.508 OA
ATOM     27  H   UNL     1       4.676  -7.877  -2.054  1.00  0.00     0.293 HD
ENDBRANCH   8  26
TORSDOF 6
ENDMDL
MODEL 7
REMARK VINA RESULT:    -5.430      9.367     12.630
REMARK INTER + INTRA:          -6.857
REMARK INTER:                  -6.666
REMARK INTRA:                  -0.191
REMARK UNBOUND:                -0.316
REMARK SMILES O=c1c(O)c(-c2ccc(O)c(O)c2)oc2cc(O)cc(O)c12
REMARK SMILES IDX 5 1 3 2 2 3 1 4 22 5 20 6 19 7 17 8 16 9 15 10 14 11 6 12
REMARK SMILES IDX 7 13 8 14 9 15 13 16 11 17 10 18 12 20 4 22 21 24 18 26
REMARK H PARENT 10 19 12 21 4 23 21 25 18 27
REMARK Flexibility Score: inf
ROOT
ATOM      1  C   UNL     1       7.141   5.275  -3.420  1.00  0.00     0.180 A 
ATOM      2  C   UNL     1       8.323   4.926  -2.739  1.00  0.00     0.208 A 
ATOM      3  C   UNL     1       8.948   3.708  -3.046  1.00  0.00     0.238 A 
ATOM      4  O   UNL     1      10.013   3.389  -2.450  1.00  0.00    -0.285 OA
ATOM      5  C   UNL     1       8.374   2.853  -4.009  1.00  0.00     0.111 A 
ATOM      6  C   UNL     1       8.939   1.607  -4.373  1.00  0.00     0.134 A 
ATOM      7  C   UNL     1       8.301   0.809  -5.335  1.00  0.00     0.093 A 
ATOM      8  C   UNL     1       7.112   1.234  -5.938  1.00  0.00     0.123 A 
ATOM      9  C   UNL     1       6.552   2.462  -5.583  1.00  0.00     0.094 A 
ATOM     10  C   UNL     1       7.173   3.272  -4.628  1.00  0.00     0.146 A 
ATOM     11  O   UNL     1       6.620   4.438  -4.313  1.00  0.00    -0.452 OA
ENDROOT
BRANCH   1  12
ATOM     12  C   UNL     1       6.434   6.552  -3.166  1.00  0.00     0.025 A 
ATOM     13  C   UNL     1       5.782   6.747  -1.938  1.00  0.00     0.016 A 
ATOM     14  C   UNL     1       5.091   7.934  -1.684  1.00  0.00     0.051 A 
ATOM     15  C   UNL     1       5.029   8.938  -2.659  1.00  0.00     0.157 A 
ATOM     16  C   UNL     1       6.351   7.552  -4.150  1.00  0.00     0.062 A 
ATOM     17  C   UNL     1       5.659   8.743  -3.900  1.00  0.00     0.158 A 
BRANCH  15  18
ATOM     18  O   UNL     1       4.341  10.123  -2.403  1.00  0.00    -0.504 OA
ATOM     19  H   UNL     1       4.724  11.025  -2.661  1.00  0.00     0.293 HD
ENDBRANCH  15  18
BRANCH  17  20
ATOM     20  O   UNL     1       5.602   9.716  -4.897  1.00  0.00    -0.504 OA
ATOM     21  H   UNL     1       5.875   9.523  -5.854  1.00  0.00     0.293 HD
ENDBRANCH  17  20
ENDBRANCH   1  12
BRANCH   2  22
ATOM     22  O   UNL     1       8.844   5.768  -1.752  1.00  0.00    -0.502 OA
ATOM     23  H   UNL     1       8.744   5.572  -0.763  1.00  0.00     0.293 HD
ENDBRANCH   2  22
BRANCH   6  24
ATOM     24  O   UNL     1      10.123   1.157  -3.790  1.00  0.00    -0.507 OA
ATOM     25  H   UNL     1      10.986   1.093  -4.315  1.00  0.00     0.293 HD
ENDBRANCH   6  24
BRANCH   8  26
ATOM     26  O   UNL     1       6.478   0.441  -6.893  1.00  0.00    -0.508 OA
ATOM     27  H   UNL     1       6.417  -0.565  -6.791  1.00  0.00     0.293 HD
ENDBRANCH   8  26
TORSDOF 6
ENDMDL
MODEL 8
REMARK VINA RESULT:    -5.419     13.306     15.298
REMARK INTER + INTRA:          -6.844
REMARK INTER:                  -6.741
REMARK INTRA:                  -0.103
REMARK UNBOUND:                -0.316
REMARK SMILES O=c1c(O)c(-c2ccc(O)c(O)c2)oc2cc(O)cc(O)c12
REMARK SMILES IDX 5 1 3 2 2 3 1 4 22 5 20 6 19 7 17 8 16 9 15 10 14 11 6 12
REMARK SMILES IDX 7 13 8 14 9 15 13 16 11 17 10 18 12 20 4 22 21 24 18 26
REMARK H PARENT 10 19 12 21 4 23 21 25 18 27
REMARK Flexibility Score: inf
ROOT
ATOM      1  C   UNL     1       5.050  -2.964  -5.250  1.00  0.00     0.180 A 
ATOM      2  C   UNL     1       4.531  -4.231  -4.921  1.00  0.00     0.208 A 
ATOM      3  C   UNL     1       5.216  -5.022  -3.985  1.00  0.00     0.238 A 
ATOM      4  O   UNL     1       4.755  -6.154  -3.675  1.00  0.00    -0.285 OA
ATOM      5  C   UNL     1       6.413  -4.546  -3.413  1.00  0.00     0.111 A 
ATOM      6  C   UNL     1       7.165  -5.282  -2.467  1.00  0.00     0.134 A 
ATOM      7  C   UNL     1       8.352  -4.741  -1.950  1.00  0.00     0.093 A 
ATOM      8  C   UNL     1       8.800  -3.481  -2.361  1.00  0.00     0.123 A 
ATOM      9  C   UNL     1       8.061  -2.751  -3.293  1.00  0.00     0.094 A 
ATOM     10  C   UNL     1       6.875  -3.271  -3.818  1.00  0.00     0.146 A 
ATOM     11  O   UNL     1       6.189  -2.552  -4.701  1.00  0.00    -0.452 OA
ENDROOT
BRANCH   1  12
ATOM     12  C   UNL     1       4.374  -2.063  -6.213  1.00  0.00     0.025 A 
ATOM     13  C   UNL     1       5.094  -1.558  -7.307  1.00  0.00     0.016 A 
ATOM     14  C   UNL     1       4.484  -0.690  -8.216  1.00  0.00     0.051 A 
ATOM     15  C   UNL     1       3.150  -0.302  -8.036  1.00  0.00     0.157 A 
ATOM     16  C   UNL     1       3.042  -1.655  -6.024  1.00  0.00     0.062 A 
ATOM     17  C   UNL     1       2.428  -0.784  -6.932  1.00  0.00     0.158 A 
BRANCH  15  18
ATOM     18  O   UNL     1       2.543   0.562  -8.946  1.00  0.00    -0.504 OA
ATOM     19  H   UNL     1       3.007   1.403  -9.269  1.00  0.00     0.293 HD
ENDBRANCH  15  18
BRANCH  17  20
ATOM     20  O   UNL     1       1.104  -0.405  -6.716  1.00  0.00    -0.504 OA
ATOM     21  H   UNL     1       0.752  -0.178  -5.793  1.00  0.00     0.293 HD
ENDBRANCH  17  20
ENDBRANCH   1  12
BRANCH   2  22
ATOM     22  O   UNL     1       3.369  -4.701  -5.540  1.00  0.00    -0.502 OA
ATOM     23  H   UNL     1       2.460  -4.286  -5.375  1.00  0.00     0.293 HD
ENDBRANCH   2  22
BRANCH   6  24
ATOM     24  O   UNL     1       6.745  -6.541  -2.037  1.00  0.00    -0.507 OA
ATOM     25  H   UNL     1       6.961  -6.888  -1.111  1.00  0.00     0.293 HD
ENDBRANCH   6  24
BRANCH   8  26
ATOM     26  O   UNL     1       9.979  -2.944  -1.848  1.00  0.00    -0.508 OA
ATOM     27  H   UNL     1      10.315  -3.189  -0.924  1.00  0.00     0.293 HD
ENDBRANCH   8  26
TORSDOF 6
ENDMDL
MODEL 9
REMARK VINA RESULT:    -5.276     17.651     20.070
REMARK INTER + INTRA:          -6.672
REMARK INTER:                  -6.422
REMARK INTRA:                  -0.250
REMARK UNBOUND:                -0.316
REMARK SMILES O=c1c(O)c(-c2ccc(O)c(O)c2)oc2cc(O)cc(O)c12
REMARK SMILES IDX 5 1 3 2 2 3 1 4 22 5 20 6 19 7 17 8 16 9 15 10 14 11 6 12
REMARK SMILES IDX 7 13 8 14 9 15 13 16 11 17 10 18 12 20 4 22 21 24 18 26
REMARK H PARENT 10 19 12 21 4 23 21 25 18 27
REMARK Flexibility Score: inf
ROOT
ATOM      1  C   UNL     1      -1.812  -8.222  -6.051  1.00  0.00     0.180 A 
ATOM      2  C   UNL     1      -2.416  -8.642  -7.251  1.00  0.00     0.208 A 
ATOM      3  C   UNL     1      -3.759  -9.049  -7.228  1.00  0.00     0.238 A 
ATOM      4  O   UNL     1      -4.314  -9.418  -8.299  1.00  0.00    -0.285 OA
ATOM      5  C   UNL     1      -4.466  -9.049  -6.009  1.00  0.00     0.111 A 
ATOM      6  C   UNL     1      -5.820  -9.448  -5.899  1.00  0.00     0.134 A 
ATOM      7  C   UNL     1      -6.452  -9.428  -4.646  1.00  0.00     0.093 A 
ATOM      8  C   UNL     1      -5.756  -9.018  -3.504  1.00  0.00     0.123 A 
ATOM      9  C   UNL     1      -4.421  -8.623  -3.607  1.00  0.00     0.094 A 
ATOM     10  C   UNL     1      -3.775  -8.634  -4.847  1.00  0.00     0.146 A 
ATOM     11  O   UNL     1      -2.505  -8.248  -4.916  1.00  0.00    -0.452 OA
ENDROOT
BRANCH   1  12
ATOM     12  C   UNL     1      -0.405  -7.760  -5.998  1.00  0.00     0.025 A 
ATOM     13  C   UNL     1       0.551  -8.536  -5.325  1.00  0.00     0.016 A 
ATOM     14  C   UNL     1       1.879  -8.110  -5.244  1.00  0.00     0.051 A 
ATOM     15  C   UNL     1       2.268  -6.894  -5.821  1.00  0.00     0.157 A 
ATOM     16  C   UNL     1      -0.016  -6.530  -6.558  1.00  0.00     0.062 A 
ATOM     17  C   UNL     1       1.313  -6.099  -6.477  1.00  0.00     0.158 A 
BRANCH  15  18
ATOM     18  O   UNL     1       3.594  -6.472  -5.741  1.00  0.00    -0.504 OA
ATOM     19  H   UNL     1       3.936  -5.949  -4.943  1.00  0.00     0.293 HD
ENDBRANCH  15  18
BRANCH  17  20
ATOM     20  O   UNL     1       1.664  -4.876  -7.049  1.00  0.00    -0.504 OA
ATOM     21  H   UNL     1       1.119  -4.452  -7.790  1.00  0.00     0.293 HD
ENDBRANCH  17  20
ENDBRANCH   1  12
BRANCH   2  22
ATOM     22  O   UNL     1      -1.678  -8.681  -8.438  1.00  0.00    -0.502 OA
ATOM     23  H   UNL     1      -1.750  -7.960  -9.146  1.00  0.00     0.293 HD
ENDBRANCH   2  22
BRANCH   6  24
ATOM     24  O   UNL     1      -6.540  -9.863  -7.020  1.00  0.00    -0.507 OA
ATOM     25  H   UNL     1      -6.284  -9.573  -7.956  1.00  0.00     0.293 HD
ENDBRANCH   6  24
BRANCH   8  26
ATOM     26  O   UNL     1      -6.382  -8.999  -2.259  1.00  0.00    -0.508 OA
ATOM     27  H   UNL     1      -6.721  -8.135  -1.850  1.00  0.00     0.293 HD
ENDBRANCH   8  26
TORSDOF 6
ENDMDL
