MODEL 1
REMARK VINA RESULT:    -6.072      0.000      0.000
REMARK INTER + INTRA:          -7.620
REMARK INTER:                  -7.315
REMARK INTRA:                  -0.305
REMARK UNBOUND:                -0.305
REMARK SMILES O=c1c(O)c(-c2ccc(O)cc2O)oc2cc(O)cc(O)c12
REMARK SMILES IDX 5 1 3 2 2 3 1 4 22 5 20 6 19 7 17 8 16 9 15 10 14 11 6 12
REMARK SMILES IDX 8 13 7 14 9 15 11 16 12 17 10 18 13 20 4 22 21 24 18 26
REMARK H PARENT 10 19 13 21 4 23 21 25 18 27
REMARK Flexibility Score: inf
ROOT
ATOM      1  C   UNL     1      -1.644  17.816  -4.091  1.00  0.00     0.184 A 
ATOM      2  C   UNL     1      -0.586  16.986  -4.502  1.00  0.00     0.208 A 
ATOM      3  C   UNL     1       0.491  16.778  -3.627  1.00  0.00     0.238 A 
ATOM      4  O   UNL     1       1.441  16.026  -3.979  1.00  0.00    -0.285 OA
ATOM      5  C   UNL     1       0.500  17.417  -2.369  1.00  0.00     0.111 A 
ATOM      6  C   UNL     1       1.548  17.263  -1.430  1.00  0.00     0.134 A 
ATOM      7  C   UNL     1       1.488  17.941  -0.204  1.00  0.00     0.093 A 
ATOM      8  C   UNL     1       0.400  18.768   0.102  1.00  0.00     0.123 A 
ATOM      9  C   UNL     1      -0.636  18.923  -0.821  1.00  0.00     0.094 A 
ATOM     10  C   UNL     1      -0.595  18.255  -2.049  1.00  0.00     0.146 A 
ATOM     11  O   UNL     1      -1.597  18.415  -2.906  1.00  0.00    -0.451 OA
ENDROOT
BRANCH   1  12
ATOM     12  C   UNL     1      -2.814  18.068  -4.959  1.00  0.00     0.063 A 
ATOM     13  C   UNL     1      -4.133  19.642  -6.260  1.00  0.00     0.047 A 
ATOM     14  C   UNL     1      -3.035  19.368  -5.442  1.00  0.00     0.020 A 
ATOM     15  C   UNL     1      -5.032  18.625  -6.595  1.00  0.00     0.119 A 
ATOM     16  C   UNL     1      -4.833  17.331  -6.099  1.00  0.00     0.093 A 
ATOM     17  C   UNL     1      -3.736  17.048  -5.273  1.00  0.00     0.130 A 
BRANCH  15  18
ATOM     18  O   UNL     1      -6.121  18.914  -7.414  1.00  0.00    -0.508 OA
ATOM     19  H   UNL     1      -7.040  19.094  -7.028  1.00  0.00     0.293 HD
ENDBRANCH  15  18
BRANCH  17  20
ATOM     20  O   UNL     1      -3.575  15.766  -4.746  1.00  0.00    -0.507 OA
ATOM     21  H   UNL     1      -4.035  15.483  -3.889  1.00  0.00     0.293 HD
ENDBRANCH  17  20
ENDBRANCH   1  12
BRANCH   2  22
ATOM     22  O   UNL     1      -0.603  16.403  -5.772  1.00  0.00    -0.502 OA
ATOM     23  H   UNL     1       0.242  16.252  -6.310  1.00  0.00     0.293 HD
ENDBRANCH   2  22
BRANCH   6  24
ATOM     24  O   UNL     1       2.645  16.446  -1.706  1.00  0.00    -0.507 OA
ATOM     25  H   UNL     1       2.599  15.707  -2.398  1.00  0.00     0.293 HD
ENDBRANCH   6  24
BRANCH   8  26
ATOM     26  O   UNL     1       0.340  19.442   1.319  1.00  0.00    -0.508 OA
ATOM     27  H   UNL     1      -0.179  19.069   2.106  1.00  0.00     0.293 HD
ENDBRANCH   8  26
TORSDOF 6
ENDMDL
MODEL 2
REMARK VINA RESULT:    -5.740      0.887      1.475
REMARK INTER + INTRA:          -7.219
REMARK INTER:                  -7.119
REMARK INTRA:                  -0.101
REMARK UNBOUND:                -0.305
REMARK SMILES O=c1c(O)c(-c2ccc(O)cc2O)oc2cc(O)cc(O)c12
REMARK SMILES IDX 5 1 3 2 2 3 1 4 22 5 20 6 19 7 17 8 16 9 15 10 14 11 6 12
REMARK SMILES IDX 8 13 7 14 9 15 11 16 12 17 10 18 13 20 4 22 21 24 18 26
REMARK H PARENT 10 19 13 21 4 23 21 25 18 27
REMARK Flexibility Score: inf
ROOT
ATOM      1  C   UNL     1      -1.820  17.518  -4.432  1.00  0.00     0.184 A 
ATOM      2  C   UNL     1      -0.715  16.746  -4.834  1.00  0.00     0.208 A 
ATOM      3  C   UNL     1       0.375  16.617  -3.961  1.00  0.00     0.238 A 
ATOM      4  O   UNL     1       1.368  15.918  -4.306  1.00  0.00    -0.285 OA
ATOM      5  C   UNL     1       0.350  17.276  -2.714  1.00  0.00     0.111 A 
ATOM      6  C   UNL     1       1.410  17.200  -1.777  1.00  0.00     0.134 A 
ATOM      7  C   UNL     1       1.313  17.893  -0.561  1.00  0.00     0.093 A 
ATOM      8  C   UNL     1       0.179  18.657  -0.264  1.00  0.00     0.123 A 
ATOM      9  C   UNL     1      -0.868  18.735  -1.185  1.00  0.00     0.094 A 
ATOM     10  C   UNL     1      -0.792  18.051  -2.402  1.00  0.00     0.146 A 
ATOM     11  O   UNL     1      -1.805  18.138  -3.257  1.00  0.00    -0.451 OA
ENDROOT
BRANCH   1  12
ATOM     12  C   UNL     1      -3.006  17.685  -5.298  1.00  0.00     0.063 A 
ATOM     13  C   UNL     1      -4.638  16.687  -6.799  1.00  0.00     0.047 A 
ATOM     14  C   UNL     1      -3.521  16.564  -5.968  1.00  0.00     0.020 A 
ATOM     15  C   UNL     1      -5.244  17.933  -6.981  1.00  0.00     0.119 A 
ATOM     16  C   UNL     1      -4.723  19.061  -6.336  1.00  0.00     0.093 A 
ATOM     17  C   UNL     1      -3.599  18.947  -5.505  1.00  0.00     0.130 A 
BRANCH  15  18
ATOM     18  O   UNL     1      -6.359  18.038  -7.810  1.00  0.00    -0.508 OA
ATOM     19  H   UNL     1      -6.653  18.931  -8.189  1.00  0.00     0.293 HD
ENDBRANCH  15  18
BRANCH  17  20
ATOM     20  O   UNL     1      -3.060  20.086  -4.906  1.00  0.00    -0.507 OA
ATOM     21  H   UNL     1      -3.629  20.711  -4.347  1.00  0.00     0.293 HD
ENDBRANCH  17  20
ENDBRANCH   1  12
BRANCH   2  22
ATOM     22  O   UNL     1      -0.702  16.143  -6.095  1.00  0.00    -0.502 OA
ATOM     23  H   UNL     1      -0.374  15.195  -6.239  1.00  0.00     0.293 HD
ENDBRANCH   2  22
BRANCH   6  24
ATOM     24  O   UNL     1       2.553  16.446  -2.045  1.00  0.00    -0.507 OA
ATOM     25  H   UNL     1       2.496  15.509  -2.425  1.00  0.00     0.293 HD
ENDBRANCH   6  24
BRANCH   8  26
ATOM     26  O   UNL     1       0.082  19.346   0.943  1.00  0.00    -0.508 OA
ATOM     27  H   UNL     1       0.540  19.010   1.782  1.00  0.00     0.293 HD
ENDBRANCH   8  26
TORSDOF 6
ENDMDL
MODEL 3
REMARK VINA RESULT:    -5.653      1.660      6.716
REMARK INTER + INTRA:          -7.115
REMARK INTER:                  -6.699
REMARK INTRA:                  -0.416
REMARK UNBOUND:                -0.305
REMARK SMILES O=c1c(O)c(-c2ccc(O)cc2O)oc2cc(O)cc(O)c12
REMARK SMILES IDX 5 1 3 2 2 3 1 4 22 5 20 6 19 7 17 8 16 9 15 10 14 11 6 12
REMARK SMILES IDX 8 13 7 14 9 15 11 16 12 17 10 18 13 20 4 22 21 24 18 26
REMARK H PARENT 10 19 13 21 4 23 21 25 18 27
REMARK Flexibility Score: inf
ROOT
ATOM      1  C   UNL     1      -1.444  17.216  -2.742  1.00  0.00     0.184 A 
ATOM      2  C   UNL     1      -2.353  16.183  -2.454  1.00  0.00     0.208 A 
ATOM      3  C   UNL     1      -3.286  15.809  -3.434  1.00  0.00     0.238 A 
ATOM      4  O   UNL     1      -4.101  14.876  -3.192  1.00  0.00    -0.285 OA
ATOM      5  C   UNL     1      -3.305  16.486  -4.671  1.00  0.00     0.111 A 
ATOM      6  C   UNL     1      -4.214  16.173  -5.711  1.00  0.00     0.134 A 
ATOM      7  C   UNL     1      -4.175  16.899  -6.910  1.00  0.00     0.093 A 
ATOM      8  C   UNL     1      -3.245  17.929  -7.090  1.00  0.00     0.123 A 
ATOM      9  C   UNL     1      -2.347  18.241  -6.068  1.00  0.00     0.094 A 
ATOM     10  C   UNL     1      -2.368  17.529  -4.865  1.00  0.00     0.146 A 
ATOM     11  O   UNL     1      -1.498  17.842  -3.912  1.00  0.00    -0.451 OA
ENDROOT
BRANCH   1  12
ATOM     12  C   UNL     1      -0.428  17.650  -1.760  1.00  0.00     0.063 A 
ATOM     13  C   UNL     1       0.221  19.177   0.017  1.00  0.00     0.047 A 
ATOM     14  C   UNL     1      -0.718  18.736  -0.919  1.00  0.00     0.020 A 
ATOM     15  C   UNL     1       1.465  18.547   0.116  1.00  0.00     0.119 A 
ATOM     16  C   UNL     1       1.772  17.478  -0.735  1.00  0.00     0.093 A 
ATOM     17  C   UNL     1       0.837  17.033  -1.681  1.00  0.00     0.130 A 
BRANCH  15  18
ATOM     18  O   UNL     1       2.389  18.996   1.057  1.00  0.00    -0.508 OA
ATOM     19  H   UNL     1       3.386  18.880   0.915  1.00  0.00     0.293 HD
ENDBRANCH  15  18
BRANCH  17  20
ATOM     20  O   UNL     1       1.172  15.999  -2.555  1.00  0.00    -0.507 OA
ATOM     21  H   UNL     1       0.470  15.369  -2.926  1.00  0.00     0.293 HD
ENDBRANCH  17  20
ENDBRANCH   1  12
BRANCH   2  22
ATOM     22  O   UNL     1      -2.339  15.563  -1.202  1.00  0.00    -0.502 OA
ATOM     23  H   UNL     1      -1.506  15.126  -0.823  1.00  0.00     0.293 HD
ENDBRANCH   2  22
BRANCH   6  24
ATOM     24  O   UNL     1      -5.152  15.151  -5.561  1.00  0.00    -0.507 OA
ATOM     25  H   UNL     1      -6.117  15.266  -5.848  1.00  0.00     0.293 HD
ENDBRANCH   6  24
BRANCH   8  26
ATOM     26  O   UNL     1      -3.207  18.652  -8.281  1.00  0.00    -0.508 OA
ATOM     27  H   UNL     1      -4.021  18.726  -8.881  1.00  0.00     0.293 HD
ENDBRANCH   8  26
TORSDOF 6
ENDMDL
MODEL 4
REMARK VINA RESULT:    -5.511      2.493      6.062
REMARK INTER + INTRA:          -6.944
REMARK INTER:                  -6.546
REMARK INTRA:                  -0.398
REMARK UNBOUND:                -0.305
REMARK SMILES O=c1c(O)c(-c2ccc(O)cc2O)oc2cc(O)cc(O)c12
REMARK SMILES IDX 5 1 3 2 2 3 1 4 22 5 20 6 19 7 17 8 16 9 15 10 14 11 6 12
REMARK SMILES IDX 8 13 7 14 9 15 11 16 12 17 10 18 13 20 4 22 21 24 18 26
REMARK H PARENT 10 19 13 21 4 23 21 25 18 27
REMARK Flexibility Score: inf
ROOT
ATOM      1  C   UNL     1       0.267  16.984  -3.580  1.00  0.00     0.184 A 
ATOM      2  C   UNL     1       1.497  16.335  -3.782  1.00  0.00     0.208 A 
ATOM      3  C   UNL     1       1.810  15.860  -5.065  1.00  0.00     0.238 A 
ATOM      4  O   UNL     1       2.916  15.285  -5.262  1.00  0.00    -0.285 OA
ATOM      5  C   UNL     1       0.881  16.024  -6.114  1.00  0.00     0.111 A 
ATOM      6  C   UNL     1       1.117  15.570  -7.434  1.00  0.00     0.134 A 
ATOM      7  C   UNL     1       0.138  15.763  -8.420  1.00  0.00     0.093 A 
ATOM      8  C   UNL     1      -1.070  16.400  -8.111  1.00  0.00     0.123 A 
ATOM      9  C   UNL     1      -1.307  16.848  -6.810  1.00  0.00     0.094 A 
ATOM     10  C   UNL     1      -0.343  16.667  -5.813  1.00  0.00     0.146 A 
ATOM     11  O   UNL     1      -0.592  17.108  -4.585  1.00  0.00    -0.451 OA
ENDROOT
BRANCH   1  12
ATOM     12  C   UNL     1      -0.119  17.519  -2.257  1.00  0.00     0.063 A 
ATOM     13  C   UNL     1       0.254  19.139  -0.484  1.00  0.00     0.047 A 
ATOM     14  C   UNL     1       0.589  18.612  -1.733  1.00  0.00     0.020 A 
ATOM     15  C   UNL     1      -0.783  18.574   0.263  1.00  0.00     0.119 A 
ATOM     16  C   UNL     1      -1.480  17.468  -0.240  1.00  0.00     0.093 A 
ATOM     17  C   UNL     1      -1.146  16.929  -1.491  1.00  0.00     0.130 A 
BRANCH  15  18
ATOM     18  O   UNL     1      -1.108  19.113   1.506  1.00  0.00    -0.508 OA
ATOM     19  H   UNL     1      -0.618  19.920   1.876  1.00  0.00     0.293 HD
ENDBRANCH  15  18
BRANCH  17  20
ATOM     20  O   UNL     1      -1.815  15.798  -1.961  1.00  0.00    -0.507 OA
ATOM     21  H   UNL     1      -1.953  15.636  -2.952  1.00  0.00     0.293 HD
ENDBRANCH  17  20
ENDBRANCH   1  12
BRANCH   2  22
ATOM     22  O   UNL     1       2.377  16.148  -2.712  1.00  0.00    -0.502 OA
ATOM     23  H   UNL     1       2.600  15.229  -2.348  1.00  0.00     0.293 HD
ENDBRANCH   2  22
BRANCH   6  24
ATOM     24  O   UNL     1       2.311  14.933  -7.772  1.00  0.00    -0.507 OA
ATOM     25  H   UNL     1       3.064  15.424  -8.238  1.00  0.00     0.293 HD
ENDBRANCH   6  24
BRANCH   8  26
ATOM     26  O   UNL     1      -2.043  16.591  -9.090  1.00  0.00    -0.508 OA
ATOM     27  H   UNL     1      -2.408  15.815  -9.631  1.00  0.00     0.293 HD
ENDBRANCH   8  26
TORSDOF 6
ENDMDL
MODEL 5
REMARK VINA RESULT:    -5.510      7.703      9.383
REMARK INTER + INTRA:          -6.942
REMARK INTER:                  -6.583
REMARK INTRA:                  -0.359
REMARK UNBOUND:                -0.305
REMARK SMILES O=c1c(O)c(-c2ccc(O)cc2O)oc2cc(O)cc(O)c12
REMARK SMILES IDX 5 1 3 2 2 3 1 4 22 5 20 6 19 7 17 8 16 9 15 10 14 11 6 12
REMARK SMILES IDX 8 13 7 14 9 15 11 16 12 17 10 18 13 20 4 22 21 24 18 26
REMARK H PARENT 10 19 13 21 4 23 21 25 18 27
REMARK Flexibility Score: inf
ROOT
ATOM      1  C   UNL     1      -7.482  24.219  -5.551  1.00  0.00     0.184 A 
ATOM      2  C   UNL     1      -6.324  23.514  -5.179  1.00  0.00     0.208 A 
ATOM      3  C   UNL     1      -5.917  23.537  -3.837  1.00  0.00     0.238 A 
ATOM      4  O   UNL     1      -4.885  22.899  -3.489  1.00  0.00    -0.285 OA
ATOM      5  C   UNL     1      -6.662  24.280  -2.897  1.00  0.00     0.111 A 
ATOM      6  C   UNL     1      -6.317  24.359  -1.525  1.00  0.00     0.134 A 
ATOM      7  C   UNL     1      -7.104  25.127  -0.655  1.00  0.00     0.093 A 
ATOM      8  C   UNL     1      -8.227  25.816  -1.128  1.00  0.00     0.123 A 
ATOM      9  C   UNL     1      -8.570  25.741  -2.480  1.00  0.00     0.094 A 
ATOM     10  C   UNL     1      -7.799  24.980  -3.364  1.00  0.00     0.146 A 
ATOM     11  O   UNL     1      -8.152  24.922  -4.643  1.00  0.00    -0.451 OA
ENDROOT
BRANCH   1  12
ATOM     12  C   UNL     1      -7.972  24.226  -6.945  1.00  0.00     0.063 A 
ATOM     13  C   UNL     1      -7.608  24.833  -9.271  1.00  0.00     0.047 A 
ATOM     14  C   UNL     1      -7.173  24.804  -7.944  1.00  0.00     0.020 A 
ATOM     15  C   UNL     1      -8.852  24.296  -9.615  1.00  0.00     0.119 A 
ATOM     16  C   UNL     1      -9.667  23.739  -8.622  1.00  0.00     0.093 A 
ATOM     17  C   UNL     1      -9.240  23.712  -7.286  1.00  0.00     0.130 A 
BRANCH  15  18
ATOM     18  O   UNL     1      -9.270  24.329 -10.943  1.00  0.00    -0.508 OA
ATOM     19  H   UNL     1      -9.290  23.490 -11.512  1.00  0.00     0.293 HD
ENDBRANCH  15  18
BRANCH  17  20
ATOM     20  O   UNL     1     -10.080  23.197  -6.299  1.00  0.00    -0.507 OA
ATOM     21  H   UNL     1     -10.676  23.799  -5.741  1.00  0.00     0.293 HD
ENDBRANCH  17  20
ENDBRANCH   1  12
BRANCH   2  22
ATOM     22  O   UNL     1      -5.583  22.824  -6.143  1.00  0.00    -0.502 OA
ATOM     23  H   UNL     1      -5.914  22.697  -7.092  1.00  0.00     0.293 HD
ENDBRANCH   2  22
BRANCH   6  24
ATOM     24  O   UNL     1      -5.204  23.684  -1.024  1.00  0.00    -0.507 OA
ATOM     25  H   UNL     1      -4.454  23.369  -1.629  1.00  0.00     0.293 HD
ENDBRANCH   6  24
BRANCH   8  26
ATOM     26  O   UNL     1      -9.009  26.580  -0.264  1.00  0.00    -0.508 OA
ATOM     27  H   UNL     1      -9.850  26.206   0.159  1.00  0.00     0.293 HD
ENDBRANCH   8  26
TORSDOF 6
ENDMDL
MODEL 6
REMARK VINA RESULT:    -5.466      8.261     10.187
REMARK INTER + INTRA:          -6.890
REMARK INTER:                  -6.479
REMARK INTRA:                  -0.411
REMARK UNBOUND:                -0.305
REMARK SMILES O=c1c(O)c(-c2ccc(O)cc2O)oc2cc(O)cc(O)c12
REMARK SMILES IDX 5 1 3 2 2 3 1 4 22 5 20 6 19 7 17 8 16 9 15 10 14 11 6 12
REMARK SMILES IDX 8 13 7 14 9 15 11 16 12 17 10 18 13 20 4 22 21 24 18 26
REMARK H PARENT 10 19 13 21 4 23 21 25 18 27
REMARK Flexibility Score: inf
ROOT
ATOM      1  C   UNL     1      -8.087  24.711  -5.581  1.00  0.00     0.184 A 
ATOM      2  C   UNL     1      -9.114  25.521  -5.066  1.00  0.00     0.208 A 
ATOM      3  C   UNL     1      -9.119  25.822  -3.695  1.00  0.00     0.238 A 
ATOM      4  O   UNL     1     -10.030  26.557  -3.224  1.00  0.00    -0.285 OA
ATOM      5  C   UNL     1      -8.110  25.292  -2.864  1.00  0.00     0.111 A 
ATOM      6  C   UNL     1      -8.044  25.544  -1.471  1.00  0.00     0.134 A 
ATOM      7  C   UNL     1      -7.014  24.972  -0.710  1.00  0.00     0.093 A 
ATOM      8  C   UNL     1      -6.049  24.156  -1.314  1.00  0.00     0.123 A 
ATOM      9  C   UNL     1      -6.111  23.905  -2.686  1.00  0.00     0.094 A 
ATOM     10  C   UNL     1      -7.130  24.467  -3.463  1.00  0.00     0.146 A 
ATOM     11  O   UNL     1      -7.161  24.216  -4.767  1.00  0.00    -0.451 OA
ENDROOT
BRANCH   1  12
ATOM     12  C   UNL     1      -8.017  24.367  -7.016  1.00  0.00     0.063 A 
ATOM     13  C   UNL     1      -7.256  24.938  -9.253  1.00  0.00     0.047 A 
ATOM     14  C   UNL     1      -7.338  25.231  -7.890  1.00  0.00     0.020 A 
ATOM     15  C   UNL     1      -7.863  23.787  -9.763  1.00  0.00     0.119 A 
ATOM     16  C   UNL     1      -8.562  22.931  -8.903  1.00  0.00     0.093 A 
ATOM     17  C   UNL     1      -8.653  23.220  -7.534  1.00  0.00     0.130 A 
BRANCH  15  18
ATOM     18  O   UNL     1      -7.769  23.507 -11.125  1.00  0.00    -0.508 OA
ATOM     19  H   UNL     1      -8.289  22.745 -11.545  1.00  0.00     0.293 HD
ENDBRANCH  15  18
BRANCH  17  20
ATOM     20  O   UNL     1      -9.394  22.386  -6.696  1.00  0.00    -0.507 OA
ATOM     21  H   UNL     1      -9.747  22.709  -5.803  1.00  0.00     0.293 HD
ENDBRANCH  17  20
ENDBRANCH   1  12
BRANCH   2  22
ATOM     22  O   UNL     1     -10.125  25.994  -5.909  1.00  0.00    -0.502 OA
ATOM     23  H   UNL     1     -10.594  25.396  -6.579  1.00  0.00     0.293 HD
ENDBRANCH   2  22
BRANCH   6  24
ATOM     24  O   UNL     1      -8.990  26.353  -0.842  1.00  0.00    -0.507 OA
ATOM     25  H   UNL     1      -8.746  26.951  -0.061  1.00  0.00     0.293 HD
ENDBRANCH   6  24
BRANCH   8  26
ATOM     26  O   UNL     1      -5.027  23.587  -0.558  1.00  0.00    -0.508 OA
ATOM     27  H   UNL     1      -5.213  23.136   0.330  1.00  0.00     0.293 HD
ENDBRANCH   8  26
TORSDOF 6
ENDMDL
MODEL 7
REMARK VINA RESULT:    -5.321      1.460      6.386
REMARK INTER + INTRA:          -6.715
REMARK INTER:                  -6.512
REMARK INTRA:                  -0.203
REMARK UNBOUND:                -0.305
REMARK SMILES O=c1c(O)c(-c2ccc(O)cc2O)oc2cc(O)cc(O)c12
REMARK SMILES IDX 5 1 3 2 2 3 1 4 22 5 20 6 19 7 17 8 16 9 15 10 14 11 6 12
REMARK SMILES IDX 8 13 7 14 9 15 11 16 12 17 10 18 13 20 4 22 21 24 18 26
REMARK H PARENT 10 19 13 21 4 23 21 25 18 27
REMARK Flexibility Score: inf
ROOT
ATOM      1  C   UNL     1      -0.161  17.356  -3.328  1.00  0.00     0.184 A 
ATOM      2  C   UNL     1       0.485  16.545  -4.277  1.00  0.00     0.208 A 
ATOM      3  C   UNL     1      -0.124  16.345  -5.525  1.00  0.00     0.238 A 
ATOM      4  O   UNL     1       0.452  15.628  -6.389  1.00  0.00    -0.285 OA
ATOM      5  C   UNL     1      -1.374  16.943  -5.793  1.00  0.00     0.111 A 
ATOM      6  C   UNL     1      -2.056  16.788  -7.024  1.00  0.00     0.134 A 
ATOM      7  C   UNL     1      -3.301  17.407  -7.210  1.00  0.00     0.093 A 
ATOM      8  C   UNL     1      -3.875  18.177  -6.191  1.00  0.00     0.123 A 
ATOM      9  C   UNL     1      -3.205  18.331  -4.976  1.00  0.00     0.094 A 
ATOM     10  C   UNL     1      -1.962  17.723  -4.770  1.00  0.00     0.146 A 
ATOM     11  O   UNL     1      -1.344  17.892  -3.607  1.00  0.00    -0.451 OA
ENDROOT
BRANCH   1  12
ATOM     12  C   UNL     1       0.432  17.618  -1.999  1.00  0.00     0.063 A 
ATOM     13  C   UNL     1       1.366  19.213  -0.420  1.00  0.00     0.047 A 
ATOM     14  C   UNL     1       0.798  18.931  -1.665  1.00  0.00     0.020 A 
ATOM     15  C   UNL     1       1.586  18.185   0.501  1.00  0.00     0.119 A 
ATOM     16  C   UNL     1       1.245  16.868   0.168  1.00  0.00     0.093 A 
ATOM     17  C   UNL     1       0.680  16.576  -1.081  1.00  0.00     0.130 A 
BRANCH  15  18
ATOM     18  O   UNL     1       2.149  18.483   1.741  1.00  0.00    -0.508 OA
ATOM     19  H   UNL     1       2.170  19.431   2.098  1.00  0.00     0.293 HD
ENDBRANCH  15  18
BRANCH  17  20
ATOM     20  O   UNL     1       0.389  15.254  -1.421  1.00  0.00    -0.507 OA
ATOM     21  H   UNL     1       0.119  14.995  -2.362  1.00  0.00     0.293 HD
ENDBRANCH  17  20
ENDBRANCH   1  12
BRANCH   2  22
ATOM     22  O   UNL     1       1.702  15.931  -3.964  1.00  0.00    -0.502 OA
ATOM     23  H   UNL     1       1.847  14.934  -4.066  1.00  0.00     0.293 HD
ENDBRANCH   2  22
BRANCH   6  24
ATOM     24  O   UNL     1      -1.510  16.028  -8.058  1.00  0.00    -0.507 OA
ATOM     25  H   UNL     1      -1.154  15.092  -7.902  1.00  0.00     0.293 HD
ENDBRANCH   6  24
BRANCH   8  26
ATOM     26  O   UNL     1      -5.112  18.790  -6.375  1.00  0.00    -0.508 OA
ATOM     27  H   UNL     1      -5.196  19.678  -6.856  1.00  0.00     0.293 HD
ENDBRANCH   8  26
TORSDOF 6
ENDMDL
MODEL 8
REMARK VINA RESULT:    -5.313      1.598      6.737
REMARK INTER + INTRA:          -6.705
REMARK INTER:                  -6.417
REMARK INTRA:                  -0.289
REMARK UNBOUND:                -0.305
REMARK SMILES O=c1c(O)c(-c2ccc(O)cc2O)oc2cc(O)cc(O)c12
REMARK SMILES IDX 5 1 3 2 2 3 1 4 22 5 20 6 19 7 17 8 16 9 15 10 14 11 6 12
REMARK SMILES IDX 8 13 7 14 9 15 11 16 12 17 10 18 13 20 4 22 21 24 18 26
REMARK H PARENT 10 19 13 21 4 23 21 25 18 27
REMARK Flexibility Score: inf
ROOT
ATOM      1  C   UNL     1      -2.520  17.852  -4.676  1.00  0.00     0.184 A 
ATOM      2  C   UNL     1      -3.403  16.876  -5.170  1.00  0.00     0.208 A 
ATOM      3  C   UNL     1      -4.568  17.289  -5.834  1.00  0.00     0.238 A 
ATOM      4  O   UNL     1      -5.363  16.423  -6.291  1.00  0.00    -0.285 OA
ATOM      5  C   UNL     1      -4.837  18.667  -5.974  1.00  0.00     0.111 A 
ATOM      6  C   UNL     1      -5.990  19.168  -6.627  1.00  0.00     0.134 A 
ATOM      7  C   UNL     1      -6.191  20.553  -6.717  1.00  0.00     0.093 A 
ATOM      8  C   UNL     1      -5.262  21.446  -6.170  1.00  0.00     0.123 A 
ATOM      9  C   UNL     1      -4.124  20.956  -5.525  1.00  0.00     0.094 A 
ATOM     10  C   UNL     1      -3.905  19.579  -5.425  1.00  0.00     0.146 A 
ATOM     11  O   UNL     1      -2.811  19.141  -4.812  1.00  0.00    -0.451 OA
ENDROOT
BRANCH   1  12
ATOM     12  C   UNL     1      -1.270  17.485  -3.978  1.00  0.00     0.063 A 
ATOM     13  C   UNL     1       0.058  17.520  -1.942  1.00  0.00     0.047 A 
ATOM     14  C   UNL     1      -1.113  17.846  -2.630  1.00  0.00     0.020 A 
ATOM     15  C   UNL     1       1.091  16.840  -2.593  1.00  0.00     0.119 A 
ATOM     16  C   UNL     1       0.953  16.496  -3.943  1.00  0.00     0.093 A 
ATOM     17  C   UNL     1      -0.216  16.825  -4.643  1.00  0.00     0.130 A 
BRANCH  15  18
ATOM     18  O   UNL     1       2.251  16.519  -1.891  1.00  0.00    -0.508 OA
ATOM     19  H   UNL     1       3.011  16.012  -2.330  1.00  0.00     0.293 HD
ENDBRANCH  15  18
BRANCH  17  20
ATOM     20  O   UNL     1      -0.323  16.519  -6.001  1.00  0.00    -0.507 OA
ATOM     21  H   UNL     1       0.256  15.808  -6.432  1.00  0.00     0.293 HD
ENDBRANCH  17  20
ENDBRANCH   1  12
BRANCH   2  22
ATOM     22  O   UNL     1      -3.130  15.519  -4.974  1.00  0.00    -0.502 OA
ATOM     23  H   UNL     1      -3.689  14.937  -4.361  1.00  0.00     0.293 HD
ENDBRANCH   2  22
BRANCH   6  24
ATOM     24  O   UNL     1      -6.933  18.303  -7.183  1.00  0.00    -0.507 OA
ATOM     25  H   UNL     1      -7.900  18.580  -7.311  1.00  0.00     0.293 HD
ENDBRANCH   6  24
BRANCH   8  26
ATOM     26  O   UNL     1      -5.461  22.822  -6.258  1.00  0.00    -0.508 OA
ATOM     27  H   UNL     1      -5.087  23.457  -5.563  1.00  0.00     0.293 HD
ENDBRANCH   8  26
TORSDOF 6
ENDMDL
MODEL 9
REMARK VINA RESULT:    -5.051      2.266      6.714
REMARK INTER + INTRA:          -6.390
REMARK INTER:                  -6.232
REMARK INTRA:                  -0.158
REMARK UNBOUND:                -0.305
REMARK SMILES O=c1c(O)c(-c2ccc(O)cc2O)oc2cc(O)cc(O)c12
REMARK SMILES IDX 5 1 3 2 2 3 1 4 22 5 20 6 19 7 17 8 16 9 15 10 14 11 6 12
REMARK SMILES IDX 8 13 7 14 9 15 11 16 12 17 10 18 13 20 4 22 21 24 18 26
REMARK H PARENT 10 19 13 21 4 23 21 25 18 27
REMARK Flexibility Score: inf
ROOT
ATOM      1  C   UNL     1      -0.508  16.887  -3.591  1.00  0.00     0.184 A 
ATOM      2  C   UNL     1      -1.820  16.390  -3.678  1.00  0.00     0.208 A 
ATOM      3  C   UNL     1      -2.273  15.885  -4.907  1.00  0.00     0.238 A 
ATOM      4  O   UNL     1      -3.446  15.427  -4.995  1.00  0.00    -0.285 OA
ATOM      5  C   UNL     1      -1.415  15.904  -6.026  1.00  0.00     0.111 A 
ATOM      6  C   UNL     1      -1.795  15.417  -7.300  1.00  0.00     0.134 A 
ATOM      7  C   UNL     1      -0.886  15.479  -8.367  1.00  0.00     0.093 A 
ATOM      8  C   UNL     1       0.394  16.016  -8.184  1.00  0.00     0.123 A 
ATOM      9  C   UNL     1       0.772  16.498  -6.929  1.00  0.00     0.094 A 
ATOM     10  C   UNL     1      -0.119  16.444  -5.852  1.00  0.00     0.146 A 
ATOM     11  O   UNL     1       0.270  16.903  -4.668  1.00  0.00    -0.451 OA
ENDROOT
BRANCH   1  12
ATOM     12  C   UNL     1       0.036  17.422  -2.325  1.00  0.00     0.063 A 
ATOM     13  C   UNL     1      -0.235  18.887  -0.404  1.00  0.00     0.047 A 
ATOM     14  C   UNL     1      -0.721  18.357  -1.602  1.00  0.00     0.020 A 
ATOM     15  C   UNL     1       1.018  18.500   0.079  1.00  0.00     0.119 A 
ATOM     16  C   UNL     1       1.791  17.585  -0.647  1.00  0.00     0.093 A 
ATOM     17  C   UNL     1       1.313  17.053  -1.853  1.00  0.00     0.130 A 
BRANCH  15  18
ATOM     18  O   UNL     1       1.488  19.035   1.277  1.00  0.00    -0.508 OA
ATOM     19  H   UNL     1       2.478  19.064   1.491  1.00  0.00     0.293 HD
ENDBRANCH  15  18
BRANCH  17  20
ATOM     20  O   UNL     1       2.111  16.179  -2.592  1.00  0.00    -0.507 OA
ATOM     21  H   UNL     1       1.867  15.907  -3.537  1.00  0.00     0.293 HD
ENDBRANCH  17  20
ENDBRANCH   1  12
BRANCH   2  22
ATOM     22  O   UNL     1      -2.661  16.428  -2.562  1.00  0.00    -0.502 OA
ATOM     23  H   UNL     1      -2.312  16.316  -1.618  1.00  0.00     0.293 HD
ENDBRANCH   2  22
BRANCH   6  24
ATOM     24  O   UNL     1      -3.063  14.876  -7.514  1.00  0.00    -0.507 OA
ATOM     25  H   UNL     1      -3.904  15.433  -7.420  1.00  0.00     0.293 HD
ENDBRANCH   6  24
BRANCH   8  26
ATOM     26  O   UNL     1       1.296  16.079  -9.243  1.00  0.00    -0.508 OA
ATOM     27  H   UNL     1       1.219  15.460 -10.042  1.00  0.00     0.293 HD
ENDBRANCH   8  26
TORSDOF 6
ENDMDL
