MODEL 1
REMARK VINA RESULT:    -4.944      0.000      0.000
REMARK INTER + INTRA:          -8.255
REMARK INTER:                  -7.835
REMARK INTRA:                  -0.420
REMARK UNBOUND:                -0.420
REMARK SMILES CCCCCCCCCCCC(=O)[O-]
REMARK SMILES IDX 7 1 8 2 9 3 10 4 11 5 12 6 13 7 14 8 6 9 5 10 4 11 3 12 2 13
REMARK SMILES IDX 1 14
REMARK H PARENT
REMARK Flexibility Score: inf
ROOT
ATOM      1  C   UNL     1      -6.308  -6.732  -6.827  1.00  0.00     0.000 C 
ENDROOT
BRANCH   1   2
ATOM      2  C   UNL     1      -7.589  -7.230  -6.134  1.00  0.00     0.000 C 
BRANCH   2   3
ATOM      3  C   UNL     1      -7.767  -6.652  -4.720  1.00  0.00     0.000 C 
BRANCH   3   4
ATOM      4  C   UNL     1      -8.007  -7.742  -3.663  1.00  0.00     0.006 C 
BRANCH   4   5
ATOM      5  C   UNL     1      -6.720  -8.165  -2.944  1.00  0.00     0.053 C 
BRANCH   5   6
ATOM      6  C   UNL     1      -7.044  -8.924  -1.696  1.00  0.00     0.041 C 
ATOM      7  O   UNL     1      -6.122  -9.436  -1.008  1.00  0.00    -0.550 OA
ATOM      8  O   UNL     1      -8.368  -9.109  -1.319  1.00  0.00    -0.550 OA
ENDBRANCH   5   6
ENDBRANCH   4   5
ENDBRANCH   3   4
ENDBRANCH   2   3
ENDBRANCH   1   2
BRANCH   1   9
ATOM      9  C   UNL     1      -6.353  -6.734  -8.368  1.00  0.00     0.000 C 
BRANCH   9  10
ATOM     10  C   UNL     1      -6.566  -5.353  -9.018  1.00  0.00    -0.000 C 
BRANCH  10  11
ATOM     11  C   UNL     1      -6.249  -4.151  -8.105  1.00  0.00    -0.000 C 
BRANCH  11  12
ATOM     12  C   UNL     1      -6.869  -2.812  -8.551  1.00  0.00    -0.000 C 
BRANCH  12  13
ATOM     13  C   UNL     1      -6.176  -1.558  -7.989  1.00  0.00    -0.003 C 
ATOM     14  C   UNL     1      -4.789  -1.324  -8.588  1.00  0.00     0.004 C 
ENDBRANCH  12  13
ENDBRANCH  11  12
ENDBRANCH  10  11
ENDBRANCH   9  10
ENDBRANCH   1   9
TORSDOF 10
ENDMDL
MODEL 2
REMARK VINA RESULT:    -4.803     15.081     16.875
REMARK INTER + INTRA:          -8.032
REMARK INTER:                  -6.894
REMARK INTRA:                  -1.137
REMARK UNBOUND:                -0.420
REMARK SMILES CCCCCCCCCCCC(=O)[O-]
REMARK SMILES IDX 7 1 8 2 9 3 10 4 11 5 12 6 13 7 14 8 6 9 5 10 4 11 3 12 2 13
REMARK SMILES IDX 1 14
REMARK H PARENT
REMARK Flexibility Score: inf
ROOT
ATOM      1  C   UNL     1      -1.471   1.227   9.857  1.00  0.00     0.000 C 
ENDROOT
BRANCH   1   2
ATOM      2  C   UNL     1      -2.603   0.205   9.649  1.00  0.00     0.000 C 
BRANCH   2   3
ATOM      3  C   UNL     1      -2.100  -1.143   9.104  1.00  0.00     0.000 C 
BRANCH   3   4
ATOM      4  C   UNL     1      -0.594  -1.348   9.338  1.00  0.00     0.006 C 
BRANCH   4   5
ATOM      5  C   UNL     1      -0.221  -2.821   9.542  1.00  0.00     0.053 C 
BRANCH   5   6
ATOM      6  C   UNL     1       1.260  -2.968   9.690  1.00  0.00     0.041 C 
ATOM      7  O   UNL     1       2.018  -1.982   9.493  1.00  0.00    -0.550 OA
ATOM      8  O   UNL     1       1.809  -4.206  10.000  1.00  0.00    -0.550 OA
ENDBRANCH   5   6
ENDBRANCH   4   5
ENDBRANCH   3   4
ENDBRANCH   2   3
ENDBRANCH   1   2
BRANCH   1   9
ATOM      9  C   UNL     1      -1.299   2.255   8.720  1.00  0.00     0.000 C 
BRANCH   9  10
ATOM     10  C   UNL     1       0.160   2.606   8.372  1.00  0.00    -0.000 C 
BRANCH  10  11
ATOM     11  C   UNL     1       0.601   2.208   6.948  1.00  0.00    -0.000 C 
BRANCH  11  12
ATOM     12  C   UNL     1      -0.078   0.944   6.384  1.00  0.00    -0.000 C 
BRANCH  12  13
ATOM     13  C   UNL     1      -1.073   1.201   5.238  1.00  0.00    -0.003 C 
ATOM     14  C   UNL     1      -2.499   0.768   5.578  1.00  0.00     0.004 C 
ENDBRANCH  12  13
ENDBRANCH  11  12
ENDBRANCH  10  11
ENDBRANCH   9  10
ENDBRANCH   1   9
TORSDOF 10
ENDMDL
MODEL 3
REMARK VINA RESULT:    -4.784     14.672     17.018
REMARK INTER + INTRA:          -8.001
REMARK INTER:                  -6.634
REMARK INTRA:                  -1.367
REMARK UNBOUND:                -0.420
REMARK SMILES CCCCCCCCCCCC(=O)[O-]
REMARK SMILES IDX 7 1 8 2 9 3 10 4 11 5 12 6 13 7 14 8 6 9 5 10 4 11 3 12 2 13
REMARK SMILES IDX 1 14
REMARK H PARENT
REMARK Flexibility Score: inf
ROOT
ATOM      1  C   UNL     1      -2.261   2.223   9.036  1.00  0.00     0.000 C 
ENDROOT
BRANCH   1   2
ATOM      2  C   UNL     1      -0.739   2.202   8.805  1.00  0.00     0.000 C 
BRANCH   2   3
ATOM      3  C   UNL     1      -0.361   2.001   7.328  1.00  0.00     0.000 C 
BRANCH   3   4
ATOM      4  C   UNL     1      -1.592   1.846   6.420  1.00  0.00     0.006 C 
BRANCH   4   5
ATOM      5  C   UNL     1      -1.353   0.876   5.256  1.00  0.00     0.053 C 
BRANCH   5   6
ATOM      6  C   UNL     1       0.001   1.100   4.661  1.00  0.00     0.041 C 
ATOM      7  O   UNL     1       0.914   0.247   4.825  1.00  0.00    -0.550 OA
ATOM      8  O   UNL     1       0.270   2.272   3.966  1.00  0.00    -0.550 OA
ENDBRANCH   5   6
ENDBRANCH   4   5
ENDBRANCH   3   4
ENDBRANCH   2   3
ENDBRANCH   1   2
BRANCH   1   9
ATOM      9  C   UNL     1      -2.805   1.088   9.928  1.00  0.00     0.000 C 
BRANCH   9  10
ATOM     10  C   UNL     1      -2.082  -0.264   9.778  1.00  0.00    -0.000 C 
BRANCH  10  11
ATOM     11  C   UNL     1      -2.454  -1.062   8.511  1.00  0.00    -0.000 C 
BRANCH  11  12
ATOM     12  C   UNL     1      -1.324  -1.940   7.937  1.00  0.00    -0.000 C 
BRANCH  12  13
ATOM     13  C   UNL     1       0.099  -1.418   8.203  1.00  0.00    -0.003 C 
ATOM     14  C   UNL     1       0.907  -2.334   9.122  1.00  0.00     0.004 C 
ENDBRANCH  12  13
ENDBRANCH  11  12
ENDBRANCH  10  11
ENDBRANCH   9  10
ENDBRANCH   1   9
TORSDOF 10
ENDMDL
MODEL 4
REMARK VINA RESULT:    -4.661      4.328      7.624
REMARK INTER + INTRA:          -7.806
REMARK INTER:                  -7.250
REMARK INTRA:                  -0.557
REMARK UNBOUND:                -0.420
REMARK SMILES CCCCCCCCCCCC(=O)[O-]
REMARK SMILES IDX 7 1 8 2 9 3 10 4 11 5 12 6 13 7 14 8 6 9 5 10 4 11 3 12 2 13
REMARK SMILES IDX 1 14
REMARK H PARENT
REMARK Flexibility Score: inf
ROOT
ATOM      1  C   UNL     1      -6.168  -6.745  -6.761  1.00  0.00     0.000 C 
ENDROOT
BRANCH   1   2
ATOM      2  C   UNL     1      -6.144  -6.647  -8.297  1.00  0.00     0.000 C 
BRANCH   2   3
ATOM      3  C   UNL     1      -6.565  -5.261  -8.815  1.00  0.00     0.000 C 
BRANCH   3   4
ATOM      4  C   UNL     1      -6.137  -4.125  -7.872  1.00  0.00     0.006 C 
BRANCH   4   5
ATOM      5  C   UNL     1      -6.779  -2.780  -8.234  1.00  0.00     0.053 C 
BRANCH   5   6
ATOM      6  C   UNL     1      -5.788  -1.899  -8.928  1.00  0.00     0.041 C 
ATOM      7  O   UNL     1      -5.977  -1.554 -10.125  1.00  0.00    -0.550 OA
ATOM      8  O   UNL     1      -4.633  -1.499  -8.270  1.00  0.00    -0.550 OA
ENDBRANCH   5   6
ENDBRANCH   4   5
ENDBRANCH   3   4
ENDBRANCH   2   3
ENDBRANCH   1   2
BRANCH   1   9
ATOM      9  C   UNL     1      -7.505  -7.220  -6.156  1.00  0.00     0.000 C 
BRANCH   9  10
ATOM     10  C   UNL     1      -7.909  -6.527  -4.840  1.00  0.00    -0.000 C 
BRANCH  10  11
ATOM     11  C   UNL     1      -8.459  -7.471  -3.751  1.00  0.00    -0.000 C 
BRANCH  11  12
ATOM     12  C   UNL     1      -7.652  -8.768  -3.544  1.00  0.00    -0.000 C 
BRANCH  12  13
ATOM     13  C   UNL     1      -6.512  -8.665  -2.515  1.00  0.00    -0.003 C 
ATOM     14  C   UNL     1      -6.867  -9.294  -1.168  1.00  0.00     0.004 C 
ENDBRANCH  12  13
ENDBRANCH  11  12
ENDBRANCH  10  11
ENDBRANCH   9  10
ENDBRANCH   1   9
TORSDOF 10
ENDMDL
MODEL 5
REMARK VINA RESULT:    -4.642     15.201     16.989
REMARK INTER + INTRA:          -7.775
REMARK INTER:                  -6.511
REMARK INTRA:                  -1.264
REMARK UNBOUND:                -0.420
REMARK SMILES CCCCCCCCCCCC(=O)[O-]
REMARK SMILES IDX 7 1 8 2 9 3 10 4 11 5 12 6 13 7 14 8 6 9 5 10 4 11 3 12 2 13
REMARK SMILES IDX 1 14
REMARK H PARENT
REMARK Flexibility Score: inf
ROOT
ATOM      1  C   UNL     1      -1.805  -0.953   8.239  1.00  0.00     0.000 C 
ENDROOT
BRANCH   1   2
ATOM      2  C   UNL     1      -0.330  -1.339   8.450  1.00  0.00     0.000 C 
BRANCH   2   3
ATOM      3  C   UNL     1       0.538  -1.087   7.206  1.00  0.00     0.000 C 
BRANCH   3   4
ATOM      4  C   UNL     1      -0.222  -0.339   6.099  1.00  0.00     0.006 C 
BRANCH   4   5
ATOM      5  C   UNL     1       0.711   0.421   5.148  1.00  0.00     0.053 C 
BRANCH   5   6
ATOM      6  C   UNL     1       0.016   1.618   4.581  1.00  0.00     0.041 C 
ATOM      7  O   UNL     1       0.524   2.248   3.615  1.00  0.00    -0.550 OA
ATOM      8  O   UNL     1      -1.169   2.068   5.149  1.00  0.00    -0.550 OA
ENDBRANCH   5   6
ENDBRANCH   4   5
ENDBRANCH   3   4
ENDBRANCH   2   3
ENDBRANCH   1   2
BRANCH   1   9
ATOM      9  C   UNL     1      -2.349   0.115   9.211  1.00  0.00     0.000 C 
BRANCH   9  10
ATOM     10  C   UNL     1      -2.213   1.570   8.724  1.00  0.00    -0.000 C 
BRANCH  10  11
ATOM     11  C   UNL     1      -1.658   2.556   9.772  1.00  0.00    -0.000 C 
BRANCH  11  12
ATOM     12  C   UNL     1      -0.249   3.105   9.470  1.00  0.00    -0.000 C 
BRANCH  12  13
ATOM     13  C   UNL     1       0.396   2.559   8.184  1.00  0.00    -0.003 C 
ATOM     14  C   UNL     1       1.543   3.433   7.675  1.00  0.00     0.004 C 
ENDBRANCH  12  13
ENDBRANCH  11  12
ENDBRANCH  10  11
ENDBRANCH   9  10
ENDBRANCH   1   9
TORSDOF 10
ENDMDL
MODEL 6
REMARK VINA RESULT:    -4.641     15.051     16.447
REMARK INTER + INTRA:          -7.775
REMARK INTER:                  -7.056
REMARK INTRA:                  -0.718
REMARK UNBOUND:                -0.420
REMARK SMILES CCCCCCCCCCCC(=O)[O-]
REMARK SMILES IDX 7 1 8 2 9 3 10 4 11 5 12 6 13 7 14 8 6 9 5 10 4 11 3 12 2 13
REMARK SMILES IDX 1 14
REMARK H PARENT
REMARK Flexibility Score: inf
ROOT
ATOM      1  C   UNL     1      -2.264   0.149   6.649  1.00  0.00     0.000 C 
ENDROOT
BRANCH   1   2
ATOM      2  C   UNL     1      -2.093   0.133   8.179  1.00  0.00     0.000 C 
BRANCH   2   3
ATOM      3  C   UNL     1      -2.417  -1.234   8.803  1.00  0.00     0.000 C 
BRANCH   3   4
ATOM      4  C   UNL     1      -1.428  -2.329   8.372  1.00  0.00     0.006 C 
BRANCH   4   5
ATOM      5  C   UNL     1      -0.453  -2.721   9.489  1.00  0.00     0.053 C 
BRANCH   5   6
ATOM      6  C   UNL     1       0.931  -2.258   9.159  1.00  0.00     0.041 C 
ATOM      7  O   UNL     1       1.930  -2.852   9.645  1.00  0.00    -0.550 OA
ATOM      8  O   UNL     1       1.118  -1.142   8.355  1.00  0.00    -0.550 OA
ENDBRANCH   5   6
ENDBRANCH   4   5
ENDBRANCH   3   4
ENDBRANCH   2   3
ENDBRANCH   1   2
BRANCH   1   9
ATOM      9  C   UNL     1      -1.688   1.390   5.938  1.00  0.00     0.000 C 
BRANCH   9  10
ATOM     10  C   UNL     1      -0.406   1.138   5.122  1.00  0.00    -0.000 C 
BRANCH  10  11
ATOM     11  C   UNL     1       0.899   1.598   5.804  1.00  0.00    -0.000 C 
BRANCH  11  12
ATOM     12  C   UNL     1       0.709   2.333   7.146  1.00  0.00    -0.000 C 
BRANCH  12  13
ATOM     13  C   UNL     1       1.681   3.502   7.388  1.00  0.00    -0.003 C 
ATOM     14  C   UNL     1       1.564   4.093   8.793  1.00  0.00     0.004 C 
ENDBRANCH  12  13
ENDBRANCH  11  12
ENDBRANCH  10  11
ENDBRANCH   9  10
ENDBRANCH   1   9
TORSDOF 10
ENDMDL
MODEL 7
REMARK VINA RESULT:    -4.589     14.813     16.987
REMARK INTER + INTRA:          -7.692
REMARK INTER:                  -6.820
REMARK INTRA:                  -0.873
REMARK UNBOUND:                -0.420
REMARK SMILES CCCCCCCCCCCC(=O)[O-]
REMARK SMILES IDX 7 1 8 2 9 3 10 4 11 5 12 6 13 7 14 8 6 9 5 10 4 11 3 12 2 13
REMARK SMILES IDX 1 14
REMARK H PARENT
REMARK Flexibility Score: inf
ROOT
ATOM      1  C   UNL     1      -2.382  -0.369   7.506  1.00  0.00     0.000 C 
ENDROOT
BRANCH   1   2
ATOM      2  C   UNL     1      -2.334   0.955   6.723  1.00  0.00     0.000 C 
BRANCH   2   3
ATOM      3  C   UNL     1      -1.868   0.773   5.268  1.00  0.00     0.000 C 
BRANCH   3   4
ATOM      4  C   UNL     1      -0.613   1.599   4.943  1.00  0.00     0.006 C 
BRANCH   4   5
ATOM      5  C   UNL     1       0.638   1.088   5.670  1.00  0.00     0.053 C 
BRANCH   5   6
ATOM      6  C   UNL     1       0.957   1.966   6.838  1.00  0.00     0.041 C 
ATOM      7  O   UNL     1       0.876   1.514   8.011  1.00  0.00    -0.550 OA
ATOM      8  O   UNL     1       1.297   3.297   6.635  1.00  0.00    -0.550 OA
ENDBRANCH   5   6
ENDBRANCH   4   5
ENDBRANCH   3   4
ENDBRANCH   2   3
ENDBRANCH   1   2
BRANCH   1   9
ATOM      9  C   UNL     1      -2.367  -0.223   9.042  1.00  0.00     0.000 C 
BRANCH   9  10
ATOM     10  C   UNL     1      -1.164  -0.875   9.749  1.00  0.00    -0.000 C 
BRANCH  10  11
ATOM     11  C   UNL     1      -0.620  -2.146   9.065  1.00  0.00    -0.000 C 
BRANCH  11  12
ATOM     12  C   UNL     1      -1.163  -3.474   9.630  1.00  0.00    -0.000 C 
BRANCH  12  13
ATOM     13  C   UNL     1      -2.213  -4.172   8.747  1.00  0.00    -0.003 C 
ATOM     14  C   UNL     1      -3.648  -3.870   9.176  1.00  0.00     0.004 C 
ENDBRANCH  12  13
ENDBRANCH  11  12
ENDBRANCH  10  11
ENDBRANCH   9  10
ENDBRANCH   1   9
TORSDOF 10
ENDMDL
MODEL 8
REMARK VINA RESULT:    -4.584      6.660      9.993
REMARK INTER + INTRA:          -7.685
REMARK INTER:                  -7.416
REMARK INTRA:                  -0.269
REMARK UNBOUND:                -0.420
REMARK SMILES CCCCCCCCCCCC(=O)[O-]
REMARK SMILES IDX 7 1 8 2 9 3 10 4 11 5 12 6 13 7 14 8 6 9 5 10 4 11 3 12 2 13
REMARK SMILES IDX 1 14
REMARK H PARENT
REMARK Flexibility Score: inf
ROOT
ATOM      1  C   UNL     1      -5.047  -1.552  -8.642  1.00  0.00     0.000 C 
ENDROOT
BRANCH   1   2
ATOM      2  C   UNL     1      -4.719  -0.740  -9.909  1.00  0.00     0.000 C 
BRANCH   2   3
ATOM      3  C   UNL     1      -3.463   0.133  -9.751  1.00  0.00     0.000 C 
BRANCH   3   4
ATOM      4  C   UNL     1      -3.716   1.603 -10.125  1.00  0.00     0.006 C 
BRANCH   4   5
ATOM      5  C   UNL     1      -2.489   2.493  -9.892  1.00  0.00     0.053 C 
BRANCH   5   6
ATOM      6  C   UNL     1      -2.907   3.831  -9.370  1.00  0.00     0.041 C 
ATOM      7  O   UNL     1      -2.049   4.625  -8.901  1.00  0.00    -0.550 OA
ATOM      8  O   UNL     1      -4.250   4.184  -9.358  1.00  0.00    -0.550 OA
ENDBRANCH   5   6
ENDBRANCH   4   5
ENDBRANCH   3   4
ENDBRANCH   2   3
ENDBRANCH   1   2
BRANCH   1   9
ATOM      9  C   UNL     1      -6.544  -1.848  -8.422  1.00  0.00     0.000 C 
BRANCH   9  10
ATOM     10  C   UNL     1      -6.973  -3.299  -8.712  1.00  0.00    -0.000 C 
BRANCH  10  11
ATOM     11  C   UNL     1      -6.009  -4.379  -8.179  1.00  0.00    -0.000 C 
BRANCH  11  12
ATOM     12  C   UNL     1      -6.537  -5.825  -8.267  1.00  0.00    -0.000 C 
BRANCH  12  13
ATOM     13  C   UNL     1      -5.718  -6.862  -7.478  1.00  0.00    -0.003 C 
ATOM     14  C   UNL     1      -5.172  -7.986  -8.359  1.00  0.00     0.004 C 
ENDBRANCH  12  13
ENDBRANCH  11  12
ENDBRANCH  10  11
ENDBRANCH   9  10
ENDBRANCH   1   9
TORSDOF 10
ENDMDL
MODEL 9
REMARK VINA RESULT:    -3.756      2.966      4.922
REMARK INTER + INTRA:          -6.371
REMARK INTER:                  -5.996
REMARK INTRA:                  -0.376
REMARK UNBOUND:                -0.420
REMARK SMILES CCCCCCCCCCCC(=O)[O-]
REMARK SMILES IDX 7 1 8 2 9 3 10 4 11 5 12 6 13 7 14 8 6 9 5 10 4 11 3 12 2 13
REMARK SMILES IDX 1 14
REMARK H PARENT
REMARK Flexibility Score: inf
ROOT
ATOM      1  C   UNL     1      -6.681  -8.310  -3.019  1.00  0.00     0.000 C 
ENDROOT
BRANCH   1   2
ATOM      2  C   UNL     1      -6.518  -8.984  -1.645  1.00  0.00     0.000 C 
BRANCH   2   3
ATOM      3  C   UNL     1      -7.862  -9.377  -1.008  1.00  0.00     0.000 C 
BRANCH   3   4
ATOM      4  C   UNL     1      -7.687 -10.125   0.323  1.00  0.00     0.006 C 
BRANCH   4   5
ATOM      5  C   UNL     1      -8.781  -9.784   1.343  1.00  0.00     0.053 C 
BRANCH   5   6
ATOM      6  C   UNL     1      -8.214  -9.756   2.727  1.00  0.00     0.041 C 
ATOM      7  O   UNL     1      -8.948  -9.463   3.707  1.00  0.00    -0.550 OA
ATOM      8  O   UNL     1      -6.863 -10.008   2.930  1.00  0.00    -0.550 OA
ENDBRANCH   5   6
ENDBRANCH   4   5
ENDBRANCH   3   4
ENDBRANCH   2   3
ENDBRANCH   1   2
BRANCH   1   9
ATOM      9  C   UNL     1      -8.097  -7.782  -3.326  1.00  0.00     0.000 C 
BRANCH   9  10
ATOM     10  C   UNL     1      -8.269  -7.146  -4.720  1.00  0.00    -0.000 C 
BRANCH  10  11
ATOM     11  C   UNL     1      -7.168  -7.507  -5.738  1.00  0.00    -0.000 C 
BRANCH  11  12
ATOM     12  C   UNL     1      -6.873  -6.421  -6.792  1.00  0.00    -0.000 C 
BRANCH  12  13
ATOM     13  C   UNL     1      -5.516  -6.561  -7.503  1.00  0.00    -0.003 C 
ATOM     14  C   UNL     1      -5.410  -7.835  -8.341  1.00  0.00     0.004 C 
ENDBRANCH  12  13
ENDBRANCH  11  12
ENDBRANCH  10  11
ENDBRANCH   9  10
ENDBRANCH   1   9
TORSDOF 10
ENDMDL
