MODEL 1
REMARK VINA RESULT:     0.102      0.000      0.000
REMARK INTER + INTRA:           0.045
REMARK INTER:                   0.222
REMARK INTRA:                  -0.177
REMARK UNBOUND:                -0.177
REMARK SMILES CCCCCCCCCCCCCCCCCCCCCC(=O)[O-]
REMARK SMILES IDX 12 1 11 2 10 3 9 4 8 5 7 6 6 7 5 8 4 9 3 10 2 11 1 12 13 13
REMARK SMILES IDX 14 14 15 15 16 16 17 17 18 18 19 19 20 20 21 21 22 22 23 23
REMARK SMILES IDX 24 24
REMARK H PARENT
REMARK Flexibility Score: inf
ROOT
ATOM      1  C   UNL     1      55.003  29.099 -37.590  1.00  0.00     0.000 C 
ENDROOT
BRANCH   1   2
ATOM      2  C   UNL     1      56.272  28.938 -36.732  1.00  0.00     0.000 C 
BRANCH   2   3
ATOM      3  C   UNL     1      56.619  27.466 -36.445  1.00  0.00     0.000 C 
BRANCH   3   4
ATOM      4  C   UNL     1      55.863  26.838 -35.258  1.00  0.00    -0.000 C 
BRANCH   4   5
ATOM      5  C   UNL     1      54.649  26.004 -35.694  1.00  0.00    -0.000 C 
BRANCH   5   6
ATOM      6  C   UNL     1      54.611  25.846 -37.222  1.00  0.00    -0.000 C 
BRANCH   6   7
ATOM      7  C   UNL     1      55.450  24.657 -37.718  1.00  0.00    -0.000 C 
BRANCH   7   8
ATOM      8  C   UNL     1      54.617  23.614 -38.479  1.00  0.00    -0.000 C 
BRANCH   8   9
ATOM      9  C   UNL     1      54.073  22.543 -37.523  1.00  0.00    -0.000 C 
BRANCH   9  10
ATOM     10  C   UNL     1      53.670  21.246 -38.258  1.00  0.00    -0.000 C 
BRANCH  10  11
ATOM     11  C   UNL     1      54.282  19.974 -37.642  1.00  0.00    -0.003 C 
ATOM     12  C   UNL     1      54.225  18.767 -38.577  1.00  0.00     0.004 C 
ENDBRANCH  10  11
ENDBRANCH   9  10
ENDBRANCH   8   9
ENDBRANCH   7   8
ENDBRANCH   6   7
ENDBRANCH   5   6
ENDBRANCH   4   5
ENDBRANCH   3   4
ENDBRANCH   2   3
ENDBRANCH   1   2
BRANCH   1  13
ATOM     13  C   UNL     1      54.506  30.558 -37.635  1.00  0.00     0.000 C 
BRANCH  13  14
ATOM     14  C   UNL     1      54.589  31.293 -36.284  1.00  0.00     0.000 C 
BRANCH  14  15
ATOM     15  C   UNL     1      55.875  32.125 -36.129  1.00  0.00     0.000 C 
BRANCH  15  16
ATOM     16  C   UNL     1      56.893  31.473 -35.173  1.00  0.00     0.000 C 
BRANCH  16  17
ATOM     17  C   UNL     1      56.275  30.989 -33.846  1.00  0.00     0.000 C 
BRANCH  17  18
ATOM     18  C   UNL     1      56.349  32.050 -32.719  1.00  0.00     0.000 C 
BRANCH  18  19
ATOM     19  C   UNL     1      55.142  32.007 -31.768  1.00  0.00     0.000 C 
BRANCH  19  20
ATOM     20  C   UNL     1      55.562  32.094 -30.292  1.00  0.00     0.006 C 
BRANCH  20  21
ATOM     21  C   UNL     1      56.754  31.180 -29.990  1.00  0.00     0.053 C 
BRANCH  21  22
ATOM     22  C   UNL     1      56.311  29.750 -29.912  1.00  0.00     0.041 C 
ATOM     23  O   UNL     1      56.604  29.052 -28.906  1.00  0.00    -0.550 OA
ATOM     24  O   UNL     1      55.580  29.184 -30.954  1.00  0.00    -0.550 OA
ENDBRANCH  21  22
ENDBRANCH  20  21
ENDBRANCH  19  20
ENDBRANCH  18  19
ENDBRANCH  17  18
ENDBRANCH  16  17
ENDBRANCH  15  16
ENDBRANCH  14  15
ENDBRANCH  13  14
ENDBRANCH   1  13
TORSDOF 20
ENDMDL
MODEL 2
REMARK VINA RESULT:     0.978     15.707     17.355
REMARK INTER + INTRA:           1.944
REMARK INTER:                   3.066
REMARK INTRA:                  -1.123
REMARK UNBOUND:                -0.177
REMARK SMILES CCCCCCCCCCCCCCCCCCCCCC(=O)[O-]
REMARK SMILES IDX 12 1 11 2 10 3 9 4 8 5 7 6 6 7 5 8 4 9 3 10 2 11 1 12 13 13
REMARK SMILES IDX 14 14 15 15 16 16 17 17 18 18 19 19 20 20 21 21 22 22 23 23
REMARK SMILES IDX 24 24
REMARK H PARENT
REMARK Flexibility Score: inf
ROOT
ATOM      1  C   UNL     1      47.745  20.498 -25.217  1.00  0.00     0.000 C 
ENDROOT
BRANCH   1   2
ATOM      2  C   UNL     1      47.709  19.536 -24.016  1.00  0.00     0.000 C 
BRANCH   2   3
ATOM      3  C   UNL     1      46.456  18.641 -24.002  1.00  0.00     0.000 C 
BRANCH   3   4
ATOM      4  C   UNL     1      46.168  17.945 -22.659  1.00  0.00    -0.000 C 
BRANCH   4   5
ATOM      5  C   UNL     1      47.438  17.678 -21.837  1.00  0.00    -0.000 C 
BRANCH   5   6
ATOM      6  C   UNL     1      47.827  16.192 -21.893  1.00  0.00    -0.000 C 
BRANCH   6   7
ATOM      7  C   UNL     1      49.238  15.926 -21.343  1.00  0.00    -0.000 C 
BRANCH   7   8
ATOM      8  C   UNL     1      49.228  15.087 -20.057  1.00  0.00    -0.000 C 
BRANCH   8   9
ATOM      9  C   UNL     1      50.422  14.121 -20.022  1.00  0.00    -0.000 C 
BRANCH   9  10
ATOM     10  C   UNL     1      51.655  14.680 -20.763  1.00  0.00    -0.000 C 
BRANCH  10  11
ATOM     11  C   UNL     1      52.959  14.578 -19.951  1.00  0.00    -0.003 C 
ATOM     12  C   UNL     1      53.711  13.269 -20.184  1.00  0.00     0.004 C 
ENDBRANCH  10  11
ENDBRANCH   9  10
ENDBRANCH   8   9
ENDBRANCH   7   8
ENDBRANCH   6   7
ENDBRANCH   5   6
ENDBRANCH   4   5
ENDBRANCH   3   4
ENDBRANCH   2   3
ENDBRANCH   1   2
BRANCH   1  13
ATOM     13  C   UNL     1      46.443  20.458 -26.042  1.00  0.00     0.000 C 
BRANCH  13  14
ATOM     14  C   UNL     1      45.873  21.847 -26.385  1.00  0.00     0.000 C 
BRANCH  14  15
ATOM     15  C   UNL     1      46.168  22.903 -25.304  1.00  0.00     0.000 C 
BRANCH  15  16
ATOM     16  C   UNL     1      45.109  24.021 -25.259  1.00  0.00     0.000 C 
BRANCH  16  17
ATOM     17  C   UNL     1      45.286  24.995 -24.077  1.00  0.00     0.000 C 
BRANCH  17  18
ATOM     18  C   UNL     1      43.941  25.413 -23.429  1.00  0.00     0.000 C 
BRANCH  18  19
ATOM     19  C   UNL     1      43.530  26.856 -23.765  1.00  0.00     0.000 C 
BRANCH  19  20
ATOM     20  C   UNL     1      42.531  26.918 -24.931  1.00  0.00     0.006 C 
BRANCH  20  21
ATOM     21  C   UNL     1      43.233  27.204 -26.262  1.00  0.00     0.053 C 
BRANCH  21  22
ATOM     22  C   UNL     1      42.394  26.728 -27.409  1.00  0.00     0.041 C 
ATOM     23  O   UNL     1      42.848  26.771 -28.583  1.00  0.00    -0.550 OA
ATOM     24  O   UNL     1      41.107  26.245 -27.185  1.00  0.00    -0.550 OA
ENDBRANCH  21  22
ENDBRANCH  20  21
ENDBRANCH  19  20
ENDBRANCH  18  19
ENDBRANCH  17  18
ENDBRANCH  16  17
ENDBRANCH  15  16
ENDBRANCH  14  15
ENDBRANCH  13  14
ENDBRANCH   1  13
TORSDOF 20
ENDMDL
MODEL 3
REMARK VINA RESULT:     1.282     15.958     18.608
REMARK INTER + INTRA:           2.604
REMARK INTER:                   3.922
REMARK INTRA:                  -1.318
REMARK UNBOUND:                -0.177
REMARK SMILES CCCCCCCCCCCCCCCCCCCCCC(=O)[O-]
REMARK SMILES IDX 12 1 11 2 10 3 9 4 8 5 7 6 6 7 5 8 4 9 3 10 2 11 1 12 13 13
REMARK SMILES IDX 14 14 15 15 16 16 17 17 18 18 19 19 20 20 21 21 22 22 23 23
REMARK SMILES IDX 24 24
REMARK H PARENT
REMARK Flexibility Score: inf
ROOT
ATOM      1  C   UNL     1      47.470  19.593 -24.403  1.00  0.00     0.000 C 
ENDROOT
BRANCH   1   2
ATOM      2  C   UNL     1      47.365  20.505 -25.639  1.00  0.00     0.000 C 
BRANCH   2   3
ATOM      3  C   UNL     1      45.939  21.039 -25.871  1.00  0.00     0.000 C 
BRANCH   3   4
ATOM      4  C   UNL     1      45.854  22.539 -26.213  1.00  0.00    -0.000 C 
BRANCH   4   5
ATOM      5  C   UNL     1      45.864  23.440 -24.969  1.00  0.00    -0.000 C 
BRANCH   5   6
ATOM      6  C   UNL     1      44.895  24.621 -25.137  1.00  0.00    -0.000 C 
BRANCH   6   7
ATOM      7  C   UNL     1      44.419  25.195 -23.793  1.00  0.00    -0.000 C 
BRANCH   7   8
ATOM      8  C   UNL     1      43.402  26.335 -23.957  1.00  0.00    -0.000 C 
BRANCH   8   9
ATOM      9  C   UNL     1      43.414  26.879 -25.393  1.00  0.00    -0.000 C 
BRANCH   9  10
ATOM     10  C   UNL     1      42.009  26.889 -26.032  1.00  0.00    -0.000 C 
BRANCH  10  11
ATOM     11  C   UNL     1      42.033  26.891 -27.571  1.00  0.00    -0.003 C 
ATOM     12  C   UNL     1      43.004  25.868 -28.158  1.00  0.00     0.004 C 
ENDBRANCH  10  11
ENDBRANCH   9  10
ENDBRANCH   8   9
ENDBRANCH   7   8
ENDBRANCH   6   7
ENDBRANCH   5   6
ENDBRANCH   4   5
ENDBRANCH   3   4
ENDBRANCH   2   3
ENDBRANCH   1   2
BRANCH   1  13
ATOM     13  C   UNL     1      46.257  18.651 -24.263  1.00  0.00     0.000 C 
BRANCH  13  14
ATOM     14  C   UNL     1      45.925  18.264 -22.810  1.00  0.00     0.000 C 
BRANCH  14  15
ATOM     15  C   UNL     1      47.065  18.585 -21.827  1.00  0.00     0.000 C 
BRANCH  15  16
ATOM     16  C   UNL     1      47.552  17.344 -21.054  1.00  0.00     0.000 C 
BRANCH  16  17
ATOM     17  C   UNL     1      48.210  16.275 -21.950  1.00  0.00     0.000 C 
BRANCH  17  18
ATOM     18  C   UNL     1      49.517  15.700 -21.349  1.00  0.00     0.000 C 
BRANCH  18  19
ATOM     19  C   UNL     1      49.294  14.936 -20.034  1.00  0.00     0.000 C 
BRANCH  19  20
ATOM     20  C   UNL     1      50.542  14.153 -19.598  1.00  0.00     0.006 C 
BRANCH  20  21
ATOM     21  C   UNL     1      51.617  14.152 -20.689  1.00  0.00     0.053 C 
BRANCH  21  22
ATOM     22  C   UNL     1      52.981  14.292 -20.081  1.00  0.00     0.041 C 
ATOM     23  O   UNL     1      53.244  15.277 -19.342  1.00  0.00    -0.550 OA
ATOM     24  O   UNL     1      53.963  13.338 -20.334  1.00  0.00    -0.550 OA
ENDBRANCH  21  22
ENDBRANCH  20  21
ENDBRANCH  19  20
ENDBRANCH  18  19
ENDBRANCH  17  18
ENDBRANCH  16  17
ENDBRANCH  15  16
ENDBRANCH  14  15
ENDBRANCH  13  14
ENDBRANCH   1  13
TORSDOF 20
ENDMDL
MODEL 4
REMARK VINA RESULT:     1.665     15.642     18.326
REMARK INTER + INTRA:           3.434
REMARK INTER:                   4.505
REMARK INTRA:                  -1.070
REMARK UNBOUND:                -0.177
REMARK SMILES CCCCCCCCCCCCCCCCCCCCCC(=O)[O-]
REMARK SMILES IDX 12 1 11 2 10 3 9 4 8 5 7 6 6 7 5 8 4 9 3 10 2 11 1 12 13 13
REMARK SMILES IDX 14 14 15 15 16 16 17 17 18 18 19 19 20 20 21 21 22 22 23 23
REMARK SMILES IDX 24 24
REMARK H PARENT
REMARK Flexibility Score: inf
ROOT
ATOM      1  C   UNL     1      46.527  20.431 -26.163  1.00  0.00     0.000 C 
ENDROOT
BRANCH   1   2
ATOM      2  C   UNL     1      45.901  21.813 -26.428  1.00  0.00     0.000 C 
BRANCH   2   3
ATOM      3  C   UNL     1      45.992  22.755 -25.213  1.00  0.00     0.000 C 
BRANCH   3   4
ATOM      4  C   UNL     1      45.184  24.061 -25.340  1.00  0.00    -0.000 C 
BRANCH   4   5
ATOM      5  C   UNL     1      45.331  24.979 -24.117  1.00  0.00    -0.000 C 
BRANCH   5   6
ATOM      6  C   UNL     1      43.964  25.263 -23.475  1.00  0.00    -0.000 C 
BRANCH   6   7
ATOM      7  C   UNL     1      43.787  26.739 -23.081  1.00  0.00    -0.000 C 
BRANCH   7   8
ATOM      8  C   UNL     1      42.784  27.481 -23.976  1.00  0.00    -0.000 C 
BRANCH   8   9
ATOM      9  C   UNL     1      42.483  26.675 -25.249  1.00  0.00    -0.000 C 
BRANCH   9  10
ATOM     10  C   UNL     1      43.369  27.101 -26.439  1.00  0.00    -0.000 C 
BRANCH  10  11
ATOM     11  C   UNL     1      42.705  26.877 -27.811  1.00  0.00    -0.003 C 
ATOM     12  C   UNL     1      41.244  26.444 -27.707  1.00  0.00     0.004 C 
ENDBRANCH  10  11
ENDBRANCH   9  10
ENDBRANCH   8   9
ENDBRANCH   7   8
ENDBRANCH   6   7
ENDBRANCH   5   6
ENDBRANCH   4   5
ENDBRANCH   3   4
ENDBRANCH   2   3
ENDBRANCH   1   2
BRANCH   1  13
ATOM     13  C   UNL     1      47.816  20.522 -25.320  1.00  0.00     0.000 C 
BRANCH  13  14
ATOM     14  C   UNL     1      47.761  19.730 -24.001  1.00  0.00     0.000 C 
BRANCH  14  15
ATOM     15  C   UNL     1      46.636  18.680 -23.976  1.00  0.00     0.000 C 
BRANCH  15  16
ATOM     16  C   UNL     1      46.396  18.098 -22.569  1.00  0.00     0.000 C 
BRANCH  16  17
ATOM     17  C   UNL     1      47.024  16.706 -22.358  1.00  0.00     0.000 C 
BRANCH  17  18
ATOM     18  C   UNL     1      48.263  16.734 -21.427  1.00  0.00     0.000 C 
BRANCH  18  19
ATOM     19  C   UNL     1      48.806  15.333 -21.100  1.00  0.00     0.000 C 
BRANCH  19  20
ATOM     20  C   UNL     1      50.340  15.276 -21.162  1.00  0.00     0.006 C 
BRANCH  20  21
ATOM     21  C   UNL     1      50.924  14.505 -19.973  1.00  0.00     0.053 C 
BRANCH  21  22
ATOM     22  C   UNL     1      52.364  14.170 -20.224  1.00  0.00     0.041 C 
ATOM     23  O   UNL     1      52.881  13.160 -19.677  1.00  0.00    -0.550 OA
ATOM     24  O   UNL     1      53.138  14.977 -21.054  1.00  0.00    -0.550 OA
ENDBRANCH  21  22
ENDBRANCH  20  21
ENDBRANCH  19  20
ENDBRANCH  18  19
ENDBRANCH  17  18
ENDBRANCH  16  17
ENDBRANCH  15  16
ENDBRANCH  14  15
ENDBRANCH  13  14
ENDBRANCH   1  13
TORSDOF 20
ENDMDL
MODEL 5
REMARK VINA RESULT:     2.418     15.385     16.996
REMARK INTER + INTRA:           5.067
REMARK INTER:                   5.610
REMARK INTRA:                  -0.543
REMARK UNBOUND:                -0.177
REMARK SMILES CCCCCCCCCCCCCCCCCCCCCC(=O)[O-]
REMARK SMILES IDX 12 1 11 2 10 3 9 4 8 5 7 6 6 7 5 8 4 9 3 10 2 11 1 12 13 13
REMARK SMILES IDX 14 14 15 15 16 16 17 17 18 18 19 19 20 20 21 21 22 22 23 23
REMARK SMILES IDX 24 24
REMARK H PARENT
REMARK Flexibility Score: inf
ROOT
ATOM      1  C   UNL     1      46.784  20.240 -25.974  1.00  0.00     0.000 C 
ENDROOT
BRANCH   1   2
ATOM      2  C   UNL     1      47.589  20.198 -24.663  1.00  0.00     0.000 C 
BRANCH   2   3
ATOM      3  C   UNL     1      47.656  18.790 -24.044  1.00  0.00     0.000 C 
BRANCH   3   4
ATOM      4  C   UNL     1      46.910  18.630 -22.706  1.00  0.00    -0.000 C 
BRANCH   4   5
ATOM      5  C   UNL     1      45.486  18.078 -22.875  1.00  0.00    -0.000 C 
BRANCH   5   6
ATOM      6  C   UNL     1      45.517  16.605 -23.314  1.00  0.00    -0.000 C 
BRANCH   6   7
ATOM      7  C   UNL     1      46.641  15.806 -22.634  1.00  0.00    -0.000 C 
BRANCH   7   8
ATOM      8  C   UNL     1      46.406  14.289 -22.678  1.00  0.00    -0.000 C 
BRANCH   8   9
ATOM      9  C   UNL     1      45.873  13.856 -24.052  1.00  0.00    -0.000 C 
BRANCH   9  10
ATOM     10  C   UNL     1      44.624  12.954 -23.942  1.00  0.00    -0.000 C 
BRANCH  10  11
ATOM     11  C   UNL     1      44.416  12.040 -25.164  1.00  0.00    -0.003 C 
ATOM     12  C   UNL     1      45.676  11.875 -26.012  1.00  0.00     0.004 C 
ENDBRANCH  10  11
ENDBRANCH   9  10
ENDBRANCH   8   9
ENDBRANCH   7   8
ENDBRANCH   6   7
ENDBRANCH   5   6
ENDBRANCH   4   5
ENDBRANCH   3   4
ENDBRANCH   2   3
ENDBRANCH   1   2
BRANCH   1  13
ATOM     13  C   UNL     1      46.437  21.680 -26.405  1.00  0.00     0.000 C 
BRANCH  13  14
ATOM     14  C   UNL     1      45.503  22.420 -25.430  1.00  0.00     0.000 C 
BRANCH  14  15
ATOM     15  C   UNL     1      45.823  23.921 -25.311  1.00  0.00     0.000 C 
BRANCH  15  16
ATOM     16  C   UNL     1      44.621  24.749 -24.819  1.00  0.00     0.000 C 
BRANCH  16  17
ATOM     17  C   UNL     1      44.749  25.219 -23.356  1.00  0.00     0.000 C 
BRANCH  17  18
ATOM     18  C   UNL     1      43.614  26.184 -22.927  1.00  0.00     0.000 C 
BRANCH  18  19
ATOM     19  C   UNL     1      43.351  27.300 -23.951  1.00  0.00     0.000 C 
BRANCH  19  20
ATOM     20  C   UNL     1      42.485  26.818 -25.126  1.00  0.00     0.006 C 
BRANCH  20  21
ATOM     21  C   UNL     1      42.905  27.476 -26.444  1.00  0.00     0.053 C 
BRANCH  21  22
ATOM     22  C   UNL     1      42.313  26.739 -27.609  1.00  0.00     0.041 C 
ATOM     23  O   UNL     1      43.066  26.213 -28.471  1.00  0.00    -0.550 OA
ATOM     24  O   UNL     1      40.931  26.640 -27.747  1.00  0.00    -0.550 OA
ENDBRANCH  21  22
ENDBRANCH  20  21
ENDBRANCH  19  20
ENDBRANCH  18  19
ENDBRANCH  17  18
ENDBRANCH  16  17
ENDBRANCH  15  16
ENDBRANCH  14  15
ENDBRANCH  13  14
ENDBRANCH   1  13
TORSDOF 20
ENDMDL
MODEL 6
REMARK VINA RESULT:     2.526      1.522      2.751
REMARK INTER + INTRA:           5.302
REMARK INTER:                   6.274
REMARK INTRA:                  -0.973
REMARK UNBOUND:                -0.177
REMARK SMILES CCCCCCCCCCCCCCCCCCCCCC(=O)[O-]
REMARK SMILES IDX 12 1 11 2 10 3 9 4 8 5 7 6 6 7 5 8 4 9 3 10 2 11 1 12 13 13
REMARK SMILES IDX 14 14 15 15 16 16 17 17 18 18 19 19 20 20 21 21 22 22 23 23
REMARK SMILES IDX 24 24
REMARK H PARENT
REMARK Flexibility Score: inf
ROOT
ATOM      1  C   UNL     1      55.706  27.622 -37.346  1.00  0.00     0.000 C 
ENDROOT
BRANCH   1   2
ATOM      2  C   UNL     1      54.892  26.815 -36.318  1.00  0.00     0.000 C 
BRANCH   2   3
ATOM      3  C   UNL     1      54.870  25.306 -36.622  1.00  0.00     0.000 C 
BRANCH   3   4
ATOM      4  C   UNL     1      54.766  24.945 -38.116  1.00  0.00    -0.000 C 
BRANCH   4   5
ATOM      5  C   UNL     1      55.036  23.458 -38.394  1.00  0.00    -0.000 C 
BRANCH   5   6
ATOM      6  C   UNL     1      53.848  22.811 -39.123  1.00  0.00    -0.000 C 
BRANCH   6   7
ATOM      7  C   UNL     1      53.504  21.415 -38.578  1.00  0.00    -0.000 C 
BRANCH   7   8
ATOM      8  C   UNL     1      54.092  21.158 -37.182  1.00  0.00    -0.000 C 
BRANCH   8   9
ATOM      9  C   UNL     1      55.439  20.428 -37.280  1.00  0.00    -0.000 C 
BRANCH   9  10
ATOM     10  C   UNL     1      55.354  19.145 -38.134  1.00  0.00    -0.000 C 
BRANCH  10  11
ATOM     11  C   UNL     1      53.946  18.522 -38.171  1.00  0.00    -0.003 C 
ATOM     12  C   UNL     1      53.850  17.309 -39.094  1.00  0.00     0.004 C 
ENDBRANCH  10  11
ENDBRANCH   9  10
ENDBRANCH   8   9
ENDBRANCH   7   8
ENDBRANCH   6   7
ENDBRANCH   5   6
ENDBRANCH   4   5
ENDBRANCH   3   4
ENDBRANCH   2   3
ENDBRANCH   1   2
BRANCH   1  13
ATOM     13  C   UNL     1      54.834  28.626 -38.128  1.00  0.00     0.000 C 
BRANCH  13  14
ATOM     14  C   UNL     1      54.112  29.656 -37.239  1.00  0.00     0.000 C 
BRANCH  14  15
ATOM     15  C   UNL     1      54.165  31.085 -37.810  1.00  0.00     0.000 C 
BRANCH  15  16
ATOM     16  C   UNL     1      54.668  32.118 -36.783  1.00  0.00     0.000 C 
BRANCH  16  17
ATOM     17  C   UNL     1      56.113  31.866 -36.307  1.00  0.00     0.000 C 
BRANCH  17  18
ATOM     18  C   UNL     1      56.289  32.045 -34.778  1.00  0.00     0.000 C 
BRANCH  18  19
ATOM     19  C   UNL     1      55.485  31.027 -33.953  1.00  0.00     0.000 C 
BRANCH  19  20
ATOM     20  C   UNL     1      56.097  29.618 -34.013  1.00  0.00     0.006 C 
BRANCH  20  21
ATOM     21  C   UNL     1      57.031  29.358 -32.827  1.00  0.00     0.053 C 
BRANCH  21  22
ATOM     22  C   UNL     1      56.240  28.971 -31.613  1.00  0.00     0.041 C 
ATOM     23  O   UNL     1      56.235  27.775 -31.218  1.00  0.00    -0.550 OA
ATOM     24  O   UNL     1      55.501  29.928 -30.923  1.00  0.00    -0.550 OA
ENDBRANCH  21  22
ENDBRANCH  20  21
ENDBRANCH  19  20
ENDBRANCH  18  19
ENDBRANCH  17  18
ENDBRANCH  16  17
ENDBRANCH  15  16
ENDBRANCH  14  15
ENDBRANCH  13  14
ENDBRANCH   1  13
TORSDOF 20
ENDMDL
