MODEL 1
REMARK VINA RESULT:    -4.055      0.000      0.000
REMARK INTER + INTRA:         -11.923
REMARK INTER:                  -8.796
REMARK INTRA:                  -3.127
REMARK UNBOUND:                -3.127
REMARK SMILES CCCCCCCCCCCCCCCCCCCCCC(=O)[O-]
REMARK SMILES IDX 12 1 11 2 10 3 9 4 8 5 7 6 6 7 5 8 4 9 3 10 2 11 1 12 13 13
REMARK SMILES IDX 14 14 15 15 16 16 17 17 18 18 19 19 20 20 21 21 22 22 23 23
REMARK SMILES IDX 24 24
REMARK H PARENT
REMARK Flexibility Score: inf
ROOT
ATOM      1  C   UNL     1       0.644   7.107  -2.185  1.00  0.00     0.000 C 
ENDROOT
BRANCH   1   2
ATOM      2  C   UNL     1       0.895   8.528  -2.723  1.00  0.00     0.000 C 
BRANCH   2   3
ATOM      3  C   UNL     1      -0.129   9.538  -2.179  1.00  0.00     0.000 C 
BRANCH   3   4
ATOM      4  C   UNL     1      -0.944   8.960  -1.011  1.00  0.00    -0.000 C 
BRANCH   4   5
ATOM      5  C   UNL     1      -0.565   9.637   0.315  1.00  0.00    -0.000 C 
BRANCH   5   6
ATOM      6  C   UNL     1       0.712   9.052   0.943  1.00  0.00    -0.000 C 
BRANCH   6   7
ATOM      7  C   UNL     1       0.566   7.634   1.535  1.00  0.00    -0.000 C 
BRANCH   7   8
ATOM      8  C   UNL     1      -0.533   7.478   2.601  1.00  0.00    -0.000 C 
BRANCH   8   9
ATOM      9  C   UNL     1      -0.217   6.384   3.632  1.00  0.00    -0.000 C 
BRANCH   9  10
ATOM     10  C   UNL     1       1.089   5.660   3.274  1.00  0.00    -0.000 C 
BRANCH  10  11
ATOM     11  C   UNL     1       0.878   4.168   2.982  1.00  0.00    -0.003 C 
ATOM     12  C   UNL     1      -0.598   3.770   2.973  1.00  0.00     0.004 C 
ENDBRANCH  10  11
ENDBRANCH   9  10
ENDBRANCH   8   9
ENDBRANCH   7   8
ENDBRANCH   6   7
ENDBRANCH   5   6
ENDBRANCH   4   5
ENDBRANCH   3   4
ENDBRANCH   2   3
ENDBRANCH   1   2
BRANCH   1  13
ATOM     13  C   UNL     1       1.564   6.057  -2.824  1.00  0.00     0.000 C 
BRANCH  13  14
ATOM     14  C   UNL     1       2.454   6.642  -3.933  1.00  0.00     0.000 C 
BRANCH  14  15
ATOM     15  C   UNL     1       3.947   6.376  -3.678  1.00  0.00     0.000 C 
BRANCH  15  16
ATOM     16  C   UNL     1       4.295   6.374  -2.179  1.00  0.00     0.000 C 
BRANCH  16  17
ATOM     17  C   UNL     1       4.374   7.796  -1.592  1.00  0.00     0.000 C 
BRANCH  17  18
ATOM     18  C   UNL     1       4.185   7.844  -0.060  1.00  0.00     0.000 C 
BRANCH  18  19
ATOM     19  C   UNL     1       3.930   6.465   0.579  1.00  0.00     0.000 C 
BRANCH  19  20
ATOM     20  C   UNL     1       4.465   6.378   2.020  1.00  0.00     0.006 C 
BRANCH  20  21
ATOM     21  C   UNL     1       4.930   4.960   2.379  1.00  0.00     0.053 C 
BRANCH  21  22
ATOM     22  C   UNL     1       6.199   4.594   1.671  1.00  0.00     0.041 C 
ATOM     23  O   UNL     1       6.356   3.431   1.213  1.00  0.00    -0.550 OA
ATOM     24  O   UNL     1       7.194   5.545   1.491  1.00  0.00    -0.550 OA
ENDBRANCH  21  22
ENDBRANCH  20  21
ENDBRANCH  19  20
ENDBRANCH  18  19
ENDBRANCH  17  18
ENDBRANCH  16  17
ENDBRANCH  15  16
ENDBRANCH  14  15
ENDBRANCH  13  14
ENDBRANCH   1  13
TORSDOF 20
ENDMDL
MODEL 2
REMARK VINA RESULT:    -4.048      2.509      4.987
REMARK INTER + INTRA:         -11.909
REMARK INTER:                  -8.225
REMARK INTRA:                  -3.684
REMARK UNBOUND:                -3.127
REMARK SMILES CCCCCCCCCCCCCCCCCCCCCC(=O)[O-]
REMARK SMILES IDX 12 1 11 2 10 3 9 4 8 5 7 6 6 7 5 8 4 9 3 10 2 11 1 12 13 13
REMARK SMILES IDX 14 14 15 15 16 16 17 17 18 18 19 19 20 20 21 21 22 22 23 23
REMARK SMILES IDX 24 24
REMARK H PARENT
REMARK Flexibility Score: inf
ROOT
ATOM      1  C   UNL     1       1.322   6.370  -2.239  1.00  0.00     0.000 C 
ENDROOT
BRANCH   1   2
ATOM      2  C   UNL     1       1.841   6.406  -3.687  1.00  0.00     0.000 C 
BRANCH   2   3
ATOM      3  C   UNL     1       3.378   6.438  -3.746  1.00  0.00     0.000 C 
BRANCH   3   4
ATOM      4  C   UNL     1       4.013   6.205  -2.366  1.00  0.00    -0.000 C 
BRANCH   4   5
ATOM      5  C   UNL     1       5.044   7.296  -2.042  1.00  0.00    -0.000 C 
BRANCH   5   6
ATOM      6  C   UNL     1       5.999   6.900  -0.902  1.00  0.00    -0.000 C 
BRANCH   6   7
ATOM      7  C   UNL     1       5.905   5.429  -0.445  1.00  0.00    -0.000 C 
BRANCH   7   8
ATOM      8  C   UNL     1       6.376   5.157   0.995  1.00  0.00    -0.000 C 
BRANCH   8   9
ATOM      9  C   UNL     1       5.221   4.820   1.949  1.00  0.00    -0.000 C 
BRANCH   9  10
ATOM     10  C   UNL     1       5.250   5.734   3.183  1.00  0.00    -0.000 C 
BRANCH  10  11
ATOM     11  C   UNL     1       3.964   5.646   4.015  1.00  0.00    -0.003 C 
ATOM     12  C   UNL     1       3.348   4.247   4.006  1.00  0.00     0.004 C 
ENDBRANCH  10  11
ENDBRANCH   9  10
ENDBRANCH   8   9
ENDBRANCH   7   8
ENDBRANCH   6   7
ENDBRANCH   5   6
ENDBRANCH   4   5
ENDBRANCH   3   4
ENDBRANCH   2   3
ENDBRANCH   1   2
BRANCH   1  13
ATOM     13  C   UNL     1       0.362   7.527  -1.922  1.00  0.00     0.000 C 
BRANCH  13  14
ATOM     14  C   UNL     1       0.832   8.867  -2.509  1.00  0.00     0.000 C 
BRANCH  14  15
ATOM     15  C   UNL     1       1.945   9.511  -1.665  1.00  0.00     0.000 C 
BRANCH  15  16
ATOM     16  C   UNL     1       1.723   9.314  -0.155  1.00  0.00     0.000 C 
BRANCH  16  17
ATOM     17  C   UNL     1       2.927   8.646   0.535  1.00  0.00     0.000 C 
BRANCH  17  18
ATOM     18  C   UNL     1       2.602   7.265   1.145  1.00  0.00     0.000 C 
BRANCH  18  19
ATOM     19  C   UNL     1       1.303   7.240   1.973  1.00  0.00     0.000 C 
BRANCH  19  20
ATOM     20  C   UNL     1       0.533   5.917   1.820  1.00  0.00     0.006 C 
BRANCH  20  21
ATOM     21  C   UNL     1      -0.292   5.579   3.069  1.00  0.00     0.053 C 
BRANCH  21  22
ATOM     22  C   UNL     1      -0.347   4.103   3.318  1.00  0.00     0.041 C 
ATOM     23  O   UNL     1      -0.665   3.315   2.388  1.00  0.00    -0.550 OA
ATOM     24  O   UNL     1      -0.019   3.597   4.569  1.00  0.00    -0.550 OA
ENDBRANCH  21  22
ENDBRANCH  20  21
ENDBRANCH  19  20
ENDBRANCH  18  19
ENDBRANCH  17  18
ENDBRANCH  16  17
ENDBRANCH  15  16
ENDBRANCH  14  15
ENDBRANCH  13  14
ENDBRANCH   1  13
TORSDOF 20
ENDMDL
MODEL 3
REMARK VINA RESULT:    -4.014      0.997      5.404
REMARK INTER + INTRA:         -11.833
REMARK INTER:                  -8.648
REMARK INTRA:                  -3.186
REMARK UNBOUND:                -3.127
REMARK SMILES CCCCCCCCCCCCCCCCCCCCCC(=O)[O-]
REMARK SMILES IDX 12 1 11 2 10 3 9 4 8 5 7 6 6 7 5 8 4 9 3 10 2 11 1 12 13 13
REMARK SMILES IDX 14 14 15 15 16 16 17 17 18 18 19 19 20 20 21 21 22 22 23 23
REMARK SMILES IDX 24 24
REMARK H PARENT
REMARK Flexibility Score: inf
ROOT
ATOM      1  C   UNL     1       2.239   8.499   1.205  1.00  0.00     0.000 C 
ENDROOT
BRANCH   1   2
ATOM      2  C   UNL     1       3.470   8.577   0.284  1.00  0.00     0.000 C 
BRANCH   2   3
ATOM      3  C   UNL     1       3.823   7.208  -0.322  1.00  0.00     0.000 C 
BRANCH   3   4
ATOM      4  C   UNL     1       4.802   7.334  -1.500  1.00  0.00    -0.000 C 
BRANCH   4   5
ATOM      5  C   UNL     1       4.751   6.088  -2.396  1.00  0.00    -0.000 C 
BRANCH   5   6
ATOM      6  C   UNL     1       4.056   6.347  -3.745  1.00  0.00    -0.000 C 
BRANCH   6   7
ATOM      7  C   UNL     1       2.515   6.266  -3.719  1.00  0.00    -0.000 C 
BRANCH   7   8
ATOM      8  C   UNL     1       1.788   7.622  -3.689  1.00  0.00    -0.000 C 
BRANCH   8   9
ATOM      9  C   UNL     1       0.801   7.746  -2.519  1.00  0.00    -0.000 C 
BRANCH   9  10
ATOM     10  C   UNL     1       0.378   9.208  -2.316  1.00  0.00    -0.000 C 
BRANCH  10  11
ATOM     11  C   UNL     1      -0.582   9.388  -1.131  1.00  0.00    -0.003 C 
ATOM     12  C   UNL     1      -2.015   8.970  -1.462  1.00  0.00     0.004 C 
ENDBRANCH  10  11
ENDBRANCH   9  10
ENDBRANCH   8   9
ENDBRANCH   7   8
ENDBRANCH   6   7
ENDBRANCH   5   6
ENDBRANCH   4   5
ENDBRANCH   3   4
ENDBRANCH   2   3
ENDBRANCH   1   2
BRANCH   1  13
ATOM     13  C   UNL     1       1.493   7.161   1.089  1.00  0.00     0.000 C 
BRANCH  13  14
ATOM     14  C   UNL     1       0.120   7.184   1.780  1.00  0.00     0.000 C 
BRANCH  14  15
ATOM     15  C   UNL     1       0.144   6.470   3.142  1.00  0.00     0.000 C 
BRANCH  15  16
ATOM     16  C   UNL     1      -0.054   4.949   3.009  1.00  0.00     0.000 C 
BRANCH  16  17
ATOM     17  C   UNL     1       1.279   4.178   3.034  1.00  0.00     0.000 C 
BRANCH  17  18
ATOM     18  C   UNL     1       2.179   4.539   4.236  1.00  0.00     0.000 C 
BRANCH  18  19
ATOM     19  C   UNL     1       3.686   4.390   3.953  1.00  0.00     0.000 C 
BRANCH  19  20
ATOM     20  C   UNL     1       4.072   4.885   2.548  1.00  0.00     0.006 C 
BRANCH  20  21
ATOM     21  C   UNL     1       5.549   5.296   2.465  1.00  0.00     0.053 C 
BRANCH  21  22
ATOM     22  C   UNL     1       6.250   4.623   1.324  1.00  0.00     0.041 C 
ATOM     23  O   UNL     1       6.255   3.367   1.236  1.00  0.00    -0.550 OA
ATOM     24  O   UNL     1       6.872   5.386   0.344  1.00  0.00    -0.550 OA
ENDBRANCH  21  22
ENDBRANCH  20  21
ENDBRANCH  19  20
ENDBRANCH  18  19
ENDBRANCH  17  18
ENDBRANCH  16  17
ENDBRANCH  15  16
ENDBRANCH  14  15
ENDBRANCH  13  14
ENDBRANCH   1  13
TORSDOF 20
ENDMDL
MODEL 4
REMARK VINA RESULT:    -3.980      1.519      3.305
REMARK INTER + INTRA:         -11.760
REMARK INTER:                  -9.195
REMARK INTRA:                  -2.565
REMARK UNBOUND:                -3.127
REMARK SMILES CCCCCCCCCCCCCCCCCCCCCC(=O)[O-]
REMARK SMILES IDX 12 1 11 2 10 3 9 4 8 5 7 6 6 7 5 8 4 9 3 10 2 11 1 12 13 13
REMARK SMILES IDX 14 14 15 15 16 16 17 17 18 18 19 19 20 20 21 21 22 22 23 23
REMARK SMILES IDX 24 24
REMARK H PARENT
REMARK Flexibility Score: inf
ROOT
ATOM      1  C   UNL     1       1.134   6.809   0.327  1.00  0.00     0.000 C 
ENDROOT
BRANCH   1   2
ATOM      2  C   UNL     1       1.382   6.984   1.836  1.00  0.00     0.000 C 
BRANCH   2   3
ATOM      3  C   UNL     1       0.486   8.078   2.443  1.00  0.00     0.000 C 
BRANCH   3   4
ATOM      4  C   UNL     1      -0.811   7.500   3.031  1.00  0.00    -0.000 C 
BRANCH   4   5
ATOM      5  C   UNL     1      -0.893   7.755   4.543  1.00  0.00    -0.000 C 
BRANCH   5   6
ATOM      6  C   UNL     1       0.475   7.657   5.243  1.00  0.00    -0.000 C 
BRANCH   6   7
ATOM      7  C   UNL     1       0.835   6.260   5.791  1.00  0.00    -0.000 C 
BRANCH   7   8
ATOM      8  C   UNL     1      -0.363   5.391   6.213  1.00  0.00    -0.000 C 
BRANCH   8   9
ATOM      9  C   UNL     1      -0.348   3.997   5.568  1.00  0.00    -0.000 C 
BRANCH   9  10
ATOM     10  C   UNL     1       0.837   3.858   4.600  1.00  0.00    -0.000 C 
BRANCH  10  11
ATOM     11  C   UNL     1       0.418   3.985   3.130  1.00  0.00    -0.003 C 
ATOM     12  C   UNL     1      -0.927   3.320   2.838  1.00  0.00     0.004 C 
ENDBRANCH  10  11
ENDBRANCH   9  10
ENDBRANCH   8   9
ENDBRANCH   7   8
ENDBRANCH   6   7
ENDBRANCH   5   6
ENDBRANCH   4   5
ENDBRANCH   3   4
ENDBRANCH   2   3
ENDBRANCH   1   2
BRANCH   1  13
ATOM     13  C   UNL     1       0.606   8.087  -0.342  1.00  0.00     0.000 C 
BRANCH  13  14
ATOM     14  C   UNL     1       0.194   7.864  -1.806  1.00  0.00     0.000 C 
BRANCH  14  15
ATOM     15  C   UNL     1       0.978   6.715  -2.461  1.00  0.00     0.000 C 
BRANCH  15  16
ATOM     16  C   UNL     1       1.933   7.210  -3.562  1.00  0.00     0.000 C 
BRANCH  16  17
ATOM     17  C   UNL     1       3.057   6.201  -3.863  1.00  0.00     0.000 C 
BRANCH  17  18
ATOM     18  C   UNL     1       4.421   6.596  -3.256  1.00  0.00     0.000 C 
BRANCH  18  19
ATOM     19  C   UNL     1       4.811   5.772  -2.014  1.00  0.00     0.000 C 
BRANCH  19  20
ATOM     20  C   UNL     1       4.603   6.551  -0.703  1.00  0.00     0.006 C 
BRANCH  20  21
ATOM     21  C   UNL     1       5.747   6.321   0.295  1.00  0.00     0.053 C 
BRANCH  21  22
ATOM     22  C   UNL     1       5.565   5.051   1.068  1.00  0.00     0.041 C 
ATOM     23  O   UNL     1       4.702   4.983   1.982  1.00  0.00    -0.550 OA
ATOM     24  O   UNL     1       6.329   3.933   0.758  1.00  0.00    -0.550 OA
ENDBRANCH  21  22
ENDBRANCH  20  21
ENDBRANCH  19  20
ENDBRANCH  18  19
ENDBRANCH  17  18
ENDBRANCH  16  17
ENDBRANCH  15  16
ENDBRANCH  14  15
ENDBRANCH  13  14
ENDBRANCH   1  13
TORSDOF 20
ENDMDL
MODEL 5
REMARK VINA RESULT:    -3.969      1.745      2.869
REMARK INTER + INTRA:         -11.737
REMARK INTER:                  -7.705
REMARK INTRA:                  -4.031
REMARK UNBOUND:                -3.127
REMARK SMILES CCCCCCCCCCCCCCCCCCCCCC(=O)[O-]
REMARK SMILES IDX 12 1 11 2 10 3 9 4 8 5 7 6 6 7 5 8 4 9 3 10 2 11 1 12 13 13
REMARK SMILES IDX 14 14 15 15 16 16 17 17 18 18 19 19 20 20 21 21 22 22 23 23
REMARK SMILES IDX 24 24
REMARK H PARENT
REMARK Flexibility Score: inf
ROOT
ATOM      1  C   UNL     1       1.331   6.394  -2.239  1.00  0.00     0.000 C 
ENDROOT
BRANCH   1   2
ATOM      2  C   UNL     1       0.320   7.488  -1.850  1.00  0.00     0.000 C 
BRANCH   2   3
ATOM      3  C   UNL     1       0.994   8.861  -1.684  1.00  0.00     0.000 C 
BRANCH   3   4
ATOM      4  C   UNL     1       0.611   9.533  -0.356  1.00  0.00    -0.000 C 
BRANCH   4   5
ATOM      5  C   UNL     1      -0.425   8.696   0.408  1.00  0.00    -0.000 C 
BRANCH   5   6
ATOM      6  C   UNL     1      -0.178   8.676   1.927  1.00  0.00    -0.000 C 
BRANCH   6   7
ATOM      7  C   UNL     1       0.036   7.276   2.542  1.00  0.00    -0.000 C 
BRANCH   7   8
ATOM      8  C   UNL     1       0.778   6.271   1.643  1.00  0.00    -0.000 C 
BRANCH   8   9
ATOM      9  C   UNL     1       2.283   6.201   1.939  1.00  0.00    -0.000 C 
BRANCH   9  10
ATOM     10  C   UNL     1       3.063   7.159   1.027  1.00  0.00    -0.000 C 
BRANCH  10  11
ATOM     11  C   UNL     1       3.764   8.280   1.807  1.00  0.00    -0.003 C 
ATOM     12  C   UNL     1       4.619   9.178   0.912  1.00  0.00     0.004 C 
ENDBRANCH  10  11
ENDBRANCH   9  10
ENDBRANCH   8   9
ENDBRANCH   7   8
ENDBRANCH   6   7
ENDBRANCH   5   6
ENDBRANCH   4   5
ENDBRANCH   3   4
ENDBRANCH   2   3
ENDBRANCH   1   2
BRANCH   1  13
ATOM     13  C   UNL     1       1.833   6.534  -3.684  1.00  0.00     0.000 C 
BRANCH  13  14
ATOM     14  C   UNL     1       3.366   6.484  -3.788  1.00  0.00     0.000 C 
BRANCH  14  15
ATOM     15  C   UNL     1       4.051   7.020  -2.519  1.00  0.00     0.000 C 
BRANCH  15  16
ATOM     16  C   UNL     1       5.153   6.076  -2.006  1.00  0.00     0.000 C 
BRANCH  16  17
ATOM     17  C   UNL     1       6.256   6.824  -1.235  1.00  0.00     0.000 C 
BRANCH  17  18
ATOM     18  C   UNL     1       6.794   6.045  -0.015  1.00  0.00     0.000 C 
BRANCH  18  19
ATOM     19  C   UNL     1       5.917   4.847   0.396  1.00  0.00     0.000 C 
BRANCH  19  20
ATOM     20  C   UNL     1       6.117   4.449   1.869  1.00  0.00     0.006 C 
BRANCH  20  21
ATOM     21  C   UNL     1       6.276   5.671   2.783  1.00  0.00     0.053 C 
BRANCH  21  22
ATOM     22  C   UNL     1       5.762   5.404   4.165  1.00  0.00     0.041 C 
ATOM     23  O   UNL     1       6.313   4.533   4.889  1.00  0.00    -0.550 OA
ATOM     24  O   UNL     1       4.694   6.139   4.663  1.00  0.00    -0.550 OA
ENDBRANCH  21  22
ENDBRANCH  20  21
ENDBRANCH  19  20
ENDBRANCH  18  19
ENDBRANCH  17  18
ENDBRANCH  16  17
ENDBRANCH  15  16
ENDBRANCH  14  15
ENDBRANCH  13  14
ENDBRANCH   1  13
TORSDOF 20
ENDMDL
MODEL 6
REMARK VINA RESULT:    -3.907      2.077      5.164
REMARK INTER + INTRA:         -11.601
REMARK INTER:                  -8.565
REMARK INTRA:                  -3.036
REMARK UNBOUND:                -3.127
REMARK SMILES CCCCCCCCCCCCCCCCCCCCCC(=O)[O-]
REMARK SMILES IDX 12 1 11 2 10 3 9 4 8 5 7 6 6 7 5 8 4 9 3 10 2 11 1 12 13 13
REMARK SMILES IDX 14 14 15 15 16 16 17 17 18 18 19 19 20 20 21 21 22 22 23 23
REMARK SMILES IDX 24 24
REMARK H PARENT
REMARK Flexibility Score: inf
ROOT
ATOM      1  C   UNL     1       1.667   6.041  -2.761  1.00  0.00     0.000 C 
ENDROOT
BRANCH   1   2
ATOM      2  C   UNL     1       2.627   6.629  -3.810  1.00  0.00     0.000 C 
BRANCH   2   3
ATOM      3  C   UNL     1       4.100   6.366  -3.452  1.00  0.00     0.000 C 
BRANCH   3   4
ATOM      4  C   UNL     1       4.771   7.599  -2.827  1.00  0.00    -0.000 C 
BRANCH   4   5
ATOM      5  C   UNL     1       5.098   7.357  -1.346  1.00  0.00    -0.000 C 
BRANCH   5   6
ATOM      6  C   UNL     1       4.069   7.989  -0.392  1.00  0.00    -0.000 C 
BRANCH   6   7
ATOM      7  C   UNL     1       3.226   6.988   0.425  1.00  0.00    -0.000 C 
BRANCH   7   8
ATOM      8  C   UNL     1       3.618   6.857   1.908  1.00  0.00    -0.000 C 
BRANCH   8   9
ATOM      9  C   UNL     1       5.090   7.203   2.171  1.00  0.00    -0.000 C 
BRANCH   9  10
ATOM     10  C   UNL     1       5.804   6.043   2.882  1.00  0.00    -0.000 C 
BRANCH  10  11
ATOM     11  C   UNL     1       5.719   4.727   2.097  1.00  0.00    -0.003 C 
ATOM     12  C   UNL     1       6.570   4.738   0.828  1.00  0.00     0.004 C 
ENDBRANCH  10  11
ENDBRANCH   9  10
ENDBRANCH   8   9
ENDBRANCH   7   8
ENDBRANCH   6   7
ENDBRANCH   5   6
ENDBRANCH   4   5
ENDBRANCH   3   4
ENDBRANCH   2   3
ENDBRANCH   1   2
BRANCH   1  13
ATOM     13  C   UNL     1       0.655   7.070  -2.236  1.00  0.00     0.000 C 
BRANCH  13  14
ATOM     14  C   UNL     1       1.049   8.517  -2.574  1.00  0.00     0.000 C 
BRANCH  14  15
ATOM     15  C   UNL     1       0.072   9.540  -1.970  1.00  0.00     0.000 C 
BRANCH  15  16
ATOM     16  C   UNL     1      -0.875   8.905  -0.936  1.00  0.00     0.000 C 
BRANCH  16  17
ATOM     17  C   UNL     1      -0.501   9.277   0.510  1.00  0.00     0.000 C 
BRANCH  17  18
ATOM     18  C   UNL     1      -0.022   8.075   1.353  1.00  0.00     0.000 C 
BRANCH  18  19
ATOM     19  C   UNL     1      -0.748   7.935   2.705  1.00  0.00     0.000 C 
BRANCH  19  20
ATOM     20  C   UNL     1      -0.408   6.615   3.421  1.00  0.00     0.006 C 
BRANCH  20  21
ATOM     21  C   UNL     1       0.232   5.591   2.474  1.00  0.00     0.053 C 
BRANCH  21  22
ATOM     22  C   UNL     1       0.109   4.193   3.000  1.00  0.00     0.041 C 
ATOM     23  O   UNL     1       0.732   3.851   4.040  1.00  0.00    -0.550 OA
ATOM     24  O   UNL     1      -0.717   3.279   2.359  1.00  0.00    -0.550 OA
ENDBRANCH  21  22
ENDBRANCH  20  21
ENDBRANCH  19  20
ENDBRANCH  18  19
ENDBRANCH  17  18
ENDBRANCH  16  17
ENDBRANCH  15  16
ENDBRANCH  14  15
ENDBRANCH  13  14
ENDBRANCH   1  13
TORSDOF 20
ENDMDL
MODEL 7
REMARK VINA RESULT:    -3.876      1.753      2.601
REMARK INTER + INTRA:         -11.534
REMARK INTER:                  -8.778
REMARK INTRA:                  -2.756
REMARK UNBOUND:                -3.127
REMARK SMILES CCCCCCCCCCCCCCCCCCCCCC(=O)[O-]
REMARK SMILES IDX 12 1 11 2 10 3 9 4 8 5 7 6 6 7 5 8 4 9 3 10 2 11 1 12 13 13
REMARK SMILES IDX 14 14 15 15 16 16 17 17 18 18 19 19 20 20 21 21 22 22 23 23
REMARK SMILES IDX 24 24
REMARK H PARENT
REMARK Flexibility Score: inf
ROOT
ATOM      1  C   UNL     1       0.199   7.493  -1.861  1.00  0.00     0.000 C 
ENDROOT
BRANCH   1   2
ATOM      2  C   UNL     1       0.875   8.238  -0.695  1.00  0.00     0.000 C 
BRANCH   2   3
ATOM      3  C   UNL     1       1.611   7.275   0.251  1.00  0.00     0.000 C 
BRANCH   3   4
ATOM      4  C   UNL     1       0.687   6.724   1.348  1.00  0.00    -0.000 C 
BRANCH   4   5
ATOM      5  C   UNL     1       0.892   7.475   2.672  1.00  0.00    -0.000 C 
BRANCH   5   6
ATOM      6  C   UNL     1      -0.391   7.562   3.518  1.00  0.00    -0.000 C 
BRANCH   6   7
ATOM      7  C   UNL     1      -0.369   6.757   4.834  1.00  0.00    -0.000 C 
BRANCH   7   8
ATOM      8  C   UNL     1       1.001   6.175   5.225  1.00  0.00    -0.000 C 
BRANCH   8   9
ATOM      9  C   UNL     1       0.909   4.744   5.774  1.00  0.00    -0.000 C 
BRANCH   9  10
ATOM     10  C   UNL     1      -0.422   4.091   5.373  1.00  0.00    -0.000 C 
BRANCH  10  11
ATOM     11  C   UNL     1      -0.263   3.073   4.236  1.00  0.00    -0.003 C 
ATOM     12  C   UNL     1      -0.811   3.583   2.903  1.00  0.00     0.004 C 
ENDBRANCH  10  11
ENDBRANCH   9  10
ENDBRANCH   8   9
ENDBRANCH   7   8
ENDBRANCH   6   7
ENDBRANCH   5   6
ENDBRANCH   4   5
ENDBRANCH   3   4
ENDBRANCH   2   3
ENDBRANCH   1   2
BRANCH   1  13
ATOM     13  C   UNL     1       1.127   6.469  -2.531  1.00  0.00     0.000 C 
BRANCH  13  14
ATOM     14  C   UNL     1       1.962   7.079  -3.669  1.00  0.00     0.000 C 
BRANCH  14  15
ATOM     15  C   UNL     1       3.375   6.475  -3.738  1.00  0.00     0.000 C 
BRANCH  15  16
ATOM     16  C   UNL     1       4.216   6.808  -2.492  1.00  0.00     0.000 C 
BRANCH  16  17
ATOM     17  C   UNL     1       5.101   5.629  -2.049  1.00  0.00     0.000 C 
BRANCH  17  18
ATOM     18  C   UNL     1       5.506   5.686  -0.559  1.00  0.00     0.000 C 
BRANCH  18  19
ATOM     19  C   UNL     1       4.902   6.879   0.205  1.00  0.00     0.000 C 
BRANCH  19  20
ATOM     20  C   UNL     1       4.920   6.671   1.730  1.00  0.00     0.006 C 
BRANCH  20  21
ATOM     21  C   UNL     1       5.003   5.187   2.111  1.00  0.00     0.053 C 
BRANCH  21  22
ATOM     22  C   UNL     1       4.048   4.840   3.212  1.00  0.00     0.041 C 
ATOM     23  O   UNL     1       4.277   5.217   4.392  1.00  0.00    -0.550 OA
ATOM     24  O   UNL     1       2.890   4.127   2.929  1.00  0.00    -0.550 OA
ENDBRANCH  21  22
ENDBRANCH  20  21
ENDBRANCH  19  20
ENDBRANCH  18  19
ENDBRANCH  17  18
ENDBRANCH  16  17
ENDBRANCH  15  16
ENDBRANCH  14  15
ENDBRANCH  13  14
ENDBRANCH   1  13
TORSDOF 20
ENDMDL
MODEL 8
REMARK VINA RESULT:    -3.861      2.481      4.836
REMARK INTER + INTRA:         -11.503
REMARK INTER:                  -7.581
REMARK INTRA:                  -3.922
REMARK UNBOUND:                -3.127
REMARK SMILES CCCCCCCCCCCCCCCCCCCCCC(=O)[O-]
REMARK SMILES IDX 12 1 11 2 10 3 9 4 8 5 7 6 6 7 5 8 4 9 3 10 2 11 1 12 13 13
REMARK SMILES IDX 14 14 15 15 16 16 17 17 18 18 19 19 20 20 21 21 22 22 23 23
REMARK SMILES IDX 24 24
REMARK H PARENT
REMARK Flexibility Score: inf
ROOT
ATOM      1  C   UNL     1       4.359   6.476   3.237  1.00  0.00     0.000 C 
ENDROOT
BRANCH   1   2
ATOM      2  C   UNL     1       4.250   7.893   2.645  1.00  0.00     0.000 C 
BRANCH   2   3
ATOM      3  C   UNL     1       3.156   7.983   1.568  1.00  0.00     0.000 C 
BRANCH   3   4
ATOM      4  C   UNL     1       2.589   6.602   1.205  1.00  0.00    -0.000 C 
BRANCH   4   5
ATOM      5  C   UNL     1       1.076   6.675   0.950  1.00  0.00    -0.000 C 
BRANCH   5   6
ATOM      6  C   UNL     1       0.448   7.991   1.442  1.00  0.00    -0.000 C 
BRANCH   6   7
ATOM      7  C   UNL     1      -0.450   7.867   2.690  1.00  0.00    -0.000 C 
BRANCH   7   8
ATOM      8  C   UNL     1       0.283   7.495   3.992  1.00  0.00    -0.000 C 
BRANCH   8   9
ATOM      9  C   UNL     1      -0.086   6.096   4.508  1.00  0.00    -0.000 C 
BRANCH   9  10
ATOM     10  C   UNL     1       1.137   5.167   4.483  1.00  0.00    -0.000 C 
BRANCH  10  11
ATOM     11  C   UNL     1       0.974   4.000   3.501  1.00  0.00    -0.003 C 
ATOM     12  C   UNL     1      -0.431   3.922   2.902  1.00  0.00     0.004 C 
ENDBRANCH  10  11
ENDBRANCH   9  10
ENDBRANCH   8   9
ENDBRANCH   7   8
ENDBRANCH   6   7
ENDBRANCH   5   6
ENDBRANCH   4   5
ENDBRANCH   3   4
ENDBRANCH   2   3
ENDBRANCH   1   2
BRANCH   1  13
ATOM     13  C   UNL     1       5.708   5.806   2.936  1.00  0.00     0.000 C 
BRANCH  13  14
ATOM     14  C   UNL     1       5.558   4.490   2.156  1.00  0.00     0.000 C 
BRANCH  14  15
ATOM     15  C   UNL     1       6.255   4.544   0.787  1.00  0.00     0.000 C 
BRANCH  15  16
ATOM     16  C   UNL     1       6.882   5.921   0.503  1.00  0.00     0.000 C 
BRANCH  16  17
ATOM     17  C   UNL     1       6.387   6.530  -0.822  1.00  0.00     0.000 C 
BRANCH  17  18
ATOM     18  C   UNL     1       5.032   5.962  -1.296  1.00  0.00     0.000 C 
BRANCH  18  19
ATOM     19  C   UNL     1       4.527   6.573  -2.617  1.00  0.00     0.000 C 
BRANCH  19  20
ATOM     20  C   UNL     1       3.502   7.699  -2.391  1.00  0.00     0.006 C 
BRANCH  20  21
ATOM     21  C   UNL     1       2.282   7.564  -3.312  1.00  0.00     0.053 C 
BRANCH  21  22
ATOM     22  C   UNL     1       1.114   6.948  -2.604  1.00  0.00     0.041 C 
ATOM     23  O   UNL     1       0.140   7.662  -2.249  1.00  0.00    -0.550 OA
ATOM     24  O   UNL     1       1.090   5.580  -2.365  1.00  0.00    -0.550 OA
ENDBRANCH  21  22
ENDBRANCH  20  21
ENDBRANCH  19  20
ENDBRANCH  18  19
ENDBRANCH  17  18
ENDBRANCH  16  17
ENDBRANCH  15  16
ENDBRANCH  14  15
ENDBRANCH  13  14
ENDBRANCH   1  13
TORSDOF 20
ENDMDL
MODEL 9
REMARK VINA RESULT:    -3.831      2.280      5.016
REMARK INTER + INTRA:         -11.438
REMARK INTER:                  -7.915
REMARK INTRA:                  -3.523
REMARK UNBOUND:                -3.127
REMARK SMILES CCCCCCCCCCCCCCCCCCCCCC(=O)[O-]
REMARK SMILES IDX 12 1 11 2 10 3 9 4 8 5 7 6 6 7 5 8 4 9 3 10 2 11 1 12 13 13
REMARK SMILES IDX 14 14 15 15 16 16 17 17 18 18 19 19 20 20 21 21 22 22 23 23
REMARK SMILES IDX 24 24
REMARK H PARENT
REMARK Flexibility Score: inf
ROOT
ATOM      1  C   UNL     1       1.699   6.383  -2.706  1.00  0.00     0.000 C 
ENDROOT
BRANCH   1   2
ATOM      2  C   UNL     1       2.121   7.571  -3.589  1.00  0.00     0.000 C 
BRANCH   2   3
ATOM      3  C   UNL     1       3.306   8.344  -2.985  1.00  0.00     0.000 C 
BRANCH   3   4
ATOM      4  C   UNL     1       2.902   9.755  -2.529  1.00  0.00    -0.000 C 
BRANCH   4   5
ATOM      5  C   UNL     1       3.299   9.996  -1.065  1.00  0.00    -0.000 C 
BRANCH   5   6
ATOM      6  C   UNL     1       4.427   9.065  -0.587  1.00  0.00    -0.000 C 
BRANCH   6   7
ATOM      7  C   UNL     1       4.095   8.208   0.652  1.00  0.00    -0.000 C 
BRANCH   7   8
ATOM      8  C   UNL     1       3.904   6.705   0.379  1.00  0.00    -0.000 C 
BRANCH   8   9
ATOM      9  C   UNL     1       4.983   6.123  -0.546  1.00  0.00    -0.000 C 
BRANCH   9  10
ATOM     10  C   UNL     1       5.892   5.152   0.221  1.00  0.00    -0.000 C 
BRANCH  10  11
ATOM     11  C   UNL     1       7.290   5.730   0.480  1.00  0.00    -0.003 C 
ATOM     12  C   UNL     1       7.433   6.328   1.880  1.00  0.00     0.004 C 
ENDBRANCH  10  11
ENDBRANCH   9  10
ENDBRANCH   8   9
ENDBRANCH   7   8
ENDBRANCH   6   7
ENDBRANCH   5   6
ENDBRANCH   4   5
ENDBRANCH   3   4
ENDBRANCH   2   3
ENDBRANCH   1   2
BRANCH   1  13
ATOM     13  C   UNL     1       0.844   6.810  -1.503  1.00  0.00     0.000 C 
BRANCH  13  14
ATOM     14  C   UNL     1      -0.194   7.885  -1.863  1.00  0.00     0.000 C 
BRANCH  14  15
ATOM     15  C   UNL     1      -0.511   8.806  -0.672  1.00  0.00     0.000 C 
BRANCH  15  16
ATOM     16  C   UNL     1       0.386   8.519   0.545  1.00  0.00     0.000 C 
BRANCH  16  17
ATOM     17  C   UNL     1      -0.365   8.681   1.880  1.00  0.00     0.000 C 
BRANCH  17  18
ATOM     18  C   UNL     1      -0.236   7.459   2.815  1.00  0.00     0.000 C 
BRANCH  18  19
ATOM     19  C   UNL     1       0.742   6.384   2.303  1.00  0.00     0.000 C 
BRANCH  19  20
ATOM     20  C   UNL     1       0.349   4.967   2.756  1.00  0.00     0.006 C 
BRANCH  20  21
ATOM     21  C   UNL     1       1.536   4.201   3.357  1.00  0.00     0.053 C 
BRANCH  21  22
ATOM     22  C   UNL     1       1.790   4.595   4.780  1.00  0.00     0.041 C 
ATOM     23  O   UNL     1       1.224   3.976   5.720  1.00  0.00    -0.550 OA
ATOM     24  O   UNL     1       2.675   5.626   5.069  1.00  0.00    -0.550 OA
ENDBRANCH  21  22
ENDBRANCH  20  21
ENDBRANCH  19  20
ENDBRANCH  18  19
ENDBRANCH  17  18
ENDBRANCH  16  17
ENDBRANCH  15  16
ENDBRANCH  14  15
ENDBRANCH  13  14
ENDBRANCH   1  13
TORSDOF 20
ENDMDL
