MODEL 1
REMARK VINA RESULT:    -2.760      0.000      0.000
REMARK INTER + INTRA:          -8.203
REMARK INTER:                  -5.986
REMARK INTRA:                  -2.217
REMARK UNBOUND:                -2.217
REMARK SMILES CCCCCCCCCCCCCCCCCCCCCC(=O)[O-]
REMARK SMILES IDX 12 1 11 2 10 3 9 4 8 5 7 6 6 7 5 8 4 9 3 10 2 11 1 12 13 13
REMARK SMILES IDX 14 14 15 15 16 16 17 17 18 18 19 19 20 20 21 21 22 22 23 23
REMARK SMILES IDX 24 24
REMARK H PARENT
REMARK Flexibility Score: inf
ROOT
ATOM      1  C   UNL     1       2.293  23.523  26.900  1.00  0.00     0.000 C 
ENDROOT
BRANCH   1   2
ATOM      2  C   UNL     1       3.216  22.293  26.886  1.00  0.00     0.000 C 
BRANCH   2   3
ATOM      3  C   UNL     1       4.708  22.671  26.945  1.00  0.00     0.000 C 
BRANCH   3   4
ATOM      4  C   UNL     1       4.929  24.192  27.085  1.00  0.00    -0.000 C 
BRANCH   4   5
ATOM      5  C   UNL     1       5.980  24.761  26.112  1.00  0.00    -0.000 C 
BRANCH   5   6
ATOM      6  C   UNL     1       6.273  23.881  24.881  1.00  0.00    -0.000 C 
BRANCH   6   7
ATOM      7  C   UNL     1       5.558  24.317  23.588  1.00  0.00    -0.000 C 
BRANCH   7   8
ATOM      8  C   UNL     1       4.080  23.897  23.488  1.00  0.00    -0.000 C 
BRANCH   8   9
ATOM      9  C   UNL     1       3.293  24.638  22.385  1.00  0.00    -0.000 C 
BRANCH   9  10
ATOM     10  C   UNL     1       1.947  23.968  22.070  1.00  0.00    -0.000 C 
BRANCH  10  11
ATOM     11  C   UNL     1       1.700  22.771  22.996  1.00  0.00    -0.003 C 
ATOM     12  C   UNL     1       1.223  21.554  22.209  1.00  0.00     0.004 C 
ENDBRANCH  10  11
ENDBRANCH   9  10
ENDBRANCH   8   9
ENDBRANCH   7   8
ENDBRANCH   6   7
ENDBRANCH   5   6
ENDBRANCH   4   5
ENDBRANCH   3   4
ENDBRANCH   2   3
ENDBRANCH   1   2
BRANCH   1  13
ATOM     13  C   UNL     1       0.840  23.173  26.526  1.00  0.00     0.000 C 
BRANCH  13  14
ATOM     14  C   UNL     1      -0.165  24.221  27.027  1.00  0.00     0.000 C 
BRANCH  14  15
ATOM     15  C   UNL     1      -0.680  25.129  25.899  1.00  0.00     0.000 C 
BRANCH  15  16
ATOM     16  C   UNL     1       0.276  26.293  25.584  1.00  0.00     0.000 C 
BRANCH  16  17
ATOM     17  C   UNL     1       0.789  26.338  24.133  1.00  0.00     0.000 C 
BRANCH  17  18
ATOM     18  C   UNL     1       0.280  27.564  23.352  1.00  0.00     0.000 C 
BRANCH  18  19
ATOM     19  C   UNL     1       1.053  27.782  22.042  1.00  0.00     0.000 C 
BRANCH  19  20
ATOM     20  C   UNL     1       0.134  27.740  20.811  1.00  0.00     0.006 C 
BRANCH  20  21
ATOM     21  C   UNL     1      -0.875  28.891  20.842  1.00  0.00     0.053 C 
BRANCH  21  22
ATOM     22  C   UNL     1      -0.285  30.133  20.251  1.00  0.00     0.041 C 
ATOM     23  O   UNL     1       0.966  30.282  20.202  1.00  0.00    -0.550 OA
ATOM     24  O   UNL     1      -1.117  31.140  19.771  1.00  0.00    -0.550 OA
ENDBRANCH  21  22
ENDBRANCH  20  21
ENDBRANCH  19  20
ENDBRANCH  18  19
ENDBRANCH  17  18
ENDBRANCH  16  17
ENDBRANCH  15  16
ENDBRANCH  14  15
ENDBRANCH  13  14
ENDBRANCH   1  13
TORSDOF 20
ENDMDL
MODEL 2
REMARK VINA RESULT:    -2.481      4.875      9.009
REMARK INTER + INTRA:          -7.599
REMARK INTER:                  -6.365
REMARK INTRA:                  -1.234
REMARK UNBOUND:                -2.217
REMARK SMILES CCCCCCCCCCCCCCCCCCCCCC(=O)[O-]
REMARK SMILES IDX 12 1 11 2 10 3 9 4 8 5 7 6 6 7 5 8 4 9 3 10 2 11 1 12 13 13
REMARK SMILES IDX 14 14 15 15 16 16 17 17 18 18 19 19 20 20 21 21 22 22 23 23
REMARK SMILES IDX 24 24
REMARK H PARENT
REMARK Flexibility Score: inf
ROOT
ATOM      1  C   UNL     1       2.128  23.300  24.191  1.00  0.00     0.000 C 
ENDROOT
BRANCH   1   2
ATOM      2  C   UNL     1       2.047  22.415  22.936  1.00  0.00     0.000 C 
BRANCH   2   3
ATOM      3  C   UNL     1       1.841  23.231  21.647  1.00  0.00     0.000 C 
BRANCH   3   4
ATOM      4  C   UNL     1       2.472  24.638  21.729  1.00  0.00    -0.000 C 
BRANCH   4   5
ATOM      5  C   UNL     1       1.466  25.785  21.509  1.00  0.00    -0.000 C 
BRANCH   5   6
ATOM      6  C   UNL     1       1.597  26.966  22.491  1.00  0.00    -0.000 C 
BRANCH   6   7
ATOM      7  C   UNL     1       0.692  28.173  22.177  1.00  0.00    -0.000 C 
BRANCH   7   8
ATOM      8  C   UNL     1      -0.195  28.013  20.928  1.00  0.00    -0.000 C 
BRANCH   8   9
ATOM      9  C   UNL     1      -1.109  29.226  20.653  1.00  0.00    -0.000 C 
BRANCH   9  10
ATOM     10  C   UNL     1      -0.369  30.376  19.953  1.00  0.00    -0.000 C 
BRANCH  10  11
ATOM     11  C   UNL     1      -1.205  31.661  19.975  1.00  0.00    -0.003 C 
ATOM     12  C   UNL     1      -2.209  31.684  18.826  1.00  0.00     0.004 C 
ENDBRANCH  10  11
ENDBRANCH   9  10
ENDBRANCH   8   9
ENDBRANCH   7   8
ENDBRANCH   6   7
ENDBRANCH   5   6
ENDBRANCH   4   5
ENDBRANCH   3   4
ENDBRANCH   2   3
ENDBRANCH   1   2
BRANCH   1  13
ATOM     13  C   UNL     1       1.250  22.773  25.342  1.00  0.00     0.000 C 
BRANCH  13  14
ATOM     14  C   UNL     1       2.065  22.449  26.603  1.00  0.00     0.000 C 
BRANCH  14  15
ATOM     15  C   UNL     1       3.126  23.517  26.910  1.00  0.00     0.000 C 
BRANCH  15  16
ATOM     16  C   UNL     1       4.560  22.959  26.894  1.00  0.00     0.000 C 
BRANCH  16  17
ATOM     17  C   UNL     1       4.661  21.425  26.985  1.00  0.00     0.000 C 
BRANCH  17  18
ATOM     18  C   UNL     1       6.115  20.916  26.963  1.00  0.00     0.000 C 
BRANCH  18  19
ATOM     19  C   UNL     1       6.201  19.391  27.125  1.00  0.00     0.000 C 
BRANCH  19  20
ATOM     20  C   UNL     1       4.984  18.672  26.521  1.00  0.00     0.006 C 
BRANCH  20  21
ATOM     21  C   UNL     1       5.372  17.287  25.994  1.00  0.00     0.053 C 
BRANCH  21  22
ATOM     22  C   UNL     1       4.249  16.682  25.211  1.00  0.00     0.041 C 
ATOM     23  O   UNL     1       3.525  15.787  25.725  1.00  0.00    -0.550 OA
ATOM     24  O   UNL     1       4.013  17.091  23.902  1.00  0.00    -0.550 OA
ENDBRANCH  21  22
ENDBRANCH  20  21
ENDBRANCH  19  20
ENDBRANCH  18  19
ENDBRANCH  17  18
ENDBRANCH  16  17
ENDBRANCH  15  16
ENDBRANCH  14  15
ENDBRANCH  13  14
ENDBRANCH   1  13
TORSDOF 20
ENDMDL
MODEL 3
REMARK VINA RESULT:    -2.413      2.718      4.118
REMARK INTER + INTRA:          -7.452
REMARK INTER:                  -5.838
REMARK INTRA:                  -1.614
REMARK UNBOUND:                -2.217
REMARK SMILES CCCCCCCCCCCCCCCCCCCCCC(=O)[O-]
REMARK SMILES IDX 12 1 11 2 10 3 9 4 8 5 7 6 6 7 5 8 4 9 3 10 2 11 1 12 13 13
REMARK SMILES IDX 14 14 15 15 16 16 17 17 18 18 19 19 20 20 21 21 22 22 23 23
REMARK SMILES IDX 24 24
REMARK H PARENT
REMARK Flexibility Score: inf
ROOT
ATOM      1  C   UNL     1       2.296  22.601  25.343  1.00  0.00     0.000 C 
ENDROOT
BRANCH   1   2
ATOM      2  C   UNL     1       2.935  23.909  25.839  1.00  0.00     0.000 C 
BRANCH   2   3
ATOM      3  C   UNL     1       4.306  23.683  26.503  1.00  0.00     0.000 C 
BRANCH   3   4
ATOM      4  C   UNL     1       5.483  24.004  25.557  1.00  0.00    -0.000 C 
BRANCH   4   5
ATOM      5  C   UNL     1       6.739  23.150  25.816  1.00  0.00    -0.000 C 
BRANCH   5   6
ATOM      6  C   UNL     1       6.619  22.147  26.980  1.00  0.00    -0.000 C 
BRANCH   6   7
ATOM      7  C   UNL     1       6.948  20.687  26.614  1.00  0.00    -0.000 C 
BRANCH   7   8
ATOM      8  C   UNL     1       5.810  19.680  26.870  1.00  0.00    -0.000 C 
BRANCH   8   9
ATOM      9  C   UNL     1       6.035  18.303  26.210  1.00  0.00    -0.000 C 
BRANCH   9  10
ATOM     10  C   UNL     1       4.719  17.615  25.816  1.00  0.00    -0.000 C 
BRANCH  10  11
ATOM     11  C   UNL     1       4.808  17.029  24.402  1.00  0.00    -0.003 C 
ATOM     12  C   UNL     1       6.114  16.265  24.204  1.00  0.00     0.004 C 
ENDBRANCH  10  11
ENDBRANCH   9  10
ENDBRANCH   8   9
ENDBRANCH   7   8
ENDBRANCH   6   7
ENDBRANCH   5   6
ENDBRANCH   4   5
ENDBRANCH   3   4
ENDBRANCH   2   3
ENDBRANCH   1   2
BRANCH   1  13
ATOM     13  C   UNL     1       1.212  22.844  24.275  1.00  0.00     0.000 C 
BRANCH  13  14
ATOM     14  C   UNL     1       1.502  22.100  22.962  1.00  0.00     0.000 C 
BRANCH  14  15
ATOM     15  C   UNL     1       1.790  23.057  21.795  1.00  0.00     0.000 C 
BRANCH  15  16
ATOM     16  C   UNL     1       2.728  24.213  22.187  1.00  0.00     0.000 C 
BRANCH  16  17
ATOM     17  C   UNL     1       2.145  25.623  21.974  1.00  0.00     0.000 C 
BRANCH  17  18
ATOM     18  C   UNL     1       1.640  26.268  23.278  1.00  0.00     0.000 C 
BRANCH  18  19
ATOM     19  C   UNL     1       0.589  27.358  23.020  1.00  0.00     0.000 C 
BRANCH  19  20
ATOM     20  C   UNL     1       0.884  28.160  21.743  1.00  0.00     0.006 C 
BRANCH  20  21
ATOM     21  C   UNL     1      -0.333  28.177  20.813  1.00  0.00     0.053 C 
BRANCH  21  22
ATOM     22  C   UNL     1      -0.664  29.576  20.395  1.00  0.00     0.041 C 
ATOM     23  O   UNL     1      -1.861  29.973  20.395  1.00  0.00    -0.550 OA
ATOM     24  O   UNL     1       0.347  30.438  19.985  1.00  0.00    -0.550 OA
ENDBRANCH  21  22
ENDBRANCH  20  21
ENDBRANCH  19  20
ENDBRANCH  18  19
ENDBRANCH  17  18
ENDBRANCH  16  17
ENDBRANCH  15  16
ENDBRANCH  14  15
ENDBRANCH  13  14
ENDBRANCH   1  13
TORSDOF 20
ENDMDL
MODEL 4
REMARK VINA RESULT:    -2.345      4.873      6.328
REMARK INTER + INTRA:          -7.303
REMARK INTER:                  -6.180
REMARK INTRA:                  -1.123
REMARK UNBOUND:                -2.217
REMARK SMILES CCCCCCCCCCCCCCCCCCCCCC(=O)[O-]
REMARK SMILES IDX 12 1 11 2 10 3 9 4 8 5 7 6 6 7 5 8 4 9 3 10 2 11 1 12 13 13
REMARK SMILES IDX 14 14 15 15 16 16 17 17 18 18 19 19 20 20 21 21 22 22 23 23
REMARK SMILES IDX 24 24
REMARK H PARENT
REMARK Flexibility Score: inf
ROOT
ATOM      1  C   UNL     1       2.921  22.615  26.544  1.00  0.00     0.000 C 
ENDROOT
BRANCH   1   2
ATOM      2  C   UNL     1       4.174  21.759  26.790  1.00  0.00     0.000 C 
BRANCH   2   3
ATOM      3  C   UNL     1       3.836  20.292  27.111  1.00  0.00     0.000 C 
BRANCH   3   4
ATOM      4  C   UNL     1       4.691  19.294  26.300  1.00  0.00    -0.000 C 
BRANCH   4   5
ATOM      5  C   UNL     1       5.822  18.638  27.116  1.00  0.00    -0.000 C 
BRANCH   5   6
ATOM      6  C   UNL     1       5.897  17.103  27.012  1.00  0.00    -0.000 C 
BRANCH   6   7
ATOM      7  C   UNL     1       6.084  16.559  25.583  1.00  0.00    -0.000 C 
BRANCH   7   8
ATOM      8  C   UNL     1       4.977  15.602  25.100  1.00  0.00    -0.000 C 
BRANCH   8   9
ATOM      9  C   UNL     1       4.002  15.163  26.214  1.00  0.00    -0.000 C 
BRANCH   9  10
ATOM     10  C   UNL     1       2.878  14.257  25.689  1.00  0.00    -0.000 C 
BRANCH  10  11
ATOM     11  C   UNL     1       1.662  14.296  26.622  1.00  0.00    -0.003 C 
ATOM     12  C   UNL     1       0.670  15.372  26.190  1.00  0.00     0.004 C 
ENDBRANCH  10  11
ENDBRANCH   9  10
ENDBRANCH   8   9
ENDBRANCH   7   8
ENDBRANCH   6   7
ENDBRANCH   5   6
ENDBRANCH   4   5
ENDBRANCH   3   4
ENDBRANCH   2   3
ENDBRANCH   1   2
BRANCH   1  13
ATOM     13  C   UNL     1       1.617  21.814  26.716  1.00  0.00     0.000 C 
BRANCH  13  14
ATOM     14  C   UNL     1       0.403  22.715  26.990  1.00  0.00     0.000 C 
BRANCH  14  15
ATOM     15  C   UNL     1       0.787  24.196  27.125  1.00  0.00     0.000 C 
BRANCH  15  16
ATOM     16  C   UNL     1      -0.159  25.133  26.354  1.00  0.00     0.000 C 
BRANCH  16  17
ATOM     17  C   UNL     1       0.441  25.762  25.083  1.00  0.00     0.000 C 
BRANCH  17  18
ATOM     18  C   UNL     1       1.795  25.143  24.688  1.00  0.00     0.000 C 
BRANCH  18  19
ATOM     19  C   UNL     1       2.055  25.227  23.176  1.00  0.00     0.000 C 
BRANCH  19  20
ATOM     20  C   UNL     1       2.952  24.084  22.676  1.00  0.00     0.006 C 
BRANCH  20  21
ATOM     21  C   UNL     1       2.223  23.232  21.634  1.00  0.00     0.053 C 
BRANCH  21  22
ATOM     22  C   UNL     1       1.375  22.191  22.295  1.00  0.00     0.041 C 
ATOM     23  O   UNL     1       1.186  21.076  21.738  1.00  0.00    -0.550 OA
ATOM     24  O   UNL     1       0.773  22.459  23.521  1.00  0.00    -0.550 OA
ENDBRANCH  21  22
ENDBRANCH  20  21
ENDBRANCH  19  20
ENDBRANCH  18  19
ENDBRANCH  17  18
ENDBRANCH  16  17
ENDBRANCH  15  16
ENDBRANCH  14  15
ENDBRANCH  13  14
ENDBRANCH   1  13
TORSDOF 20
ENDMDL
MODEL 5
REMARK VINA RESULT:    -2.302      2.184      6.219
REMARK INTER + INTRA:          -7.211
REMARK INTER:                  -5.560
REMARK INTRA:                  -1.651
REMARK UNBOUND:                -2.217
REMARK SMILES CCCCCCCCCCCCCCCCCCCCCC(=O)[O-]
REMARK SMILES IDX 12 1 11 2 10 3 9 4 8 5 7 6 6 7 5 8 4 9 3 10 2 11 1 12 13 13
REMARK SMILES IDX 14 14 15 15 16 16 17 17 18 18 19 19 20 20 21 21 22 22 23 23
REMARK SMILES IDX 24 24
REMARK H PARENT
REMARK Flexibility Score: inf
ROOT
ATOM      1  C   UNL     1       1.787  23.113  26.088  1.00  0.00     0.000 C 
ENDROOT
BRANCH   1   2
ATOM      2  C   UNL     1       0.258  22.950  26.096  1.00  0.00     0.000 C 
BRANCH   2   3
ATOM      3  C   UNL     1      -0.446  24.010  26.963  1.00  0.00     0.000 C 
BRANCH   3   4
ATOM      4  C   UNL     1      -0.959  25.208  26.134  1.00  0.00    -0.000 C 
BRANCH   4   5
ATOM      5  C   UNL     1       0.138  26.226  25.768  1.00  0.00    -0.000 C 
BRANCH   5   6
ATOM      6  C   UNL     1       0.603  26.186  24.300  1.00  0.00    -0.000 C 
BRANCH   6   7
ATOM      7  C   UNL     1       0.357  27.484  23.506  1.00  0.00    -0.000 C 
BRANCH   7   8
ATOM      8  C   UNL     1       1.112  27.581  22.167  1.00  0.00    -0.000 C 
BRANCH   8   9
ATOM      9  C   UNL     1       0.188  27.734  20.939  1.00  0.00    -0.000 C 
BRANCH   9  10
ATOM     10  C   UNL     1      -0.670  29.007  21.003  1.00  0.00    -0.000 C 
BRANCH  10  11
ATOM     11  C   UNL     1      -0.072  30.116  20.130  1.00  0.00    -0.003 C 
ATOM     12  C   UNL     1      -1.131  31.142  19.739  1.00  0.00     0.004 C 
ENDBRANCH  10  11
ENDBRANCH   9  10
ENDBRANCH   8   9
ENDBRANCH   7   8
ENDBRANCH   6   7
ENDBRANCH   5   6
ENDBRANCH   4   5
ENDBRANCH   3   4
ENDBRANCH   2   3
ENDBRANCH   1   2
BRANCH   1  13
ATOM     13  C   UNL     1       2.519  21.833  26.533  1.00  0.00     0.000 C 
BRANCH  13  14
ATOM     14  C   UNL     1       3.930  22.117  27.071  1.00  0.00     0.000 C 
BRANCH  14  15
ATOM     15  C   UNL     1       4.254  23.618  27.110  1.00  0.00     0.000 C 
BRANCH  15  16
ATOM     16  C   UNL     1       5.742  23.916  26.856  1.00  0.00     0.000 C 
BRANCH  16  17
ATOM     17  C   UNL     1       6.373  23.131  25.692  1.00  0.00     0.000 C 
BRANCH  17  18
ATOM     18  C   UNL     1       7.025  24.043  24.636  1.00  0.00     0.000 C 
BRANCH  18  19
ATOM     19  C   UNL     1       6.053  24.412  23.505  1.00  0.00     0.000 C 
BRANCH  19  20
ATOM     20  C   UNL     1       4.613  23.973  23.809  1.00  0.00     0.006 C 
BRANCH  20  21
ATOM     21  C   UNL     1       3.608  24.778  22.980  1.00  0.00     0.053 C 
BRANCH  21  22
ATOM     22  C   UNL     1       2.546  23.886  22.415  1.00  0.00     0.041 C 
ATOM     23  O   UNL     1       2.318  22.760  22.936  1.00  0.00    -0.550 OA
ATOM     24  O   UNL     1       1.821  24.287  21.298  1.00  0.00    -0.550 OA
ENDBRANCH  21  22
ENDBRANCH  20  21
ENDBRANCH  19  20
ENDBRANCH  18  19
ENDBRANCH  17  18
ENDBRANCH  16  17
ENDBRANCH  15  16
ENDBRANCH  14  15
ENDBRANCH  13  14
ENDBRANCH   1  13
TORSDOF 20
ENDMDL
MODEL 6
REMARK VINA RESULT:    -2.217      3.043      7.383
REMARK INTER + INTRA:          -7.026
REMARK INTER:                  -5.691
REMARK INTRA:                  -1.335
REMARK UNBOUND:                -2.217
REMARK SMILES CCCCCCCCCCCCCCCCCCCCCC(=O)[O-]
REMARK SMILES IDX 12 1 11 2 10 3 9 4 8 5 7 6 6 7 5 8 4 9 3 10 2 11 1 12 13 13
REMARK SMILES IDX 14 14 15 15 16 16 17 17 18 18 19 19 20 20 21 21 22 22 23 23
REMARK SMILES IDX 24 24
REMARK H PARENT
REMARK Flexibility Score: inf
ROOT
ATOM      1  C   UNL     1       1.634  23.011  21.846  1.00  0.00     0.000 C 
ENDROOT
BRANCH   1   2
ATOM      2  C   UNL     1       3.047  23.613  21.928  1.00  0.00     0.000 C 
BRANCH   2   3
ATOM      3  C   UNL     1       3.052  25.029  22.531  1.00  0.00     0.000 C 
BRANCH   3   4
ATOM      4  C   UNL     1       1.917  25.916  21.975  1.00  0.00    -0.000 C 
BRANCH   4   5
ATOM      5  C   UNL     1       1.252  26.813  23.036  1.00  0.00    -0.000 C 
BRANCH   5   6
ATOM      6  C   UNL     1       0.587  28.091  22.488  1.00  0.00    -0.000 C 
BRANCH   6   7
ATOM      7  C   UNL     1       0.180  28.023  21.004  1.00  0.00    -0.000 C 
BRANCH   7   8
ATOM      8  C   UNL     1      -0.783  29.133  20.542  1.00  0.00    -0.000 C 
BRANCH   8   9
ATOM      9  C   UNL     1      -0.074  30.366  19.943  1.00  0.00    -0.000 C 
BRANCH   9  10
ATOM     10  C   UNL     1      -0.976  31.610  19.913  1.00  0.00    -0.000 C 
BRANCH  10  11
ATOM     11  C   UNL     1      -2.329  31.290  19.267  1.00  0.00    -0.003 C 
ATOM     12  C   UNL     1      -2.643  32.266  18.136  1.00  0.00     0.004 C 
ENDBRANCH  10  11
ENDBRANCH   9  10
ENDBRANCH   8   9
ENDBRANCH   7   8
ENDBRANCH   6   7
ENDBRANCH   5   6
ENDBRANCH   4   5
ENDBRANCH   3   4
ENDBRANCH   2   3
ENDBRANCH   1   2
BRANCH   1  13
ATOM     13  C   UNL     1       1.474  21.759  22.730  1.00  0.00     0.000 C 
BRANCH  13  14
ATOM     14  C   UNL     1       1.571  22.080  24.229  1.00  0.00     0.000 C 
BRANCH  14  15
ATOM     15  C   UNL     1       0.947  23.439  24.582  1.00  0.00     0.000 C 
BRANCH  15  16
ATOM     16  C   UNL     1       1.094  23.796  26.072  1.00  0.00     0.000 C 
BRANCH  16  17
ATOM     17  C   UNL     1       1.424  22.610  26.996  1.00  0.00     0.000 C 
BRANCH  17  18
ATOM     18  C   UNL     1       2.922  22.253  27.004  1.00  0.00     0.000 C 
BRANCH  18  19
ATOM     19  C   UNL     1       3.817  23.499  27.086  1.00  0.00     0.000 C 
BRANCH  19  20
ATOM     20  C   UNL     1       4.984  23.444  26.088  1.00  0.00     0.006 C 
BRANCH  20  21
ATOM     21  C   UNL     1       5.467  24.852  25.730  1.00  0.00     0.053 C 
BRANCH  21  22
ATOM     22  C   UNL     1       6.434  24.810  24.589  1.00  0.00     0.041 C 
ATOM     23  O   UNL     1       7.078  25.844  24.262  1.00  0.00    -0.550 OA
ATOM     24  O   UNL     1       6.612  23.633  23.870  1.00  0.00    -0.550 OA
ENDBRANCH  21  22
ENDBRANCH  20  21
ENDBRANCH  19  20
ENDBRANCH  18  19
ENDBRANCH  17  18
ENDBRANCH  16  17
ENDBRANCH  15  16
ENDBRANCH  14  15
ENDBRANCH  13  14
ENDBRANCH   1  13
TORSDOF 20
ENDMDL
MODEL 7
REMARK VINA RESULT:    -2.137      5.478      9.289
REMARK INTER + INTRA:          -6.853
REMARK INTER:                  -6.335
REMARK INTRA:                  -0.518
REMARK UNBOUND:                -2.217
REMARK SMILES CCCCCCCCCCCCCCCCCCCCCC(=O)[O-]
REMARK SMILES IDX 12 1 11 2 10 3 9 4 8 5 7 6 6 7 5 8 4 9 3 10 2 11 1 12 13 13
REMARK SMILES IDX 14 14 15 15 16 16 17 17 18 18 19 19 20 20 21 21 22 22 23 23
REMARK SMILES IDX 24 24
REMARK H PARENT
REMARK Flexibility Score: inf
ROOT
ATOM      1  C   UNL     1       3.803  23.552  25.210  1.00  0.00     0.000 C 
ENDROOT
BRANCH   1   2
ATOM      2  C   UNL     1       2.379  24.083  24.975  1.00  0.00     0.000 C 
BRANCH   2   3
ATOM      3  C   UNL     1       1.424  23.000  24.440  1.00  0.00     0.000 C 
BRANCH   3   4
ATOM      4  C   UNL     1       1.138  23.155  22.930  1.00  0.00    -0.000 C 
BRANCH   4   5
ATOM      5  C   UNL     1       2.374  23.555  22.101  1.00  0.00    -0.000 C 
BRANCH   5   6
ATOM      6  C   UNL     1       2.745  25.049  22.161  1.00  0.00    -0.000 C 
BRANCH   6   7
ATOM      7  C   UNL     1       1.558  26.019  22.004  1.00  0.00    -0.000 C 
BRANCH   7   8
ATOM      8  C   UNL     1       1.946  27.495  21.801  1.00  0.00    -0.000 C 
BRANCH   8   9
ATOM      9  C   UNL     1       0.754  28.472  21.890  1.00  0.00    -0.000 C 
BRANCH   9  10
ATOM     10  C   UNL     1      -0.387  28.099  20.931  1.00  0.00    -0.000 C 
BRANCH  10  11
ATOM     11  C   UNL     1      -1.183  29.342  20.516  1.00  0.00    -0.003 C 
ATOM     12  C   UNL     1      -0.266  30.420  19.947  1.00  0.00     0.004 C 
ENDBRANCH  10  11
ENDBRANCH   9  10
ENDBRANCH   8   9
ENDBRANCH   7   8
ENDBRANCH   6   7
ENDBRANCH   5   6
ENDBRANCH   4   5
ENDBRANCH   3   4
ENDBRANCH   2   3
ENDBRANCH   1   2
BRANCH   1  13
ATOM     13  C   UNL     1       4.251  23.696  26.676  1.00  0.00     0.000 C 
BRANCH  13  14
ATOM     14  C   UNL     1       5.218  22.583  27.109  1.00  0.00     0.000 C 
BRANCH  14  15
ATOM     15  C   UNL     1       6.440  22.472  26.184  1.00  0.00     0.000 C 
BRANCH  15  16
ATOM     16  C   UNL     1       7.125  21.096  26.260  1.00  0.00     0.000 C 
BRANCH  16  17
ATOM     17  C   UNL     1       6.299  19.996  26.952  1.00  0.00     0.000 C 
BRANCH  17  18
ATOM     18  C   UNL     1       6.729  18.575  26.543  1.00  0.00     0.000 C 
BRANCH  18  19
ATOM     19  C   UNL     1       5.733  17.506  27.019  1.00  0.00     0.000 C 
BRANCH  19  20
ATOM     20  C   UNL     1       4.508  17.401  26.096  1.00  0.00     0.006 C 
BRANCH  20  21
ATOM     21  C   UNL     1       3.452  16.466  26.692  1.00  0.00     0.053 C 
BRANCH  21  22
ATOM     22  C   UNL     1       2.957  15.497  25.664  1.00  0.00     0.041 C 
ATOM     23  O   UNL     1       1.720  15.344  25.477  1.00  0.00    -0.550 OA
ATOM     24  O   UNL     1       3.863  14.745  24.923  1.00  0.00    -0.550 OA
ENDBRANCH  21  22
ENDBRANCH  20  21
ENDBRANCH  19  20
ENDBRANCH  18  19
ENDBRANCH  17  18
ENDBRANCH  16  17
ENDBRANCH  15  16
ENDBRANCH  14  15
ENDBRANCH  13  14
ENDBRANCH   1  13
TORSDOF 20
ENDMDL
MODEL 8
REMARK VINA RESULT:    -2.105      5.159      7.228
REMARK INTER + INTRA:          -6.784
REMARK INTER:                  -5.449
REMARK INTRA:                  -1.335
REMARK UNBOUND:                -2.217
REMARK SMILES CCCCCCCCCCCCCCCCCCCCCC(=O)[O-]
REMARK SMILES IDX 12 1 11 2 10 3 9 4 8 5 7 6 6 7 5 8 4 9 3 10 2 11 1 12 13 13
REMARK SMILES IDX 14 14 15 15 16 16 17 17 18 18 19 19 20 20 21 21 22 22 23 23
REMARK SMILES IDX 24 24
REMARK H PARENT
REMARK Flexibility Score: inf
ROOT
ATOM      1  C   UNL     1       5.854  22.561  26.339  1.00  0.00     0.000 C 
ENDROOT
BRANCH   1   2
ATOM      2  C   UNL     1       5.932  21.241  27.125  1.00  0.00     0.000 C 
BRANCH   2   3
ATOM      3  C   UNL     1       7.048  20.312  26.612  1.00  0.00     0.000 C 
BRANCH   3   4
ATOM      4  C   UNL     1       6.638  18.824  26.635  1.00  0.00    -0.000 C 
BRANCH   4   5
ATOM      5  C   UNL     1       6.962  18.069  25.331  1.00  0.00    -0.000 C 
BRANCH   5   6
ATOM      6  C   UNL     1       5.749  17.425  24.630  1.00  0.00    -0.000 C 
BRANCH   6   7
ATOM      7  C   UNL     1       6.047  16.096  23.912  1.00  0.00    -0.000 C 
BRANCH   7   8
ATOM      8  C   UNL     1       6.367  14.910  24.841  1.00  0.00    -0.000 C 
BRANCH   8   9
ATOM      9  C   UNL     1       5.493  14.860  26.113  1.00  0.00    -0.000 C 
BRANCH   9  10
ATOM     10  C   UNL     1       4.113  14.236  25.855  1.00  0.00    -0.000 C 
BRANCH  10  11
ATOM     11  C   UNL     1       3.001  15.281  26.009  1.00  0.00    -0.003 C 
ATOM     12  C   UNL     1       1.640  14.694  25.648  1.00  0.00     0.004 C 
ENDBRANCH  10  11
ENDBRANCH   9  10
ENDBRANCH   8   9
ENDBRANCH   7   8
ENDBRANCH   6   7
ENDBRANCH   5   6
ENDBRANCH   4   5
ENDBRANCH   3   4
ENDBRANCH   2   3
ENDBRANCH   1   2
BRANCH   1  13
ATOM     13  C   UNL     1       7.124  22.830  25.511  1.00  0.00     0.000 C 
BRANCH  13  14
ATOM     14  C   UNL     1       6.821  23.525  24.175  1.00  0.00     0.000 C 
BRANCH  14  15
ATOM     15  C   UNL     1       6.183  24.910  24.363  1.00  0.00     0.000 C 
BRANCH  15  16
ATOM     16  C   UNL     1       4.646  24.858  24.424  1.00  0.00     0.000 C 
BRANCH  16  17
ATOM     17  C   UNL     1       3.948  24.654  23.067  1.00  0.00     0.000 C 
BRANCH  17  18
ATOM     18  C   UNL     1       2.967  23.467  23.068  1.00  0.00     0.000 C 
BRANCH  18  19
ATOM     19  C   UNL     1       1.538  23.892  23.438  1.00  0.00     0.000 C 
BRANCH  19  20
ATOM     20  C   UNL     1       0.803  22.816  24.252  1.00  0.00     0.006 C 
BRANCH  20  21
ATOM     21  C   UNL     1       1.232  22.852  25.721  1.00  0.00     0.053 C 
BRANCH  21  22
ATOM     22  C   UNL     1       0.371  23.793  26.505  1.00  0.00     0.041 C 
ATOM     23  O   UNL     1       0.756  24.974  26.725  1.00  0.00    -0.550 OA
ATOM     24  O   UNL     1      -0.850  23.361  27.012  1.00  0.00    -0.550 OA
ENDBRANCH  21  22
ENDBRANCH  20  21
ENDBRANCH  19  20
ENDBRANCH  18  19
ENDBRANCH  17  18
ENDBRANCH  16  17
ENDBRANCH  15  16
ENDBRANCH  14  15
ENDBRANCH  13  14
ENDBRANCH   1  13
TORSDOF 20
ENDMDL
MODEL 9
REMARK VINA RESULT:    -2.070      5.030      8.547
REMARK INTER + INTRA:          -6.706
REMARK INTER:                  -5.082
REMARK INTRA:                  -1.625
REMARK UNBOUND:                -2.217
REMARK SMILES CCCCCCCCCCCCCCCCCCCCCC(=O)[O-]
REMARK SMILES IDX 12 1 11 2 10 3 9 4 8 5 7 6 6 7 5 8 4 9 3 10 2 11 1 12 13 13
REMARK SMILES IDX 14 14 15 15 16 16 17 17 18 18 19 19 20 20 21 21 22 22 23 23
REMARK SMILES IDX 24 24
REMARK H PARENT
REMARK Flexibility Score: inf
ROOT
ATOM      1  C   UNL     1       2.749  22.378  24.906  1.00  0.00     0.000 C 
ENDROOT
BRANCH   1   2
ATOM      2  C   UNL     1       1.347  22.429  24.275  1.00  0.00     0.000 C 
BRANCH   2   3
ATOM      3  C   UNL     1       1.328  21.897  22.830  1.00  0.00     0.000 C 
BRANCH   3   4
ATOM      4  C   UNL     1       1.863  22.927  21.812  1.00  0.00    -0.000 C 
BRANCH   4   5
ATOM      5  C   UNL     1       2.718  24.042  22.446  1.00  0.00    -0.000 C 
BRANCH   5   6
ATOM      6  C   UNL     1       2.352  25.474  22.010  1.00  0.00    -0.000 C 
BRANCH   6   7
ATOM      7  C   UNL     1       1.534  26.276  23.041  1.00  0.00    -0.000 C 
BRANCH   7   8
ATOM      8  C   UNL     1       0.915  25.438  24.175  1.00  0.00    -0.000 C 
BRANCH   8   9
ATOM      9  C   UNL     1       0.292  26.282  25.307  1.00  0.00    -0.000 C 
BRANCH   9  10
ATOM     10  C   UNL     1       0.108  25.483  26.606  1.00  0.00    -0.000 C 
BRANCH  10  11
ATOM     11  C   UNL     1      -1.080  24.520  26.494  1.00  0.00    -0.003 C 
ATOM     12  C   UNL     1      -0.755  23.168  27.121  1.00  0.00     0.004 C 
ENDBRANCH  10  11
ENDBRANCH   9  10
ENDBRANCH   8   9
ENDBRANCH   7   8
ENDBRANCH   6   7
ENDBRANCH   5   6
ENDBRANCH   4   5
ENDBRANCH   3   4
ENDBRANCH   2   3
ENDBRANCH   1   2
BRANCH   1  13
ATOM     13  C   UNL     1       2.877  23.300  26.132  1.00  0.00     0.000 C 
BRANCH  13  14
ATOM     14  C   UNL     1       4.193  24.094  26.139  1.00  0.00     0.000 C 
BRANCH  14  15
ATOM     15  C   UNL     1       5.321  23.370  25.387  1.00  0.00     0.000 C 
BRANCH  15  16
ATOM     16  C   UNL     1       6.570  23.142  26.257  1.00  0.00     0.000 C 
BRANCH  16  17
ATOM     17  C   UNL     1       6.789  21.688  26.712  1.00  0.00     0.000 C 
BRANCH  17  18
ATOM     18  C   UNL     1       5.480  20.882  26.799  1.00  0.00     0.000 C 
BRANCH  18  19
ATOM     19  C   UNL     1       5.729  19.400  27.121  1.00  0.00     0.000 C 
BRANCH  19  20
ATOM     20  C   UNL     1       5.734  18.524  25.858  1.00  0.00     0.006 C 
BRANCH  20  21
ATOM     21  C   UNL     1       5.154  17.137  26.151  1.00  0.00     0.053 C 
BRANCH  21  22
ATOM     22  C   UNL     1       4.905  16.385  24.881  1.00  0.00     0.041 C 
ATOM     23  O   UNL     1       3.782  15.853  24.667  1.00  0.00    -0.550 OA
ATOM     24  O   UNL     1       5.920  16.252  23.940  1.00  0.00    -0.550 OA
ENDBRANCH  21  22
ENDBRANCH  20  21
ENDBRANCH  19  20
ENDBRANCH  18  19
ENDBRANCH  17  18
ENDBRANCH  16  17
ENDBRANCH  15  16
ENDBRANCH  14  15
ENDBRANCH  13  14
ENDBRANCH   1  13
TORSDOF 20
ENDMDL
