MODEL 1
REMARK VINA RESULT:    -4.330      0.000      0.000
REMARK INTER + INTRA:         -14.968
REMARK INTER:                 -10.911
REMARK INTRA:                  -4.057
REMARK UNBOUND:                -4.057
REMARK SMILES CCCCCCCCCCCCCCCCCCCCCCCCCCCC(=O)[O-]
REMARK SMILES IDX 15 1 16 2 17 3 18 4 19 5 20 6 21 7 22 8 23 9 24 10 25 11
REMARK SMILES IDX 26 12 27 13 28 14 29 15 30 16 14 17 13 18 12 19 11 20 10 21
REMARK SMILES IDX 9 22 8 23 7 24 6 25 5 26 4 27 3 28 2 29 1 30
REMARK H PARENT
REMARK Flexibility Score: inf
ROOT
ATOM      1  C   UNL     1      29.143   8.951 -13.125  1.00  0.00     0.000 C 
ENDROOT
BRANCH   1   2
ATOM      2  C   UNL     1      29.884  10.045 -13.916  1.00  0.00     0.000 C 
BRANCH   2   3
ATOM      3  C   UNL     1      29.408  10.145 -15.376  1.00  0.00     0.000 C 
BRANCH   3   4
ATOM      4  C   UNL     1      30.533   9.873 -16.387  1.00  0.00     0.000 C 
BRANCH   4   5
ATOM      5  C   UNL     1      30.076   8.977 -17.553  1.00  0.00     0.000 C 
BRANCH   5   6
ATOM      6  C   UNL     1      29.595   7.595 -17.083  1.00  0.00     0.000 C 
BRANCH   6   7
ATOM      7  C   UNL     1      30.705   6.782 -16.401  1.00  0.00     0.000 C 
BRANCH   7   8
ATOM      8  C   UNL     1      30.139   5.947 -15.243  1.00  0.00     0.000 C 
BRANCH   8   9
ATOM      9  C   UNL     1      28.602   5.983 -15.174  1.00  0.00     0.000 C 
BRANCH   9  10
ATOM     10  C   UNL     1      27.993   5.369 -13.897  1.00  0.00     0.000 C 
BRANCH  10  11
ATOM     11  C   UNL     1      26.614   5.925 -13.490  1.00  0.00     0.000 C 
BRANCH  11  12
ATOM     12  C   UNL     1      25.403   5.128 -14.012  1.00  0.00     0.006 C 
BRANCH  12  13
ATOM     13  C   UNL     1      24.880   5.607 -15.378  1.00  0.00     0.053 C 
BRANCH  13  14
ATOM     14  C   UNL     1      23.436   6.002 -15.334  1.00  0.00     0.041 C 
ATOM     15  O   UNL     1      22.539   5.153 -15.576  1.00  0.00    -0.550 OA
ATOM     16  O   UNL     1      23.080   7.316 -15.061  1.00  0.00    -0.550 OA
ENDBRANCH  13  14
ENDBRANCH  12  13
ENDBRANCH  11  12
ENDBRANCH  10  11
ENDBRANCH   9  10
ENDBRANCH   8   9
ENDBRANCH   7   8
ENDBRANCH   6   7
ENDBRANCH   5   6
ENDBRANCH   4   5
ENDBRANCH   3   4
ENDBRANCH   2   3
ENDBRANCH   1   2
BRANCH   1  17
ATOM     17  C   UNL     1      30.009   8.170 -12.116  1.00  0.00     0.000 C 
BRANCH  17  18
ATOM     18  C   UNL     1      30.782   9.043 -11.111  1.00  0.00     0.000 C 
BRANCH  18  19
ATOM     19  C   UNL     1      29.861   9.720 -10.085  1.00  0.00     0.000 C 
BRANCH  19  20
ATOM     20  C   UNL     1      30.128  11.229 -10.006  1.00  0.00     0.000 C 
BRANCH  20  21
ATOM     21  C   UNL     1      29.308  12.039 -11.026  1.00  0.00     0.000 C 
BRANCH  21  22
ATOM     22  C   UNL     1      27.791  11.762 -10.970  1.00  0.00    -0.000 C 
BRANCH  22  23
ATOM     23  C   UNL     1      26.957  13.052 -11.033  1.00  0.00    -0.000 C 
BRANCH  23  24
ATOM     24  C   UNL     1      26.987  13.658 -12.441  1.00  0.00    -0.000 C 
BRANCH  24  25
ATOM     25  C   UNL     1      27.822  14.948 -12.467  1.00  0.00    -0.000 C 
BRANCH  25  26
ATOM     26  C   UNL     1      28.757  15.027 -13.693  1.00  0.00    -0.000 C 
BRANCH  26  27
ATOM     27  C   UNL     1      28.956  13.682 -14.419  1.00  0.00    -0.000 C 
BRANCH  27  28
ATOM     28  C   UNL     1      29.674  13.768 -15.779  1.00  0.00    -0.000 C 
BRANCH  28  29
ATOM     29  C   UNL     1      28.827  13.333 -16.988  1.00  0.00    -0.003 C 
ATOM     30  C   UNL     1      29.604  13.370 -18.303  1.00  0.00     0.004 C 
ENDBRANCH  28  29
ENDBRANCH  27  28
ENDBRANCH  26  27
ENDBRANCH  25  26
ENDBRANCH  24  25
ENDBRANCH  23  24
ENDBRANCH  22  23
ENDBRANCH  21  22
ENDBRANCH  20  21
ENDBRANCH  19  20
ENDBRANCH  18  19
ENDBRANCH  17  18
ENDBRANCH   1  17
TORSDOF 26
ENDMDL
MODEL 2
REMARK VINA RESULT:    -4.226      2.815      7.021
REMARK INTER + INTRA:         -14.706
REMARK INTER:                 -10.881
REMARK INTRA:                  -3.825
REMARK UNBOUND:                -4.057
REMARK SMILES CCCCCCCCCCCCCCCCCCCCCCCCCCCC(=O)[O-]
REMARK SMILES IDX 15 1 16 2 17 3 18 4 19 5 20 6 21 7 22 8 23 9 24 10 25 11
REMARK SMILES IDX 26 12 27 13 28 14 29 15 30 16 14 17 13 18 12 19 11 20 10 21
REMARK SMILES IDX 9 22 8 23 7 24 6 25 5 26 4 27 3 28 2 29 1 30
REMARK H PARENT
REMARK Flexibility Score: inf
ROOT
ATOM      1  C   UNL     1      29.197  11.463 -14.374  1.00  0.00     0.000 C 
ENDROOT
BRANCH   1   2
ATOM      2  C   UNL     1      29.316  10.770 -15.744  1.00  0.00     0.000 C 
BRANCH   2   3
ATOM      3  C   UNL     1      30.752  10.793 -16.297  1.00  0.00     0.000 C 
BRANCH   3   4
ATOM      4  C   UNL     1      30.812  11.193 -17.779  1.00  0.00     0.000 C 
BRANCH   4   5
ATOM      5  C   UNL     1      30.957  12.714 -17.976  1.00  0.00     0.000 C 
BRANCH   5   6
ATOM      6  C   UNL     1      29.605  13.416 -18.177  1.00  0.00     0.000 C 
BRANCH   6   7
ATOM      7  C   UNL     1      29.427  14.634 -17.259  1.00  0.00     0.000 C 
BRANCH   7   8
ATOM      8  C   UNL     1      30.702  14.896 -16.444  1.00  0.00     0.000 C 
BRANCH   8   9
ATOM      9  C   UNL     1      30.412  15.498 -15.058  1.00  0.00     0.000 C 
BRANCH   9  10
ATOM     10  C   UNL     1      29.251  14.835 -14.288  1.00  0.00     0.000 C 
BRANCH  10  11
ATOM     11  C   UNL     1      28.381  15.794 -13.452  1.00  0.00     0.000 C 
BRANCH  11  12
ATOM     12  C   UNL     1      27.798  15.193 -12.158  1.00  0.00     0.006 C 
BRANCH  12  13
ATOM     13  C   UNL     1      26.847  14.006 -12.392  1.00  0.00     0.053 C 
BRANCH  13  14
ATOM     14  C   UNL     1      26.436  13.338 -11.115  1.00  0.00     0.041 C 
ATOM     15  O   UNL     1      26.887  12.200 -10.821  1.00  0.00    -0.550 OA
ATOM     16  O   UNL     1      25.529  13.957 -10.265  1.00  0.00    -0.550 OA
ENDBRANCH  13  14
ENDBRANCH  12  13
ENDBRANCH  11  12
ENDBRANCH  10  11
ENDBRANCH   9  10
ENDBRANCH   8   9
ENDBRANCH   7   8
ENDBRANCH   6   7
ENDBRANCH   5   6
ENDBRANCH   4   5
ENDBRANCH   3   4
ENDBRANCH   2   3
ENDBRANCH   1   2
BRANCH   1  17
ATOM     17  C   UNL     1      30.499  11.517 -13.550  1.00  0.00     0.000 C 
BRANCH  17  18
ATOM     18  C   UNL     1      30.357  12.141 -12.151  1.00  0.00     0.000 C 
BRANCH  18  19
ATOM     19  C   UNL     1      30.570  11.120 -11.024  1.00  0.00     0.000 C 
BRANCH  19  20
ATOM     20  C   UNL     1      29.603   9.935 -11.156  1.00  0.00     0.000 C 
BRANCH  20  21
ATOM     21  C   UNL     1      30.324   8.579 -11.243  1.00  0.00     0.000 C 
BRANCH  21  22
ATOM     22  C   UNL     1      30.449   8.028 -12.679  1.00  0.00    -0.000 C 
BRANCH  22  23
ATOM     23  C   UNL     1      29.100   7.995 -13.415  1.00  0.00    -0.000 C 
BRANCH  23  24
ATOM     24  C   UNL     1      28.631   6.552 -13.639  1.00  0.00    -0.000 C 
BRANCH  24  25
ATOM     25  C   UNL     1      29.262   5.958 -14.907  1.00  0.00    -0.000 C 
BRANCH  25  26
ATOM     26  C   UNL     1      28.230   5.717 -16.029  1.00  0.00    -0.000 C 
BRANCH  26  27
ATOM     27  C   UNL     1      28.142   6.863 -17.058  1.00  0.00    -0.000 C 
BRANCH  27  28
ATOM     28  C   UNL     1      28.643   6.517 -18.473  1.00  0.00    -0.000 C 
BRANCH  28  29
ATOM     29  C   UNL     1      30.174   6.455 -18.621  1.00  0.00    -0.003 C 
ATOM     30  C   UNL     1      30.779   7.777 -19.088  1.00  0.00     0.004 C 
ENDBRANCH  28  29
ENDBRANCH  27  28
ENDBRANCH  26  27
ENDBRANCH  25  26
ENDBRANCH  24  25
ENDBRANCH  23  24
ENDBRANCH  22  23
ENDBRANCH  21  22
ENDBRANCH  20  21
ENDBRANCH  19  20
ENDBRANCH  18  19
ENDBRANCH  17  18
ENDBRANCH   1  17
TORSDOF 26
ENDMDL
MODEL 3
REMARK VINA RESULT:    -4.181      2.255      5.024
REMARK INTER + INTRA:         -14.593
REMARK INTER:                  -9.768
REMARK INTRA:                  -4.825
REMARK UNBOUND:                -4.057
REMARK SMILES CCCCCCCCCCCCCCCCCCCCCCCCCCCC(=O)[O-]
REMARK SMILES IDX 15 1 16 2 17 3 18 4 19 5 20 6 21 7 22 8 23 9 24 10 25 11
REMARK SMILES IDX 26 12 27 13 28 14 29 15 30 16 14 17 13 18 12 19 11 20 10 21
REMARK SMILES IDX 9 22 8 23 7 24 6 25 5 26 4 27 3 28 2 29 1 30
REMARK H PARENT
REMARK Flexibility Score: inf
ROOT
ATOM      1  C   UNL     1      29.943  11.693 -11.888  1.00  0.00     0.000 C 
ENDROOT
BRANCH   1   2
ATOM      2  C   UNL     1      30.221  11.011 -10.536  1.00  0.00     0.000 C 
BRANCH   2   3
ATOM      3  C   UNL     1      29.852   9.517 -10.539  1.00  0.00     0.000 C 
BRANCH   3   4
ATOM      4  C   UNL     1      30.987   8.626 -11.069  1.00  0.00     0.000 C 
BRANCH   4   5
ATOM      5  C   UNL     1      30.645   7.977 -12.423  1.00  0.00     0.000 C 
BRANCH   5   6
ATOM      6  C   UNL     1      29.175   8.182 -12.823  1.00  0.00     0.000 C 
BRANCH   6   7
ATOM      7  C   UNL     1      28.682   7.127 -13.824  1.00  0.00     0.000 C 
BRANCH   7   8
ATOM      8  C   UNL     1      29.699   6.930 -14.958  1.00  0.00     0.000 C 
BRANCH   8   9
ATOM      9  C   UNL     1      29.480   7.899 -16.133  1.00  0.00     0.000 C 
BRANCH   9  10
ATOM     10  C   UNL     1      30.646   7.977 -17.140  1.00  0.00     0.000 C 
BRANCH  10  11
ATOM     11  C   UNL     1      30.257   7.778 -18.617  1.00  0.00     0.000 C 
BRANCH  11  12
ATOM     12  C   UNL     1      29.988   6.319 -19.037  1.00  0.00     0.006 C 
BRANCH  12  13
ATOM     13  C   UNL     1      28.494   5.972 -19.169  1.00  0.00     0.053 C 
BRANCH  13  14
ATOM     14  C   UNL     1      28.046   4.969 -18.151  1.00  0.00     0.041 C 
ATOM     15  O   UNL     1      28.852   4.110 -17.709  1.00  0.00    -0.550 OA
ATOM     16  O   UNL     1      26.727   4.959 -17.716  1.00  0.00    -0.550 OA
ENDBRANCH  13  14
ENDBRANCH  12  13
ENDBRANCH  11  12
ENDBRANCH  10  11
ENDBRANCH   9  10
ENDBRANCH   8   9
ENDBRANCH   7   8
ENDBRANCH   6   7
ENDBRANCH   5   6
ENDBRANCH   4   5
ENDBRANCH   3   4
ENDBRANCH   2   3
ENDBRANCH   1   2
BRANCH   1  17
ATOM     17  C   UNL     1      31.099  11.625 -12.907  1.00  0.00     0.000 C 
BRANCH  17  18
ATOM     18  C   UNL     1      30.667  11.370 -14.362  1.00  0.00     0.000 C 
BRANCH  18  19
ATOM     19  C   UNL     1      29.144  11.436 -14.547  1.00  0.00     0.000 C 
BRANCH  19  20
ATOM     20  C   UNL     1      28.770  11.615 -16.025  1.00  0.00     0.000 C 
BRANCH  20  21
ATOM     21  C   UNL     1      29.984  11.528 -16.967  1.00  0.00     0.000 C 
BRANCH  21  22
ATOM     22  C   UNL     1      30.142  12.746 -17.901  1.00  0.00    -0.000 C 
BRANCH  22  23
ATOM     23  C   UNL     1      29.083  13.828 -17.637  1.00  0.00    -0.000 C 
BRANCH  23  24
ATOM     24  C   UNL     1      29.723  15.093 -17.050  1.00  0.00    -0.000 C 
BRANCH  24  25
ATOM     25  C   UNL     1      30.891  14.735 -16.117  1.00  0.00    -0.000 C 
BRANCH  25  26
ATOM     26  C   UNL     1      30.549  14.948 -14.627  1.00  0.00    -0.000 C 
BRANCH  26  27
ATOM     27  C   UNL     1      29.052  15.204 -14.357  1.00  0.00    -0.000 C 
BRANCH  27  28
ATOM     28  C   UNL     1      28.576  14.871 -12.930  1.00  0.00    -0.000 C 
BRANCH  28  29
ATOM     29  C   UNL     1      27.160  14.273 -12.843  1.00  0.00    -0.003 C 
ATOM     30  C   UNL     1      26.984  13.334 -11.651  1.00  0.00     0.004 C 
ENDBRANCH  28  29
ENDBRANCH  27  28
ENDBRANCH  26  27
ENDBRANCH  25  26
ENDBRANCH  24  25
ENDBRANCH  23  24
ENDBRANCH  22  23
ENDBRANCH  21  22
ENDBRANCH  20  21
ENDBRANCH  19  20
ENDBRANCH  18  19
ENDBRANCH  17  18
ENDBRANCH   1  17
TORSDOF 26
ENDMDL
MODEL 4
REMARK VINA RESULT:    -4.149      1.774      4.453
REMARK INTER + INTRA:         -14.514
REMARK INTER:                  -9.993
REMARK INTRA:                  -4.521
REMARK UNBOUND:                -4.057
REMARK SMILES CCCCCCCCCCCCCCCCCCCCCCCCCCCC(=O)[O-]
REMARK SMILES IDX 15 1 16 2 17 3 18 4 19 5 20 6 21 7 22 8 23 9 24 10 25 11
REMARK SMILES IDX 26 12 27 13 28 14 29 15 30 16 14 17 13 18 12 19 11 20 10 21
REMARK SMILES IDX 9 22 8 23 7 24 6 25 5 26 4 27 3 28 2 29 1 30
REMARK H PARENT
REMARK Flexibility Score: inf
ROOT
ATOM      1  C   UNL     1      29.565  10.546 -12.107  1.00  0.00     0.000 C 
ENDROOT
BRANCH   1   2
ATOM      2  C   UNL     1      29.943   9.665 -10.902  1.00  0.00     0.000 C 
BRANCH   2   3
ATOM      3  C   UNL     1      30.724   8.404 -11.312  1.00  0.00     0.000 C 
BRANCH   3   4
ATOM      4  C   UNL     1      30.392   7.937 -12.738  1.00  0.00     0.000 C 
BRANCH   4   5
ATOM      5  C   UNL     1      29.873   6.487 -12.779  1.00  0.00     0.000 C 
BRANCH   5   6
ATOM      6  C   UNL     1      29.186   6.142 -14.109  1.00  0.00     0.000 C 
BRANCH   6   7
ATOM      7  C   UNL     1      29.306   7.267 -15.147  1.00  0.00     0.000 C 
BRANCH   7   8
ATOM      8  C   UNL     1      29.447   6.692 -16.564  1.00  0.00     0.000 C 
BRANCH   8   9
ATOM      9  C   UNL     1      28.598   7.446 -17.603  1.00  0.00     0.000 C 
BRANCH   9  10
ATOM     10  C   UNL     1      27.250   6.781 -17.948  1.00  0.00     0.000 C 
BRANCH  10  11
ATOM     11  C   UNL     1      27.280   5.244 -18.053  1.00  0.00     0.000 C 
BRANCH  11  12
ATOM     12  C   UNL     1      26.376   4.498 -17.050  1.00  0.00     0.006 C 
BRANCH  12  13
ATOM     13  C   UNL     1      25.879   5.374 -15.886  1.00  0.00     0.053 C 
BRANCH  13  14
ATOM     14  C   UNL     1      25.855   4.636 -14.582  1.00  0.00     0.041 C 
ATOM     15  O   UNL     1      25.770   5.267 -13.497  1.00  0.00    -0.550 OA
ATOM     16  O   UNL     1      25.961   3.251 -14.563  1.00  0.00    -0.550 OA
ENDBRANCH  13  14
ENDBRANCH  12  13
ENDBRANCH  11  12
ENDBRANCH  10  11
ENDBRANCH   9  10
ENDBRANCH   8   9
ENDBRANCH   7   8
ENDBRANCH   6   7
ENDBRANCH   5   6
ENDBRANCH   4   5
ENDBRANCH   3   4
ENDBRANCH   2   3
ENDBRANCH   1   2
BRANCH   1  17
ATOM     17  C   UNL     1      30.743  11.271 -12.786  1.00  0.00     0.000 C 
BRANCH  17  18
ATOM     18  C   UNL     1      30.730  11.232 -14.325  1.00  0.00     0.000 C 
BRANCH  18  19
ATOM     19  C   UNL     1      29.325  10.992 -14.898  1.00  0.00     0.000 C 
BRANCH  19  20
ATOM     20  C   UNL     1      29.354  10.924 -16.431  1.00  0.00     0.000 C 
BRANCH  20  21
ATOM     21  C   UNL     1      30.756  11.163 -17.017  1.00  0.00     0.000 C 
BRANCH  21  22
ATOM     22  C   UNL     1      30.863  12.431 -17.890  1.00  0.00    -0.000 C 
BRANCH  22  23
ATOM     23  C   UNL     1      29.521  13.168 -18.020  1.00  0.00    -0.000 C 
BRANCH  23  24
ATOM     24  C   UNL     1      29.600  14.570 -17.402  1.00  0.00    -0.000 C 
BRANCH  24  25
ATOM     25  C   UNL     1      30.889  14.737 -16.583  1.00  0.00    -0.000 C 
BRANCH  25  26
ATOM     26  C   UNL     1      30.625  14.796 -15.063  1.00  0.00    -0.000 C 
BRANCH  26  27
ATOM     27  C   UNL     1      29.136  14.687 -14.681  1.00  0.00    -0.000 C 
BRANCH  27  28
ATOM     28  C   UNL     1      28.859  14.362 -13.200  1.00  0.00    -0.000 C 
BRANCH  28  29
ATOM     29  C   UNL     1      27.520  13.653 -12.931  1.00  0.00    -0.003 C 
ATOM     30  C   UNL     1      27.289  13.362 -11.450  1.00  0.00     0.004 C 
ENDBRANCH  28  29
ENDBRANCH  27  28
ENDBRANCH  26  27
ENDBRANCH  25  26
ENDBRANCH  24  25
ENDBRANCH  23  24
ENDBRANCH  22  23
ENDBRANCH  21  22
ENDBRANCH  20  21
ENDBRANCH  19  20
ENDBRANCH  18  19
ENDBRANCH  17  18
ENDBRANCH   1  17
TORSDOF 26
ENDMDL
MODEL 5
REMARK VINA RESULT:    -4.118      8.475     14.782
REMARK INTER + INTRA:         -14.435
REMARK INTER:                 -10.903
REMARK INTRA:                  -3.532
REMARK UNBOUND:                -4.057
REMARK SMILES CCCCCCCCCCCCCCCCCCCCCCCCCCCC(=O)[O-]
REMARK SMILES IDX 15 1 16 2 17 3 18 4 19 5 20 6 21 7 22 8 23 9 24 10 25 11
REMARK SMILES IDX 26 12 27 13 28 14 29 15 30 16 14 17 13 18 12 19 11 20 10 21
REMARK SMILES IDX 9 22 8 23 7 24 6 25 5 26 4 27 3 28 2 29 1 30
REMARK H PARENT
REMARK Flexibility Score: inf
ROOT
ATOM      1  C   UNL     1      17.377   0.510 -15.301  1.00  0.00     0.000 C 
ENDROOT
BRANCH   1   2
ATOM      2  C   UNL     1      17.040  -0.623 -16.288  1.00  0.00     0.000 C 
BRANCH   2   3
ATOM      3  C   UNL     1      17.989  -0.657 -17.498  1.00  0.00     0.000 C 
BRANCH   3   4
ATOM      4  C   UNL     1      18.889  -1.903 -17.512  1.00  0.00     0.000 C 
BRANCH   4   5
ATOM      5  C   UNL     1      20.150  -1.710 -18.375  1.00  0.00     0.000 C 
BRANCH   5   6
ATOM      6  C   UNL     1      21.439  -1.677 -17.539  1.00  0.00     0.000 C 
BRANCH   6   7
ATOM      7  C   UNL     1      21.186  -1.287 -16.076  1.00  0.00     0.000 C 
BRANCH   7   8
ATOM      8  C   UNL     1      21.395   0.219 -15.866  1.00  0.00     0.000 C 
BRANCH   8   9
ATOM      9  C   UNL     1      22.856   0.656 -16.079  1.00  0.00     0.000 C 
BRANCH   9  10
ATOM     10  C   UNL     1      23.135   2.150 -15.812  1.00  0.00     0.000 C 
BRANCH  10  11
ATOM     11  C   UNL     1      23.539   2.497 -14.366  1.00  0.00     0.000 C 
BRANCH  11  12
ATOM     12  C   UNL     1      23.858   3.983 -14.110  1.00  0.00     0.006 C 
BRANCH  12  13
ATOM     13  C   UNL     1      23.858   4.850 -15.382  1.00  0.00     0.053 C 
BRANCH  13  14
ATOM     14  C   UNL     1      22.755   5.864 -15.385  1.00  0.00     0.041 C 
ATOM     15  O   UNL     1      22.827   6.881 -14.648  1.00  0.00    -0.550 OA
ATOM     16  O   UNL     1      21.631   5.669 -16.177  1.00  0.00    -0.550 OA
ENDBRANCH  13  14
ENDBRANCH  12  13
ENDBRANCH  11  12
ENDBRANCH  10  11
ENDBRANCH   9  10
ENDBRANCH   8   9
ENDBRANCH   7   8
ENDBRANCH   6   7
ENDBRANCH   5   6
ENDBRANCH   4   5
ENDBRANCH   3   4
ENDBRANCH   2   3
ENDBRANCH   1   2
BRANCH   1  17
ATOM     17  C   UNL     1      18.160   0.077 -14.046  1.00  0.00     0.000 C 
BRANCH  17  18
ATOM     18  C   UNL     1      18.232  -1.443 -13.818  1.00  0.00     0.000 C 
BRANCH  18  19
ATOM     19  C   UNL     1      17.752  -1.854 -12.418  1.00  0.00     0.000 C 
BRANCH  19  20
ATOM     20  C   UNL     1      16.488  -1.083 -12.014  1.00  0.00     0.000 C 
BRANCH  20  21
ATOM     21  C   UNL     1      15.228  -1.568 -12.752  1.00  0.00     0.000 C 
BRANCH  21  22
ATOM     22  C   UNL     1      14.327  -0.427 -13.270  1.00  0.00    -0.000 C 
BRANCH  22  23
ATOM     23  C   UNL     1      12.906  -0.907 -13.605  1.00  0.00    -0.000 C 
BRANCH  23  24
ATOM     24  C   UNL     1      12.575  -0.658 -15.082  1.00  0.00    -0.000 C 
BRANCH  24  25
ATOM     25  C   UNL     1      13.720   0.088 -15.784  1.00  0.00    -0.000 C 
BRANCH  25  26
ATOM     26  C   UNL     1      13.216   1.075 -16.858  1.00  0.00    -0.000 C 
BRANCH  26  27
ATOM     27  C   UNL     1      14.301   1.522 -17.858  1.00  0.00    -0.000 C 
BRANCH  27  28
ATOM     28  C   UNL     1      15.090   2.782 -17.454  1.00  0.00    -0.000 C 
BRANCH  28  29
ATOM     29  C   UNL     1      16.534   2.840 -17.983  1.00  0.00    -0.003 C 
ATOM     30  C   UNL     1      16.703   3.820 -19.143  1.00  0.00     0.004 C 
ENDBRANCH  28  29
ENDBRANCH  27  28
ENDBRANCH  26  27
ENDBRANCH  25  26
ENDBRANCH  24  25
ENDBRANCH  23  24
ENDBRANCH  22  23
ENDBRANCH  21  22
ENDBRANCH  20  21
ENDBRANCH  19  20
ENDBRANCH  18  19
ENDBRANCH  17  18
ENDBRANCH   1  17
TORSDOF 26
ENDMDL
MODEL 6
REMARK VINA RESULT:    -4.108      2.460      5.832
REMARK INTER + INTRA:         -14.409
REMARK INTER:                 -10.051
REMARK INTRA:                  -4.358
REMARK UNBOUND:                -4.057
REMARK SMILES CCCCCCCCCCCCCCCCCCCCCCCCCCCC(=O)[O-]
REMARK SMILES IDX 15 1 16 2 17 3 18 4 19 5 20 6 21 7 22 8 23 9 24 10 25 11
REMARK SMILES IDX 26 12 27 13 28 14 29 15 30 16 14 17 13 18 12 19 11 20 10 21
REMARK SMILES IDX 9 22 8 23 7 24 6 25 5 26 4 27 3 28 2 29 1 30
REMARK H PARENT
REMARK Flexibility Score: inf
ROOT
ATOM      1  C   UNL     1      28.873  12.478 -14.177  1.00  0.00     0.000 C 
ENDROOT
BRANCH   1   2
ATOM      2  C   UNL     1      30.361  12.816 -14.390  1.00  0.00     0.000 C 
BRANCH   2   3
ATOM      3  C   UNL     1      30.607  13.613 -15.682  1.00  0.00     0.000 C 
BRANCH   3   4
ATOM      4  C   UNL     1      29.358  13.704 -16.572  1.00  0.00     0.000 C 
BRANCH   4   5
ATOM      5  C   UNL     1      29.478  12.852 -17.849  1.00  0.00     0.000 C 
BRANCH   5   6
ATOM      6  C   UNL     1      30.857  12.188 -17.990  1.00  0.00     0.000 C 
BRANCH   6   7
ATOM      7  C   UNL     1      30.769  10.660 -18.114  1.00  0.00     0.000 C 
BRANCH   7   8
ATOM      8  C   UNL     1      30.371  10.024 -16.774  1.00  0.00     0.000 C 
BRANCH   8   9
ATOM      9  C   UNL     1      30.260   8.491 -16.849  1.00  0.00     0.000 C 
BRANCH   9  10
ATOM     10  C   UNL     1      29.172   7.962 -17.807  1.00  0.00     0.000 C 
BRANCH  10  11
ATOM     11  C   UNL     1      28.214   6.916 -17.205  1.00  0.00     0.000 C 
BRANCH  11  12
ATOM     12  C   UNL     1      27.456   6.050 -18.231  1.00  0.00     0.006 C 
BRANCH  12  13
ATOM     13  C   UNL     1      28.373   5.258 -19.181  1.00  0.00     0.053 C 
BRANCH  13  14
ATOM     14  C   UNL     1      27.941   3.833 -19.339  1.00  0.00     0.041 C 
ATOM     15  O   UNL     1      27.053   3.352 -18.588  1.00  0.00    -0.550 OA
ATOM     16  O   UNL     1      28.544   3.024 -20.294  1.00  0.00    -0.550 OA
ENDBRANCH  13  14
ENDBRANCH  12  13
ENDBRANCH  11  12
ENDBRANCH  10  11
ENDBRANCH   9  10
ENDBRANCH   8   9
ENDBRANCH   7   8
ENDBRANCH   6   7
ENDBRANCH   5   6
ENDBRANCH   4   5
ENDBRANCH   3   4
ENDBRANCH   2   3
ENDBRANCH   1   2
BRANCH   1  17
ATOM     17  C   UNL     1      28.182  13.248 -13.035  1.00  0.00     0.000 C 
BRANCH  17  18
ATOM     18  C   UNL     1      28.727  12.950 -11.627  1.00  0.00     0.000 C 
BRANCH  18  19
ATOM     19  C   UNL     1      28.178  11.639 -11.045  1.00  0.00     0.000 C 
BRANCH  19  20
ATOM     20  C   UNL     1      29.220  10.943 -10.159  1.00  0.00     0.000 C 
BRANCH  20  21
ATOM     21  C   UNL     1      29.747   9.632 -10.768  1.00  0.00     0.000 C 
BRANCH  21  22
ATOM     22  C   UNL     1      30.878   9.832 -11.800  1.00  0.00    -0.000 C 
BRANCH  22  23
ATOM     23  C   UNL     1      30.584   9.129 -13.135  1.00  0.00    -0.000 C 
BRANCH  23  24
ATOM     24  C   UNL     1      29.088   8.820 -13.276  1.00  0.00    -0.000 C 
BRANCH  24  25
ATOM     25  C   UNL     1      28.861   7.332 -13.585  1.00  0.00    -0.000 C 
BRANCH  25  26
ATOM     26  C   UNL     1      29.861   6.413 -12.851  1.00  0.00    -0.000 C 
BRANCH  26  27
ATOM     27  C   UNL     1      29.644   4.910 -13.118  1.00  0.00    -0.000 C 
BRANCH  27  28
ATOM     28  C   UNL     1      29.237   4.549 -14.559  1.00  0.00    -0.000 C 
BRANCH  28  29
ATOM     29  C   UNL     1      27.988   3.657 -14.676  1.00  0.00    -0.003 C 
ATOM     30  C   UNL     1      26.698   4.459 -14.837  1.00  0.00     0.004 C 
ENDBRANCH  28  29
ENDBRANCH  27  28
ENDBRANCH  26  27
ENDBRANCH  25  26
ENDBRANCH  24  25
ENDBRANCH  23  24
ENDBRANCH  22  23
ENDBRANCH  21  22
ENDBRANCH  20  21
ENDBRANCH  19  20
ENDBRANCH  18  19
ENDBRANCH  17  18
ENDBRANCH   1  17
TORSDOF 26
ENDMDL
MODEL 7
REMARK VINA RESULT:    -4.085      7.956     14.011
REMARK INTER + INTRA:         -14.351
REMARK INTER:                 -10.050
REMARK INTRA:                  -4.301
REMARK UNBOUND:                -4.057
REMARK SMILES CCCCCCCCCCCCCCCCCCCCCCCCCCCC(=O)[O-]
REMARK SMILES IDX 15 1 16 2 17 3 18 4 19 5 20 6 21 7 22 8 23 9 24 10 25 11
REMARK SMILES IDX 26 12 27 13 28 14 29 15 30 16 14 17 13 18 12 19 11 20 10 21
REMARK SMILES IDX 9 22 8 23 7 24 6 25 5 26 4 27 3 28 2 29 1 30
REMARK H PARENT
REMARK Flexibility Score: inf
ROOT
ATOM      1  C   UNL     1      19.584  -0.183 -14.127  1.00  0.00     0.000 C 
ENDROOT
BRANCH   1   2
ATOM      2  C   UNL     1      20.186  -0.241 -15.543  1.00  0.00     0.000 C 
BRANCH   2   3
ATOM      3  C   UNL     1      21.395  -1.188 -15.634  1.00  0.00     0.000 C 
BRANCH   3   4
ATOM      4  C   UNL     1      22.718  -0.441 -15.872  1.00  0.00     0.000 C 
BRANCH   4   5
ATOM      5  C   UNL     1      23.751  -0.702 -14.760  1.00  0.00     0.000 C 
BRANCH   5   6
ATOM      6  C   UNL     1      23.116  -1.277 -13.485  1.00  0.00     0.000 C 
BRANCH   6   7
ATOM      7  C   UNL     1      23.541  -0.521 -12.218  1.00  0.00     0.000 C 
BRANCH   7   8
ATOM      8  C   UNL     1      22.486   0.523 -11.823  1.00  0.00     0.000 C 
BRANCH   8   9
ATOM      9  C   UNL     1      22.968   1.970 -12.037  1.00  0.00     0.000 C 
BRANCH   9  10
ATOM     10  C   UNL     1      24.463   2.114 -12.388  1.00  0.00     0.000 C 
BRANCH  10  11
ATOM     11  C   UNL     1      24.765   2.884 -13.688  1.00  0.00     0.000 C 
BRANCH  11  12
ATOM     12  C   UNL     1      23.544   3.157 -14.589  1.00  0.00     0.006 C 
BRANCH  12  13
ATOM     13  C   UNL     1      23.751   4.309 -15.589  1.00  0.00     0.053 C 
BRANCH  13  14
ATOM     14  C   UNL     1      23.012   5.551 -15.194  1.00  0.00     0.041 C 
ATOM     15  O   UNL     1      22.155   6.052 -15.968  1.00  0.00    -0.550 OA
ATOM     16  O   UNL     1      23.295   6.176 -13.987  1.00  0.00    -0.550 OA
ENDBRANCH  13  14
ENDBRANCH  12  13
ENDBRANCH  11  12
ENDBRANCH  10  11
ENDBRANCH   9  10
ENDBRANCH   8   9
ENDBRANCH   7   8
ENDBRANCH   6   7
ENDBRANCH   5   6
ENDBRANCH   4   5
ENDBRANCH   3   4
ENDBRANCH   2   3
ENDBRANCH   1   2
BRANCH   1  17
ATOM     17  C   UNL     1      19.234  -1.550 -13.506  1.00  0.00     0.000 C 
BRANCH  17  18
ATOM     18  C   UNL     1      19.584  -1.694 -12.014  1.00  0.00     0.000 C 
BRANCH  18  19
ATOM     19  C   UNL     1      18.354  -2.000 -11.146  1.00  0.00     0.000 C 
BRANCH  19  20
ATOM     20  C   UNL     1      17.052  -1.780 -11.928  1.00  0.00     0.000 C 
BRANCH  20  21
ATOM     21  C   UNL     1      16.268  -0.544 -11.453  1.00  0.00     0.000 C 
BRANCH  21  22
ATOM     22  C   UNL     1      15.394   0.102 -12.548  1.00  0.00    -0.000 C 
BRANCH  22  23
ATOM     23  C   UNL     1      14.562  -0.933 -13.322  1.00  0.00    -0.000 C 
BRANCH  23  24
ATOM     24  C   UNL     1      14.605  -0.657 -14.830  1.00  0.00    -0.000 C 
BRANCH  24  25
ATOM     25  C   UNL     1      15.966  -0.075 -15.244  1.00  0.00    -0.000 C 
BRANCH  25  26
ATOM     26  C   UNL     1      16.657  -0.904 -16.348  1.00  0.00    -0.000 C 
BRANCH  26  27
ATOM     27  C   UNL     1      17.069  -0.082 -17.585  1.00  0.00    -0.000 C 
BRANCH  27  28
ATOM     28  C   UNL     1      17.221  -0.888 -18.889  1.00  0.00    -0.000 C 
BRANCH  28  29
ATOM     29  C   UNL     1      18.586  -0.744 -19.585  1.00  0.00    -0.003 C 
ATOM     30  C   UNL     1      19.667  -1.624 -18.960  1.00  0.00     0.004 C 
ENDBRANCH  28  29
ENDBRANCH  27  28
ENDBRANCH  26  27
ENDBRANCH  25  26
ENDBRANCH  24  25
ENDBRANCH  23  24
ENDBRANCH  22  23
ENDBRANCH  21  22
ENDBRANCH  20  21
ENDBRANCH  19  20
ENDBRANCH  18  19
ENDBRANCH  17  18
ENDBRANCH   1  17
TORSDOF 26
ENDMDL
MODEL 8
REMARK VINA RESULT:    -4.078      2.055      3.453
REMARK INTER + INTRA:         -14.333
REMARK INTER:                  -9.818
REMARK INTRA:                  -4.515
REMARK UNBOUND:                -4.057
REMARK SMILES CCCCCCCCCCCCCCCCCCCCCCCCCCCC(=O)[O-]
REMARK SMILES IDX 15 1 16 2 17 3 18 4 19 5 20 6 21 7 22 8 23 9 24 10 25 11
REMARK SMILES IDX 26 12 27 13 28 14 29 15 30 16 14 17 13 18 12 19 11 20 10 21
REMARK SMILES IDX 9 22 8 23 7 24 6 25 5 26 4 27 3 28 2 29 1 30
REMARK H PARENT
REMARK Flexibility Score: inf
ROOT
ATOM      1  C   UNL     1      29.147   8.306 -12.816  1.00  0.00     0.000 C 
ENDROOT
BRANCH   1   2
ATOM      2  C   UNL     1      29.363   6.909 -13.428  1.00  0.00     0.000 C 
BRANCH   2   3
ATOM      3  C   UNL     1      30.722   6.776 -14.135  1.00  0.00     0.000 C 
BRANCH   3   4
ATOM      4  C   UNL     1      30.623   6.039 -15.480  1.00  0.00     0.000 C 
BRANCH   4   5
ATOM      5  C   UNL     1      30.904   6.962 -16.681  1.00  0.00     0.000 C 
BRANCH   5   6
ATOM      6  C   UNL     1      29.785   6.922 -17.733  1.00  0.00     0.000 C 
BRANCH   6   7
ATOM      7  C   UNL     1      28.385   6.863 -17.105  1.00  0.00     0.000 C 
BRANCH   7   8
ATOM      8  C   UNL     1      27.497   5.848 -17.842  1.00  0.00     0.000 C 
BRANCH   8   9
ATOM      9  C   UNL     1      26.765   4.890 -16.886  1.00  0.00     0.000 C 
BRANCH   9  10
ATOM     10  C   UNL     1      26.617   5.400 -15.438  1.00  0.00     0.000 C 
BRANCH  10  11
ATOM     11  C   UNL     1      26.980   4.383 -14.339  1.00  0.00     0.000 C 
BRANCH  11  12
ATOM     12  C   UNL     1      26.399   4.685 -12.944  1.00  0.00     0.006 C 
BRANCH  12  13
ATOM     13  C   UNL     1      26.469   3.498 -11.966  1.00  0.00     0.053 C 
BRANCH  13  14
ATOM     14  C   UNL     1      25.471   2.429 -12.289  1.00  0.00     0.041 C 
ATOM     15  O   UNL     1      25.795   1.215 -12.213  1.00  0.00    -0.550 OA
ATOM     16  O   UNL     1      24.193   2.772 -12.710  1.00  0.00    -0.550 OA
ENDBRANCH  13  14
ENDBRANCH  12  13
ENDBRANCH  11  12
ENDBRANCH  10  11
ENDBRANCH   9  10
ENDBRANCH   8   9
ENDBRANCH   7   8
ENDBRANCH   6   7
ENDBRANCH   5   6
ENDBRANCH   4   5
ENDBRANCH   3   4
ENDBRANCH   2   3
ENDBRANCH   1   2
BRANCH   1  17
ATOM     17  C   UNL     1      30.259   8.782 -11.861  1.00  0.00     0.000 C 
BRANCH  17  18
ATOM     18  C   UNL     1      29.761   9.444 -10.564  1.00  0.00     0.000 C 
BRANCH  18  19
ATOM     19  C   UNL     1      29.861  10.976 -10.606  1.00  0.00     0.000 C 
BRANCH  19  20
ATOM     20  C   UNL     1      28.555  11.605 -11.112  1.00  0.00     0.000 C 
BRANCH  20  21
ATOM     21  C   UNL     1      28.733  12.379 -12.430  1.00  0.00     0.000 C 
BRANCH  21  22
ATOM     22  C   UNL     1      30.196  12.469 -12.912  1.00  0.00    -0.000 C 
BRANCH  22  23
ATOM     23  C   UNL     1      30.425  11.721 -14.235  1.00  0.00    -0.000 C 
BRANCH  23  24
ATOM     24  C   UNL     1      29.101  11.199 -14.807  1.00  0.00    -0.000 C 
BRANCH  24  25
ATOM     25  C   UNL     1      29.342  10.355 -16.068  1.00  0.00    -0.000 C 
BRANCH  25  26
ATOM     26  C   UNL     1      30.726  10.613 -16.702  1.00  0.00    -0.000 C 
BRANCH  26  27
ATOM     27  C   UNL     1      30.667  11.303 -18.079  1.00  0.00    -0.000 C 
BRANCH  27  28
ATOM     28  C   UNL     1      30.770  12.840 -18.049  1.00  0.00    -0.000 C 
BRANCH  28  29
ATOM     29  C   UNL     1      29.442  13.574 -17.788  1.00  0.00    -0.003 C 
ATOM     30  C   UNL     1      29.516  14.530 -16.599  1.00  0.00     0.004 C 
ENDBRANCH  28  29
ENDBRANCH  27  28
ENDBRANCH  26  27
ENDBRANCH  25  26
ENDBRANCH  24  25
ENDBRANCH  23  24
ENDBRANCH  22  23
ENDBRANCH  21  22
ENDBRANCH  20  21
ENDBRANCH  19  20
ENDBRANCH  18  19
ENDBRANCH  17  18
ENDBRANCH   1  17
TORSDOF 26
ENDMDL
MODEL 9
REMARK VINA RESULT:    -4.076      2.230      5.221
REMARK INTER + INTRA:         -14.329
REMARK INTER:                 -10.290
REMARK INTRA:                  -4.039
REMARK UNBOUND:                -4.057
REMARK SMILES CCCCCCCCCCCCCCCCCCCCCCCCCCCC(=O)[O-]
REMARK SMILES IDX 15 1 16 2 17 3 18 4 19 5 20 6 21 7 22 8 23 9 24 10 25 11
REMARK SMILES IDX 26 12 27 13 28 14 29 15 30 16 14 17 13 18 12 19 11 20 10 21
REMARK SMILES IDX 9 22 8 23 7 24 6 25 5 26 4 27 3 28 2 29 1 30
REMARK H PARENT
REMARK Flexibility Score: inf
ROOT
ATOM      1  C   UNL     1      27.830  11.453 -10.842  1.00  0.00     0.000 C 
ENDROOT
BRANCH   1   2
ATOM      2  C   UNL     1      29.230  11.079 -10.324  1.00  0.00     0.000 C 
BRANCH   2   3
ATOM      3  C   UNL     1      29.638   9.644 -10.699  1.00  0.00     0.000 C 
BRANCH   3   4
ATOM      4  C   UNL     1      30.062   9.512 -12.171  1.00  0.00     0.000 C 
BRANCH   4   5
ATOM      5  C   UNL     1      29.275   8.418 -12.917  1.00  0.00     0.000 C 
BRANCH   5   6
ATOM      6  C   UNL     1      30.025   7.077 -12.962  1.00  0.00     0.000 C 
BRANCH   6   7
ATOM      7  C   UNL     1      29.105   5.896 -13.306  1.00  0.00     0.000 C 
BRANCH   7   8
ATOM      8  C   UNL     1      27.679   6.381 -13.604  1.00  0.00     0.000 C 
BRANCH   8   9
ATOM      9  C   UNL     1      26.601   5.381 -13.152  1.00  0.00     0.000 C 
BRANCH   9  10
ATOM     10  C   UNL     1      25.308   5.391 -13.995  1.00  0.00     0.000 C 
BRANCH  10  11
ATOM     11  C   UNL     1      25.493   5.068 -15.490  1.00  0.00     0.000 C 
BRANCH  11  12
ATOM     12  C   UNL     1      26.099   3.684 -15.795  1.00  0.00     0.006 C 
BRANCH  12  13
ATOM     13  C   UNL     1      27.498   3.742 -16.436  1.00  0.00     0.053 C 
BRANCH  13  14
ATOM     14  C   UNL     1      27.591   2.918 -17.683  1.00  0.00     0.041 C 
ATOM     15  O   UNL     1      27.176   3.376 -18.779  1.00  0.00    -0.550 OA
ATOM     16  O   UNL     1      28.105   1.628 -17.630  1.00  0.00    -0.550 OA
ENDBRANCH  13  14
ENDBRANCH  12  13
ENDBRANCH  11  12
ENDBRANCH  10  11
ENDBRANCH   9  10
ENDBRANCH   8   9
ENDBRANCH   7   8
ENDBRANCH   6   7
ENDBRANCH   5   6
ENDBRANCH   4   5
ENDBRANCH   3   4
ENDBRANCH   2   3
ENDBRANCH   1   2
BRANCH   1  17
ATOM     17  C   UNL     1      27.713  12.858 -11.466  1.00  0.00     0.000 C 
BRANCH  17  18
ATOM     18  C   UNL     1      28.866  13.248 -12.407  1.00  0.00     0.000 C 
BRANCH  18  19
ATOM     19  C   UNL     1      28.789  12.534 -13.764  1.00  0.00     0.000 C 
BRANCH  19  20
ATOM     20  C   UNL     1      30.165  12.474 -14.441  1.00  0.00     0.000 C 
BRANCH  20  21
ATOM     21  C   UNL     1      30.264  13.377 -15.683  1.00  0.00     0.000 C 
BRANCH  21  22
ATOM     22  C   UNL     1      29.110  13.185 -16.690  1.00  0.00    -0.000 C 
BRANCH  22  23
ATOM     23  C   UNL     1      29.615  12.918 -18.117  1.00  0.00    -0.000 C 
BRANCH  23  24
ATOM     24  C   UNL     1      30.934  12.136 -18.096  1.00  0.00    -0.000 C 
BRANCH  24  25
ATOM     25  C   UNL     1      30.689  10.636 -18.325  1.00  0.00    -0.000 C 
BRANCH  25  26
ATOM     26  C   UNL     1      30.763   9.815 -17.021  1.00  0.00    -0.000 C 
BRANCH  26  27
ATOM     27  C   UNL     1      29.427   9.161 -16.614  1.00  0.00    -0.000 C 
BRANCH  27  28
ATOM     28  C   UNL     1      29.417   7.620 -16.634  1.00  0.00    -0.000 C 
BRANCH  28  29
ATOM     29  C   UNL     1      28.900   6.992 -17.940  1.00  0.00    -0.003 C 
ATOM     30  C   UNL     1      27.376   6.911 -17.998  1.00  0.00     0.004 C 
ENDBRANCH  28  29
ENDBRANCH  27  28
ENDBRANCH  26  27
ENDBRANCH  25  26
ENDBRANCH  24  25
ENDBRANCH  23  24
ENDBRANCH  22  23
ENDBRANCH  21  22
ENDBRANCH  20  21
ENDBRANCH  19  20
ENDBRANCH  18  19
ENDBRANCH  17  18
ENDBRANCH   1  17
TORSDOF 26
ENDMDL
