MODEL 1
REMARK VINA RESULT:    -3.493      0.000      0.000
REMARK INTER + INTRA:          -7.313
REMARK INTER:                  -5.943
REMARK INTRA:                  -1.369
REMARK UNBOUND:                -1.369
REMARK SMILES CCCCCCCCCCCCCC(=O)[O-]
REMARK SMILES IDX 8 1 9 2 10 3 11 4 12 5 13 6 14 7 15 8 16 9 7 10 6 11 5 12
REMARK SMILES IDX 4 13 3 14 2 15 1 16
REMARK H PARENT
REMARK Flexibility Score: inf
ROOT
ATOM      1  C   UNL     1     -93.710 145.917 242.599  1.00  0.00     0.000 C 
ENDROOT
BRANCH   1   2
ATOM      2  C   UNL     1     -93.552 147.349 242.062  1.00  0.00     0.000 C 
BRANCH   2   3
ATOM      3  C   UNL     1     -94.887 148.116 241.947  1.00  0.00     0.000 C 
BRANCH   3   4
ATOM      4  C   UNL     1     -95.553 147.917 240.574  1.00  0.00     0.000 C 
BRANCH   4   5
ATOM      5  C   UNL     1     -94.674 148.417 239.416  1.00  0.00     0.006 C 
BRANCH   5   6
ATOM      6  C   UNL     1     -95.376 148.299 238.056  1.00  0.00     0.053 C 
BRANCH   6   7
ATOM      7  C   UNL     1     -94.780 149.261 237.077  1.00  0.00     0.041 C 
ATOM      8  O   UNL     1     -94.188 148.834 236.051  1.00  0.00    -0.550 OA
ATOM      9  O   UNL     1     -94.921 150.629 237.272  1.00  0.00    -0.550 OA
ENDBRANCH   6   7
ENDBRANCH   5   6
ENDBRANCH   4   5
ENDBRANCH   3   4
ENDBRANCH   2   3
ENDBRANCH   1   2
BRANCH   1  10
ATOM     10  C   UNL     1     -92.900 144.886 241.802  1.00  0.00     0.000 C 
BRANCH  10  11
ATOM     11  C   UNL     1     -91.887 145.576 240.877  1.00  0.00    -0.000 C 
BRANCH  11  12
ATOM     12  C   UNL     1     -91.950 145.063 239.427  1.00  0.00    -0.000 C 
BRANCH  12  13
ATOM     13  C   UNL     1     -93.301 145.272 238.718  1.00  0.00    -0.000 C 
BRANCH  13  14
ATOM     14  C   UNL     1     -93.214 145.080 237.195  1.00  0.00    -0.000 C 
BRANCH  14  15
ATOM     15  C   UNL     1     -91.780 145.237 236.664  1.00  0.00    -0.003 C 
ATOM     16  C   UNL     1     -91.673 146.271 235.544  1.00  0.00     0.004 C 
ENDBRANCH  14  15
ENDBRANCH  13  14
ENDBRANCH  12  13
ENDBRANCH  11  12
ENDBRANCH  10  11
ENDBRANCH   1  10
TORSDOF 12
ENDMDL
MODEL 2
REMARK VINA RESULT:    -3.433      4.220      5.839
REMARK INTER + INTRA:          -7.210
REMARK INTER:                  -5.542
REMARK INTRA:                  -1.668
REMARK UNBOUND:                -1.369
REMARK SMILES CCCCCCCCCCCCCC(=O)[O-]
REMARK SMILES IDX 8 1 9 2 10 3 11 4 12 5 13 6 14 7 15 8 16 9 7 10 6 11 5 12
REMARK SMILES IDX 4 13 3 14 2 15 1 16
REMARK H PARENT
REMARK Flexibility Score: inf
ROOT
ATOM      1  C   UNL     1     -94.787 146.480 242.549  1.00  0.00     0.000 C 
ENDROOT
BRANCH   1   2
ATOM      2  C   UNL     1     -96.096 147.286 242.613  1.00  0.00     0.000 C 
BRANCH   2   3
ATOM      3  C   UNL     1     -95.878 148.808 242.750  1.00  0.00     0.000 C 
BRANCH   3   4
ATOM      4  C   UNL     1     -97.202 149.568 242.940  1.00  0.00     0.000 C 
BRANCH   4   5
ATOM      5  C   UNL     1     -98.348 148.650 243.395  1.00  0.00     0.006 C 
BRANCH   5   6
ATOM      6  C   UNL     1     -98.920 149.060 244.758  1.00  0.00     0.053 C 
BRANCH   6   7
ATOM      7  C   UNL     1     -97.977 148.675 245.856  1.00  0.00     0.041 C 
ATOM      8  O   UNL     1     -97.441 147.536 245.860  1.00  0.00    -0.550 OA
ATOM      9  O   UNL     1     -97.654 149.592 246.847  1.00  0.00    -0.550 OA
ENDBRANCH   6   7
ENDBRANCH   5   6
ENDBRANCH   4   5
ENDBRANCH   3   4
ENDBRANCH   2   3
ENDBRANCH   1   2
BRANCH   1  10
ATOM     10  C   UNL     1     -93.600 147.307 242.034  1.00  0.00     0.000 C 
BRANCH  10  11
ATOM     11  C   UNL     1     -92.957 146.644 240.806  1.00  0.00    -0.000 C 
BRANCH  11  12
ATOM     12  C   UNL     1     -93.750 146.887 239.509  1.00  0.00    -0.000 C 
BRANCH  12  13
ATOM     13  C   UNL     1     -94.341 148.301 239.359  1.00  0.00    -0.000 C 
BRANCH  13  14
ATOM     14  C   UNL     1     -95.511 148.359 238.363  1.00  0.00    -0.000 C 
BRANCH  14  15
ATOM     15  C   UNL     1     -96.827 147.846 238.971  1.00  0.00    -0.003 C 
ATOM     16  C   UNL     1     -97.712 148.971 239.504  1.00  0.00     0.004 C 
ENDBRANCH  14  15
ENDBRANCH  13  14
ENDBRANCH  12  13
ENDBRANCH  11  12
ENDBRANCH  10  11
ENDBRANCH   1  10
TORSDOF 12
ENDMDL
MODEL 3
REMARK VINA RESULT:    -3.431      3.863      4.896
REMARK INTER + INTRA:          -7.208
REMARK INTER:                  -6.139
REMARK INTRA:                  -1.069
REMARK UNBOUND:                -1.369
REMARK SMILES CCCCCCCCCCCCCC(=O)[O-]
REMARK SMILES IDX 8 1 9 2 10 3 11 4 12 5 13 6 14 7 15 8 16 9 7 10 6 11 5 12
REMARK SMILES IDX 4 13 3 14 2 15 1 16
REMARK H PARENT
REMARK Flexibility Score: inf
ROOT
ATOM      1  C   UNL     1     -93.514 147.372 241.966  1.00  0.00     0.000 C 
ENDROOT
BRANCH   1   2
ATOM      2  C   UNL     1     -94.777 147.929 241.287  1.00  0.00     0.000 C 
BRANCH   2   3
ATOM      3  C   UNL     1     -96.041 147.843 242.170  1.00  0.00     0.000 C 
BRANCH   3   4
ATOM      4  C   UNL     1     -96.165 149.045 243.123  1.00  0.00     0.000 C 
BRANCH   4   5
ATOM      5  C   UNL     1     -97.602 149.583 243.207  1.00  0.00     0.006 C 
BRANCH   5   6
ATOM      6  C   UNL     1     -98.511 148.691 244.063  1.00  0.00     0.053 C 
BRANCH   6   7
ATOM      7  C   UNL     1     -97.868 148.408 245.385  1.00  0.00     0.041 C 
ATOM      8  O   UNL     1     -97.438 147.253 245.645  1.00  0.00    -0.550 OA
ATOM      9  O   UNL     1     -97.700 149.430 246.309  1.00  0.00    -0.550 OA
ENDBRANCH   6   7
ENDBRANCH   5   6
ENDBRANCH   4   5
ENDBRANCH   3   4
ENDBRANCH   2   3
ENDBRANCH   1   2
BRANCH   1  10
ATOM     10  C   UNL     1     -93.729 145.982 242.581  1.00  0.00     0.000 C 
BRANCH  10  11
ATOM     11  C   UNL     1     -93.075 144.891 241.719  1.00  0.00    -0.000 C 
BRANCH  11  12
ATOM     12  C   UNL     1     -91.914 145.421 240.858  1.00  0.00    -0.000 C 
BRANCH  12  13
ATOM     13  C   UNL     1     -92.074 145.205 239.342  1.00  0.00    -0.000 C 
BRANCH  13  14
ATOM     14  C   UNL     1     -93.539 145.258 238.880  1.00  0.00    -0.000 C 
BRANCH  14  15
ATOM     15  C   UNL     1     -93.833 146.481 237.996  1.00  0.00    -0.003 C 
ATOM     16  C   UNL     1     -93.282 146.334 236.578  1.00  0.00     0.004 C 
ENDBRANCH  14  15
ENDBRANCH  13  14
ENDBRANCH  12  13
ENDBRANCH  11  12
ENDBRANCH  10  11
ENDBRANCH   1  10
TORSDOF 12
ENDMDL
MODEL 4
REMARK VINA RESULT:    -3.385      2.888      4.011
REMARK INTER + INTRA:          -7.129
REMARK INTER:                  -5.515
REMARK INTRA:                  -1.613
REMARK UNBOUND:                -1.369
REMARK SMILES CCCCCCCCCCCCCC(=O)[O-]
REMARK SMILES IDX 8 1 9 2 10 3 11 4 12 5 13 6 14 7 15 8 16 9 7 10 6 11 5 12
REMARK SMILES IDX 4 13 3 14 2 15 1 16
REMARK H PARENT
REMARK Flexibility Score: inf
ROOT
ATOM      1  C   UNL     1     -92.956 144.881 241.992  1.00  0.00     0.000 C 
ENDROOT
BRANCH   1   2
ATOM      2  C   UNL     1     -94.025 145.525 242.890  1.00  0.00     0.000 C 
BRANCH   2   3
ATOM      3  C   UNL     1     -95.456 145.021 242.604  1.00  0.00     0.000 C 
BRANCH   3   4
ATOM      4  C   UNL     1     -96.446 146.180 242.389  1.00  0.00     0.000 C 
BRANCH   4   5
ATOM      5  C   UNL     1     -96.198 147.353 243.351  1.00  0.00     0.006 C 
BRANCH   5   6
ATOM      6  C   UNL     1     -96.303 148.715 242.653  1.00  0.00     0.053 C 
BRANCH   6   7
ATOM      7  C   UNL     1     -97.549 149.426 243.082  1.00  0.00     0.041 C 
ATOM      8  O   UNL     1     -97.922 149.379 244.284  1.00  0.00    -0.550 OA
ATOM      9  O   UNL     1     -98.269 150.180 242.165  1.00  0.00    -0.550 OA
ENDBRANCH   6   7
ENDBRANCH   5   6
ENDBRANCH   4   5
ENDBRANCH   3   4
ENDBRANCH   2   3
ENDBRANCH   1   2
BRANCH   1  10
ATOM     10  C   UNL     1     -92.485 145.809 240.863  1.00  0.00     0.000 C 
BRANCH  10  11
ATOM     11  C   UNL     1     -93.028 147.233 241.057  1.00  0.00    -0.000 C 
BRANCH  11  12
ATOM     12  C   UNL     1     -93.930 147.694 239.898  1.00  0.00    -0.000 C 
BRANCH  12  13
ATOM     13  C   UNL     1     -94.394 146.576 238.946  1.00  0.00    -0.000 C 
BRANCH  13  14
ATOM     14  C   UNL     1     -93.946 146.802 237.493  1.00  0.00    -0.000 C 
BRANCH  14  15
ATOM     15  C   UNL     1     -93.471 145.505 236.816  1.00  0.00    -0.003 C 
ATOM     16  C   UNL     1     -92.108 145.037 237.322  1.00  0.00     0.004 C 
ENDBRANCH  14  15
ENDBRANCH  13  14
ENDBRANCH  12  13
ENDBRANCH  11  12
ENDBRANCH  10  11
ENDBRANCH   1  10
TORSDOF 12
ENDMDL
MODEL 5
REMARK VINA RESULT:    -3.384      3.132      5.563
REMARK INTER + INTRA:          -7.127
REMARK INTER:                  -5.936
REMARK INTRA:                  -1.191
REMARK UNBOUND:                -1.369
REMARK SMILES CCCCCCCCCCCCCC(=O)[O-]
REMARK SMILES IDX 8 1 9 2 10 3 11 4 12 5 13 6 14 7 15 8 16 9 7 10 6 11 5 12
REMARK SMILES IDX 4 13 3 14 2 15 1 16
REMARK H PARENT
REMARK Flexibility Score: inf
ROOT
ATOM      1  C   UNL     1     -93.785 146.890 239.498  1.00  0.00     0.000 C 
ENDROOT
BRANCH   1   2
ATOM      2  C   UNL     1     -93.013 146.718 240.817  1.00  0.00     0.000 C 
BRANCH   2   3
ATOM      3  C   UNL     1     -93.721 147.353 242.033  1.00  0.00     0.000 C 
BRANCH   3   4
ATOM      4  C   UNL     1     -94.790 146.422 242.633  1.00  0.00     0.000 C 
BRANCH   4   5
ATOM      5  C   UNL     1     -96.126 147.140 242.875  1.00  0.00     0.006 C 
BRANCH   5   6
ATOM      6  C   UNL     1     -95.987 148.667 242.825  1.00  0.00     0.053 C 
BRANCH   6   7
ATOM      7  C   UNL     1     -97.285 149.321 243.182  1.00  0.00     0.041 C 
ATOM      8  O   UNL     1     -97.678 149.339 244.378  1.00  0.00    -0.550 OA
ATOM      9  O   UNL     1     -98.037 149.955 242.201  1.00  0.00    -0.550 OA
ENDBRANCH   6   7
ENDBRANCH   5   6
ENDBRANCH   4   5
ENDBRANCH   3   4
ENDBRANCH   2   3
ENDBRANCH   1   2
BRANCH   1  10
ATOM     10  C   UNL     1     -94.443 148.270 239.365  1.00  0.00     0.000 C 
BRANCH  10  11
ATOM     11  C   UNL     1     -95.939 148.139 239.045  1.00  0.00    -0.000 C 
BRANCH  11  12
ATOM     12  C   UNL     1     -96.454 149.252 238.113  1.00  0.00    -0.000 C 
BRANCH  12  13
ATOM     13  C   UNL     1     -95.674 149.411 236.794  1.00  0.00    -0.000 C 
BRANCH  13  14
ATOM     14  C   UNL     1     -95.006 150.789 236.657  1.00  0.00    -0.000 C 
BRANCH  14  15
ATOM     15  C   UNL     1     -95.970 151.944 236.978  1.00  0.00    -0.003 C 
ATOM     16  C   UNL     1     -96.767 152.407 235.759  1.00  0.00     0.004 C 
ENDBRANCH  14  15
ENDBRANCH  13  14
ENDBRANCH  12  13
ENDBRANCH  11  12
ENDBRANCH  10  11
ENDBRANCH   1  10
TORSDOF 12
ENDMDL
MODEL 6
REMARK VINA RESULT:    -3.352      3.205      4.481
REMARK INTER + INTRA:          -7.073
REMARK INTER:                  -5.571
REMARK INTRA:                  -1.503
REMARK UNBOUND:                -1.369
REMARK SMILES CCCCCCCCCCCCCC(=O)[O-]
REMARK SMILES IDX 8 1 9 2 10 3 11 4 12 5 13 6 14 7 15 8 16 9 7 10 6 11 5 12
REMARK SMILES IDX 4 13 3 14 2 15 1 16
REMARK H PARENT
REMARK Flexibility Score: inf
ROOT
ATOM      1  C   UNL     1     -92.870 144.969 242.001  1.00  0.00     0.000 C 
ENDROOT
BRANCH   1   2
ATOM      2  C   UNL     1     -94.238 145.377 242.575  1.00  0.00     0.000 C 
BRANCH   2   3
ATOM      3  C   UNL     1     -94.655 146.818 242.210  1.00  0.00     0.000 C 
BRANCH   3   4
ATOM      4  C   UNL     1     -96.121 146.897 241.747  1.00  0.00     0.000 C 
BRANCH   4   5
ATOM      5  C   UNL     1     -96.680 148.327 241.803  1.00  0.00     0.006 C 
BRANCH   5   6
ATOM      6  C   UNL     1     -96.338 149.037 243.120  1.00  0.00     0.053 C 
BRANCH   6   7
ATOM      7  C   UNL     1     -97.481 148.933 244.081  1.00  0.00     0.041 C 
ATOM      8  O   UNL     1     -98.617 149.373 243.764  1.00  0.00    -0.550 OA
ATOM      9  O   UNL     1     -97.303 148.305 245.307  1.00  0.00    -0.550 OA
ENDBRANCH   6   7
ENDBRANCH   5   6
ENDBRANCH   4   5
ENDBRANCH   3   4
ENDBRANCH   2   3
ENDBRANCH   1   2
BRANCH   1  10
ATOM     10  C   UNL     1     -92.376 145.918 240.900  1.00  0.00     0.000 C 
BRANCH  10  11
ATOM     11  C   UNL     1     -91.721 145.137 239.751  1.00  0.00    -0.000 C 
BRANCH  11  12
ATOM     12  C   UNL     1     -92.548 145.172 238.453  1.00  0.00    -0.000 C 
BRANCH  12  13
ATOM     13  C   UNL     1     -94.003 145.649 238.618  1.00  0.00    -0.000 C 
BRANCH  13  14
ATOM     14  C   UNL     1     -94.316 146.913 237.800  1.00  0.00    -0.000 C 
BRANCH  14  15
ATOM     15  C   UNL     1     -94.582 148.138 238.690  1.00  0.00    -0.003 C 
ATOM     16  C   UNL     1     -95.733 149.004 238.179  1.00  0.00     0.004 C 
ENDBRANCH  14  15
ENDBRANCH  13  14
ENDBRANCH  12  13
ENDBRANCH  11  12
ENDBRANCH  10  11
ENDBRANCH   1  10
TORSDOF 12
ENDMDL
MODEL 7
REMARK VINA RESULT:    -3.318      2.479      5.034
REMARK INTER + INTRA:          -7.014
REMARK INTER:                  -5.933
REMARK INTRA:                  -1.081
REMARK UNBOUND:                -1.369
REMARK SMILES CCCCCCCCCCCCCC(=O)[O-]
REMARK SMILES IDX 8 1 9 2 10 3 11 4 12 5 13 6 14 7 15 8 16 9 7 10 6 11 5 12
REMARK SMILES IDX 4 13 3 14 2 15 1 16
REMARK H PARENT
REMARK Flexibility Score: inf
ROOT
ATOM      1  C   UNL     1     -94.283 148.222 239.521  1.00  0.00     0.000 C 
ENDROOT
BRANCH   1   2
ATOM      2  C   UNL     1     -95.664 148.371 238.860  1.00  0.00     0.000 C 
BRANCH   2   3
ATOM      3  C   UNL     1     -95.623 148.284 237.320  1.00  0.00     0.000 C 
BRANCH   3   4
ATOM      4  C   UNL     1     -94.714 149.362 236.703  1.00  0.00     0.000 C 
BRANCH   4   5
ATOM      5  C   UNL     1     -95.101 150.782 237.144  1.00  0.00     0.006 C 
BRANCH   5   6
ATOM      6  C   UNL     1     -95.836 151.557 236.042  1.00  0.00     0.053 C 
BRANCH   6   7
ATOM      7  C   UNL     1     -96.743 152.584 236.643  1.00  0.00     0.041 C 
ATOM      8  O   UNL     1     -96.279 153.468 237.411  1.00  0.00    -0.550 OA
ATOM      9  O   UNL     1     -98.093 152.597 236.315  1.00  0.00    -0.550 OA
ENDBRANCH   6   7
ENDBRANCH   5   6
ENDBRANCH   4   5
ENDBRANCH   3   4
ENDBRANCH   2   3
ENDBRANCH   1   2
BRANCH   1  10
ATOM     10  C   UNL     1     -93.692 146.814 239.364  1.00  0.00     0.000 C 
BRANCH  10  11
ATOM     11  C   UNL     1     -93.180 146.277 240.709  1.00  0.00    -0.000 C 
BRANCH  11  12
ATOM     12  C   UNL     1     -93.764 147.030 241.918  1.00  0.00    -0.000 C 
BRANCH  12  13
ATOM     13  C   UNL     1     -94.866 146.278 242.686  1.00  0.00    -0.000 C 
BRANCH  13  14
ATOM     14  C   UNL     1     -96.151 147.106 242.855  1.00  0.00    -0.000 C 
BRANCH  14  15
ATOM     15  C   UNL     1     -95.882 148.619 242.822  1.00  0.00    -0.003 C 
ATOM     16  C   UNL     1     -97.154 149.452 242.976  1.00  0.00     0.004 C 
ENDBRANCH  14  15
ENDBRANCH  13  14
ENDBRANCH  12  13
ENDBRANCH  11  12
ENDBRANCH  10  11
ENDBRANCH   1  10
TORSDOF 12
ENDMDL
MODEL 8
REMARK VINA RESULT:    -3.309      2.185      5.228
REMARK INTER + INTRA:          -6.999
REMARK INTER:                  -5.564
REMARK INTRA:                  -1.436
REMARK UNBOUND:                -1.369
REMARK SMILES CCCCCCCCCCCCCC(=O)[O-]
REMARK SMILES IDX 8 1 9 2 10 3 11 4 12 5 13 6 14 7 15 8 16 9 7 10 6 11 5 12
REMARK SMILES IDX 4 13 3 14 2 15 1 16
REMARK H PARENT
REMARK Flexibility Score: inf
ROOT
ATOM      1  C   UNL     1     -93.180 145.026 241.923  1.00  0.00     0.000 C 
ENDROOT
BRANCH   1   2
ATOM      2  C   UNL     1     -92.696 145.610 240.585  1.00  0.00     0.000 C 
BRANCH   2   3
ATOM      3  C   UNL     1     -93.213 147.039 240.313  1.00  0.00     0.000 C 
BRANCH   3   4
ATOM      4  C   UNL     1     -94.183 147.087 239.119  1.00  0.00     0.000 C 
BRANCH   4   5
ATOM      5  C   UNL     1     -94.777 148.487 238.898  1.00  0.00     0.006 C 
BRANCH   5   6
ATOM      6  C   UNL     1     -96.311 148.473 238.867  1.00  0.00     0.053 C 
BRANCH   6   7
ATOM      7  C   UNL     1     -96.809 148.862 237.510  1.00  0.00     0.041 C 
ATOM      8  O   UNL     1     -97.370 149.976 237.337  1.00  0.00    -0.550 OA
ATOM      9  O   UNL     1     -96.608 148.016 236.428  1.00  0.00    -0.550 OA
ENDBRANCH   6   7
ENDBRANCH   5   6
ENDBRANCH   4   5
ENDBRANCH   3   4
ENDBRANCH   2   3
ENDBRANCH   1   2
BRANCH   1  10
ATOM     10  C   UNL     1     -93.958 146.040 242.773  1.00  0.00     0.000 C 
BRANCH  10  11
ATOM     11  C   UNL     1     -95.450 145.682 242.831  1.00  0.00    -0.000 C 
BRANCH  11  12
ATOM     12  C   UNL     1     -96.368 146.874 242.505  1.00  0.00    -0.000 C 
BRANCH  12  13
ATOM     13  C   UNL     1     -95.695 148.258 242.589  1.00  0.00    -0.000 C 
BRANCH  13  14
ATOM     14  C   UNL     1     -96.612 149.334 243.192  1.00  0.00    -0.000 C 
BRANCH  14  15
ATOM     15  C   UNL     1     -97.789 148.731 243.976  1.00  0.00    -0.003 C 
ATOM     16  C   UNL     1     -97.560 148.733 245.487  1.00  0.00     0.004 C 
ENDBRANCH  14  15
ENDBRANCH  13  14
ENDBRANCH  12  13
ENDBRANCH  11  12
ENDBRANCH  10  11
ENDBRANCH   1  10
TORSDOF 12
ENDMDL
MODEL 9
REMARK VINA RESULT:    -3.282      3.993      5.234
REMARK INTER + INTRA:          -6.954
REMARK INTER:                  -5.521
REMARK INTRA:                  -1.433
REMARK UNBOUND:                -1.369
REMARK SMILES CCCCCCCCCCCCCC(=O)[O-]
REMARK SMILES IDX 8 1 9 2 10 3 11 4 12 5 13 6 14 7 15 8 16 9 7 10 6 11 5 12
REMARK SMILES IDX 4 13 3 14 2 15 1 16
REMARK H PARENT
REMARK Flexibility Score: inf
ROOT
ATOM      1  C   UNL     1     -93.603 145.734 242.343  1.00  0.00     0.000 C 
ENDROOT
BRANCH   1   2
ATOM      2  C   UNL     1     -95.097 145.397 242.197  1.00  0.00     0.000 C 
BRANCH   2   3
ATOM      3  C   UNL     1     -96.001 146.152 243.195  1.00  0.00     0.000 C 
BRANCH   3   4
ATOM      4  C   UNL     1     -96.818 147.262 242.511  1.00  0.00     0.000 C 
BRANCH   4   5
ATOM      5  C   UNL     1     -96.296 148.668 242.843  1.00  0.00     0.006 C 
BRANCH   5   6
ATOM      6  C   UNL     1     -97.410 149.608 243.322  1.00  0.00     0.053 C 
BRANCH   6   7
ATOM      7  C   UNL     1     -98.079 149.047 244.538  1.00  0.00     0.041 C 
ATOM      8  O   UNL     1     -97.419 148.857 245.593  1.00  0.00    -0.550 OA
ATOM      9  O   UNL     1     -99.442 148.781 244.521  1.00  0.00    -0.550 OA
ENDBRANCH   6   7
ENDBRANCH   5   6
ENDBRANCH   4   5
ENDBRANCH   3   4
ENDBRANCH   2   3
ENDBRANCH   1   2
BRANCH   1  10
ATOM     10  C   UNL     1     -93.206 147.022 241.609  1.00  0.00     0.000 C 
BRANCH  10  11
ATOM     11  C   UNL     1     -93.584 146.948 240.122  1.00  0.00    -0.000 C 
BRANCH  11  12
ATOM     12  C   UNL     1     -94.373 148.178 239.640  1.00  0.00    -0.000 C 
BRANCH  12  13
ATOM     13  C   UNL     1     -95.806 147.886 239.156  1.00  0.00    -0.000 C 
BRANCH  13  14
ATOM     14  C   UNL     1     -96.306 148.904 238.117  1.00  0.00    -0.000 C 
BRANCH  14  15
ATOM     15  C   UNL     1     -95.206 149.322 237.128  1.00  0.00    -0.003 C 
ATOM     16  C   UNL     1     -95.049 150.838 237.020  1.00  0.00     0.004 C 
ENDBRANCH  14  15
ENDBRANCH  13  14
ENDBRANCH  12  13
ENDBRANCH  11  12
ENDBRANCH  10  11
ENDBRANCH   1  10
TORSDOF 12
ENDMDL
