MODEL 1
REMARK VINA RESULT:    -9.051      0.000      0.000
REMARK INTER + INTRA:         -13.614
REMARK INTER:                 -11.961
REMARK INTRA:                  -1.653
REMARK UNBOUND:                -1.653
REMARK SMILES CC[C@@H](C=C[C@H](C)[C@@H]1CC[C@@H]2[C@@H]3CC=C4C[C@H](O)CC[C@]4(C)[C@@H]3CC[C@@]21C)C(C)C
REMARK SMILES IDX 6 1 7 2 5 3 4 4 3 5 2 6 1 7 28 8 29 9 30 10 8 11 9 12 26 13
REMARK SMILES IDX 10 14 11 15 25 16 27 17 12 18 24 19 23 20 13 21 21 22 14 23
REMARK SMILES IDX 15 24 20 25 22 26 16 27 19 28 17 29 18 30
REMARK H PARENT 18 31
REMARK Flexibility Score: inf
ROOT
ATOM      1  C   UNL     1      10.932  78.812   0.044  1.00  0.00     0.012 C 
ATOM      2  C   UNL     1      11.483  79.937   0.949  1.00  0.00     0.012 C 
ENDROOT
BRANCH   1   3
ATOM      3  C   UNL     1       9.562  79.180  -0.480  1.00  0.00    -0.028 C 
ATOM      4  C   UNL     1       8.360  78.751  -0.031  1.00  0.00    -0.027 C 
BRANCH   4   5
ATOM      5  C   UNL     1       8.021  77.700   1.031  1.00  0.00     0.014 C 
BRANCH   5   6
ATOM      6  C   UNL     1       7.939  76.238   0.473  1.00  0.00     0.004 C 
ATOM      7  C   UNL     1       6.559  75.544   0.449  1.00  0.00     0.004 C 
ENDBRANCH   5   6
BRANCH   5   8
ATOM      8  C   UNL     1       6.920  78.171   2.041  1.00  0.00    -0.011 C 
ATOM      9  C   UNL     1       7.532  78.751   3.330  1.00  0.00     0.008 C 
ATOM     10  C   UNL     1       6.009  79.256   1.430  1.00  0.00     0.008 C 
ENDBRANCH   5   8
ENDBRANCH   4   5
ENDBRANCH   1   3
BRANCH   1  11
ATOM     11  C   UNL     1      11.907  78.288  -1.068  1.00  0.00     0.002 C 
ATOM     12  C   UNL     1      11.255  78.175  -2.451  1.00  0.00     0.005 C 
ATOM     13  C   UNL     1      12.772  76.995  -0.873  1.00  0.00    -0.026 C 
ATOM     14  C   UNL     1      12.123  77.232  -3.274  1.00  0.00     0.005 C 
ATOM     15  C   UNL     1      13.192  76.642  -2.334  1.00  0.00    -0.001 C 
ATOM     16  C   UNL     1      12.041  75.788  -0.196  1.00  0.00     0.007 C 
ATOM     17  C   UNL     1      14.042  77.310  -0.041  1.00  0.00     0.012 C 
ATOM     18  C   UNL     1      13.475  75.120  -2.549  1.00  0.00     0.000 C 
ATOM     19  C   UNL     1      11.292  74.901  -1.198  1.00  0.00     0.005 C 
ATOM     20  C   UNL     1      12.292  74.165  -2.136  1.00  0.00     0.003 C 
ATOM     21  C   UNL     1      14.051  74.827  -3.943  1.00  0.00     0.031 C 
ATOM     22  C   UNL     1      11.647  73.303  -3.325  1.00  0.00    -0.008 C 
ATOM     23  C   UNL     1      12.977  74.651  -4.965  1.00  0.00    -0.027 C 
ATOM     24  C   UNL     1      11.846  73.970  -4.696  1.00  0.00    -0.065 C 
ATOM     25  C   UNL     1      10.124  73.025  -3.082  1.00  0.00     0.014 C 
ATOM     26  C   UNL     1      12.367  71.926  -3.379  1.00  0.00     0.016 C 
ATOM     27  C   UNL     1      10.972  73.585  -5.878  1.00  0.00     0.063 C 
ATOM     28  C   UNL     1       9.391  72.439  -4.295  1.00  0.00     0.033 C 
ATOM     29  C   UNL     1       9.506  73.382  -5.499  1.00  0.00     0.118 C 
BRANCH  29  30
ATOM     30  O   UNL     1       8.919  74.628  -5.214  1.00  0.00    -0.393 OA
ATOM     31  H   UNL     1       8.405  74.891  -6.021  1.00  0.00     0.210 HD
ENDBRANCH  29  30
ENDBRANCH   1  11
TORSDOF 6
ENDMDL
MODEL 2
REMARK VINA RESULT:    -8.574      2.071      6.817
REMARK INTER + INTRA:         -12.983
REMARK INTER:                 -11.648
REMARK INTRA:                  -1.335
REMARK UNBOUND:                -1.653
REMARK SMILES CC[C@@H](C=C[C@H](C)[C@@H]1CC[C@@H]2[C@@H]3CC=C4C[C@H](O)CC[C@]4(C)[C@@H]3CC[C@@]21C)C(C)C
REMARK SMILES IDX 6 1 7 2 5 3 4 4 3 5 2 6 1 7 28 8 29 9 30 10 8 11 9 12 26 13
REMARK SMILES IDX 10 14 11 15 25 16 27 17 12 18 24 19 23 20 13 21 21 22 14 23
REMARK SMILES IDX 15 24 20 25 22 26 16 27 19 28 17 29 18 30
REMARK H PARENT 18 31
REMARK Flexibility Score: inf
ROOT
ATOM      1  C   UNL     1      12.967  73.352  -2.546  1.00  0.00     0.012 C 
ATOM      2  C   UNL     1      13.974  72.251  -2.144  1.00  0.00     0.012 C 
ENDROOT
BRANCH   1   3
ATOM      3  C   UNL     1      11.578  73.000  -2.061  1.00  0.00    -0.028 C 
ATOM      4  C   UNL     1      10.526  72.574  -2.798  1.00  0.00    -0.027 C 
BRANCH   4   5
ATOM      5  C   UNL     1      10.376  72.436  -4.317  1.00  0.00     0.014 C 
BRANCH   5   6
ATOM      6  C   UNL     1      11.682  71.968  -5.043  1.00  0.00     0.004 C 
ATOM      7  C   UNL     1      12.468  73.009  -5.871  1.00  0.00     0.004 C 
ENDBRANCH   5   6
BRANCH   5   8
ATOM      8  C   UNL     1       9.540  73.591  -4.964  1.00  0.00    -0.011 C 
ATOM      9  C   UNL     1       8.776  73.118  -6.215  1.00  0.00     0.008 C 
ATOM     10  C   UNL     1       8.504  74.171  -3.979  1.00  0.00     0.008 C 
ENDBRANCH   5   8
ENDBRANCH   4   5
ENDBRANCH   1   3
BRANCH   1  11
ATOM     11  C   UNL     1      13.392  74.825  -2.210  1.00  0.00     0.002 C 
ATOM     12  C   UNL     1      13.293  75.166  -0.719  1.00  0.00     0.005 C 
ATOM     13  C   UNL     1      12.814  76.055  -2.991  1.00  0.00    -0.026 C 
ATOM     14  C   UNL     1      13.254  76.685  -0.615  1.00  0.00     0.005 C 
ATOM     15  C   UNL     1      13.150  77.249  -2.045  1.00  0.00    -0.001 C 
ATOM     16  C   UNL     1      11.280  76.001  -3.298  1.00  0.00     0.007 C 
ATOM     17  C   UNL     1      13.563  76.246  -4.336  1.00  0.00     0.012 C 
ATOM     18  C   UNL     1      12.171  78.457  -2.195  1.00  0.00     0.000 C 
ATOM     19  C   UNL     1      10.421  76.566  -2.160  1.00  0.00     0.005 C 
ATOM     20  C   UNL     1      10.648  78.098  -2.007  1.00  0.00     0.003 C 
ATOM     21  C   UNL     1      12.625  79.679  -1.382  1.00  0.00     0.031 C 
ATOM     22  C   UNL     1       9.915  78.805  -0.769  1.00  0.00    -0.008 C 
ATOM     23  C   UNL     1      12.145  79.618   0.031  1.00  0.00    -0.027 C 
ATOM     24  C   UNL     1      10.904  79.196   0.342  1.00  0.00    -0.065 C 
ATOM     25  C   UNL     1       8.777  77.905  -0.177  1.00  0.00     0.014 C 
ATOM     26  C   UNL     1       9.253  80.118  -1.273  1.00  0.00     0.016 C 
ATOM     27  C   UNL     1      10.415  79.466   1.755  1.00  0.00     0.063 C 
ATOM     28  C   UNL     1       8.216  78.401   1.162  1.00  0.00     0.033 C 
ATOM     29  C   UNL     1       9.332  78.490   2.211  1.00  0.00     0.118 C 
BRANCH  29  30
ATOM     30  O   UNL     1       9.906  77.226   2.436  1.00  0.00    -0.393 OA
ATOM     31  H   UNL     1      10.053  76.818   1.544  1.00  0.00     0.210 HD
ENDBRANCH  29  30
ENDBRANCH   1  11
TORSDOF 6
ENDMDL
MODEL 3
REMARK VINA RESULT:    -8.372      1.291      2.015
REMARK INTER + INTRA:         -12.716
REMARK INTER:                 -12.106
REMARK INTRA:                  -0.610
REMARK UNBOUND:                -1.653
REMARK SMILES CC[C@@H](C=C[C@H](C)[C@@H]1CC[C@@H]2[C@@H]3CC=C4C[C@H](O)CC[C@]4(C)[C@@H]3CC[C@@]21C)C(C)C
REMARK SMILES IDX 6 1 7 2 5 3 4 4 3 5 2 6 1 7 28 8 29 9 30 10 8 11 9 12 26 13
REMARK SMILES IDX 10 14 11 15 25 16 27 17 12 18 24 19 23 20 13 21 21 22 14 23
REMARK SMILES IDX 15 24 20 25 22 26 16 27 19 28 17 29 18 30
REMARK H PARENT 18 31
REMARK Flexibility Score: inf
ROOT
ATOM      1  C   UNL     1      10.186  78.570  -0.418  1.00  0.00     0.012 C 
ATOM      2  C   UNL     1       8.996  79.521  -0.682  1.00  0.00     0.012 C 
ENDROOT
BRANCH   1   3
ATOM      3  C   UNL     1       9.740  77.383   0.406  1.00  0.00    -0.028 C 
ATOM      4  C   UNL     1       8.819  77.361   1.398  1.00  0.00    -0.027 C 
BRANCH   4   5
ATOM      5  C   UNL     1       8.053  78.512   2.059  1.00  0.00     0.014 C 
BRANCH   5   6
ATOM      6  C   UNL     1       8.700  79.020   3.392  1.00  0.00     0.004 C 
ATOM      7  C   UNL     1       7.996  78.670   4.723  1.00  0.00     0.004 C 
ENDBRANCH   5   6
BRANCH   5   8
ATOM      8  C   UNL     1       6.498  78.330   2.010  1.00  0.00    -0.011 C 
ATOM      9  C   UNL     1       5.804  79.506   1.297  1.00  0.00     0.008 C 
ATOM     10  C   UNL     1       6.095  77.036   1.274  1.00  0.00     0.008 C 
ENDBRANCH   5   8
ENDBRANCH   4   5
ENDBRANCH   1   3
BRANCH   1  11
ATOM     11  C   UNL     1      11.038  78.174  -1.675  1.00  0.00     0.002 C 
ATOM     12  C   UNL     1      10.249  77.388  -2.727  1.00  0.00     0.005 C 
ATOM     13  C   UNL     1      12.434  77.472  -1.544  1.00  0.00    -0.026 C 
ATOM     14  C   UNL     1      11.270  76.677  -3.606  1.00  0.00     0.005 C 
ATOM     15  C   UNL     1      12.659  76.891  -2.975  1.00  0.00    -0.001 C 
ATOM     16  C   UNL     1      12.525  76.343  -0.463  1.00  0.00     0.007 C 
ATOM     17  C   UNL     1      13.541  78.515  -1.239  1.00  0.00     0.012 C 
ATOM     18  C   UNL     1      13.581  75.630  -2.996  1.00  0.00     0.000 C 
ATOM     19  C   UNL     1      12.101  74.969  -0.994  1.00  0.00     0.005 C 
ATOM     20  C   UNL     1      13.111  74.454  -2.059  1.00  0.00     0.003 C 
ATOM     21  C   UNL     1      13.925  75.185  -4.426  1.00  0.00     0.031 C 
ATOM     22  C   UNL     1      12.726  73.085  -2.801  1.00  0.00    -0.008 C 
ATOM     23  C   UNL     1      12.879  74.283  -4.995  1.00  0.00    -0.027 C 
ATOM     24  C   UNL     1      12.294  73.320  -4.258  1.00  0.00    -0.065 C 
ATOM     25  C   UNL     1      11.607  72.303  -2.032  1.00  0.00     0.014 C 
ATOM     26  C   UNL     1      13.986  72.175  -2.840  1.00  0.00     0.016 C 
ATOM     27  C   UNL     1      11.486  72.271  -5.004  1.00  0.00     0.063 C 
ATOM     28  C   UNL     1      11.010  71.128  -2.817  1.00  0.00     0.033 C 
ATOM     29  C   UNL     1      10.409  71.617  -4.141  1.00  0.00     0.118 C 
BRANCH  29  30
ATOM     30  O   UNL     1       9.372  72.539  -3.906  1.00  0.00    -0.393 OA
ATOM     31  H   UNL     1       9.131  72.925  -4.788  1.00  0.00     0.210 HD
ENDBRANCH  29  30
ENDBRANCH   1  11
TORSDOF 6
ENDMDL
MODEL 4
REMARK VINA RESULT:    -8.348      1.838      4.663
REMARK INTER + INTRA:         -12.685
REMARK INTER:                 -10.240
REMARK INTRA:                  -2.445
REMARK UNBOUND:                -1.653
REMARK SMILES CC[C@@H](C=C[C@H](C)[C@@H]1CC[C@@H]2[C@@H]3CC=C4C[C@H](O)CC[C@]4(C)[C@@H]3CC[C@@]21C)C(C)C
REMARK SMILES IDX 6 1 7 2 5 3 4 4 3 5 2 6 1 7 28 8 29 9 30 10 8 11 9 12 26 13
REMARK SMILES IDX 10 14 11 15 25 16 27 17 12 18 24 19 23 20 13 21 21 22 14 23
REMARK SMILES IDX 15 24 20 25 22 26 16 27 19 28 17 29 18 30
REMARK H PARENT 18 31
REMARK Flexibility Score: inf
ROOT
ATOM      1  C   UNL     1       8.604  76.991   0.343  1.00  0.00     0.012 C 
ATOM      2  C   UNL     1       7.248  77.358   0.986  1.00  0.00     0.012 C 
ENDROOT
BRANCH   1   3
ATOM      3  C   UNL     1       9.745  77.408   1.244  1.00  0.00    -0.028 C 
ATOM      4  C   UNL     1      10.718  78.313   0.985  1.00  0.00    -0.027 C 
BRANCH   4   5
ATOM      5  C   UNL     1      11.032  79.084  -0.301  1.00  0.00     0.014 C 
BRANCH   5   6
ATOM      6  C   UNL     1       9.928  80.120  -0.704  1.00  0.00     0.004 C 
ATOM      7  C   UNL     1       8.843  79.673  -1.709  1.00  0.00     0.004 C 
ENDBRANCH   5   6
BRANCH   5   8
ATOM      8  C   UNL     1      11.655  78.189  -1.424  1.00  0.00    -0.011 C 
ATOM      9  C   UNL     1      12.301  79.031  -2.540  1.00  0.00     0.008 C 
ATOM     10  C   UNL     1      12.741  77.245  -0.868  1.00  0.00     0.008 C 
ENDBRANCH   5   8
ENDBRANCH   4   5
ENDBRANCH   1   3
BRANCH   1  11
ATOM     11  C   UNL     1       8.734  75.521  -0.191  1.00  0.00     0.002 C 
ATOM     12  C   UNL     1      10.103  74.888   0.084  1.00  0.00     0.005 C 
ATOM     13  C   UNL     1       8.348  75.134  -1.660  1.00  0.00    -0.026 C 
ATOM     14  C   UNL     1      10.249  73.715  -0.877  1.00  0.00     0.005 C 
ATOM     15  C   UNL     1       9.051  73.753  -1.845  1.00  0.00    -0.001 C 
ATOM     16  C   UNL     1       8.801  76.143  -2.767  1.00  0.00     0.007 C 
ATOM     17  C   UNL     1       6.814  74.943  -1.787  1.00  0.00     0.012 C 
ATOM     18  C   UNL     1       9.410  73.432  -3.332  1.00  0.00     0.000 C 
ATOM     19  C   UNL     1      10.222  75.876  -3.277  1.00  0.00     0.005 C 
ATOM     20  C   UNL     1      10.286  74.527  -4.050  1.00  0.00     0.003 C 
ATOM     21  C   UNL     1       9.940  72.000  -3.506  1.00  0.00     0.031 C 
ATOM     22  C   UNL     1      11.740  74.050  -4.528  1.00  0.00    -0.008 C 
ATOM     23  C   UNL     1      11.410  71.917  -3.257  1.00  0.00    -0.027 C 
ATOM     24  C   UNL     1      12.261  72.863  -3.700  1.00  0.00    -0.065 C 
ATOM     25  C   UNL     1      12.778  75.223  -4.490  1.00  0.00     0.014 C 
ATOM     26  C   UNL     1      11.639  73.567  -6.002  1.00  0.00     0.016 C 
ATOM     27  C   UNL     1      13.743  72.531  -3.669  1.00  0.00     0.063 C 
ATOM     28  C   UNL     1      14.234  74.780  -4.680  1.00  0.00     0.033 C 
ATOM     29  C   UNL     1      14.634  73.770  -3.597  1.00  0.00     0.118 C 
BRANCH  29  30
ATOM     30  O   UNL     1      14.531  74.346  -2.317  1.00  0.00    -0.393 OA
ATOM     31  H   UNL     1      13.563  74.398  -2.106  1.00  0.00     0.210 HD
ENDBRANCH  29  30
ENDBRANCH   1  11
TORSDOF 6
ENDMDL
MODEL 5
REMARK VINA RESULT:    -7.925      1.021      1.701
REMARK INTER + INTRA:         -12.125
REMARK INTER:                 -10.531
REMARK INTRA:                  -1.594
REMARK UNBOUND:                -1.653
REMARK SMILES CC[C@@H](C=C[C@H](C)[C@@H]1CC[C@@H]2[C@@H]3CC=C4C[C@H](O)CC[C@]4(C)[C@@H]3CC[C@@]21C)C(C)C
REMARK SMILES IDX 6 1 7 2 5 3 4 4 3 5 2 6 1 7 28 8 29 9 30 10 8 11 9 12 26 13
REMARK SMILES IDX 10 14 11 15 25 16 27 17 12 18 24 19 23 20 13 21 21 22 14 23
REMARK SMILES IDX 15 24 20 25 22 26 16 27 19 28 17 29 18 30
REMARK H PARENT 18 31
REMARK Flexibility Score: inf
ROOT
ATOM      1  C   UNL     1      11.309  79.280   0.283  1.00  0.00     0.012 C 
ATOM      2  C   UNL     1      12.206  79.967   1.338  1.00  0.00     0.012 C 
ENDROOT
BRANCH   1   3
ATOM      3  C   UNL     1      10.087  80.125  -0.002  1.00  0.00    -0.028 C 
ATOM      4  C   UNL     1       8.843  79.983   0.510  1.00  0.00    -0.027 C 
BRANCH   4   5
ATOM      5  C   UNL     1       8.266  78.887   1.413  1.00  0.00     0.014 C 
BRANCH   5   6
ATOM      6  C   UNL     1       9.060  78.683   2.748  1.00  0.00     0.004 C 
ATOM      7  C   UNL     1       8.327  78.955   4.080  1.00  0.00     0.004 C 
ENDBRANCH   5   6
BRANCH   5   8
ATOM      8  C   UNL     1       7.798  77.617   0.626  1.00  0.00    -0.011 C 
ATOM      9  C   UNL     1       8.872  76.513   0.624  1.00  0.00     0.008 C 
ATOM     10  C   UNL     1       6.511  77.013   1.225  1.00  0.00     0.008 C 
ENDBRANCH   5   8
ENDBRANCH   4   5
ENDBRANCH   1   3
BRANCH   1  11
ATOM     11  C   UNL     1      12.037  78.776  -1.012  1.00  0.00     0.002 C 
ATOM     12  C   UNL     1      11.078  78.379  -2.140  1.00  0.00     0.005 C 
ATOM     13  C   UNL     1      13.151  77.674  -0.964  1.00  0.00    -0.026 C 
ATOM     14  C   UNL     1      11.860  77.487  -3.094  1.00  0.00     0.005 C 
ATOM     15  C   UNL     1      13.231  77.203  -2.449  1.00  0.00    -0.001 C 
ATOM     16  C   UNL     1      12.866  76.465  -0.010  1.00  0.00     0.007 C 
ATOM     17  C   UNL     1      14.512  78.294  -0.554  1.00  0.00     0.012 C 
ATOM     18  C   UNL     1      13.729  75.730  -2.609  1.00  0.00     0.000 C 
ATOM     19  C   UNL     1      12.062  75.347  -0.683  1.00  0.00     0.005 C 
ATOM     20  C   UNL     1      12.900  74.662  -1.801  1.00  0.00     0.003 C 
ATOM     21  C   UNL     1      13.963  75.352  -4.080  1.00  0.00     0.031 C 
ATOM     22  C   UNL     1      12.140  73.560  -2.684  1.00  0.00    -0.008 C 
ATOM     23  C   UNL     1      12.710  74.874  -4.738  1.00  0.00    -0.027 C 
ATOM     24  C   UNL     1      11.840  74.063  -4.106  1.00  0.00    -0.065 C 
ATOM     25  C   UNL     1      10.816  73.078  -1.998  1.00  0.00     0.014 C 
ATOM     26  C   UNL     1      13.067  72.320  -2.825  1.00  0.00     0.016 C 
ATOM     27  C   UNL     1      10.775  73.392  -4.956  1.00  0.00     0.063 C 
ATOM     28  C   UNL     1       9.914  72.228  -2.902  1.00  0.00     0.033 C 
ATOM     29  C   UNL     1       9.527  73.010  -4.163  1.00  0.00     0.118 C 
BRANCH  29  30
ATOM     30  O   UNL     1       8.811  74.174  -3.827  1.00  0.00    -0.393 OA
ATOM     31  H   UNL     1       8.499  74.055  -2.893  1.00  0.00     0.210 HD
ENDBRANCH  29  30
ENDBRANCH   1  11
TORSDOF 6
ENDMDL
MODEL 6
REMARK VINA RESULT:    -7.881      2.221      6.672
REMARK INTER + INTRA:         -12.068
REMARK INTER:                 -10.104
REMARK INTRA:                  -1.964
REMARK UNBOUND:                -1.653
REMARK SMILES CC[C@@H](C=C[C@H](C)[C@@H]1CC[C@@H]2[C@@H]3CC=C4C[C@H](O)CC[C@]4(C)[C@@H]3CC[C@@]21C)C(C)C
REMARK SMILES IDX 6 1 7 2 5 3 4 4 3 5 2 6 1 7 28 8 29 9 30 10 8 11 9 12 26 13
REMARK SMILES IDX 10 14 11 15 25 16 27 17 12 18 24 19 23 20 13 21 21 22 14 23
REMARK SMILES IDX 15 24 20 25 22 26 16 27 19 28 17 29 18 30
REMARK H PARENT 18 31
REMARK Flexibility Score: inf
ROOT
ATOM      1  C   UNL     1      10.967  72.347  -2.324  1.00  0.00     0.012 C 
ATOM      2  C   UNL     1      11.104  70.872  -1.885  1.00  0.00     0.012 C 
ENDROOT
BRANCH   1   3
ATOM      3  C   UNL     1       9.513  72.696  -2.555  1.00  0.00    -0.028 C 
ATOM      4  C   UNL     1       8.956  73.232  -3.665  1.00  0.00    -0.027 C 
BRANCH   4   5
ATOM      5  C   UNL     1       9.614  73.750  -4.949  1.00  0.00     0.014 C 
BRANCH   5   6
ATOM      6  C   UNL     1       8.820  74.906  -5.645  1.00  0.00     0.004 C 
ATOM      7  C   UNL     1       8.038  75.894  -4.751  1.00  0.00     0.004 C 
ENDBRANCH   5   6
BRANCH   5   8
ATOM      8  C   UNL     1      10.205  72.610  -5.846  1.00  0.00    -0.011 C 
ATOM      9  C   UNL     1      11.721  72.440  -5.635  1.00  0.00     0.008 C 
ATOM     10  C   UNL     1       9.540  71.249  -5.555  1.00  0.00     0.008 C 
ENDBRANCH   5   8
ENDBRANCH   4   5
ENDBRANCH   1   3
BRANCH   1  11
ATOM     11  C   UNL     1      11.730  73.398  -1.442  1.00  0.00     0.002 C 
ATOM     12  C   UNL     1      10.840  74.081  -0.397  1.00  0.00     0.005 C 
ATOM     13  C   UNL     1      12.623  74.520  -2.074  1.00  0.00    -0.026 C 
ATOM     14  C   UNL     1      11.552  75.361   0.020  1.00  0.00     0.005 C 
ATOM     15  C   UNL     1      12.776  75.536  -0.899  1.00  0.00    -0.001 C 
ATOM     16  C   UNL     1      12.033  75.221  -3.343  1.00  0.00     0.007 C 
ATOM     17  C   UNL     1      14.020  73.959  -2.445  1.00  0.00     0.012 C 
ATOM     18  C   UNL     1      13.025  77.004  -1.375  1.00  0.00     0.000 C 
ATOM     19  C   UNL     1      11.122  76.407  -3.005  1.00  0.00     0.005 C 
ATOM     20  C   UNL     1      11.942  77.567  -2.370  1.00  0.00     0.003 C 
ATOM     21  C   UNL     1      13.344  77.948  -0.205  1.00  0.00     0.031 C 
ATOM     22  C   UNL     1      11.099  78.825  -1.841  1.00  0.00    -0.008 C 
ATOM     23  C   UNL     1      12.104  78.489   0.428  1.00  0.00    -0.027 C 
ATOM     24  C   UNL     1      11.044  78.880  -0.305  1.00  0.00    -0.065 C 
ATOM     25  C   UNL     1       9.647  78.840  -2.428  1.00  0.00     0.014 C 
ATOM     26  C   UNL     1      11.806  80.125  -2.319  1.00  0.00     0.016 C 
ATOM     27  C   UNL     1       9.975  79.695   0.403  1.00  0.00     0.063 C 
ATOM     28  C   UNL     1       8.711  79.859  -1.764  1.00  0.00     0.033 C 
ATOM     29  C   UNL     1       8.602  79.586  -0.259  1.00  0.00     0.118 C 
BRANCH  29  30
ATOM     30  O   UNL     1       8.068  78.306  -0.022  1.00  0.00    -0.393 OA
ATOM     31  H   UNL     1       8.486  77.974   0.815  1.00  0.00     0.210 HD
ENDBRANCH  29  30
ENDBRANCH   1  11
TORSDOF 6
ENDMDL
MODEL 7
REMARK VINA RESULT:    -7.657      2.389      7.102
REMARK INTER + INTRA:         -11.772
REMARK INTER:                 -11.029
REMARK INTRA:                  -0.743
REMARK UNBOUND:                -1.653
REMARK SMILES CC[C@@H](C=C[C@H](C)[C@@H]1CC[C@@H]2[C@@H]3CC=C4C[C@H](O)CC[C@]4(C)[C@@H]3CC[C@@]21C)C(C)C
REMARK SMILES IDX 6 1 7 2 5 3 4 4 3 5 2 6 1 7 28 8 29 9 30 10 8 11 9 12 26 13
REMARK SMILES IDX 10 14 11 15 25 16 27 17 12 18 24 19 23 20 13 21 21 22 14 23
REMARK SMILES IDX 15 24 20 25 22 26 16 27 19 28 17 29 18 30
REMARK H PARENT 18 31
REMARK Flexibility Score: inf
ROOT
ATOM      1  C   UNL     1       9.999  73.024  -2.366  1.00  0.00     0.012 C 
ATOM      2  C   UNL     1       9.196  72.150  -1.375  1.00  0.00     0.012 C 
ENDROOT
BRANCH   1   3
ATOM      3  C   UNL     1      10.045  72.370  -3.729  1.00  0.00    -0.028 C 
ATOM      4  C   UNL     1      11.139  72.033  -4.450  1.00  0.00    -0.027 C 
BRANCH   4   5
ATOM      5  C   UNL     1      12.623  72.307  -4.180  1.00  0.00     0.014 C 
BRANCH   5   6
ATOM      6  C   UNL     1      13.003  72.292  -2.661  1.00  0.00     0.004 C 
ATOM      7  C   UNL     1      14.452  72.660  -2.270  1.00  0.00     0.004 C 
ENDBRANCH   5   6
BRANCH   5   8
ATOM      8  C   UNL     1      13.218  73.439  -5.084  1.00  0.00    -0.011 C 
ATOM      9  C   UNL     1      12.254  73.839  -6.217  1.00  0.00     0.008 C 
ATOM     10  C   UNL     1      13.535  74.713  -4.273  1.00  0.00     0.008 C 
ENDBRANCH   5   8
ENDBRANCH   4   5
ENDBRANCH   1   3
BRANCH   1  11
ATOM     11  C   UNL     1       9.606  74.542  -2.413  1.00  0.00     0.002 C 
ATOM     12  C   UNL     1      10.470  75.369  -3.372  1.00  0.00     0.005 C 
ATOM     13  C   UNL     1       9.438  75.398  -1.110  1.00  0.00    -0.026 C 
ATOM     14  C   UNL     1      10.316  76.827  -2.961  1.00  0.00     0.005 C 
ATOM     15  C   UNL     1       9.505  76.860  -1.651  1.00  0.00    -0.001 C 
ATOM     16  C   UNL     1      10.518  75.163  -0.002  1.00  0.00     0.007 C 
ATOM     17  C   UNL     1       8.043  75.155  -0.476  1.00  0.00     0.012 C 
ATOM     18  C   UNL     1      10.021  77.891  -0.595  1.00  0.00     0.000 C 
ATOM     19  C   UNL     1      11.764  76.039  -0.183  1.00  0.00     0.005 C 
ATOM     20  C   UNL     1      11.418  77.540   0.040  1.00  0.00     0.003 C 
ATOM     21  C   UNL     1       9.912  79.339  -1.096  1.00  0.00     0.031 C 
ATOM     22  C   UNL     1      12.596  78.590  -0.248  1.00  0.00    -0.008 C 
ATOM     23  C   UNL     1      11.106  79.742  -1.898  1.00  0.00    -0.027 C 
ATOM     24  C   UNL     1      12.356  79.389  -1.539  1.00  0.00    -0.065 C 
ATOM     25  C   UNL     1      13.997  77.890  -0.306  1.00  0.00     0.014 C 
ATOM     26  C   UNL     1      12.638  79.614   0.921  1.00  0.00     0.016 C 
ATOM     27  C   UNL     1      13.504  80.102  -2.234  1.00  0.00     0.063 C 
ATOM     28  C   UNL     1      15.125  78.785  -0.834  1.00  0.00     0.033 C 
ATOM     29  C   UNL     1      14.796  79.287  -2.246  1.00  0.00     0.118 C 
BRANCH  29  30
ATOM     30  O   UNL     1      14.660  78.207  -3.139  1.00  0.00    -0.393 OA
ATOM     31  H   UNL     1      14.706  77.380  -2.593  1.00  0.00     0.210 HD
ENDBRANCH  29  30
ENDBRANCH   1  11
TORSDOF 6
ENDMDL
