MODEL 1
REMARK VINA RESULT:     1.289      0.000      0.000
REMARK INTER + INTRA:           1.679
REMARK INTER:                   2.043
REMARK INTRA:                  -0.364
REMARK UNBOUND:                -0.364
REMARK SMILES C[C@@H]1O[C@H](OC[C@@H]2O[C@@H](Oc3c(-c4ccc(O)c(O)c4)oc4cc(O)cc(O)c4c3=O)[C@@H](O)[C@@H](O)[C@H]2O)[C@H](O)[C@@H](O)[C@H]1O
REMARK SMILES IDX 7 1 36 2 34 3 32 4 9 5 8 6 6 7 5 8 4 9 1 10 2 11 42 12 3 13
REMARK SMILES IDX 40 14 38 15 43 16 41 18 39 20 37 22 35 24 10 26 11 27 12 28
REMARK SMILES IDX 30 29 21 30 29 31 31 32 22 33 27 34 23 35 26 36 24 37 13 38
REMARK SMILES IDX 20 39 14 40 18 41 15 42 16 43 19 44 17 46 28 48 25 50 33 52
REMARK H PARENT 43 17 41 19 39 21 37 23 35 25 19 45 17 47 28 49 25 51 33 53
REMARK Flexibility Score: inf
ROOT
ATOM      1  C   UNL     1      -9.389   6.386   6.165  1.00  0.00     0.180 C 
ATOM      2  C   UNL     1     -10.380   5.145   5.672  1.00  0.00     0.177 C 
ATOM      3  C   UNL     1     -10.950   4.070   6.733  1.00  0.00     0.180 C 
ATOM      4  C   UNL     1     -10.086   4.417   8.005  1.00  0.00     0.214 C 
ATOM      5  C   UNL     1      -9.803   5.944   8.285  1.00  0.00     0.339 C 
ATOM      6  O   UNL     1      -8.747   6.243   7.426  1.00  0.00    -0.332 OA
ENDROOT
BRANCH   1   7
ATOM      7  C   UNL     1      -8.400   7.020   5.220  1.00  0.00     0.198 C 
BRANCH   7   8
ATOM      8  O   UNL     1      -8.739   8.400   5.152  1.00  0.00    -0.347 OA
BRANCH   8   9
ATOM      9  C   UNL     1      -7.614   9.244   5.172  1.00  0.00     0.281 C 
ATOM     10  C   UNL     1      -8.602  11.898   6.948  1.00  0.00     0.041 C 
ATOM     11  C   UNL     1      -7.679  11.655   5.723  1.00  0.00     0.150 C 
ATOM     12  C   UNL     1      -6.103  11.432   5.939  1.00  0.00     0.174 C 
ATOM     13  O   UNL     1      -8.159  10.540   4.903  1.00  0.00    -0.344 OA
ATOM     14  C   UNL     1      -5.821  10.221   6.891  1.00  0.00     0.179 C 
ATOM     15  C   UNL     1      -6.930   9.095   6.572  1.00  0.00     0.202 C 
BRANCH  12  16
ATOM     16  O   UNL     1      -5.590  11.285   4.644  1.00  0.00    -0.388 OA
ATOM     17  H   UNL     1      -5.574  12.176   4.211  1.00  0.00     0.211 HD
ENDBRANCH  12  16
BRANCH  14  18
ATOM     18  O   UNL     1      -4.518   9.695   6.580  1.00  0.00    -0.387 OA
ATOM     19  H   UNL     1      -4.180   9.189   7.393  1.00  0.00     0.211 HD
ENDBRANCH  14  18
BRANCH  15  20
ATOM     20  O   UNL     1      -7.856   8.969   7.628  1.00  0.00    -0.385 OA
ATOM     21  H   UNL     1      -7.434   9.390   8.447  1.00  0.00     0.211 HD
ENDBRANCH  15  20
ENDBRANCH   8   9
ENDBRANCH   7   8
ENDBRANCH   1   7
BRANCH   2  22
ATOM     22  O   UNL     1     -10.839   5.018   4.374  1.00  0.00    -0.387 OA
ATOM     23  H   UNL     1     -11.436   4.202   4.405  1.00  0.00     0.211 HD
ENDBRANCH   2  22
BRANCH   3  24
ATOM     24  O   UNL     1     -12.316   4.172   7.092  1.00  0.00    -0.387 OA
ATOM     25  H   UNL     1     -12.766   3.383   6.627  1.00  0.00     0.211 HD
ENDBRANCH   3  24
BRANCH   5  26
ATOM     26  O   UNL     1     -10.794   7.094   8.406  1.00  0.00    -0.454 OA
BRANCH  26  27
ATOM     27  C   UNL     1     -11.985   7.716   7.618  1.00  0.00     0.214 A 
ATOM     28  C   UNL     1     -12.403   7.194   6.272  1.00  0.00     0.180 A 
ATOM     29  C   UNL     1     -12.482   9.086   7.905  1.00  0.00     0.239 A 
ATOM     30  O   UNL     1     -12.712   8.175   5.485  1.00  0.00    -0.452 OA
ATOM     31  C   UNL     1     -12.410   9.984   6.835  1.00  0.00     0.111 A 
ATOM     32  O   UNL     1     -13.415   9.329   8.733  1.00  0.00    -0.285 OA
ATOM     33  C   UNL     1     -12.281   9.423   5.604  1.00  0.00     0.146 A 
ATOM     34  C   UNL     1     -12.293  11.438   6.911  1.00  0.00     0.134 A 
ATOM     35  C   UNL     1     -11.754  10.058   4.538  1.00  0.00     0.094 A 
ATOM     36  C   UNL     1     -11.640  12.092   5.852  1.00  0.00     0.093 A 
ATOM     37  C   UNL     1     -11.304  11.381   4.663  1.00  0.00     0.123 A 
BRANCH  28  38
ATOM     38  C   UNL     1     -13.472   7.165   4.913  1.00  0.00     0.025 A 
ATOM     39  C   UNL     1     -13.586   8.323   3.888  1.00  0.00     0.062 A 
ATOM     40  C   UNL     1     -14.326   6.043   4.588  1.00  0.00     0.016 A 
ATOM     41  C   UNL     1     -13.864   8.114   2.595  1.00  0.00     0.158 A 
ATOM     42  C   UNL     1     -15.125   6.221   3.368  1.00  0.00     0.051 A 
ATOM     43  C   UNL     1     -14.542   6.915   2.347  1.00  0.00     0.157 A 
BRANCH  41  44
ATOM     44  O   UNL     1     -13.557   9.062   1.677  1.00  0.00    -0.504 OA
ATOM     45  H   UNL     1     -14.238   9.531   1.058  1.00  0.00     0.293 HD
ENDBRANCH  41  44
BRANCH  43  46
ATOM     46  O   UNL     1     -14.471   6.390   1.013  1.00  0.00    -0.504 OA
ATOM     47  H   UNL     1     -14.362   5.390   0.915  1.00  0.00     0.293 HD
ENDBRANCH  43  46
ENDBRANCH  28  38
BRANCH  34  48
ATOM     48  O   UNL     1     -12.571  12.125   8.084  1.00  0.00    -0.507 OA
ATOM     49  H   UNL     1     -13.554  12.251   8.324  1.00  0.00     0.293 HD
ENDBRANCH  34  48
BRANCH  37  50
ATOM     50  O   UNL     1     -10.606  11.959   3.588  1.00  0.00    -0.508 OA
ATOM     51  H   UNL     1     -10.771  11.820   2.595  1.00  0.00     0.293 HD
ENDBRANCH  37  50
ENDBRANCH  26  27
ENDBRANCH   5  26
BRANCH   4  52
ATOM     52  O   UNL     1     -10.217   3.495   9.100  1.00  0.00    -0.384 OA
ATOM     53  H   UNL     1     -11.137   3.542   9.467  1.00  0.00     0.211 HD
ENDBRANCH   4  52
TORSDOF 16
ENDMDL
MODEL 2
REMARK VINA RESULT:     3.249      1.675      5.528
REMARK INTER + INTRA:           4.785
REMARK INTER:                   0.815
REMARK INTRA:                   3.970
REMARK UNBOUND:                -0.364
REMARK SMILES C[C@@H]1O[C@H](OC[C@@H]2O[C@@H](Oc3c(-c4ccc(O)c(O)c4)oc4cc(O)cc(O)c4c3=O)[C@@H](O)[C@@H](O)[C@H]2O)[C@H](O)[C@@H](O)[C@H]1O
REMARK SMILES IDX 7 1 36 2 34 3 32 4 9 5 8 6 6 7 5 8 4 9 1 10 2 11 42 12 3 13
REMARK SMILES IDX 40 14 38 15 43 16 41 18 39 20 37 22 35 24 10 26 11 27 12 28
REMARK SMILES IDX 30 29 21 30 29 31 31 32 22 33 27 34 23 35 26 36 24 37 13 38
REMARK SMILES IDX 20 39 14 40 18 41 15 42 16 43 19 44 17 46 28 48 25 50 33 52
REMARK H PARENT 43 17 41 19 39 21 37 23 35 25 19 45 17 47 28 49 25 51 33 53
REMARK Flexibility Score: inf
ROOT
ATOM      1  C   UNL     1     -10.255  11.601   6.965  1.00  0.00     0.180 C 
ATOM      2  C   UNL     1     -11.820  11.943   6.521  1.00  0.00     0.177 C 
ATOM      3  C   UNL     1     -12.251  11.973   4.965  1.00  0.00     0.180 C 
ATOM      4  C   UNL     1     -10.840  11.918   4.263  1.00  0.00     0.214 C 
ATOM      5  C   UNL     1      -9.752  10.977   4.912  1.00  0.00     0.339 C 
ATOM      6  O   UNL     1      -9.251  11.737   5.967  1.00  0.00    -0.332 OA
ENDROOT
BRANCH   1   7
ATOM      7  C   UNL     1      -9.681  12.114   8.262  1.00  0.00     0.198 C 
BRANCH   7   8
ATOM      8  O   UNL     1      -8.268  12.125   8.098  1.00  0.00    -0.347 OA
BRANCH   8   9
ATOM      9  C   UNL     1      -7.832  11.316   7.033  1.00  0.00     0.281 C 
ATOM     10  C   UNL     1      -4.508  11.209   7.382  1.00  0.00     0.041 C 
ATOM     11  C   UNL     1      -5.506  11.239   6.191  1.00  0.00     0.150 C 
ATOM     12  C   UNL     1      -6.013   9.863   5.537  1.00  0.00     0.174 C 
ATOM     13  O   UNL     1      -6.701  12.024   6.513  1.00  0.00    -0.344 OA
ATOM     14  C   UNL     1      -6.697   8.940   6.601  1.00  0.00     0.179 C 
ATOM     15  C   UNL     1      -7.512   9.897   7.610  1.00  0.00     0.202 C 
BRANCH  12  16
ATOM     16  O   UNL     1      -6.852  10.262   4.489  1.00  0.00    -0.388 OA
ATOM     17  H   UNL     1      -7.031   9.475   3.914  1.00  0.00     0.211 HD
ENDBRANCH  12  16
BRANCH  14  18
ATOM     18  O   UNL     1      -7.627   8.078   5.920  1.00  0.00    -0.387 OA
ATOM     19  H   UNL     1      -8.503   8.581   5.812  1.00  0.00     0.211 HD
ENDBRANCH  14  18
BRANCH  15  20
ATOM     20  O   UNL     1      -6.905   9.942   8.882  1.00  0.00    -0.385 OA
ATOM     21  H   UNL     1      -6.036  10.452   8.780  1.00  0.00     0.211 HD
ENDBRANCH  15  20
ENDBRANCH   8   9
ENDBRANCH   7   8
ENDBRANCH   1   7
BRANCH   2  22
ATOM     22  O   UNL     1     -12.841  12.125   7.435  1.00  0.00    -0.387 OA
ATOM     23  H   UNL     1     -12.625  13.013   7.870  1.00  0.00     0.211 HD
ENDBRANCH   2  22
BRANCH   3  24
ATOM     24  O   UNL     1     -13.021  10.888   4.482  1.00  0.00    -0.387 OA
ATOM     25  H   UNL     1     -12.958  10.179   5.214  1.00  0.00     0.211 HD
ENDBRANCH   3  24
BRANCH   5  26
ATOM     26  O   UNL     1      -9.852   9.498   5.260  1.00  0.00    -0.454 OA
BRANCH  26  27
ATOM     27  C   UNL     1     -10.844   8.508   5.938  1.00  0.00     0.214 A 
ATOM     28  C   UNL     1     -10.436   7.112   6.318  1.00  0.00     0.180 A 
ATOM     29  C   UNL     1     -12.316   8.693   5.852  1.00  0.00     0.239 A 
ATOM     30  O   UNL     1     -11.392   6.277   6.059  1.00  0.00    -0.452 OA
ATOM     31  C   UNL     1     -13.016   7.648   5.242  1.00  0.00     0.111 A 
ATOM     32  O   UNL     1     -12.987   9.343   6.715  1.00  0.00    -0.285 OA
ATOM     33  C   UNL     1     -12.356   6.462   5.168  1.00  0.00     0.146 A 
ATOM     34  C   UNL     1     -14.293   7.734   4.538  1.00  0.00     0.134 A 
ATOM     35  C   UNL     1     -12.629   5.503   4.262  1.00  0.00     0.094 A 
ATOM     36  C   UNL     1     -14.533   6.804   3.514  1.00  0.00     0.093 A 
ATOM     37  C   UNL     1     -13.655   5.697   3.324  1.00  0.00     0.123 A 
BRANCH  28  38
ATOM     38  C   UNL     1     -10.742   5.587   7.072  1.00  0.00     0.025 A 
ATOM     39  C   UNL     1     -11.435   4.400   6.353  1.00  0.00     0.062 A 
ATOM     40  C   UNL     1     -10.345   5.266   8.426  1.00  0.00     0.016 A 
ATOM     41  C   UNL     1     -11.136   3.123   6.622  1.00  0.00     0.158 A 
ATOM     42  C   UNL     1     -10.674   3.898   8.848  1.00  0.00     0.051 A 
ATOM     43  C   UNL     1     -10.591   2.923   7.895  1.00  0.00     0.157 A 
BRANCH  41  44
ATOM     44  O   UNL     1     -11.438   2.155   5.723  1.00  0.00    -0.504 OA
ATOM     45  H   UNL     1     -11.413   1.140   5.913  1.00  0.00     0.293 HD
ENDBRANCH  41  44
BRANCH  43  46
ATOM     46  O   UNL     1      -9.831   1.722   8.099  1.00  0.00    -0.504 OA
ATOM     47  H   UNL     1      -8.825   1.796   8.032  1.00  0.00     0.293 HD
ENDBRANCH  43  46
ENDBRANCH  28  38
BRANCH  34  48
ATOM     48  O   UNL     1     -15.125   8.836   4.684  1.00  0.00    -0.507 OA
ATOM     49  H   UNL     1     -14.714   9.751   4.504  1.00  0.00     0.293 HD
ENDBRANCH  34  48
BRANCH  37  50
ATOM     50  O   UNL     1     -13.805   4.758   2.288  1.00  0.00    -0.508 OA
ATOM     51  H   UNL     1     -13.633   4.896   1.296  1.00  0.00     0.293 HD
ENDBRANCH  37  50
ENDBRANCH  26  27
ENDBRANCH   5  26
BRANCH   4  52
ATOM     52  O   UNL     1     -10.859  12.125   2.841  1.00  0.00    -0.384 OA
ATOM     53  H   UNL     1     -10.644  11.274   2.378  1.00  0.00     0.211 HD
ENDBRANCH   4  52
TORSDOF 16
ENDMDL
MODEL 3
REMARK VINA RESULT:     4.019      1.747      5.560
REMARK INTER + INTRA:           6.004
REMARK INTER:                   5.714
REMARK INTRA:                   0.291
REMARK UNBOUND:                -0.364
REMARK SMILES C[C@@H]1O[C@H](OC[C@@H]2O[C@@H](Oc3c(-c4ccc(O)c(O)c4)oc4cc(O)cc(O)c4c3=O)[C@@H](O)[C@@H](O)[C@H]2O)[C@H](O)[C@@H](O)[C@H]1O
REMARK SMILES IDX 7 1 36 2 34 3 32 4 9 5 8 6 6 7 5 8 4 9 1 10 2 11 42 12 3 13
REMARK SMILES IDX 40 14 38 15 43 16 41 18 39 20 37 22 35 24 10 26 11 27 12 28
REMARK SMILES IDX 30 29 21 30 29 31 31 32 22 33 27 34 23 35 26 36 24 37 13 38
REMARK SMILES IDX 20 39 14 40 18 41 15 42 16 43 19 44 17 46 28 48 25 50 33 52
REMARK H PARENT 43 17 41 19 39 21 37 23 35 25 19 45 17 47 28 49 25 51 33 53
REMARK Flexibility Score: inf
ROOT
ATOM      1  C   UNL     1      -8.980  10.967   6.736  1.00  0.00     0.180 C 
ATOM      2  C   UNL     1     -10.430  11.779   6.790  1.00  0.00     0.177 C 
ATOM      3  C   UNL     1     -11.243  12.112   5.435  1.00  0.00     0.180 C 
ATOM      4  C   UNL     1     -10.164  11.753   4.343  1.00  0.00     0.214 C 
ATOM      5  C   UNL     1      -9.273  10.477   4.607  1.00  0.00     0.339 C 
ATOM      6  O   UNL     1      -8.298  10.938   5.489  1.00  0.00    -0.332 OA
ENDROOT
BRANCH   1   7
ATOM      7  C   UNL     1      -7.945  11.143   7.818  1.00  0.00     0.198 C 
BRANCH   7   8
ATOM      8  O   UNL     1      -7.032  12.124   7.342  1.00  0.00    -0.347 OA
BRANCH   8   9
ATOM      9  C   UNL     1      -5.727  11.625   7.175  1.00  0.00     0.281 C 
ATOM     10  C   UNL     1      -6.120   8.900   5.278  1.00  0.00     0.041 C 
ATOM     11  C   UNL     1      -5.189   9.322   6.447  1.00  0.00     0.150 C 
ATOM     12  C   UNL     1      -3.759   9.982   6.134  1.00  0.00     0.174 C 
ATOM     13  O   UNL     1      -5.876  10.217   7.384  1.00  0.00    -0.344 OA
ATOM     14  C   UNL     1      -3.903  11.272   5.260  1.00  0.00     0.179 C 
ATOM     15  C   UNL     1      -5.240  12.031   5.744  1.00  0.00     0.202 C 
BRANCH  12  16
ATOM     16  O   UNL     1      -3.188  10.195   7.395  1.00  0.00    -0.388 OA
ATOM     17  H   UNL     1      -3.009   9.314   7.811  1.00  0.00     0.211 HD
ENDBRANCH  12  16
BRANCH  14  18
ATOM     18  O   UNL     1      -2.767  12.120   5.513  1.00  0.00    -0.387 OA
ATOM     19  H   UNL     1      -2.923  13.006   5.041  1.00  0.00     0.211 HD
ENDBRANCH  14  18
BRANCH  15  20
ATOM     20  O   UNL     1      -6.258  11.954   4.772  1.00  0.00    -0.385 OA
ATOM     21  H   UNL     1      -7.133  11.819   5.265  1.00  0.00     0.211 HD
ENDBRANCH  15  20
ENDBRANCH   8   9
ENDBRANCH   7   8
ENDBRANCH   1   7
BRANCH   2  22
ATOM     22  O   UNL     1     -11.057  12.125   7.973  1.00  0.00    -0.387 OA
ATOM     23  H   UNL     1     -12.038  11.959   7.788  1.00  0.00     0.211 HD
ENDBRANCH   2  22
BRANCH   3  24
ATOM     24  O   UNL     1     -12.405  11.347   5.169  1.00  0.00    -0.387 OA
ATOM     25  H   UNL     1     -12.186  10.413   5.518  1.00  0.00     0.211 HD
ENDBRANCH   3  24
BRANCH   5  26
ATOM     26  O   UNL     1      -9.711   9.053   4.920  1.00  0.00    -0.454 OA
BRANCH  26  27
ATOM     27  C   UNL     1     -10.789   8.306   5.759  1.00  0.00     0.214 A 
ATOM     28  C   UNL     1     -10.638   6.859   6.136  1.00  0.00     0.180 A 
ATOM     29  C   UNL     1     -12.186   8.802   5.859  1.00  0.00     0.239 A 
ATOM     30  O   UNL     1     -11.775   6.245   6.035  1.00  0.00    -0.452 OA
ATOM     31  C   UNL     1     -13.167   7.926   5.385  1.00  0.00     0.111 A 
ATOM     32  O   UNL     1     -12.582   9.589   6.776  1.00  0.00    -0.285 OA
ATOM     33  C   UNL     1     -12.789   6.625   5.271  1.00  0.00     0.146 A 
ATOM     34  C   UNL     1     -14.481   8.278   4.851  1.00  0.00     0.134 A 
ATOM     35  C   UNL     1     -13.379   5.738   4.446  1.00  0.00     0.094 A 
ATOM     36  C   UNL     1     -15.048   7.410   3.903  1.00  0.00     0.093 A 
ATOM     37  C   UNL     1     -14.458   6.139   3.643  1.00  0.00     0.123 A 
BRANCH  28  38
ATOM     38  C   UNL     1     -11.155   5.442   6.981  1.00  0.00     0.025 A 
ATOM     39  C   UNL     1     -11.331   4.057   6.304  1.00  0.00     0.062 A 
ATOM     40  C   UNL     1     -11.430   5.409   8.401  1.00  0.00     0.016 A 
ATOM     41  C   UNL     1     -11.105   2.907   6.950  1.00  0.00     0.158 A 
ATOM     42  C   UNL     1     -11.821   4.089   8.915  1.00  0.00     0.051 A 
ATOM     43  C   UNL     1     -11.222   3.005   8.341  1.00  0.00     0.157 A 
BRANCH  41  44
ATOM     44  O   UNL     1     -10.870   1.773   6.247  1.00  0.00    -0.504 OA
ATOM     45  H   UNL     1      -9.937   1.362   6.078  1.00  0.00     0.293 HD
ENDBRANCH  41  44
BRANCH  43  46
ATOM     46  O   UNL     1     -10.566   1.995   9.123  1.00  0.00    -0.504 OA
ATOM     47  H   UNL     1     -10.563   1.054   8.755  1.00  0.00     0.293 HD
ENDBRANCH  43  46
ENDBRANCH  28  38
BRANCH  34  48
ATOM     48  O   UNL     1     -15.033   9.533   5.061  1.00  0.00    -0.507 OA
ATOM     49  H   UNL     1     -15.783   9.599   5.748  1.00  0.00     0.293 HD
ENDBRANCH  34  48
BRANCH  37  50
ATOM     50  O   UNL     1     -14.942   5.245   2.672  1.00  0.00    -0.508 OA
ATOM     51  H   UNL     1     -14.912   4.229   2.693  1.00  0.00     0.293 HD
ENDBRANCH  37  50
ENDBRANCH  26  27
ENDBRANCH   5  26
BRANCH   4  52
ATOM     52  O   UNL     1     -10.512  12.125   2.999  1.00  0.00    -0.384 OA
ATOM     53  H   UNL     1      -9.995  11.572   2.357  1.00  0.00     0.211 HD
ENDBRANCH   4  52
TORSDOF 16
ENDMDL
