MODEL 1
REMARK VINA RESULT:    -4.549      0.000      0.000
REMARK INTER + INTRA:          -9.368
REMARK INTER:                  -8.272
REMARK INTRA:                  -1.096
REMARK UNBOUND:                -1.096
REMARK SMILES CCCCCCCCCCCCCCCC(=O)[O-]
REMARK SMILES IDX 9 1 10 2 11 3 12 4 13 5 14 6 15 7 16 8 17 9 18 10 8 11 7 12
REMARK SMILES IDX 6 13 5 14 4 15 3 16 2 17 1 18
REMARK H PARENT
REMARK Flexibility Score: inf
ROOT
ATOM      1  C   UNL     1      10.237  14.238  24.270  1.00  0.00     0.000 C 
ENDROOT
BRANCH   1   2
ATOM      2  C   UNL     1       9.665  15.473  24.988  1.00  0.00     0.000 C 
BRANCH   2   3
ATOM      3  C   UNL     1       9.915  16.821  24.280  1.00  0.00     0.000 C 
BRANCH   3   4
ATOM      4  C   UNL     1      11.152  16.859  23.361  1.00  0.00     0.000 C 
BRANCH   4   5
ATOM      5  C   UNL     1      10.893  17.418  21.951  1.00  0.00     0.000 C 
BRANCH   5   6
ATOM      6  C   UNL     1      10.115  16.439  21.054  1.00  0.00     0.006 C 
BRANCH   6   7
ATOM      7  C   UNL     1      10.874  15.123  20.841  1.00  0.00     0.053 C 
BRANCH   7   8
ATOM      8  C   UNL     1      10.994  14.781  19.388  1.00  0.00     0.041 C 
ATOM      9  O   UNL     1      11.233  15.682  18.542  1.00  0.00    -0.550 OA
ATOM     10  O   UNL     1      10.802  13.471  18.963  1.00  0.00    -0.550 OA
ENDBRANCH   7   8
ENDBRANCH   6   7
ENDBRANCH   5   6
ENDBRANCH   4   5
ENDBRANCH   3   4
ENDBRANCH   2   3
ENDBRANCH   1   2
BRANCH   1  11
ATOM     11  C   UNL     1       9.172  13.169  23.978  1.00  0.00     0.000 C 
BRANCH  11  12
ATOM     12  C   UNL     1       8.786  12.347  25.222  1.00  0.00    -0.000 C 
BRANCH  12  13
ATOM     13  C   UNL     1       9.731  11.180  25.565  1.00  0.00    -0.000 C 
BRANCH  13  14
ATOM     14  C   UNL     1       9.755  10.088  24.482  1.00  0.00    -0.000 C 
BRANCH  14  15
ATOM     15  C   UNL     1       8.675   9.012  24.694  1.00  0.00    -0.000 C 
BRANCH  15  16
ATOM     16  C   UNL     1       8.440   8.590  26.159  1.00  0.00    -0.000 C 
BRANCH  16  17
ATOM     17  C   UNL     1       9.113   7.270  26.572  1.00  0.00    -0.003 C 
ATOM     18  C   UNL     1       8.519   6.672  27.846  1.00  0.00     0.004 C 
ENDBRANCH  16  17
ENDBRANCH  15  16
ENDBRANCH  14  15
ENDBRANCH  13  14
ENDBRANCH  12  13
ENDBRANCH  11  12
ENDBRANCH   1  11
TORSDOF 14
ENDMDL
MODEL 2
REMARK VINA RESULT:    -4.305      2.376      6.226
REMARK INTER + INTRA:          -8.924
REMARK INTER:                  -6.875
REMARK INTRA:                  -2.049
REMARK UNBOUND:                -1.096
REMARK SMILES CCCCCCCCCCCCCCCC(=O)[O-]
REMARK SMILES IDX 9 1 10 2 11 3 12 4 13 5 14 6 15 7 16 8 17 9 18 10 8 11 7 12
REMARK SMILES IDX 6 13 5 14 4 15 3 16 2 17 1 18
REMARK H PARENT
REMARK Flexibility Score: inf
ROOT
ATOM      1  C   UNL     1       8.505  12.931  25.730  1.00  0.00     0.000 C 
ENDROOT
BRANCH   1   2
ATOM      2  C   UNL     1       9.390  11.908  24.995  1.00  0.00     0.000 C 
BRANCH   2   3
ATOM      3  C   UNL     1       9.216  11.870  23.463  1.00  0.00     0.000 C 
BRANCH   3   4
ATOM      4  C   UNL     1      10.437  12.345  22.651  1.00  0.00     0.000 C 
BRANCH   4   5
ATOM      5  C   UNL     1      10.803  13.828  22.841  1.00  0.00     0.000 C 
BRANCH   5   6
ATOM      6  C   UNL     1      10.181  14.738  21.769  1.00  0.00     0.006 C 
BRANCH   6   7
ATOM      7  C   UNL     1      11.237  15.329  20.826  1.00  0.00     0.053 C 
BRANCH   7   8
ATOM      8  C   UNL     1      11.059  14.847  19.420  1.00  0.00     0.041 C 
ATOM      9  O   UNL     1      11.249  15.630  18.453  1.00  0.00    -0.550 OA
ATOM     10  O   UNL     1      10.646  13.543  19.178  1.00  0.00    -0.550 OA
ENDBRANCH   7   8
ENDBRANCH   6   7
ENDBRANCH   5   6
ENDBRANCH   4   5
ENDBRANCH   3   4
ENDBRANCH   2   3
ENDBRANCH   1   2
BRANCH   1  11
ATOM     11  C   UNL     1       7.875  13.965  24.784  1.00  0.00     0.000 C 
BRANCH  11  12
ATOM     12  C   UNL     1       8.285  15.413  25.114  1.00  0.00    -0.000 C 
BRANCH  12  13
ATOM     13  C   UNL     1       9.607  15.566  25.891  1.00  0.00    -0.000 C 
BRANCH  13  14
ATOM     14  C   UNL     1      10.538  16.630  25.286  1.00  0.00    -0.000 C 
BRANCH  14  15
ATOM     15  C   UNL     1       9.777  17.725  24.516  1.00  0.00    -0.000 C 
BRANCH  15  16
ATOM     16  C   UNL     1      10.433  18.184  23.197  1.00  0.00    -0.000 C 
BRANCH  16  17
ATOM     17  C   UNL     1       9.452  18.461  22.045  1.00  0.00    -0.003 C 
ATOM     18  C   UNL     1       8.985  19.915  21.999  1.00  0.00     0.004 C 
ENDBRANCH  16  17
ENDBRANCH  15  16
ENDBRANCH  14  15
ENDBRANCH  13  14
ENDBRANCH  12  13
ENDBRANCH  11  12
ENDBRANCH   1  11
TORSDOF 14
ENDMDL
MODEL 3
REMARK VINA RESULT:    -4.296      1.449      2.204
REMARK INTER + INTRA:          -8.907
REMARK INTER:                  -8.171
REMARK INTRA:                  -0.736
REMARK UNBOUND:                -1.096
REMARK SMILES CCCCCCCCCCCCCCCC(=O)[O-]
REMARK SMILES IDX 9 1 10 2 11 3 12 4 13 5 14 6 15 7 16 8 17 9 18 10 8 11 7 12
REMARK SMILES IDX 6 13 5 14 4 15 3 16 2 17 1 18
REMARK H PARENT
REMARK Flexibility Score: inf
ROOT
ATOM      1  C   UNL     1       9.901  12.324  24.639  1.00  0.00     0.000 C 
ENDROOT
BRANCH   1   2
ATOM      2  C   UNL     1       9.235  13.562  25.264  1.00  0.00     0.000 C 
BRANCH   2   3
ATOM      3  C   UNL     1       9.393  14.870  24.461  1.00  0.00     0.000 C 
BRANCH   3   4
ATOM      4  C   UNL     1      10.751  15.046  23.754  1.00  0.00     0.000 C 
BRANCH   4   5
ATOM      5  C   UNL     1      10.662  15.453  22.272  1.00  0.00     0.000 C 
BRANCH   5   6
ATOM      6  C   UNL     1       9.588  14.667  21.501  1.00  0.00     0.006 C 
BRANCH   6   7
ATOM      7  C   UNL     1       9.446  15.150  20.052  1.00  0.00     0.053 C 
BRANCH   7   8
ATOM      8  C   UNL     1      10.646  14.797  19.229  1.00  0.00     0.041 C 
ATOM      9  O   UNL     1      11.338  15.703  18.696  1.00  0.00    -0.550 OA
ATOM     10  O   UNL     1      10.978  13.464  19.019  1.00  0.00    -0.550 OA
ENDBRANCH   7   8
ENDBRANCH   6   7
ENDBRANCH   5   6
ENDBRANCH   4   5
ENDBRANCH   3   4
ENDBRANCH   2   3
ENDBRANCH   1   2
BRANCH   1  11
ATOM     11  C   UNL     1       9.808  11.078  25.537  1.00  0.00     0.000 C 
BRANCH  11  12
ATOM     12  C   UNL     1       8.418  10.897  26.174  1.00  0.00    -0.000 C 
BRANCH  12  13
ATOM     13  C   UNL     1       8.335  11.203  27.681  1.00  0.00    -0.000 C 
BRANCH  13  14
ATOM     14  C   UNL     1       8.422   9.941  28.556  1.00  0.00    -0.000 C 
BRANCH  14  15
ATOM     15  C   UNL     1       8.062   8.656  27.789  1.00  0.00    -0.000 C 
BRANCH  15  16
ATOM     16  C   UNL     1       8.075   7.360  28.627  1.00  0.00    -0.000 C 
BRANCH  16  17
ATOM     17  C   UNL     1       8.158   6.058  27.811  1.00  0.00    -0.003 C 
ATOM     18  C   UNL     1       7.937   4.809  28.662  1.00  0.00     0.004 C 
ENDBRANCH  16  17
ENDBRANCH  15  16
ENDBRANCH  14  15
ENDBRANCH  13  14
ENDBRANCH  12  13
ENDBRANCH  11  12
ENDBRANCH   1  11
TORSDOF 14
ENDMDL
MODEL 4
REMARK VINA RESULT:    -4.255      3.428      7.146
REMARK INTER + INTRA:          -8.833
REMARK INTER:                  -6.693
REMARK INTRA:                  -2.140
REMARK UNBOUND:                -1.096
REMARK SMILES CCCCCCCCCCCCCCCC(=O)[O-]
REMARK SMILES IDX 9 1 10 2 11 3 12 4 13 5 14 6 15 7 16 8 17 9 18 10 8 11 7 12
REMARK SMILES IDX 6 13 5 14 4 15 3 16 2 17 1 18
REMARK H PARENT
REMARK Flexibility Score: inf
ROOT
ATOM      1  C   UNL     1      10.236  16.628  24.295  1.00  0.00     0.000 C 
ENDROOT
BRANCH   1   2
ATOM      2  C   UNL     1       8.823  16.536  23.692  1.00  0.00     0.000 C 
BRANCH   2   3
ATOM      3  C   UNL     1       8.142  15.158  23.819  1.00  0.00     0.000 C 
BRANCH   3   4
ATOM      4  C   UNL     1       9.099  13.971  24.047  1.00  0.00     0.000 C 
BRANCH   4   5
ATOM      5  C   UNL     1       9.374  13.112  22.800  1.00  0.00     0.000 C 
BRANCH   5   6
ATOM      6  C   UNL     1      10.545  13.642  21.956  1.00  0.00     0.006 C 
BRANCH   6   7
ATOM      7  C   UNL     1      10.273  13.525  20.451  1.00  0.00     0.053 C 
BRANCH   7   8
ATOM      8  C   UNL     1      10.109  14.869  19.810  1.00  0.00     0.041 C 
ATOM      9  O   UNL     1       9.257  15.683  20.253  1.00  0.00    -0.550 OA
ATOM     10  O   UNL     1      10.871  15.207  18.698  1.00  0.00    -0.550 OA
ENDBRANCH   7   8
ENDBRANCH   6   7
ENDBRANCH   5   6
ENDBRANCH   4   5
ENDBRANCH   3   4
ENDBRANCH   2   3
ENDBRANCH   1   2
BRANCH   1  11
ATOM     11  C   UNL     1      11.316  16.931  23.243  1.00  0.00     0.000 C 
BRANCH  11  12
ATOM     12  C   UNL     1      10.950  18.115  22.328  1.00  0.00    -0.000 C 
BRANCH  12  13
ATOM     13  C   UNL     1      11.234  19.513  22.908  1.00  0.00    -0.000 C 
BRANCH  13  14
ATOM     14  C   UNL     1       9.996  20.426  22.906  1.00  0.00    -0.000 C 
BRANCH  14  15
ATOM     15  C   UNL     1       9.560  20.846  24.321  1.00  0.00    -0.000 C 
BRANCH  15  16
ATOM     16  C   UNL     1       8.394  20.034  24.922  1.00  0.00    -0.000 C 
BRANCH  16  17
ATOM     17  C   UNL     1       8.697  19.360  26.271  1.00  0.00    -0.003 C 
ATOM     18  C   UNL     1      10.099  19.673  26.790  1.00  0.00     0.004 C 
ENDBRANCH  16  17
ENDBRANCH  15  16
ENDBRANCH  14  15
ENDBRANCH  13  14
ENDBRANCH  12  13
ENDBRANCH  11  12
ENDBRANCH   1  11
TORSDOF 14
ENDMDL
MODEL 5
REMARK VINA RESULT:    -4.253      2.879      7.061
REMARK INTER + INTRA:          -8.830
REMARK INTER:                  -7.156
REMARK INTRA:                  -1.674
REMARK UNBOUND:                -1.096
REMARK SMILES CCCCCCCCCCCCCCCC(=O)[O-]
REMARK SMILES IDX 9 1 10 2 11 3 12 4 13 5 14 6 15 7 16 8 17 9 18 10 8 11 7 12
REMARK SMILES IDX 6 13 5 14 4 15 3 16 2 17 1 18
REMARK H PARENT
REMARK Flexibility Score: inf
ROOT
ATOM      1  C   UNL     1       9.660  15.337  25.452  1.00  0.00     0.000 C 
ENDROOT
BRANCH   1   2
ATOM      2  C   UNL     1       8.715  14.206  25.894  1.00  0.00     0.000 C 
BRANCH   2   3
ATOM      3  C   UNL     1       8.666  12.984  24.953  1.00  0.00     0.000 C 
BRANCH   3   4
ATOM      4  C   UNL     1       9.855  12.856  23.981  1.00  0.00     0.000 C 
BRANCH   4   5
ATOM      5  C   UNL     1       9.479  12.905  22.489  1.00  0.00     0.000 C 
BRANCH   5   6
ATOM      6  C   UNL     1      10.613  13.454  21.606  1.00  0.00     0.006 C 
BRANCH   6   7
ATOM      7  C   UNL     1      10.260  13.404  20.114  1.00  0.00     0.053 C 
BRANCH   7   8
ATOM      8  C   UNL     1      10.135  14.776  19.527  1.00  0.00     0.041 C 
ATOM      9  O   UNL     1      11.015  15.211  18.739  1.00  0.00    -0.550 OA
ATOM     10  O   UNL     1       9.065  15.589  19.879  1.00  0.00    -0.550 OA
ENDBRANCH   7   8
ENDBRANCH   6   7
ENDBRANCH   5   6
ENDBRANCH   4   5
ENDBRANCH   3   4
ENDBRANCH   2   3
ENDBRANCH   1   2
BRANCH   1  11
ATOM     11  C   UNL     1       8.911  16.618  25.048  1.00  0.00     0.000 C 
BRANCH  11  12
ATOM     12  C   UNL     1       9.003  16.920  23.541  1.00  0.00    -0.000 C 
BRANCH  12  13
ATOM     13  C   UNL     1      10.382  16.678  22.899  1.00  0.00    -0.000 C 
BRANCH  13  14
ATOM     14  C   UNL     1      10.953  17.930  22.214  1.00  0.00    -0.000 C 
BRANCH  14  15
ATOM     15  C   UNL     1      10.968  19.163  23.136  1.00  0.00    -0.000 C 
BRANCH  15  16
ATOM     16  C   UNL     1      10.025  20.311  22.720  1.00  0.00    -0.000 C 
BRANCH  16  17
ATOM     17  C   UNL     1       9.437  21.125  23.885  1.00  0.00    -0.003 C 
ATOM     18  C   UNL     1      10.015  20.725  25.241  1.00  0.00     0.004 C 
ENDBRANCH  16  17
ENDBRANCH  15  16
ENDBRANCH  14  15
ENDBRANCH  13  14
ENDBRANCH  12  13
ENDBRANCH  11  12
ENDBRANCH   1  11
TORSDOF 14
ENDMDL
MODEL 6
REMARK VINA RESULT:    -4.248      1.389      2.048
REMARK INTER + INTRA:          -8.820
REMARK INTER:                  -7.714
REMARK INTRA:                  -1.105
REMARK UNBOUND:                -1.096
REMARK SMILES CCCCCCCCCCCCCCCC(=O)[O-]
REMARK SMILES IDX 9 1 10 2 11 3 12 4 13 5 14 6 15 7 16 8 17 9 18 10 8 11 7 12
REMARK SMILES IDX 6 13 5 14 4 15 3 16 2 17 1 18
REMARK H PARENT
REMARK Flexibility Score: inf
ROOT
ATOM      1  C   UNL     1       9.562  13.449  24.493  1.00  0.00     0.000 C 
ENDROOT
BRANCH   1   2
ATOM      2  C   UNL     1       8.220  13.920  23.905  1.00  0.00     0.000 C 
BRANCH   2   3
ATOM      3  C   UNL     1       8.128  15.430  23.602  1.00  0.00     0.000 C 
BRANCH   3   4
ATOM      4  C   UNL     1       9.424  16.228  23.843  1.00  0.00     0.000 C 
BRANCH   4   5
ATOM      5  C   UNL     1      10.203  16.600  22.569  1.00  0.00     0.000 C 
BRANCH   5   6
ATOM      6  C   UNL     1       9.752  15.795  21.338  1.00  0.00     0.006 C 
BRANCH   6   7
ATOM      7  C   UNL     1      10.770  14.715  20.948  1.00  0.00     0.053 C 
BRANCH   7   8
ATOM      8  C   UNL     1      10.911  14.596  19.462  1.00  0.00     0.041 C 
ATOM      9  O   UNL     1      10.803  13.473  18.903  1.00  0.00    -0.550 OA
ATOM     10  O   UNL     1      11.200  15.720  18.698  1.00  0.00    -0.550 OA
ENDBRANCH   7   8
ENDBRANCH   6   7
ENDBRANCH   5   6
ENDBRANCH   4   5
ENDBRANCH   3   4
ENDBRANCH   2   3
ENDBRANCH   1   2
BRANCH   1  11
ATOM     11  C   UNL     1       9.958  12.040  24.024  1.00  0.00     0.000 C 
BRANCH  11  12
ATOM     12  C   UNL     1       9.549  10.936  25.017  1.00  0.00    -0.000 C 
BRANCH  12  13
ATOM     13  C   UNL     1       9.393   9.527  24.415  1.00  0.00    -0.000 C 
BRANCH  13  14
ATOM     14  C   UNL     1       9.272   8.428  25.484  1.00  0.00    -0.000 C 
BRANCH  14  15
ATOM     15  C   UNL     1       8.184   8.728  26.530  1.00  0.00    -0.000 C 
BRANCH  15  16
ATOM     16  C   UNL     1       8.468   8.196  27.951  1.00  0.00    -0.000 C 
BRANCH  16  17
ATOM     17  C   UNL     1       8.372   9.248  29.070  1.00  0.00    -0.003 C 
ATOM     18  C   UNL     1       9.026  10.576  28.695  1.00  0.00     0.004 C 
ENDBRANCH  16  17
ENDBRANCH  15  16
ENDBRANCH  14  15
ENDBRANCH  13  14
ENDBRANCH  12  13
ENDBRANCH  11  12
ENDBRANCH   1  11
TORSDOF 14
ENDMDL
MODEL 7
REMARK VINA RESULT:    -4.223      3.529      5.819
REMARK INTER + INTRA:          -8.776
REMARK INTER:                  -6.758
REMARK INTRA:                  -2.018
REMARK UNBOUND:                -1.096
REMARK SMILES CCCCCCCCCCCCCCCC(=O)[O-]
REMARK SMILES IDX 9 1 10 2 11 3 12 4 13 5 14 6 15 7 16 8 17 9 18 10 8 11 7 12
REMARK SMILES IDX 6 13 5 14 4 15 3 16 2 17 1 18
REMARK H PARENT
REMARK Flexibility Score: inf
ROOT
ATOM      1  C   UNL     1       8.955  13.505  25.393  1.00  0.00     0.000 C 
ENDROOT
BRANCH   1   2
ATOM      2  C   UNL     1       8.291  14.878  25.602  1.00  0.00     0.000 C 
BRANCH   2   3
ATOM      3  C   UNL     1       9.136  15.905  26.383  1.00  0.00     0.000 C 
BRANCH   3   4
ATOM      4  C   UNL     1       9.264  17.291  25.720  1.00  0.00     0.000 C 
BRANCH   4   5
ATOM      5  C   UNL     1       8.438  17.472  24.435  1.00  0.00     0.000 C 
BRANCH   5   6
ATOM      6  C   UNL     1       8.611  18.866  23.807  1.00  0.00     0.006 C 
BRANCH   6   7
ATOM      7  C   UNL     1       9.636  18.863  22.665  1.00  0.00     0.053 C 
BRANCH   7   8
ATOM      8  C   UNL     1      11.018  19.160  23.159  1.00  0.00     0.041 C 
ATOM      9  O   UNL     1      11.238  20.194  23.843  1.00  0.00    -0.550 OA
ATOM     10  O   UNL     1      12.071  18.314  22.831  1.00  0.00    -0.550 OA
ENDBRANCH   7   8
ENDBRANCH   6   7
ENDBRANCH   5   6
ENDBRANCH   4   5
ENDBRANCH   3   4
ENDBRANCH   2   3
ENDBRANCH   1   2
BRANCH   1  11
ATOM     11  C   UNL     1       8.451  12.782  24.134  1.00  0.00     0.000 C 
BRANCH  11  12
ATOM     12  C   UNL     1       9.477  12.785  22.985  1.00  0.00    -0.000 C 
BRANCH  12  13
ATOM     13  C   UNL     1      10.845  13.408  23.320  1.00  0.00    -0.000 C 
BRANCH  13  14
ATOM     14  C   UNL     1      10.944  14.890  22.921  1.00  0.00    -0.000 C 
BRANCH  14  15
ATOM     15  C   UNL     1       9.923  15.288  21.840  1.00  0.00    -0.000 C 
BRANCH  15  16
ATOM     16  C   UNL     1      10.513  15.992  20.600  1.00  0.00    -0.000 C 
BRANCH  16  17
ATOM     17  C   UNL     1      11.087  15.050  19.528  1.00  0.00    -0.003 C 
ATOM     18  C   UNL     1      10.420  13.675  19.525  1.00  0.00     0.004 C 
ENDBRANCH  16  17
ENDBRANCH  15  16
ENDBRANCH  14  15
ENDBRANCH  13  14
ENDBRANCH  12  13
ENDBRANCH  11  12
ENDBRANCH   1  11
TORSDOF 14
ENDMDL
MODEL 8
REMARK VINA RESULT:    -4.214      3.328      7.284
REMARK INTER + INTRA:          -8.759
REMARK INTER:                  -7.194
REMARK INTRA:                  -1.565
REMARK UNBOUND:                -1.096
REMARK SMILES CCCCCCCCCCCCCCCC(=O)[O-]
REMARK SMILES IDX 9 1 10 2 11 3 12 4 13 5 14 6 15 7 16 8 17 9 18 10 8 11 7 12
REMARK SMILES IDX 6 13 5 14 4 15 3 16 2 17 1 18
REMARK H PARENT
REMARK Flexibility Score: inf
ROOT
ATOM      1  C   UNL     1       9.561  17.177  25.530  1.00  0.00     0.000 C 
ENDROOT
BRANCH   1   2
ATOM      2  C   UNL     1      10.294  15.872  25.174  1.00  0.00     0.000 C 
BRANCH   2   3
ATOM      3  C   UNL     1       9.580  14.979  24.138  1.00  0.00     0.000 C 
BRANCH   3   4
ATOM      4  C   UNL     1       9.984  13.491  24.164  1.00  0.00     0.000 C 
BRANCH   4   5
ATOM      5  C   UNL     1      10.732  13.002  22.912  1.00  0.00     0.000 C 
BRANCH   5   6
ATOM      6  C   UNL     1      10.906  14.103  21.852  1.00  0.00     0.006 C 
BRANCH   6   7
ATOM      7  C   UNL     1      10.234  13.737  20.522  1.00  0.00     0.053 C 
BRANCH   7   8
ATOM      8  C   UNL     1      10.066  14.933  19.638  1.00  0.00     0.041 C 
ATOM      9  O   UNL     1       9.027  15.640  19.717  1.00  0.00    -0.550 OA
ATOM     10  O   UNL     1      11.041  15.247  18.698  1.00  0.00    -0.550 OA
ENDBRANCH   7   8
ENDBRANCH   6   7
ENDBRANCH   5   6
ENDBRANCH   4   5
ENDBRANCH   3   4
ENDBRANCH   2   3
ENDBRANCH   1   2
BRANCH   1  11
ATOM     11  C   UNL     1      10.096  17.832  26.814  1.00  0.00     0.000 C 
BRANCH  11  12
ATOM     12  C   UNL     1       9.634  19.292  26.984  1.00  0.00    -0.000 C 
BRANCH  12  13
ATOM     13  C   UNL     1      10.094  20.265  25.882  1.00  0.00    -0.000 C 
BRANCH  13  14
ATOM     14  C   UNL     1       8.951  20.697  24.948  1.00  0.00    -0.000 C 
BRANCH  14  15
ATOM     15  C   UNL     1       9.433  21.018  23.522  1.00  0.00    -0.000 C 
BRANCH  15  16
ATOM     16  C   UNL     1      10.508  20.066  22.957  1.00  0.00    -0.000 C 
BRANCH  16  17
ATOM     17  C   UNL     1       9.961  18.821  22.238  1.00  0.00    -0.003 C 
ATOM     18  C   UNL     1      11.021  17.740  22.033  1.00  0.00     0.004 C 
ENDBRANCH  16  17
ENDBRANCH  15  16
ENDBRANCH  14  15
ENDBRANCH  13  14
ENDBRANCH  12  13
ENDBRANCH  11  12
ENDBRANCH   1  11
TORSDOF 14
ENDMDL
MODEL 9
REMARK VINA RESULT:    -4.020     15.176     17.574
REMARK INTER + INTRA:          -8.406
REMARK INTER:                  -6.032
REMARK INTRA:                  -2.374
REMARK UNBOUND:                -1.096
REMARK SMILES CCCCCCCCCCCCCCCC(=O)[O-]
REMARK SMILES IDX 9 1 10 2 11 3 12 4 13 5 14 6 15 7 16 8 17 9 18 10 8 11 7 12
REMARK SMILES IDX 6 13 5 14 4 15 3 16 2 17 1 18
REMARK H PARENT
REMARK Flexibility Score: inf
ROOT
ATOM      1  C   UNL     1      22.269   1.390  30.458  1.00  0.00     0.000 C 
ENDROOT
BRANCH   1   2
ATOM      2  C   UNL     1      23.040   2.030  29.290  1.00  0.00     0.000 C 
BRANCH   2   3
ATOM      3  C   UNL     1      24.193   2.969  29.699  1.00  0.00     0.000 C 
BRANCH   3   4
ATOM      4  C   UNL     1      24.782   3.823  28.559  1.00  0.00     0.000 C 
BRANCH   4   5
ATOM      5  C   UNL     1      25.339   5.189  28.994  1.00  0.00     0.000 C 
BRANCH   5   6
ATOM      6  C   UNL     1      24.379   6.351  28.683  1.00  0.00     0.006 C 
BRANCH   6   7
ATOM      7  C   UNL     1      23.358   5.983  27.598  1.00  0.00     0.053 C 
BRANCH   7   8
ATOM      8  C   UNL     1      23.494   6.855  26.389  1.00  0.00     0.041 C 
ATOM      9  O   UNL     1      23.168   8.070  26.444  1.00  0.00    -0.550 OA
ATOM     10  O   UNL     1      23.944   6.317  25.190  1.00  0.00    -0.550 OA
ENDBRANCH   7   8
ENDBRANCH   6   7
ENDBRANCH   5   6
ENDBRANCH   4   5
ENDBRANCH   3   4
ENDBRANCH   2   3
ENDBRANCH   1   2
BRANCH   1  11
ATOM     11  C   UNL     1      23.034   1.463  31.790  1.00  0.00     0.000 C 
BRANCH  11  12
ATOM     12  C   UNL     1      22.263   2.222  32.887  1.00  0.00    -0.000 C 
BRANCH  12  13
ATOM     13  C   UNL     1      23.134   2.999  33.892  1.00  0.00    -0.000 C 
BRANCH  13  14
ATOM     14  C   UNL     1      22.885   4.516  33.854  1.00  0.00    -0.000 C 
BRANCH  14  15
ATOM     15  C   UNL     1      23.260   5.151  32.503  1.00  0.00    -0.000 C 
BRANCH  15  16
ATOM     16  C   UNL     1      22.138   5.959  31.818  1.00  0.00    -0.000 C 
BRANCH  16  17
ATOM     17  C   UNL     1      21.384   5.212  30.704  1.00  0.00    -0.003 C 
ATOM     18  C   UNL     1      20.033   4.666  31.163  1.00  0.00     0.004 C 
ENDBRANCH  16  17
ENDBRANCH  15  16
ENDBRANCH  14  15
ENDBRANCH  13  14
ENDBRANCH  12  13
ENDBRANCH  11  12
ENDBRANCH   1  11
TORSDOF 14
ENDMDL
