MODEL 1
REMARK VINA RESULT:    -3.850      0.000      0.000
REMARK INTER + INTRA:          -7.370
REMARK INTER:                  -6.100
REMARK INTRA:                  -1.269
REMARK UNBOUND:                -1.269
REMARK SMILES CCCCCCCCCCCC(=O)[O-]
REMARK SMILES IDX 7 1 8 2 9 3 10 4 11 5 12 6 13 7 14 8 6 9 5 10 4 11 3 12 2 13
REMARK SMILES IDX 1 14
REMARK H PARENT
REMARK Flexibility Score: inf
ROOT
ATOM      1  C   UNL     1       1.270   1.369  55.894  1.00  0.00     0.000 C 
ENDROOT
BRANCH   1   2
ATOM      2  C   UNL     1       0.772   0.111  56.628  1.00  0.00     0.000 C 
BRANCH   2   3
ATOM      3  C   UNL     1       1.861  -0.544  57.497  1.00  0.00     0.000 C 
BRANCH   3   4
ATOM      4  C   UNL     1       2.157   0.173  58.829  1.00  0.00     0.006 C 
BRANCH   4   5
ATOM      5  C   UNL     1       0.912   0.490  59.674  1.00  0.00     0.053 C 
BRANCH   5   6
ATOM      6  C   UNL     1       0.844   1.939  60.049  1.00  0.00     0.041 C 
ATOM      7  O   UNL     1       1.126   2.827  59.202  1.00  0.00    -0.550 OA
ATOM      8  O   UNL     1       0.501   2.306  61.344  1.00  0.00    -0.550 OA
ENDBRANCH   5   6
ENDBRANCH   4   5
ENDBRANCH   3   4
ENDBRANCH   2   3
ENDBRANCH   1   2
BRANCH   1   9
ATOM      9  C   UNL     1       2.569   1.117  55.110  1.00  0.00     0.000 C 
BRANCH   9  10
ATOM     10  C   UNL     1       2.309   0.795  53.627  1.00  0.00    -0.000 C 
BRANCH  10  11
ATOM     11  C   UNL     1       2.795  -0.609  53.235  1.00  0.00    -0.000 C 
BRANCH  11  12
ATOM     12  C   UNL     1       1.727  -1.692  53.455  1.00  0.00    -0.000 C 
BRANCH  12  13
ATOM     13  C   UNL     1       2.316  -2.901  54.192  1.00  0.00    -0.003 C 
ATOM     14  C   UNL     1       3.672  -2.566  54.807  1.00  0.00     0.004 C 
ENDBRANCH  12  13
ENDBRANCH  11  12
ENDBRANCH  10  11
ENDBRANCH   9  10
ENDBRANCH   1   9
TORSDOF 10
ENDMDL
MODEL 2
REMARK VINA RESULT:    -3.705     10.073     11.294
REMARK INTER + INTRA:          -7.141
REMARK INTER:                  -5.700
REMARK INTRA:                  -1.441
REMARK UNBOUND:                -1.269
REMARK SMILES CCCCCCCCCCCC(=O)[O-]
REMARK SMILES IDX 7 1 8 2 9 3 10 4 11 5 12 6 13 7 14 8 6 9 5 10 4 11 3 12 2 13
REMARK SMILES IDX 1 14
REMARK H PARENT
REMARK Flexibility Score: inf
ROOT
ATOM      1  C   UNL     1      -7.156   2.726  52.745  1.00  0.00     0.000 C 
ENDROOT
BRANCH   1   2
ATOM      2  C   UNL     1      -5.840   3.431  53.120  1.00  0.00     0.000 C 
BRANCH   2   3
ATOM      3  C   UNL     1      -5.850   3.995  54.552  1.00  0.00     0.000 C 
BRANCH   3   4
ATOM      4  C   UNL     1      -7.224   4.481  55.057  1.00  0.00     0.006 C 
BRANCH   4   5
ATOM      5  C   UNL     1      -7.244   5.936  55.552  1.00  0.00     0.053 C 
BRANCH   5   6
ATOM      6  C   UNL     1      -6.946   6.033  57.017  1.00  0.00     0.041 C 
ATOM      7  O   UNL     1      -7.853   6.353  57.829  1.00  0.00    -0.550 OA
ATOM      8  O   UNL     1      -5.657   5.802  57.479  1.00  0.00    -0.550 OA
ENDBRANCH   5   6
ENDBRANCH   4   5
ENDBRANCH   3   4
ENDBRANCH   2   3
ENDBRANCH   1   2
BRANCH   1   9
ATOM      9  C   UNL     1      -7.766   3.273  51.443  1.00  0.00     0.000 C 
BRANCH   9  10
ATOM     10  C   UNL     1      -7.156   4.625  51.030  1.00  0.00    -0.000 C 
BRANCH  10  11
ATOM     11  C   UNL     1      -7.928   5.821  51.608  1.00  0.00    -0.000 C 
BRANCH  11  12
ATOM     12  C   UNL     1      -9.452   5.627  51.558  1.00  0.00    -0.000 C 
BRANCH  12  13
ATOM     13  C   UNL     1     -10.081   5.875  52.934  1.00  0.00    -0.003 C 
ATOM     14  C   UNL     1     -10.632   4.583  53.531  1.00  0.00     0.004 C 
ENDBRANCH  12  13
ENDBRANCH  11  12
ENDBRANCH  10  11
ENDBRANCH   9  10
ENDBRANCH   1   9
TORSDOF 10
ENDMDL
MODEL 3
REMARK VINA RESULT:    -3.625      0.919      1.378
REMARK INTER + INTRA:          -7.013
REMARK INTER:                  -5.978
REMARK INTRA:                  -1.035
REMARK UNBOUND:                -1.269
REMARK SMILES CCCCCCCCCCCC(=O)[O-]
REMARK SMILES IDX 7 1 8 2 9 3 10 4 11 5 12 6 13 7 14 8 6 9 5 10 4 11 3 12 2 13
REMARK SMILES IDX 1 14
REMARK H PARENT
REMARK Flexibility Score: inf
ROOT
ATOM      1  C   UNL     1       1.119   1.657  56.162  1.00  0.00     0.000 C 
ENDROOT
BRANCH   1   2
ATOM      2  C   UNL     1       0.189   0.508  56.588  1.00  0.00     0.000 C 
BRANCH   2   3
ATOM      3  C   UNL     1       0.790  -0.366  57.704  1.00  0.00     0.000 C 
BRANCH   3   4
ATOM      4  C   UNL     1       1.731   0.371  58.680  1.00  0.00     0.006 C 
BRANCH   4   5
ATOM      5  C   UNL     1       1.130   0.631  60.071  1.00  0.00     0.053 C 
BRANCH   5   6
ATOM      6  C   UNL     1       0.860   2.087  60.301  1.00  0.00     0.041 C 
ATOM      7  O   UNL     1       1.171   2.936  59.425  1.00  0.00    -0.550 OA
ATOM      8  O   UNL     1       0.296   2.507  61.498  1.00  0.00    -0.550 OA
ENDBRANCH   5   6
ENDBRANCH   4   5
ENDBRANCH   3   4
ENDBRANCH   2   3
ENDBRANCH   1   2
BRANCH   1   9
ATOM      9  C   UNL     1       1.884   1.344  54.865  1.00  0.00     0.000 C 
BRANCH   9  10
ATOM     10  C   UNL     1       3.180   0.553  55.122  1.00  0.00    -0.000 C 
BRANCH  10  11
ATOM     11  C   UNL     1       3.290  -0.700  54.240  1.00  0.00    -0.000 C 
BRANCH  11  12
ATOM     12  C   UNL     1       2.064  -0.902  53.336  1.00  0.00    -0.000 C 
BRANCH  12  13
ATOM     13  C   UNL     1       1.412  -2.266  53.593  1.00  0.00    -0.003 C 
ATOM     14  C   UNL     1       0.049  -2.363  52.914  1.00  0.00     0.004 C 
ENDBRANCH  12  13
ENDBRANCH  11  12
ENDBRANCH  10  11
ENDBRANCH   9  10
ENDBRANCH   1   9
TORSDOF 10
ENDMDL
MODEL 4
REMARK VINA RESULT:    -3.624      9.120     10.323
REMARK INTER + INTRA:          -7.012
REMARK INTER:                  -6.102
REMARK INTRA:                  -0.910
REMARK UNBOUND:                -1.269
REMARK SMILES CCCCCCCCCCCC(=O)[O-]
REMARK SMILES IDX 7 1 8 2 9 3 10 4 11 5 12 6 13 7 14 8 6 9 5 10 4 11 3 12 2 13
REMARK SMILES IDX 1 14
REMARK H PARENT
REMARK Flexibility Score: inf
ROOT
ATOM      1  C   UNL     1      -6.633   2.601  54.252  1.00  0.00     0.000 C 
ENDROOT
BRANCH   1   2
ATOM      2  C   UNL     1      -5.902   3.944  54.429  1.00  0.00     0.000 C 
BRANCH   2   3
ATOM      3  C   UNL     1      -6.780   5.018  55.096  1.00  0.00     0.000 C 
BRANCH   3   4
ATOM      4  C   UNL     1      -6.300   5.490  56.484  1.00  0.00     0.006 C 
BRANCH   4   5
ATOM      5  C   UNL     1      -5.962   4.353  57.462  1.00  0.00     0.053 C 
BRANCH   5   6
ATOM      6  C   UNL     1      -4.969   4.784  58.498  1.00  0.00     0.041 C 
ATOM      7  O   UNL     1      -4.357   3.925  59.186  1.00  0.00    -0.550 OA
ATOM      8  O   UNL     1      -4.746   6.135  58.727  1.00  0.00    -0.550 OA
ENDBRANCH   5   6
ENDBRANCH   4   5
ENDBRANCH   3   4
ENDBRANCH   2   3
ENDBRANCH   1   2
BRANCH   1   9
ATOM      9  C   UNL     1      -6.798   2.212  52.773  1.00  0.00     0.000 C 
BRANCH   9  10
ATOM     10  C   UNL     1      -7.935   2.987  52.083  1.00  0.00    -0.000 C 
BRANCH  10  11
ATOM     11  C   UNL     1      -7.424   3.928  50.981  1.00  0.00    -0.000 C 
BRANCH  11  12
ATOM     12  C   UNL     1      -7.512   5.410  51.375  1.00  0.00    -0.000 C 
BRANCH  12  13
ATOM     13  C   UNL     1      -8.856   5.720  52.044  1.00  0.00    -0.003 C 
ATOM     14  C   UNL     1      -9.955   5.928  51.007  1.00  0.00     0.004 C 
ENDBRANCH  12  13
ENDBRANCH  11  12
ENDBRANCH  10  11
ENDBRANCH   9  10
ENDBRANCH   1   9
TORSDOF 10
ENDMDL
MODEL 5
REMARK VINA RESULT:    -3.593      9.024     10.195
REMARK INTER + INTRA:          -6.963
REMARK INTER:                  -5.693
REMARK INTRA:                  -1.270
REMARK UNBOUND:                -1.269
REMARK SMILES CCCCCCCCCCCC(=O)[O-]
REMARK SMILES IDX 7 1 8 2 9 3 10 4 11 5 12 6 13 7 14 8 6 9 5 10 4 11 3 12 2 13
REMARK SMILES IDX 1 14
REMARK H PARENT
REMARK Flexibility Score: inf
ROOT
ATOM      1  C   UNL     1      -7.663   4.000  55.010  1.00  0.00     0.000 C 
ENDROOT
BRANCH   1   2
ATOM      2  C   UNL     1      -8.155   5.388  55.456  1.00  0.00     0.000 C 
BRANCH   2   3
ATOM      3  C   UNL     1      -7.089   6.179  56.235  1.00  0.00     0.000 C 
BRANCH   3   4
ATOM      4  C   UNL     1      -7.156   6.035  57.769  1.00  0.00     0.006 C 
BRANCH   4   5
ATOM      5  C   UNL     1      -5.823   5.655  58.433  1.00  0.00     0.053 C 
BRANCH   5   6
ATOM      6  C   UNL     1      -5.584   4.176  58.402  1.00  0.00     0.041 C 
ATOM      7  O   UNL     1      -4.409   3.724  58.386  1.00  0.00    -0.550 OA
ATOM      8  O   UNL     1      -6.660   3.299  58.356  1.00  0.00    -0.550 OA
ENDBRANCH   5   6
ENDBRANCH   4   5
ENDBRANCH   3   4
ENDBRANCH   2   3
ENDBRANCH   1   2
BRANCH   1   9
ATOM      9  C   UNL     1      -6.162   3.989  54.673  1.00  0.00     0.000 C 
BRANCH   9  10
ATOM     10  C   UNL     1      -5.895   3.697  53.185  1.00  0.00    -0.000 C 
BRANCH  10  11
ATOM     11  C   UNL     1      -7.066   2.968  52.508  1.00  0.00    -0.000 C 
BRANCH  11  12
ATOM     12  C   UNL     1      -7.521   3.650  51.209  1.00  0.00    -0.000 C 
BRANCH  12  13
ATOM     13  C   UNL     1      -7.456   5.176  51.340  1.00  0.00    -0.003 C 
ATOM     14  C   UNL     1      -8.812   5.755  51.732  1.00  0.00     0.004 C 
ENDBRANCH  12  13
ENDBRANCH  11  12
ENDBRANCH  10  11
ENDBRANCH   9  10
ENDBRANCH   1   9
TORSDOF 10
ENDMDL
MODEL 6
REMARK VINA RESULT:    -3.587      1.435      2.208
REMARK INTER + INTRA:          -6.954
REMARK INTER:                  -5.909
REMARK INTRA:                  -1.045
REMARK UNBOUND:                -1.269
REMARK SMILES CCCCCCCCCCCC(=O)[O-]
REMARK SMILES IDX 7 1 8 2 9 3 10 4 11 5 12 6 13 7 14 8 6 9 5 10 4 11 3 12 2 13
REMARK SMILES IDX 1 14
REMARK H PARENT
REMARK Flexibility Score: inf
ROOT
ATOM      1  C   UNL     1       0.864   0.259  56.473  1.00  0.00     0.000 C 
ENDROOT
BRANCH   1   2
ATOM      2  C   UNL     1      -0.663   0.184  56.653  1.00  0.00     0.000 C 
BRANCH   2   3
ATOM      3  C   UNL     1      -1.239   1.409  57.385  1.00  0.00     0.000 C 
BRANCH   3   4
ATOM      4  C   UNL     1      -1.445   1.229  58.903  1.00  0.00     0.006 C 
BRANCH   4   5
ATOM      5  C   UNL     1      -0.548   2.118  59.779  1.00  0.00     0.053 C 
BRANCH   5   6
ATOM      6  C   UNL     1       0.731   1.430  60.150  1.00  0.00     0.041 C 
ATOM      7  O   UNL     1       0.765   0.178  60.268  1.00  0.00    -0.550 OA
ATOM      8  O   UNL     1       1.875   2.177  60.398  1.00  0.00    -0.550 OA
ENDBRANCH   5   6
ENDBRANCH   4   5
ENDBRANCH   3   4
ENDBRANCH   2   3
ENDBRANCH   1   2
BRANCH   1   9
ATOM      9  C   UNL     1       1.333   1.643  55.994  1.00  0.00     0.000 C 
BRANCH   9  10
ATOM     10  C   UNL     1       2.134   1.572  54.682  1.00  0.00    -0.000 C 
BRANCH  10  11
ATOM     11  C   UNL     1       3.031   0.326  54.605  1.00  0.00    -0.000 C 
BRANCH  11  12
ATOM     12  C   UNL     1       2.809  -0.489  53.322  1.00  0.00    -0.000 C 
BRANCH  12  13
ATOM     13  C   UNL     1       2.382  -1.925  53.652  1.00  0.00    -0.003 C 
ATOM     14  C   UNL     1       0.874  -2.102  53.499  1.00  0.00     0.004 C 
ENDBRANCH  12  13
ENDBRANCH  11  12
ENDBRANCH  10  11
ENDBRANCH   9  10
ENDBRANCH   1   9
TORSDOF 10
ENDMDL
MODEL 7
REMARK VINA RESULT:    -3.587      3.098      6.101
REMARK INTER + INTRA:          -6.954
REMARK INTER:                  -5.578
REMARK INTRA:                  -1.376
REMARK UNBOUND:                -1.269
REMARK SMILES CCCCCCCCCCCC(=O)[O-]
REMARK SMILES IDX 7 1 8 2 9 3 10 4 11 5 12 6 13 7 14 8 6 9 5 10 4 11 3 12 2 13
REMARK SMILES IDX 1 14
REMARK H PARENT
REMARK Flexibility Score: inf
ROOT
ATOM      1  C   UNL     1      -2.100   0.466  58.994  1.00  0.00     0.000 C 
ENDROOT
BRANCH   1   2
ATOM      2  C   UNL     1      -1.996   0.863  57.511  1.00  0.00     0.000 C 
BRANCH   2   3
ATOM      3  C   UNL     1      -0.741   1.699  57.202  1.00  0.00     0.000 C 
BRANCH   3   4
ATOM      4  C   UNL     1       0.352   0.970  56.394  1.00  0.00     0.006 C 
BRANCH   4   5
ATOM      5  C   UNL     1       1.450   1.887  55.834  1.00  0.00     0.053 C 
BRANCH   5   6
ATOM      6  C   UNL     1       2.368   1.157  54.901  1.00  0.00     0.041 C 
ATOM      7  O   UNL     1       2.312   1.370  53.662  1.00  0.00    -0.550 OA
ATOM      8  O   UNL     1       3.260   0.217  55.399  1.00  0.00    -0.550 OA
ENDBRANCH   5   6
ENDBRANCH   4   5
ENDBRANCH   3   4
ENDBRANCH   2   3
ENDBRANCH   1   2
BRANCH   1   9
ATOM      9  C   UNL     1      -1.727  -1.006  59.237  1.00  0.00     0.000 C 
BRANCH   9  10
ATOM     10  C   UNL     1      -0.267  -1.176  59.695  1.00  0.00    -0.000 C 
BRANCH  10  11
ATOM     11  C   UNL     1       0.206  -0.023  60.595  1.00  0.00    -0.000 C 
BRANCH  11  12
ATOM     12  C   UNL     1       1.451   0.689  60.044  1.00  0.00    -0.000 C 
BRANCH  12  13
ATOM     13  C   UNL     1       1.373   2.200  60.293  1.00  0.00    -0.003 C 
ATOM     14  C   UNL     1       0.166   2.556  61.157  1.00  0.00     0.004 C 
ENDBRANCH  12  13
ENDBRANCH  11  12
ENDBRANCH  10  11
ENDBRANCH   9  10
ENDBRANCH   1   9
TORSDOF 10
ENDMDL
MODEL 8
REMARK VINA RESULT:    -3.585     10.386     12.317
REMARK INTER + INTRA:          -6.950
REMARK INTER:                  -5.956
REMARK INTRA:                  -0.994
REMARK UNBOUND:                -1.269
REMARK SMILES CCCCCCCCCCCC(=O)[O-]
REMARK SMILES IDX 7 1 8 2 9 3 10 4 11 5 12 6 13 7 14 8 6 9 5 10 4 11 3 12 2 13
REMARK SMILES IDX 1 14
REMARK H PARENT
REMARK Flexibility Score: inf
ROOT
ATOM      1  C   UNL     1      -5.986   4.008  54.686  1.00  0.00     0.000 C 
ENDROOT
BRANCH   1   2
ATOM      2  C   UNL     1      -5.778   3.767  53.181  1.00  0.00     0.000 C 
BRANCH   2   3
ATOM      3  C   UNL     1      -7.035   3.219  52.483  1.00  0.00     0.000 C 
BRANCH   3   4
ATOM      4  C   UNL     1      -7.435   3.947  51.183  1.00  0.00     0.006 C 
BRANCH   4   5
ATOM      5  C   UNL     1      -8.150   5.290  51.399  1.00  0.00     0.053 C 
BRANCH   5   6
ATOM      6  C   UNL     1      -9.600   5.218  51.030  1.00  0.00     0.041 C 
ATOM      7  O   UNL     1     -10.314   6.255  51.059  1.00  0.00    -0.550 OA
ATOM      8  O   UNL     1     -10.170   3.999  50.688  1.00  0.00    -0.550 OA
ENDBRANCH   5   6
ENDBRANCH   4   5
ENDBRANCH   3   4
ENDBRANCH   2   3
ENDBRANCH   1   2
BRANCH   1   9
ATOM      9  C   UNL     1      -7.469   4.191  55.053  1.00  0.00     0.000 C 
BRANCH   9  10
ATOM     10  C   UNL     1      -7.862   5.672  55.193  1.00  0.00    -0.000 C 
BRANCH  10  11
ATOM     11  C   UNL     1      -7.087   6.385  56.313  1.00  0.00    -0.000 C 
BRANCH  11  12
ATOM     12  C   UNL     1      -7.714   6.171  57.699  1.00  0.00    -0.000 C 
BRANCH  12  13
ATOM     13  C   UNL     1      -6.706   5.537  58.665  1.00  0.00    -0.003 C 
ATOM     14  C   UNL     1      -5.275   5.726  58.173  1.00  0.00     0.004 C 
ENDBRANCH  12  13
ENDBRANCH  11  12
ENDBRANCH  10  11
ENDBRANCH   9  10
ENDBRANCH   1   9
TORSDOF 10
ENDMDL
MODEL 9
REMARK VINA RESULT:    -3.527      1.563      2.980
REMARK INTER + INTRA:          -6.858
REMARK INTER:                  -5.834
REMARK INTRA:                  -1.025
REMARK UNBOUND:                -1.269
REMARK SMILES CCCCCCCCCCCC(=O)[O-]
REMARK SMILES IDX 7 1 8 2 9 3 10 4 11 5 12 6 13 7 14 8 6 9 5 10 4 11 3 12 2 13
REMARK SMILES IDX 1 14
REMARK H PARENT
REMARK Flexibility Score: inf
ROOT
ATOM      1  C   UNL     1       3.144   0.480  53.899  1.00  0.00     0.000 C 
ENDROOT
BRANCH   1   2
ATOM      2  C   UNL     1       2.036   1.527  54.111  1.00  0.00     0.000 C 
BRANCH   2   3
ATOM      3  C   UNL     1       1.667   1.715  55.594  1.00  0.00     0.000 C 
BRANCH   3   4
ATOM      4  C   UNL     1       0.832   0.574  56.212  1.00  0.00     0.006 C 
BRANCH   4   5
ATOM      5  C   UNL     1       1.442  -0.049  57.478  1.00  0.00     0.053 C 
BRANCH   5   6
ATOM      6  C   UNL     1       1.197   0.796  58.691  1.00  0.00     0.041 C 
ATOM      7  O   UNL     1       1.998   0.759  59.661  1.00  0.00    -0.550 OA
ATOM      8  O   UNL     1       0.066   1.599  58.762  1.00  0.00    -0.550 OA
ENDBRANCH   5   6
ENDBRANCH   4   5
ENDBRANCH   3   4
ENDBRANCH   2   3
ENDBRANCH   1   2
BRANCH   1   9
ATOM      9  C   UNL     1       2.624  -0.794  53.211  1.00  0.00     0.000 C 
BRANCH   9  10
ATOM     10  C   UNL     1       2.971  -2.071  53.998  1.00  0.00    -0.000 C 
BRANCH  10  11
ATOM     11  C   UNL     1       1.789  -3.050  54.084  1.00  0.00    -0.000 C 
BRANCH  11  12
ATOM     12  C   UNL     1       0.448  -2.397  53.717  1.00  0.00    -0.000 C 
BRANCH  12  13
ATOM     13  C   UNL     1      -0.298  -3.228  52.666  1.00  0.00    -0.003 C 
ATOM     14  C   UNL     1      -1.060  -2.333  51.693  1.00  0.00     0.004 C 
ENDBRANCH  12  13
ENDBRANCH  11  12
ENDBRANCH  10  11
ENDBRANCH   9  10
ENDBRANCH   1   9
TORSDOF 10
ENDMDL
