MODEL 1
REMARK VINA RESULT:    33.045      0.000      0.000
REMARK INTER + INTRA:          36.867
REMARK INTER:                  35.942
REMARK INTRA:                   0.925
REMARK UNBOUND:                 0.925
REMARK SMILES C[C@H]1[C@H](C)CC[C@]2(C(=O)[O-])CC[C@]3(C)C(=CC[C@@H]4[C@]5(C)CC[C@H](O)C(C)(C)[C@H]5CC[C@@]43C)[C@@H]12
REMARK SMILES IDX 7 1 6 2 11 3 33 4 5 5 12 6 15 7 2 8 3 9 13 10 16 11 1 12
REMARK SMILES IDX 4 13 14 14 31 15 17 16 18 17 30 18 32 19 19 20 29 21 28 22
REMARK SMILES IDX 21 23 20 24 25 25 22 26 23 27 26 28 27 29 8 30 9 31 10 32
REMARK SMILES IDX 24 33
REMARK H PARENT 24 34
REMARK Flexibility Score: inf
ROOT
ATOM      1  C   UNL     1      20.761  52.783  54.536  1.00  0.00     0.017 C 
ATOM      2  C   UNL     1      20.578  53.239  56.013  1.00  0.00     0.014 C 
ATOM      3  C   UNL     1      21.561  51.467  54.551  1.00  0.00     0.014 C 
ATOM      4  C   UNL     1      21.605  53.861  53.781  1.00  0.00     0.030 C 
ATOM      5  C   UNL     1      19.907  54.612  56.125  1.00  0.00     0.004 C 
ATOM      6  C   UNL     1      21.868  50.953  53.141  1.00  0.00     0.013 C 
ATOM      7  C   UNL     1      22.101  53.389  52.389  1.00  0.00    -0.063 C 
ATOM      8  C   UNL     1      20.983  55.304  53.890  1.00  0.00    -0.003 C 
ATOM      9  C   UNL     1      20.681  55.708  55.365  1.00  0.00    -0.011 C 
ATOM     10  C   UNL     1      22.639  51.958  52.204  1.00  0.00    -0.006 C 
ATOM     11  C   UNL     1      22.400  54.299  51.440  1.00  0.00    -0.027 C 
ATOM     12  C   UNL     1      19.738  55.533  53.007  1.00  0.00     0.008 C 
ATOM     13  C   UNL     1      21.955  56.125  56.125  1.00  0.00     0.008 C 
ATOM     14  C   UNL     1      24.122  51.972  52.682  1.00  0.00     0.017 C 
ATOM     15  C   UNL     1      22.541  51.524  50.645  1.00  0.00    -0.020 C 
ATOM     16  C   UNL     1      23.185  54.021  50.193  1.00  0.00     0.032 C 
ATOM     17  C   UNL     1      23.390  52.528  49.746  1.00  0.00     0.006 C 
ATOM     18  C   UNL     1      21.056  51.560  50.142  1.00  0.00     0.008 C 
ATOM     19  C   UNL     1      23.085  50.063  50.499  1.00  0.00     0.012 C 
ATOM     20  C   UNL     1      23.228  52.366  48.159  1.00  0.00    -0.025 C 
ATOM     21  C   UNL     1      20.874  51.398  48.622  1.00  0.00     0.005 C 
ATOM     22  C   UNL     1      21.691  52.435  47.813  1.00  0.00     0.003 C 
ATOM     23  C   UNL     1      24.032  53.507  47.400  1.00  0.00     0.010 C 
ATOM     24  C   UNL     1      23.861  51.023  47.666  1.00  0.00     0.012 C 
ATOM     25  C   UNL     1      21.326  52.497  46.265  1.00  0.00    -0.006 C 
ATOM     26  C   UNL     1      23.237  54.211  46.292  1.00  0.00     0.033 C 
ATOM     27  C   UNL     1      22.472  53.188  45.442  1.00  0.00     0.120 C 
ATOM     28  C   UNL     1      20.008  53.309  46.103  1.00  0.00     0.014 C 
ATOM     29  C   UNL     1      21.071  51.094  45.656  1.00  0.00     0.014 C 
ENDROOT
BRANCH   1  30
ATOM     30  C   UNL     1      19.398  52.511  53.902  1.00  0.00     0.048 C 
ATOM     31  O   UNL     1      19.315  52.168  52.691  1.00  0.00    -0.550 OA
ATOM     32  O   UNL     1      18.224  52.742  54.604  1.00  0.00    -0.550 OA
ENDBRANCH   1  30
BRANCH  27  33
ATOM     33  O   UNL     1      21.965  53.814  44.288  1.00  0.00    -0.393 OA
ATOM     34  H   UNL     1      21.473  54.625  44.585  1.00  0.00     0.210 HD
ENDBRANCH  27  33
TORSDOF 2
ENDMDL
