MODEL 1
REMARK VINA RESULT:    -0.708      0.000      0.000
REMARK INTER + INTRA:          -6.513
REMARK INTER:                  -1.619
REMARK INTRA:                  -4.894
REMARK UNBOUND:                -4.894
REMARK SMILES CCCCCCCCCCCCCCCCCCCCCCCC(=O)[O-]
REMARK SMILES IDX 13 1 14 2 15 3 16 4 17 5 18 6 19 7 20 8 21 9 22 10 23 11
REMARK SMILES IDX 24 12 25 13 26 14 12 15 11 16 10 17 9 18 8 19 7 20 6 21 5 22
REMARK SMILES IDX 4 23 3 24 2 25 1 26
REMARK H PARENT
REMARK Flexibility Score: inf
ROOT
ATOM      1  C   UNL     1      39.083   3.629  37.319  1.00  0.00     0.000 C 
ENDROOT
BRANCH   1   2
ATOM      2  C   UNL     1      38.070   4.423  38.159  1.00  0.00     0.000 C 
BRANCH   2   3
ATOM      3  C   UNL     1      37.915   5.877  37.679  1.00  0.00     0.000 C 
BRANCH   3   4
ATOM      4  C   UNL     1      39.200   6.700  37.873  1.00  0.00     0.000 C 
BRANCH   4   5
ATOM      5  C   UNL     1      39.430   7.092  39.340  1.00  0.00     0.000 C 
BRANCH   5   6
ATOM      6  C   UNL     1      38.170   7.720  39.947  1.00  0.00     0.000 C 
BRANCH   6   7
ATOM      7  C   UNL     1      38.147   7.542  41.468  1.00  0.00     0.000 C 
BRANCH   7   8
ATOM      8  C   UNL     1      37.012   6.600  41.900  1.00  0.00     0.000 C 
BRANCH   8   9
ATOM      9  C   UNL     1      35.829   6.614  40.909  1.00  0.00     0.000 C 
BRANCH   9  10
ATOM     10  C   UNL     1      35.314   5.213  40.540  1.00  0.00     0.006 C 
BRANCH  10  11
ATOM     11  C   UNL     1      34.488   4.564  41.660  1.00  0.00     0.053 C 
BRANCH  11  12
ATOM     12  C   UNL     1      33.151   4.119  41.146  1.00  0.00     0.041 C 
ATOM     13  O   UNL     1      32.954   4.005  39.907  1.00  0.00    -0.550 OA
ATOM     14  O   UNL     1      32.124   3.826  42.037  1.00  0.00    -0.550 OA
ENDBRANCH  11  12
ENDBRANCH  10  11
ENDBRANCH   9  10
ENDBRANCH   8   9
ENDBRANCH   7   8
ENDBRANCH   6   7
ENDBRANCH   5   6
ENDBRANCH   4   5
ENDBRANCH   3   4
ENDBRANCH   2   3
ENDBRANCH   1   2
BRANCH   1  15
ATOM     15  C   UNL     1      39.877   2.609  38.154  1.00  0.00     0.000 C 
BRANCH  15  16
ATOM     16  C   UNL     1      40.739   3.269  39.245  1.00  0.00     0.000 C 
BRANCH  16  17
ATOM     17  C   UNL     1      40.371   2.876  40.688  1.00  0.00     0.000 C 
BRANCH  17  18
ATOM     18  C   UNL     1      39.403   3.866  41.353  1.00  0.00    -0.000 C 
BRANCH  18  19
ATOM     19  C   UNL     1      38.162   3.142  41.894  1.00  0.00    -0.000 C 
BRANCH  19  20
ATOM     20  C   UNL     1      38.322   1.610  41.888  1.00  0.00    -0.000 C 
BRANCH  20  21
ATOM     21  C   UNL     1      37.209   0.875  41.116  1.00  0.00    -0.000 C 
BRANCH  21  22
ATOM     22  C   UNL     1      36.376   1.809  40.208  1.00  0.00    -0.000 C 
BRANCH  22  23
ATOM     23  C   UNL     1      36.214   1.288  38.768  1.00  0.00    -0.000 C 
BRANCH  23  24
ATOM     24  C   UNL     1      35.155   2.031  37.933  1.00  0.00    -0.000 C 
BRANCH  24  25
ATOM     25  C   UNL     1      35.590   2.238  36.474  1.00  0.00    -0.003 C 
ATOM     26  C   UNL     1      36.592   1.170  36.044  1.00  0.00     0.004 C 
ENDBRANCH  24  25
ENDBRANCH  23  24
ENDBRANCH  22  23
ENDBRANCH  21  22
ENDBRANCH  20  21
ENDBRANCH  19  20
ENDBRANCH  18  19
ENDBRANCH  17  18
ENDBRANCH  16  17
ENDBRANCH  15  16
ENDBRANCH   1  15
TORSDOF 22
ENDMDL
MODEL 2
REMARK VINA RESULT:    -0.692      2.651      5.906
REMARK INTER + INTRA:          -6.476
REMARK INTER:                  -1.631
REMARK INTRA:                  -4.845
REMARK UNBOUND:                -4.894
REMARK SMILES CCCCCCCCCCCCCCCCCCCCCCCC(=O)[O-]
REMARK SMILES IDX 13 1 14 2 15 3 16 4 17 5 18 6 19 7 20 8 21 9 22 10 23 11
REMARK SMILES IDX 24 12 25 13 26 14 12 15 11 16 10 17 9 18 8 19 7 20 6 21 5 22
REMARK SMILES IDX 4 23 3 24 2 25 1 26
REMARK H PARENT
REMARK Flexibility Score: inf
ROOT
ATOM      1  C   UNL     1      36.224   3.694  37.519  1.00  0.00     0.000 C 
ENDROOT
BRANCH   1   2
ATOM      2  C   UNL     1      37.351   3.141  38.406  1.00  0.00     0.000 C 
BRANCH   2   3
ATOM      3  C   UNL     1      37.563   1.629  38.217  1.00  0.00     0.000 C 
BRANCH   3   4
ATOM      4  C   UNL     1      37.674   0.879  39.556  1.00  0.00     0.000 C 
BRANCH   4   5
ATOM      5  C   UNL     1      37.422   1.795  40.763  1.00  0.00     0.000 C 
BRANCH   5   6
ATOM      6  C   UNL     1      38.527   1.638  41.814  1.00  0.00     0.000 C 
BRANCH   6   7
ATOM      7  C   UNL     1      39.771   0.981  41.207  1.00  0.00     0.000 C 
BRANCH   7   8
ATOM      8  C   UNL     1      40.865   2.020  40.920  1.00  0.00     0.000 C 
BRANCH   8   9
ATOM      9  C   UNL     1      41.138   2.182  39.410  1.00  0.00     0.000 C 
BRANCH   9  10
ATOM     10  C   UNL     1      41.016   3.631  38.910  1.00  0.00     0.006 C 
BRANCH  10  11
ATOM     11  C   UNL     1      41.185   4.668  40.029  1.00  0.00     0.053 C 
BRANCH  11  12
ATOM     12  C   UNL     1      40.123   5.722  39.944  1.00  0.00     0.041 C 
ATOM     13  O   UNL     1      39.505   5.914  38.862  1.00  0.00    -0.550 OA
ATOM     14  O   UNL     1      39.812   6.491  41.061  1.00  0.00    -0.550 OA
ENDBRANCH  11  12
ENDBRANCH  10  11
ENDBRANCH   9  10
ENDBRANCH   8   9
ENDBRANCH   7   8
ENDBRANCH   6   7
ENDBRANCH   5   6
ENDBRANCH   4   5
ENDBRANCH   3   4
ENDBRANCH   2   3
ENDBRANCH   1   2
BRANCH   1  15
ATOM     15  C   UNL     1      34.891   2.955  37.722  1.00  0.00     0.000 C 
BRANCH  15  16
ATOM     16  C   UNL     1      33.730   3.901  38.078  1.00  0.00     0.000 C 
BRANCH  16  17
ATOM     17  C   UNL     1      33.104   3.666  39.465  1.00  0.00     0.000 C 
BRANCH  17  18
ATOM     18  C   UNL     1      33.720   2.472  40.209  1.00  0.00    -0.000 C 
BRANCH  18  19
ATOM     19  C   UNL     1      34.037   2.837  41.667  1.00  0.00    -0.000 C 
BRANCH  19  20
ATOM     20  C   UNL     1      34.323   4.339  41.851  1.00  0.00    -0.000 C 
BRANCH  20  21
ATOM     21  C   UNL     1      35.807   4.658  42.119  1.00  0.00    -0.000 C 
BRANCH  21  22
ATOM     22  C   UNL     1      36.467   5.486  40.993  1.00  0.00    -0.000 C 
BRANCH  22  23
ATOM     23  C   UNL     1      35.487   6.422  40.259  1.00  0.00    -0.000 C 
BRANCH  23  24
ATOM     24  C   UNL     1      36.106   7.206  39.089  1.00  0.00    -0.000 C 
BRANCH  24  25
ATOM     25  C   UNL     1      35.198   7.237  37.850  1.00  0.00    -0.003 C 
ATOM     26  C   UNL     1      33.792   7.709  38.214  1.00  0.00     0.004 C 
ENDBRANCH  24  25
ENDBRANCH  23  24
ENDBRANCH  22  23
ENDBRANCH  21  22
ENDBRANCH  20  21
ENDBRANCH  19  20
ENDBRANCH  18  19
ENDBRANCH  17  18
ENDBRANCH  16  17
ENDBRANCH  15  16
ENDBRANCH   1  15
TORSDOF 22
ENDMDL
MODEL 3
REMARK VINA RESULT:    -0.672      2.083      4.924
REMARK INTER + INTRA:          -6.431
REMARK INTER:                  -1.408
REMARK INTRA:                  -5.023
REMARK UNBOUND:                -4.894
REMARK SMILES CCCCCCCCCCCCCCCCCCCCCCCC(=O)[O-]
REMARK SMILES IDX 13 1 14 2 15 3 16 4 17 5 18 6 19 7 20 8 21 9 22 10 23 11
REMARK SMILES IDX 24 12 25 13 26 14 12 15 11 16 10 17 9 18 8 19 7 20 6 21 5 22
REMARK SMILES IDX 4 23 3 24 2 25 1 26
REMARK H PARENT
REMARK Flexibility Score: inf
ROOT
ATOM      1  C   UNL     1      36.138   3.320  37.588  1.00  0.00     0.000 C 
ENDROOT
BRANCH   1   2
ATOM      2  C   UNL     1      35.211   2.305  38.275  1.00  0.00     0.000 C 
BRANCH   2   3
ATOM      3  C   UNL     1      35.797   1.767  39.592  1.00  0.00     0.000 C 
BRANCH   3   4
ATOM      4  C   UNL     1      34.710   1.264  40.557  1.00  0.00     0.000 C 
BRANCH   4   5
ATOM      5  C   UNL     1      34.352   2.303  41.631  1.00  0.00     0.000 C 
BRANCH   5   6
ATOM      6  C   UNL     1      35.581   3.128  42.031  1.00  0.00     0.000 C 
BRANCH   6   7
ATOM      7  C   UNL     1      35.287   4.628  41.939  1.00  0.00     0.000 C 
BRANCH   7   8
ATOM      8  C   UNL     1      33.789   4.914  42.124  1.00  0.00     0.000 C 
BRANCH   8   9
ATOM      9  C   UNL     1      33.210   5.771  40.978  1.00  0.00     0.000 C 
BRANCH   9  10
ATOM     10  C   UNL     1      33.829   5.467  39.604  1.00  0.00     0.006 C 
BRANCH  10  11
ATOM     11  C   UNL     1      32.963   5.955  38.435  1.00  0.00     0.053 C 
BRANCH  11  12
ATOM     12  C   UNL     1      33.583   7.151  37.776  1.00  0.00     0.041 C 
ATOM     13  O   UNL     1      33.979   7.082  36.581  1.00  0.00    -0.550 OA
ATOM     14  O   UNL     1      33.720   8.343  38.479  1.00  0.00    -0.550 OA
ENDBRANCH  11  12
ENDBRANCH  10  11
ENDBRANCH   9  10
ENDBRANCH   8   9
ENDBRANCH   7   8
ENDBRANCH   6   7
ENDBRANCH   5   6
ENDBRANCH   4   5
ENDBRANCH   3   4
ENDBRANCH   2   3
ENDBRANCH   1   2
BRANCH   1  15
ATOM     15  C   UNL     1      37.061   4.048  38.580  1.00  0.00     0.000 C 
BRANCH  15  16
ATOM     16  C   UNL     1      38.537   4.040  38.141  1.00  0.00     0.000 C 
BRANCH  16  17
ATOM     17  C   UNL     1      39.557   4.051  39.296  1.00  0.00     0.000 C 
BRANCH  17  18
ATOM     18  C   UNL     1      38.957   3.591  40.633  1.00  0.00    -0.000 C 
BRANCH  18  19
ATOM     19  C   UNL     1      39.025   4.712  41.680  1.00  0.00    -0.000 C 
BRANCH  19  20
ATOM     20  C   UNL     1      39.933   5.876  41.241  1.00  0.00    -0.000 C 
BRANCH  20  21
ATOM     21  C   UNL     1      39.384   7.266  41.619  1.00  0.00    -0.000 C 
BRANCH  21  22
ATOM     22  C   UNL     1      37.921   7.229  42.118  1.00  0.00    -0.000 C 
BRANCH  22  23
ATOM     23  C   UNL     1      36.927   7.922  41.168  1.00  0.00    -0.000 C 
BRANCH  23  24
ATOM     24  C   UNL     1      36.847   7.303  39.761  1.00  0.00    -0.000 C 
BRANCH  24  25
ATOM     25  C   UNL     1      37.304   8.272  38.660  1.00  0.00    -0.003 C 
ATOM     26  C   UNL     1      38.597   7.788  38.008  1.00  0.00     0.004 C 
ENDBRANCH  24  25
ENDBRANCH  23  24
ENDBRANCH  22  23
ENDBRANCH  21  22
ENDBRANCH  20  21
ENDBRANCH  19  20
ENDBRANCH  18  19
ENDBRANCH  17  18
ENDBRANCH  16  17
ENDBRANCH  15  16
ENDBRANCH   1  15
TORSDOF 22
ENDMDL
MODEL 4
REMARK VINA RESULT:    -0.644      3.064      6.198
REMARK INTER + INTRA:          -6.367
REMARK INTER:                  -1.248
REMARK INTRA:                  -5.119
REMARK UNBOUND:                -4.894
REMARK SMILES CCCCCCCCCCCCCCCCCCCCCCCC(=O)[O-]
REMARK SMILES IDX 13 1 14 2 15 3 16 4 17 5 18 6 19 7 20 8 21 9 22 10 23 11
REMARK SMILES IDX 24 12 25 13 26 14 12 15 11 16 10 17 9 18 8 19 7 20 6 21 5 22
REMARK SMILES IDX 4 23 3 24 2 25 1 26
REMARK H PARENT
REMARK Flexibility Score: inf
ROOT
ATOM      1  C   UNL     1      37.623   6.391  37.872  1.00  0.00     0.000 C 
ENDROOT
BRANCH   1   2
ATOM      2  C   UNL     1      36.626   5.241  37.655  1.00  0.00     0.000 C 
BRANCH   2   3
ATOM      3  C   UNL     1      35.173   5.734  37.538  1.00  0.00     0.000 C 
BRANCH   3   4
ATOM      4  C   UNL     1      34.261   5.136  38.623  1.00  0.00     0.000 C 
BRANCH   4   5
ATOM      5  C   UNL     1      35.053   4.399  39.715  1.00  0.00     0.000 C 
BRANCH   5   6
ATOM      6  C   UNL     1      34.595   4.830  41.113  1.00  0.00     0.000 C 
BRANCH   6   7
ATOM      7  C   UNL     1      35.739   4.713  42.125  1.00  0.00     0.000 C 
BRANCH   7   8
ATOM      8  C   UNL     1      36.890   3.863  41.566  1.00  0.00     0.000 C 
BRANCH   8   9
ATOM      9  C   UNL     1      38.272   4.379  42.019  1.00  0.00     0.000 C 
BRANCH   9  10
ATOM     10  C   UNL     1      39.428   3.939  41.104  1.00  0.00     0.006 C 
BRANCH  10  11
ATOM     11  C   UNL     1      38.950   3.434  39.736  1.00  0.00     0.053 C 
BRANCH  11  12
ATOM     12  C   UNL     1      39.947   3.768  38.667  1.00  0.00     0.041 C 
ATOM     13  O   UNL     1      40.731   4.744  38.814  1.00  0.00    -0.550 OA
ATOM     14  O   UNL     1      40.013   3.000  37.510  1.00  0.00    -0.550 OA
ENDBRANCH  11  12
ENDBRANCH  10  11
ENDBRANCH   9  10
ENDBRANCH   8   9
ENDBRANCH   7   8
ENDBRANCH   6   7
ENDBRANCH   5   6
ENDBRANCH   4   5
ENDBRANCH   3   4
ENDBRANCH   2   3
ENDBRANCH   1   2
BRANCH   1  15
ATOM     15  C   UNL     1      37.380   7.148  39.189  1.00  0.00     0.000 C 
BRANCH  15  16
ATOM     16  C   UNL     1      38.682   7.466  39.946  1.00  0.00     0.000 C 
BRANCH  16  17
ATOM     17  C   UNL     1      38.519   8.424  41.142  1.00  0.00     0.000 C 
BRANCH  17  18
ATOM     18  C   UNL     1      37.417   7.985  42.118  1.00  0.00    -0.000 C 
BRANCH  18  19
ATOM     19  C   UNL     1      36.256   8.990  42.123  1.00  0.00    -0.000 C 
BRANCH  19  20
ATOM     20  C   UNL     1      34.903   8.329  41.801  1.00  0.00    -0.000 C 
BRANCH  20  21
ATOM     21  C   UNL     1      34.011   9.170  40.867  1.00  0.00    -0.000 C 
BRANCH  21  22
ATOM     22  C   UNL     1      34.226   8.854  39.369  1.00  0.00    -0.000 C 
BRANCH  22  23
ATOM     23  C   UNL     1      35.062   9.915  38.628  1.00  0.00    -0.000 C 
BRANCH  23  24
ATOM     24  C   UNL     1      35.520   9.499  37.218  1.00  0.00    -0.000 C 
BRANCH  24  25
ATOM     25  C   UNL     1      36.798  10.226  36.772  1.00  0.00    -0.003 C 
ATOM     26  C   UNL     1      37.678  10.571  37.971  1.00  0.00     0.004 C 
ENDBRANCH  24  25
ENDBRANCH  23  24
ENDBRANCH  22  23
ENDBRANCH  21  22
ENDBRANCH  20  21
ENDBRANCH  19  20
ENDBRANCH  18  19
ENDBRANCH  17  18
ENDBRANCH  16  17
ENDBRANCH  15  16
ENDBRANCH   1  15
TORSDOF 22
ENDMDL
MODEL 5
REMARK VINA RESULT:    -0.627      3.676      5.929
REMARK INTER + INTRA:          -6.329
REMARK INTER:                  -1.504
REMARK INTRA:                  -4.825
REMARK UNBOUND:                -4.894
REMARK SMILES CCCCCCCCCCCCCCCCCCCCCCCC(=O)[O-]
REMARK SMILES IDX 13 1 14 2 15 3 16 4 17 5 18 6 19 7 20 8 21 9 22 10 23 11
REMARK SMILES IDX 24 12 25 13 26 14 12 15 11 16 10 17 9 18 8 19 7 20 6 21 5 22
REMARK SMILES IDX 4 23 3 24 2 25 1 26
REMARK H PARENT
REMARK Flexibility Score: inf
ROOT
ATOM      1  C   UNL     1      36.992   4.892  38.438  1.00  0.00     0.000 C 
ENDROOT
BRANCH   1   2
ATOM      2  C   UNL     1      36.403   6.296  38.648  1.00  0.00     0.000 C 
BRANCH   2   3
ATOM      3  C   UNL     1      37.311   7.195  39.505  1.00  0.00     0.000 C 
BRANCH   3   4
ATOM      4  C   UNL     1      38.747   6.654  39.606  1.00  0.00     0.000 C 
BRANCH   4   5
ATOM      5  C   UNL     1      39.323   6.779  41.025  1.00  0.00     0.000 C 
BRANCH   5   6
ATOM      6  C   UNL     1      40.766   6.263  41.082  1.00  0.00     0.000 C 
BRANCH   6   7
ATOM      7  C   UNL     1      40.844   4.803  40.625  1.00  0.00     0.000 C 
BRANCH   7   8
ATOM      8  C   UNL     1      42.224   4.199  40.927  1.00  0.00     0.000 C 
BRANCH   8   9
ATOM      9  C   UNL     1      42.187   2.658  40.995  1.00  0.00     0.000 C 
BRANCH   9  10
ATOM     10  C   UNL     1      43.128   1.971  39.991  1.00  0.00     0.006 C 
BRANCH  10  11
ATOM     11  C   UNL     1      43.545   2.890  38.834  1.00  0.00     0.053 C 
BRANCH  11  12
ATOM     12  C   UNL     1      43.791   2.098  37.586  1.00  0.00     0.041 C 
ATOM     13  O   UNL     1      43.047   1.122  37.298  1.00  0.00    -0.550 OA
ATOM     14  O   UNL     1      44.839   2.438  36.737  1.00  0.00    -0.550 OA
ENDBRANCH  11  12
ENDBRANCH  10  11
ENDBRANCH   9  10
ENDBRANCH   8   9
ENDBRANCH   7   8
ENDBRANCH   6   7
ENDBRANCH   5   6
ENDBRANCH   4   5
ENDBRANCH   3   4
ENDBRANCH   2   3
ENDBRANCH   1   2
BRANCH   1  15
ATOM     15  C   UNL     1      35.978   3.773  38.729  1.00  0.00     0.000 C 
BRANCH  15  16
ATOM     16  C   UNL     1      34.966   4.152  39.826  1.00  0.00     0.000 C 
BRANCH  16  17
ATOM     17  C   UNL     1      35.271   3.570  41.219  1.00  0.00     0.000 C 
BRANCH  17  18
ATOM     18  C   UNL     1      36.204   4.462  42.053  1.00  0.00    -0.000 C 
BRANCH  18  19
ATOM     19  C   UNL     1      37.617   3.863  42.125  1.00  0.00    -0.000 C 
BRANCH  19  20
ATOM     20  C   UNL     1      37.629   2.346  41.861  1.00  0.00    -0.000 C 
BRANCH  20  21
ATOM     21  C   UNL     1      38.648   1.913  40.789  1.00  0.00    -0.000 C 
BRANCH  21  22
ATOM     22  C   UNL     1      38.059   0.938  39.744  1.00  0.00    -0.000 C 
BRANCH  22  23
ATOM     23  C   UNL     1      38.577   1.179  38.314  1.00  0.00    -0.000 C 
BRANCH  23  24
ATOM     24  C   UNL     1      39.813   2.091  38.225  1.00  0.00    -0.000 C 
BRANCH  24  25
ATOM     25  C   UNL     1      39.902   2.841  36.887  1.00  0.00    -0.003 C 
ATOM     26  C   UNL     1      40.353   4.284  37.096  1.00  0.00     0.004 C 
ENDBRANCH  24  25
ENDBRANCH  23  24
ENDBRANCH  22  23
ENDBRANCH  21  22
ENDBRANCH  20  21
ENDBRANCH  19  20
ENDBRANCH  18  19
ENDBRANCH  17  18
ENDBRANCH  16  17
ENDBRANCH  15  16
ENDBRANCH   1  15
TORSDOF 22
ENDMDL
MODEL 6
REMARK VINA RESULT:    -0.611      2.613      4.913
REMARK INTER + INTRA:          -6.291
REMARK INTER:                  -1.386
REMARK INTRA:                  -4.904
REMARK UNBOUND:                -4.894
REMARK SMILES CCCCCCCCCCCCCCCCCCCCCCCC(=O)[O-]
REMARK SMILES IDX 13 1 14 2 15 3 16 4 17 5 18 6 19 7 20 8 21 9 22 10 23 11
REMARK SMILES IDX 24 12 25 13 26 14 12 15 11 16 10 17 9 18 8 19 7 20 6 21 5 22
REMARK SMILES IDX 4 23 3 24 2 25 1 26
REMARK H PARENT
REMARK Flexibility Score: inf
ROOT
ATOM      1  C   UNL     1      37.271   2.365  37.790  1.00  0.00     0.000 C 
ENDROOT
BRANCH   1   2
ATOM      2  C   UNL     1      37.153   3.763  38.417  1.00  0.00     0.000 C 
BRANCH   2   3
ATOM      3  C   UNL     1      36.097   4.637  37.718  1.00  0.00     0.000 C 
BRANCH   3   4
ATOM      4  C   UNL     1      35.708   4.093  36.333  1.00  0.00     0.000 C 
BRANCH   4   5
ATOM      5  C   UNL     1      35.989   5.099  35.206  1.00  0.00     0.000 C 
BRANCH   5   6
ATOM      6  C   UNL     1      37.322   4.791  34.513  1.00  0.00     0.000 C 
BRANCH   6   7
ATOM      7  C   UNL     1      38.385   5.831  34.883  1.00  0.00     0.000 C 
BRANCH   7   8
ATOM      8  C   UNL     1      39.544   5.189  35.659  1.00  0.00     0.000 C 
BRANCH   8   9
ATOM      9  C   UNL     1      39.690   5.769  37.081  1.00  0.00     0.000 C 
BRANCH   9  10
ATOM     10  C   UNL     1      39.329   7.261  37.181  1.00  0.00     0.006 C 
BRANCH  10  11
ATOM     11  C   UNL     1      38.376   7.571  38.343  1.00  0.00     0.053 C 
BRANCH  11  12
ATOM     12  C   UNL     1      37.281   8.496  37.902  1.00  0.00     0.041 C 
ATOM     13  O   UNL     1      37.166   9.637  38.424  1.00  0.00    -0.550 OA
ATOM     14  O   UNL     1      36.389   8.099  36.912  1.00  0.00    -0.550 OA
ENDBRANCH  11  12
ENDBRANCH  10  11
ENDBRANCH   9  10
ENDBRANCH   8   9
ENDBRANCH   7   8
ENDBRANCH   6   7
ENDBRANCH   5   6
ENDBRANCH   4   5
ENDBRANCH   3   4
ENDBRANCH   2   3
ENDBRANCH   1   2
BRANCH   1  15
ATOM     15  C   UNL     1      38.461   1.564  38.345  1.00  0.00     0.000 C 
BRANCH  15  16
ATOM     16  C   UNL     1      39.759   2.388  38.412  1.00  0.00     0.000 C 
BRANCH  16  17
ATOM     17  C   UNL     1      40.871   1.776  39.285  1.00  0.00     0.000 C 
BRANCH  17  18
ATOM     18  C   UNL     1      41.343   2.717  40.405  1.00  0.00    -0.000 C 
BRANCH  18  19
ATOM     19  C   UNL     1      41.055   4.183  40.048  1.00  0.00    -0.000 C 
BRANCH  19  20
ATOM     20  C   UNL     1      40.385   4.950  41.203  1.00  0.00    -0.000 C 
BRANCH  20  21
ATOM     21  C   UNL     1      38.858   5.092  41.046  1.00  0.00    -0.000 C 
BRANCH  21  22
ATOM     22  C   UNL     1      38.060   4.323  42.124  1.00  0.00    -0.000 C 
BRANCH  22  23
ATOM     23  C   UNL     1      38.088   2.794  41.940  1.00  0.00    -0.000 C 
BRANCH  23  24
ATOM     24  C   UNL     1      36.711   2.154  41.686  1.00  0.00    -0.000 C 
BRANCH  24  25
ATOM     25  C   UNL     1      35.549   3.124  41.950  1.00  0.00    -0.003 C 
ATOM     26  C   UNL     1      34.482   3.009  40.863  1.00  0.00     0.004 C 
ENDBRANCH  24  25
ENDBRANCH  23  24
ENDBRANCH  22  23
ENDBRANCH  21  22
ENDBRANCH  20  21
ENDBRANCH  19  20
ENDBRANCH  18  19
ENDBRANCH  17  18
ENDBRANCH  16  17
ENDBRANCH  15  16
ENDBRANCH   1  15
TORSDOF 22
ENDMDL
MODEL 7
REMARK VINA RESULT:    -0.586      1.963      4.867
REMARK INTER + INTRA:          -6.234
REMARK INTER:                  -1.524
REMARK INTRA:                  -4.710
REMARK UNBOUND:                -4.894
REMARK SMILES CCCCCCCCCCCCCCCCCCCCCCCC(=O)[O-]
REMARK SMILES IDX 13 1 14 2 15 3 16 4 17 5 18 6 19 7 20 8 21 9 22 10 23 11
REMARK SMILES IDX 24 12 25 13 26 14 12 15 11 16 10 17 9 18 8 19 7 20 6 21 5 22
REMARK SMILES IDX 4 23 3 24 2 25 1 26
REMARK H PARENT
REMARK Flexibility Score: inf
ROOT
ATOM      1  C   UNL     1      34.726   4.232  37.745  1.00  0.00     0.000 C 
ENDROOT
BRANCH   1   2
ATOM      2  C   UNL     1      33.453   3.456  38.116  1.00  0.00     0.000 C 
BRANCH   2   3
ATOM      3  C   UNL     1      32.546   4.238  39.083  1.00  0.00     0.000 C 
BRANCH   3   4
ATOM      4  C   UNL     1      31.854   3.323  40.108  1.00  0.00     0.000 C 
BRANCH   4   5
ATOM      5  C   UNL     1      32.764   2.179  40.582  1.00  0.00     0.000 C 
BRANCH   5   6
ATOM      6  C   UNL     1      33.356   2.483  41.963  1.00  0.00     0.000 C 
BRANCH   6   7
ATOM      7  C   UNL     1      34.827   2.058  42.034  1.00  0.00     0.000 C 
BRANCH   7   8
ATOM      8  C   UNL     1      35.762   3.266  41.871  1.00  0.00     0.000 C 
BRANCH   8   9
ATOM      9  C   UNL     1      35.039   4.606  42.125  1.00  0.00     0.000 C 
BRANCH   9  10
ATOM     10  C   UNL     1      35.243   5.641  41.006  1.00  0.00     0.006 C 
BRANCH  10  11
ATOM     11  C   UNL     1      35.076   7.088  41.491  1.00  0.00     0.053 C 
BRANCH  11  12
ATOM     12  C   UNL     1      33.726   7.623  41.117  1.00  0.00     0.041 C 
ATOM     13  O   UNL     1      32.683   6.996  41.444  1.00  0.00    -0.550 OA
ATOM     14  O   UNL     1      33.619   8.815  40.410  1.00  0.00    -0.550 OA
ENDBRANCH  11  12
ENDBRANCH  10  11
ENDBRANCH   9  10
ENDBRANCH   8   9
ENDBRANCH   7   8
ENDBRANCH   6   7
ENDBRANCH   5   6
ENDBRANCH   4   5
ENDBRANCH   3   4
ENDBRANCH   2   3
ENDBRANCH   1   2
BRANCH   1  15
ATOM     15  C   UNL     1      36.012   3.450  38.063  1.00  0.00     0.000 C 
BRANCH  15  16
ATOM     16  C   UNL     1      35.747   1.969  38.391  1.00  0.00     0.000 C 
BRANCH  16  17
ATOM     17  C   UNL     1      36.969   1.193  38.916  1.00  0.00     0.000 C 
BRANCH  17  18
ATOM     18  C   UNL     1      38.253   2.035  38.941  1.00  0.00    -0.000 C 
BRANCH  18  19
ATOM     19  C   UNL     1      38.789   2.178  40.373  1.00  0.00    -0.000 C 
BRANCH  19  20
ATOM     20  C   UNL     1      39.542   3.503  40.592  1.00  0.00    -0.000 C 
BRANCH  20  21
ATOM     21  C   UNL     1      38.715   4.752  40.227  1.00  0.00    -0.000 C 
BRANCH  21  22
ATOM     22  C   UNL     1      39.587   5.985  39.896  1.00  0.00    -0.000 C 
BRANCH  22  23
ATOM     23  C   UNL     1      39.984   6.081  38.411  1.00  0.00    -0.000 C 
BRANCH  23  24
ATOM     24  C   UNL     1      38.978   5.443  37.436  1.00  0.00    -0.000 C 
BRANCH  24  25
ATOM     25  C   UNL     1      39.654   4.536  36.397  1.00  0.00    -0.003 C 
ATOM     26  C   UNL     1      38.615   3.831  35.528  1.00  0.00     0.004 C 
ENDBRANCH  24  25
ENDBRANCH  23  24
ENDBRANCH  22  23
ENDBRANCH  21  22
ENDBRANCH  20  21
ENDBRANCH  19  20
ENDBRANCH  18  19
ENDBRANCH  17  18
ENDBRANCH  16  17
ENDBRANCH  15  16
ENDBRANCH   1  15
TORSDOF 22
ENDMDL
MODEL 8
REMARK VINA RESULT:    -0.582      2.019      3.639
REMARK INTER + INTRA:          -6.224
REMARK INTER:                  -1.223
REMARK INTRA:                  -5.001
REMARK UNBOUND:                -4.894
REMARK SMILES CCCCCCCCCCCCCCCCCCCCCCCC(=O)[O-]
REMARK SMILES IDX 13 1 14 2 15 3 16 4 17 5 18 6 19 7 20 8 21 9 22 10 23 11
REMARK SMILES IDX 24 12 25 13 26 14 12 15 11 16 10 17 9 18 8 19 7 20 6 21 5 22
REMARK SMILES IDX 4 23 3 24 2 25 1 26
REMARK H PARENT
REMARK Flexibility Score: inf
ROOT
ATOM      1  C   UNL     1      40.193   5.955  35.637  1.00  0.00     0.000 C 
ENDROOT
BRANCH   1   2
ATOM      2  C   UNL     1      40.972   6.526  36.832  1.00  0.00     0.000 C 
BRANCH   2   3
ATOM      3  C   UNL     1      40.220   7.667  37.538  1.00  0.00     0.000 C 
BRANCH   3   4
ATOM      4  C   UNL     1      40.050   7.414  39.047  1.00  0.00     0.000 C 
BRANCH   4   5
ATOM      5  C   UNL     1      41.067   6.399  39.589  1.00  0.00     0.000 C 
BRANCH   5   6
ATOM      6  C   UNL     1      40.646   5.881  40.970  1.00  0.00     0.000 C 
BRANCH   6   7
ATOM      7  C   UNL     1      39.158   6.144  41.222  1.00  0.00     0.000 C 
BRANCH   7   8
ATOM      8  C   UNL     1      38.541   5.046  42.103  1.00  0.00     0.000 C 
BRANCH   8   9
ATOM      9  C   UNL     1      36.999   5.110  42.125  1.00  0.00     0.000 C 
BRANCH   9  10
ATOM     10  C   UNL     1      36.322   3.730  42.095  1.00  0.00     0.006 C 
BRANCH  10  11
ATOM     11  C   UNL     1      34.979   3.737  41.352  1.00  0.00     0.053 C 
BRANCH  11  12
ATOM     12  C   UNL     1      34.765   2.443  40.626  1.00  0.00     0.041 C 
ATOM     13  O   UNL     1      34.837   1.348  41.246  1.00  0.00    -0.550 OA
ATOM     14  O   UNL     1      34.482   2.446  39.264  1.00  0.00    -0.550 OA
ENDBRANCH  11  12
ENDBRANCH  10  11
ENDBRANCH   9  10
ENDBRANCH   8   9
ENDBRANCH   7   8
ENDBRANCH   6   7
ENDBRANCH   5   6
ENDBRANCH   4   5
ENDBRANCH   3   4
ENDBRANCH   2   3
ENDBRANCH   1   2
BRANCH   1  15
ATOM     15  C   UNL     1      38.762   6.512  35.541  1.00  0.00     0.000 C 
BRANCH  15  16
ATOM     16  C   UNL     1      37.695   5.508  36.014  1.00  0.00     0.000 C 
BRANCH  16  17
ATOM     17  C   UNL     1      36.944   5.916  37.295  1.00  0.00     0.000 C 
BRANCH  17  18
ATOM     18  C   UNL     1      37.226   4.981  38.481  1.00  0.00    -0.000 C 
BRANCH  18  19
ATOM     19  C   UNL     1      37.574   3.566  37.995  1.00  0.00    -0.000 C 
BRANCH  19  20
ATOM     20  C   UNL     1      38.145   2.680  39.117  1.00  0.00    -0.000 C 
BRANCH  20  21
ATOM     21  C   UNL     1      39.672   2.803  39.286  1.00  0.00    -0.000 C 
BRANCH  21  22
ATOM     22  C   UNL     1      40.417   3.038  37.951  1.00  0.00    -0.000 C 
BRANCH  22  23
ATOM     23  C   UNL     1      41.103   1.776  37.396  1.00  0.00    -0.000 C 
BRANCH  23  24
ATOM     24  C   UNL     1      40.860   1.521  35.898  1.00  0.00    -0.000 C 
BRANCH  24  25
ATOM     25  C   UNL     1      39.780   2.440  35.308  1.00  0.00    -0.003 C 
ATOM     26  C   UNL     1      38.514   1.654  34.974  1.00  0.00     0.004 C 
ENDBRANCH  24  25
ENDBRANCH  23  24
ENDBRANCH  22  23
ENDBRANCH  21  22
ENDBRANCH  20  21
ENDBRANCH  19  20
ENDBRANCH  18  19
ENDBRANCH  17  18
ENDBRANCH  16  17
ENDBRANCH  15  16
ENDBRANCH   1  15
TORSDOF 22
ENDMDL
MODEL 9
REMARK VINA RESULT:    -0.580      2.078      3.966
REMARK INTER + INTRA:          -6.220
REMARK INTER:                  -1.050
REMARK INTRA:                  -5.170
REMARK UNBOUND:                -4.894
REMARK SMILES CCCCCCCCCCCCCCCCCCCCCCCC(=O)[O-]
REMARK SMILES IDX 13 1 14 2 15 3 16 4 17 5 18 6 19 7 20 8 21 9 22 10 23 11
REMARK SMILES IDX 24 12 25 13 26 14 12 15 11 16 10 17 9 18 8 19 7 20 6 21 5 22
REMARK SMILES IDX 4 23 3 24 2 25 1 26
REMARK H PARENT
REMARK Flexibility Score: inf
ROOT
ATOM      1  C   UNL     1      40.936   3.624  38.554  1.00  0.00     0.000 C 
ENDROOT
BRANCH   1   2
ATOM      2  C   UNL     1      40.523   4.769  37.615  1.00  0.00     0.000 C 
BRANCH   2   3
ATOM      3  C   UNL     1      39.933   4.262  36.288  1.00  0.00     0.000 C 
BRANCH   3   4
ATOM      4  C   UNL     1      38.836   5.190  35.739  1.00  0.00     0.000 C 
BRANCH   4   5
ATOM      5  C   UNL     1      39.216   6.675  35.846  1.00  0.00     0.000 C 
BRANCH   5   6
ATOM      6  C   UNL     1      38.055   7.502  36.411  1.00  0.00     0.000 C 
BRANCH   6   7
ATOM      7  C   UNL     1      36.738   7.144  35.716  1.00  0.00     0.000 C 
BRANCH   7   8
ATOM      8  C   UNL     1      35.529   7.612  36.540  1.00  0.00     0.000 C 
BRANCH   8   9
ATOM      9  C   UNL     1      35.940   8.509  37.726  1.00  0.00     0.000 C 
BRANCH   9  10
ATOM     10  C   UNL     1      35.082   8.304  38.985  1.00  0.00     0.006 C 
BRANCH  10  11
ATOM     11  C   UNL     1      33.915   7.332  38.764  1.00  0.00     0.053 C 
BRANCH  11  12
ATOM     12  C   UNL     1      33.429   6.776  40.069  1.00  0.00     0.041 C 
ATOM     13  O   UNL     1      33.674   7.382  41.146  1.00  0.00    -0.550 OA
ATOM     14  O   UNL     1      32.701   5.592  40.095  1.00  0.00    -0.550 OA
ENDBRANCH  11  12
ENDBRANCH  10  11
ENDBRANCH   9  10
ENDBRANCH   8   9
ENDBRANCH   7   8
ENDBRANCH   6   7
ENDBRANCH   5   6
ENDBRANCH   4   5
ENDBRANCH   3   4
ENDBRANCH   2   3
ENDBRANCH   1   2
BRANCH   1  15
ATOM     15  C   UNL     1      40.144   3.621  39.872  1.00  0.00     0.000 C 
BRANCH  15  16
ATOM     16  C   UNL     1      39.474   2.266  40.166  1.00  0.00     0.000 C 
BRANCH  16  17
ATOM     17  C   UNL     1      38.673   1.671  38.994  1.00  0.00     0.000 C 
BRANCH  17  18
ATOM     18  C   UNL     1      37.269   1.201  39.402  1.00  0.00    -0.000 C 
BRANCH  18  19
ATOM     19  C   UNL     1      36.196   1.821  38.495  1.00  0.00    -0.000 C 
BRANCH  19  20
ATOM     20  C   UNL     1      36.684   3.102  37.794  1.00  0.00    -0.000 C 
BRANCH  20  21
ATOM     21  C   UNL     1      36.093   4.395  38.390  1.00  0.00    -0.000 C 
BRANCH  21  22
ATOM     22  C   UNL     1      37.142   5.265  39.121  1.00  0.00    -0.000 C 
BRANCH  22  23
ATOM     23  C   UNL     1      36.805   5.526  40.601  1.00  0.00    -0.000 C 
BRANCH  23  24
ATOM     24  C   UNL     1      36.704   4.258  41.468  1.00  0.00    -0.000 C 
BRANCH  24  25
ATOM     25  C   UNL     1      35.325   4.097  42.125  1.00  0.00    -0.003 C 
ATOM     26  C   UNL     1      34.640   2.816  41.653  1.00  0.00     0.004 C 
ENDBRANCH  24  25
ENDBRANCH  23  24
ENDBRANCH  22  23
ENDBRANCH  21  22
ENDBRANCH  20  21
ENDBRANCH  19  20
ENDBRANCH  18  19
ENDBRANCH  17  18
ENDBRANCH  16  17
ENDBRANCH  15  16
ENDBRANCH   1  15
TORSDOF 22
ENDMDL
