MODEL 1
REMARK VINA RESULT:    -3.899      0.000      0.000
REMARK INTER + INTRA:         -12.665
REMARK INTER:                  -8.914
REMARK INTRA:                  -3.750
REMARK UNBOUND:                -3.750
REMARK SMILES CCCCCCCCCCCCCCCCCCCCCCCC(=O)[O-]
REMARK SMILES IDX 13 1 14 2 15 3 16 4 17 5 18 6 19 7 20 8 21 9 22 10 23 11
REMARK SMILES IDX 24 12 25 13 26 14 12 15 11 16 10 17 9 18 8 19 7 20 6 21 5 22
REMARK SMILES IDX 4 23 3 24 2 25 1 26
REMARK H PARENT
REMARK Flexibility Score: inf
ROOT
ATOM      1  C   UNL     1     -43.578 -53.969  38.214  1.00  0.00     0.000 C 
ENDROOT
BRANCH   1   2
ATOM      2  C   UNL     1     -43.910 -52.768  37.312  1.00  0.00     0.000 C 
BRANCH   2   3
ATOM      3  C   UNL     1     -45.268 -52.917  36.605  1.00  0.00     0.000 C 
BRANCH   3   4
ATOM      4  C   UNL     1     -46.390 -52.114  37.289  1.00  0.00     0.000 C 
BRANCH   4   5
ATOM      5  C   UNL     1     -47.620 -52.942  37.715  1.00  0.00     0.000 C 
BRANCH   5   6
ATOM      6  C   UNL     1     -47.674 -53.316  39.210  1.00  0.00     0.000 C 
BRANCH   6   7
ATOM      7  C   UNL     1     -47.243 -54.760  39.540  1.00  0.00     0.000 C 
BRANCH   7   8
ATOM      8  C   UNL     1     -47.035 -55.675  38.320  1.00  0.00     0.000 C 
BRANCH   8   9
ATOM      9  C   UNL     1     -47.887 -56.953  38.380  1.00  0.00     0.000 C 
BRANCH   9  10
ATOM     10  C   UNL     1     -47.036 -58.232  38.384  1.00  0.00     0.006 C 
BRANCH  10  11
ATOM     11  C   UNL     1     -47.557 -59.293  39.364  1.00  0.00     0.053 C 
BRANCH  11  12
ATOM     12  C   UNL     1     -47.048 -59.024  40.745  1.00  0.00     0.041 C 
ATOM     13  O   UNL     1     -47.689 -59.436  41.748  1.00  0.00    -0.550 OA
ATOM     14  O   UNL     1     -45.845 -58.352  40.924  1.00  0.00    -0.550 OA
ENDBRANCH  11  12
ENDBRANCH  10  11
ENDBRANCH   9  10
ENDBRANCH   8   9
ENDBRANCH   7   8
ENDBRANCH   6   7
ENDBRANCH   5   6
ENDBRANCH   4   5
ENDBRANCH   3   4
ENDBRANCH   2   3
ENDBRANCH   1   2
BRANCH   1  15
ATOM     15  C   UNL     1     -43.807 -53.678  39.705  1.00  0.00     0.000 C 
BRANCH  15  16
ATOM     16  C   UNL     1     -43.611 -52.189  40.013  1.00  0.00     0.000 C 
BRANCH  16  17
ATOM     17  C   UNL     1     -44.761 -51.649  40.876  1.00  0.00     0.000 C 
BRANCH  17  18
ATOM     18  C   UNL     1     -45.332 -50.321  40.349  1.00  0.00    -0.000 C 
BRANCH  18  19
ATOM     19  C   UNL     1     -44.302 -49.396  39.668  1.00  0.00    -0.000 C 
BRANCH  19  20
ATOM     20  C   UNL     1     -44.699 -48.900  38.265  1.00  0.00    -0.000 C 
BRANCH  20  21
ATOM     21  C   UNL     1     -43.672 -49.196  37.154  1.00  0.00    -0.000 C 
BRANCH  21  22
ATOM     22  C   UNL     1     -44.253 -49.253  35.729  1.00  0.00    -0.000 C 
BRANCH  22  23
ATOM     23  C   UNL     1     -43.170 -49.354  34.646  1.00  0.00    -0.000 C 
BRANCH  23  24
ATOM     24  C   UNL     1     -42.450 -48.009  34.464  1.00  0.00    -0.000 C 
BRANCH  24  25
ATOM     25  C   UNL     1     -40.923 -48.137  34.567  1.00  0.00    -0.003 C 
ATOM     26  C   UNL     1     -40.386 -47.737  35.941  1.00  0.00     0.004 C 
ENDBRANCH  24  25
ENDBRANCH  23  24
ENDBRANCH  22  23
ENDBRANCH  21  22
ENDBRANCH  20  21
ENDBRANCH  19  20
ENDBRANCH  18  19
ENDBRANCH  17  18
ENDBRANCH  16  17
ENDBRANCH  15  16
ENDBRANCH   1  15
TORSDOF 22
ENDMDL
MODEL 2
REMARK VINA RESULT:    -3.862      4.249      8.542
REMARK INTER + INTRA:         -12.578
REMARK INTER:                  -8.631
REMARK INTRA:                  -3.947
REMARK UNBOUND:                -3.750
REMARK SMILES CCCCCCCCCCCCCCCCCCCCCCCC(=O)[O-]
REMARK SMILES IDX 13 1 14 2 15 3 16 4 17 5 18 6 19 7 20 8 21 9 22 10 23 11
REMARK SMILES IDX 24 12 25 13 26 14 12 15 11 16 10 17 9 18 8 19 7 20 6 21 5 22
REMARK SMILES IDX 4 23 3 24 2 25 1 26
REMARK H PARENT
REMARK Flexibility Score: inf
ROOT
ATOM      1  C   UNL     1     -42.750 -51.451  35.063  1.00  0.00     0.000 C 
ENDROOT
BRANCH   1   2
ATOM      2  C   UNL     1     -43.527 -50.125  35.010  1.00  0.00     0.000 C 
BRANCH   2   3
ATOM      3  C   UNL     1     -43.068 -49.216  33.858  1.00  0.00     0.000 C 
BRANCH   3   4
ATOM      4  C   UNL     1     -42.327 -47.957  34.347  1.00  0.00     0.000 C 
BRANCH   4   5
ATOM      5  C   UNL     1     -40.789 -48.031  34.267  1.00  0.00     0.000 C 
BRANCH   5   6
ATOM      6  C   UNL     1     -40.087 -48.521  35.549  1.00  0.00     0.000 C 
BRANCH   6   7
ATOM      7  C   UNL     1     -40.435 -47.734  36.829  1.00  0.00     0.000 C 
BRANCH   7   8
ATOM      8  C   UNL     1     -40.721 -48.598  38.071  1.00  0.00     0.000 C 
BRANCH   8   9
ATOM      9  C   UNL     1     -42.139 -49.191  38.071  1.00  0.00     0.000 C 
BRANCH   9  10
ATOM     10  C   UNL     1     -43.231 -48.112  38.150  1.00  0.00     0.006 C 
BRANCH  10  11
ATOM     11  C   UNL     1     -43.759 -47.902  39.576  1.00  0.00     0.053 C 
BRANCH  11  12
ATOM     12  C   UNL     1     -43.117 -46.704  40.201  1.00  0.00     0.041 C 
ATOM     13  O   UNL     1     -43.646 -45.567  40.082  1.00  0.00    -0.550 OA
ATOM     14  O   UNL     1     -41.954 -46.848  40.947  1.00  0.00    -0.550 OA
ENDBRANCH  11  12
ENDBRANCH  10  11
ENDBRANCH   9  10
ENDBRANCH   8   9
ENDBRANCH   7   8
ENDBRANCH   6   7
ENDBRANCH   5   6
ENDBRANCH   4   5
ENDBRANCH   3   4
ENDBRANCH   2   3
ENDBRANCH   1   2
BRANCH   1  15
ATOM     15  C   UNL     1     -43.467 -52.532  35.886  1.00  0.00     0.000 C 
BRANCH  15  16
ATOM     16  C   UNL     1     -44.389 -51.903  36.937  1.00  0.00     0.000 C 
BRANCH  16  17
ATOM     17  C   UNL     1     -45.780 -52.555  36.911  1.00  0.00     0.000 C 
BRANCH  17  18
ATOM     18  C   UNL     1     -46.853 -51.703  37.610  1.00  0.00    -0.000 C 
BRANCH  18  19
ATOM     19  C   UNL     1     -46.315 -50.466  38.360  1.00  0.00    -0.000 C 
BRANCH  19  20
ATOM     20  C   UNL     1     -46.312 -50.585  39.896  1.00  0.00    -0.000 C 
BRANCH  20  21
ATOM     21  C   UNL     1     -45.069 -51.273  40.495  1.00  0.00    -0.000 C 
BRANCH  21  22
ATOM     22  C   UNL     1     -45.362 -52.534  41.329  1.00  0.00    -0.000 C 
BRANCH  22  23
ATOM     23  C   UNL     1     -45.740 -53.746  40.466  1.00  0.00    -0.000 C 
BRANCH  23  24
ATOM     24  C   UNL     1     -47.025 -54.408  40.986  1.00  0.00    -0.000 C 
BRANCH  24  25
ATOM     25  C   UNL     1     -47.950 -53.418  41.710  1.00  0.00    -0.003 C 
ATOM     26  C   UNL     1     -49.047 -52.861  40.802  1.00  0.00     0.004 C 
ENDBRANCH  24  25
ENDBRANCH  23  24
ENDBRANCH  22  23
ENDBRANCH  21  22
ENDBRANCH  20  21
ENDBRANCH  19  20
ENDBRANCH  18  19
ENDBRANCH  17  18
ENDBRANCH  16  17
ENDBRANCH  15  16
ENDBRANCH   1  15
TORSDOF 22
ENDMDL
MODEL 3
REMARK VINA RESULT:    -3.853      4.491      7.240
REMARK INTER + INTRA:         -12.558
REMARK INTER:                  -8.592
REMARK INTRA:                  -3.966
REMARK UNBOUND:                -3.750
REMARK SMILES CCCCCCCCCCCCCCCCCCCCCCCC(=O)[O-]
REMARK SMILES IDX 13 1 14 2 15 3 16 4 17 5 18 6 19 7 20 8 21 9 22 10 23 11
REMARK SMILES IDX 24 12 25 13 26 14 12 15 11 16 10 17 9 18 8 19 7 20 6 21 5 22
REMARK SMILES IDX 4 23 3 24 2 25 1 26
REMARK H PARENT
REMARK Flexibility Score: inf
ROOT
ATOM      1  C   UNL     1     -47.439 -54.180  40.034  1.00  0.00     0.000 C 
ENDROOT
BRANCH   1   2
ATOM      2  C   UNL     1     -47.295 -54.336  38.511  1.00  0.00     0.000 C 
BRANCH   2   3
ATOM      3  C   UNL     1     -47.864 -53.135  37.737  1.00  0.00     0.000 C 
BRANCH   3   4
ATOM      4  C   UNL     1     -46.767 -52.259  37.102  1.00  0.00     0.000 C 
BRANCH   4   5
ATOM      5  C   UNL     1     -46.710 -50.807  37.619  1.00  0.00     0.000 C 
BRANCH   5   6
ATOM      6  C   UNL     1     -46.074 -49.790  36.649  1.00  0.00     0.000 C 
BRANCH   6   7
ATOM      7  C   UNL     1     -45.668 -48.444  37.284  1.00  0.00     0.000 C 
BRANCH   7   8
ATOM      8  C   UNL     1     -44.820 -48.556  38.565  1.00  0.00     0.000 C 
BRANCH   8   9
ATOM      9  C   UNL     1     -43.459 -47.852  38.443  1.00  0.00     0.000 C 
BRANCH   9  10
ATOM     10  C   UNL     1     -43.168 -46.918  39.627  1.00  0.00     0.006 C 
BRANCH  10  11
ATOM     11  C   UNL     1     -41.683 -46.542  39.740  1.00  0.00     0.053 C 
BRANCH  11  12
ATOM     12  C   UNL     1     -41.462 -45.629  40.905  1.00  0.00     0.041 C 
ATOM     13  O   UNL     1     -42.441 -45.220  41.584  1.00  0.00    -0.550 OA
ATOM     14  O   UNL     1     -40.171 -45.260  41.264  1.00  0.00    -0.550 OA
ENDBRANCH  11  12
ENDBRANCH  10  11
ENDBRANCH   9  10
ENDBRANCH   8   9
ENDBRANCH   7   8
ENDBRANCH   6   7
ENDBRANCH   5   6
ENDBRANCH   4   5
ENDBRANCH   3   4
ENDBRANCH   2   3
ENDBRANCH   1   2
BRANCH   1  15
ATOM     15  C   UNL     1     -48.312 -52.980  40.433  1.00  0.00     0.000 C 
BRANCH  15  16
ATOM     16  C   UNL     1     -47.468 -51.879  41.085  1.00  0.00     0.000 C 
BRANCH  16  17
ATOM     17  C   UNL     1     -46.070 -52.400  41.452  1.00  0.00     0.000 C 
BRANCH  17  18
ATOM     18  C   UNL     1     -44.939 -51.578  40.811  1.00  0.00    -0.000 C 
BRANCH  18  19
ATOM     19  C   UNL     1     -44.181 -52.293  39.673  1.00  0.00    -0.000 C 
BRANCH  19  20
ATOM     20  C   UNL     1     -42.931 -51.553  39.157  1.00  0.00    -0.000 C 
BRANCH  20  21
ATOM     21  C   UNL     1     -42.824 -51.447  37.623  1.00  0.00    -0.000 C 
BRANCH  21  22
ATOM     22  C   UNL     1     -41.562 -50.729  37.107  1.00  0.00    -0.000 C 
BRANCH  22  23
ATOM     23  C   UNL     1     -41.551 -50.564  35.581  1.00  0.00    -0.000 C 
BRANCH  23  24
ATOM     24  C   UNL     1     -42.982 -50.455  35.032  1.00  0.00    -0.000 C 
BRANCH  24  25
ATOM     25  C   UNL     1     -43.178 -49.228  34.129  1.00  0.00    -0.003 C 
ATOM     26  C   UNL     1     -42.483 -47.978  34.670  1.00  0.00     0.004 C 
ENDBRANCH  24  25
ENDBRANCH  23  24
ENDBRANCH  22  23
ENDBRANCH  21  22
ENDBRANCH  20  21
ENDBRANCH  19  20
ENDBRANCH  18  19
ENDBRANCH  17  18
ENDBRANCH  16  17
ENDBRANCH  15  16
ENDBRANCH   1  15
TORSDOF 22
ENDMDL
MODEL 4
REMARK VINA RESULT:    -3.845      3.184      4.649
REMARK INTER + INTRA:         -12.541
REMARK INTER:                  -8.256
REMARK INTRA:                  -4.285
REMARK UNBOUND:                -3.750
REMARK SMILES CCCCCCCCCCCCCCCCCCCCCCCC(=O)[O-]
REMARK SMILES IDX 13 1 14 2 15 3 16 4 17 5 18 6 19 7 20 8 21 9 22 10 23 11
REMARK SMILES IDX 24 12 25 13 26 14 12 15 11 16 10 17 9 18 8 19 7 20 6 21 5 22
REMARK SMILES IDX 4 23 3 24 2 25 1 26
REMARK H PARENT
REMARK Flexibility Score: inf
ROOT
ATOM      1  C   UNL     1     -44.220 -49.532  40.325  1.00  0.00     0.000 C 
ENDROOT
BRANCH   1   2
ATOM      2  C   UNL     1     -43.535 -48.170  40.128  1.00  0.00     0.000 C 
BRANCH   2   3
ATOM      3  C   UNL     1     -43.627 -47.666  38.678  1.00  0.00     0.000 C 
BRANCH   3   4
ATOM      4  C   UNL     1     -44.935 -48.084  37.981  1.00  0.00     0.000 C 
BRANCH   4   5
ATOM      5  C   UNL     1     -44.754 -48.812  36.633  1.00  0.00     0.000 C 
BRANCH   5   6
ATOM      6  C   UNL     1     -45.323 -50.245  36.580  1.00  0.00     0.000 C 
BRANCH   6   7
ATOM      7  C   UNL     1     -46.502 -50.519  37.536  1.00  0.00     0.000 C 
BRANCH   7   8
ATOM      8  C   UNL     1     -47.134 -51.917  37.409  1.00  0.00     0.000 C 
BRANCH   8   9
ATOM      9  C   UNL     1     -46.490 -52.950  38.347  1.00  0.00     0.000 C 
BRANCH   9  10
ATOM     10  C   UNL     1     -46.302 -52.416  39.776  1.00  0.00     0.006 C 
BRANCH  10  11
ATOM     11  C   UNL     1     -46.873 -53.359  40.845  1.00  0.00     0.053 C 
BRANCH  11  12
ATOM     12  C   UNL     1     -48.077 -52.748  41.491  1.00  0.00     0.041 C 
ATOM     13  O   UNL     1     -47.987 -52.232  42.637  1.00  0.00    -0.550 OA
ATOM     14  O   UNL     1     -49.289 -52.715  40.814  1.00  0.00    -0.550 OA
ENDBRANCH  11  12
ENDBRANCH  10  11
ENDBRANCH   9  10
ENDBRANCH   8   9
ENDBRANCH   7   8
ENDBRANCH   6   7
ENDBRANCH   5   6
ENDBRANCH   4   5
ENDBRANCH   3   4
ENDBRANCH   2   3
ENDBRANCH   1   2
BRANCH   1  15
ATOM     15  C   UNL     1     -43.339 -50.541  41.079  1.00  0.00     0.000 C 
BRANCH  15  16
ATOM     16  C   UNL     1     -42.155 -50.991  40.216  1.00  0.00     0.000 C 
BRANCH  16  17
ATOM     17  C   UNL     1     -42.629 -51.461  38.832  1.00  0.00     0.000 C 
BRANCH  17  18
ATOM     18  C   UNL     1     -41.863 -50.791  37.679  1.00  0.00    -0.000 C 
BRANCH  18  19
ATOM     19  C   UNL     1     -40.653 -49.937  38.111  1.00  0.00    -0.000 C 
BRANCH  19  20
ATOM     20  C   UNL     1     -39.969 -49.152  36.975  1.00  0.00    -0.000 C 
BRANCH  20  21
ATOM     21  C   UNL     1     -40.752 -47.924  36.468  1.00  0.00    -0.000 C 
BRANCH  21  22
ATOM     22  C   UNL     1     -40.924 -47.849  34.939  1.00  0.00    -0.000 C 
BRANCH  22  23
ATOM     23  C   UNL     1     -42.395 -47.894  34.502  1.00  0.00    -0.000 C 
BRANCH  23  24
ATOM     24  C   UNL     1     -42.636 -49.042  33.510  1.00  0.00    -0.000 C 
BRANCH  24  25
ATOM     25  C   UNL     1     -41.710 -50.242  33.758  1.00  0.00    -0.003 C 
ATOM     26  C   UNL     1     -42.452 -51.458  34.313  1.00  0.00     0.004 C 
ENDBRANCH  24  25
ENDBRANCH  23  24
ENDBRANCH  22  23
ENDBRANCH  21  22
ENDBRANCH  20  21
ENDBRANCH  19  20
ENDBRANCH  18  19
ENDBRANCH  17  18
ENDBRANCH  16  17
ENDBRANCH  15  16
ENDBRANCH   1  15
TORSDOF 22
ENDMDL
MODEL 5
REMARK VINA RESULT:    -3.837      4.584      8.778
REMARK INTER + INTRA:         -12.522
REMARK INTER:                  -7.964
REMARK INTRA:                  -4.557
REMARK UNBOUND:                -3.750
REMARK SMILES CCCCCCCCCCCCCCCCCCCCCCCC(=O)[O-]
REMARK SMILES IDX 13 1 14 2 15 3 16 4 17 5 18 6 19 7 20 8 21 9 22 10 23 11
REMARK SMILES IDX 24 12 25 13 26 14 12 15 11 16 10 17 9 18 8 19 7 20 6 21 5 22
REMARK SMILES IDX 4 23 3 24 2 25 1 26
REMARK H PARENT
REMARK Flexibility Score: inf
ROOT
ATOM      1  C   UNL     1     -44.307 -51.932  39.521  1.00  0.00     0.000 C 
ENDROOT
BRANCH   1   2
ATOM      2  C   UNL     1     -43.018 -51.319  38.951  1.00  0.00     0.000 C 
BRANCH   2   3
ATOM      3  C   UNL     1     -42.608 -51.946  37.608  1.00  0.00     0.000 C 
BRANCH   3   4
ATOM      4  C   UNL     1     -42.340 -50.895  36.514  1.00  0.00     0.000 C 
BRANCH   4   5
ATOM      5  C   UNL     1     -43.603 -50.280  35.877  1.00  0.00     0.000 C 
BRANCH   5   6
ATOM      6  C   UNL     1     -43.723 -48.748  36.004  1.00  0.00     0.000 C 
BRANCH   6   7
ATOM      7  C   UNL     1     -44.755 -48.255  37.040  1.00  0.00     0.000 C 
BRANCH   7   8
ATOM      8  C   UNL     1     -44.163 -47.810  38.390  1.00  0.00     0.000 C 
BRANCH   8   9
ATOM      9  C   UNL     1     -42.634 -47.656  38.350  1.00  0.00     0.000 C 
BRANCH   9  10
ATOM     10  C   UNL     1     -41.981 -47.875  39.724  1.00  0.00     0.006 C 
BRANCH  10  11
ATOM     11  C   UNL     1     -42.498 -46.901  40.792  1.00  0.00     0.053 C 
BRANCH  11  12
ATOM     12  C   UNL     1     -42.074 -45.502  40.472  1.00  0.00     0.041 C 
ATOM     13  O   UNL     1     -42.937 -44.627  40.193  1.00  0.00    -0.550 OA
ATOM     14  O   UNL     1     -40.730 -45.155  40.519  1.00  0.00    -0.550 OA
ENDBRANCH  11  12
ENDBRANCH  10  11
ENDBRANCH   9  10
ENDBRANCH   8   9
ENDBRANCH   7   8
ENDBRANCH   6   7
ENDBRANCH   5   6
ENDBRANCH   4   5
ENDBRANCH   3   4
ENDBRANCH   2   3
ENDBRANCH   1   2
BRANCH   1  15
ATOM     15  C   UNL     1     -45.386 -50.881  39.827  1.00  0.00     0.000 C 
BRANCH  15  16
ATOM     16  C   UNL     1     -46.431 -50.824  38.707  1.00  0.00     0.000 C 
BRANCH  16  17
ATOM     17  C   UNL     1     -46.350 -52.070  37.813  1.00  0.00     0.000 C 
BRANCH  17  18
ATOM     18  C   UNL     1     -47.654 -52.886  37.805  1.00  0.00    -0.000 C 
BRANCH  18  19
ATOM     19  C   UNL     1     -47.520 -54.331  38.329  1.00  0.00    -0.000 C 
BRANCH  19  20
ATOM     20  C   UNL     1     -46.075 -54.860  38.423  1.00  0.00    -0.000 C 
BRANCH  20  21
ATOM     21  C   UNL     1     -45.780 -55.732  39.659  1.00  0.00    -0.000 C 
BRANCH  21  22
ATOM     22  C   UNL     1     -46.524 -55.316  40.942  1.00  0.00    -0.000 C 
BRANCH  22  23
ATOM     23  C   UNL     1     -45.752 -54.279  41.770  1.00  0.00    -0.000 C 
BRANCH  23  24
ATOM     24  C   UNL     1     -46.712 -53.262  42.406  1.00  0.00    -0.000 C 
BRANCH  24  25
ATOM     25  C   UNL     1     -48.100 -53.267  41.748  1.00  0.00    -0.003 C 
ATOM     26  C   UNL     1     -48.609 -51.862  41.429  1.00  0.00     0.004 C 
ENDBRANCH  24  25
ENDBRANCH  23  24
ENDBRANCH  22  23
ENDBRANCH  21  22
ENDBRANCH  20  21
ENDBRANCH  19  20
ENDBRANCH  18  19
ENDBRANCH  17  18
ENDBRANCH  16  17
ENDBRANCH  15  16
ENDBRANCH   1  15
TORSDOF 22
ENDMDL
MODEL 6
REMARK VINA RESULT:    -3.829      3.070      6.160
REMARK INTER + INTRA:         -12.503
REMARK INTER:                  -8.361
REMARK INTRA:                  -4.142
REMARK UNBOUND:                -3.750
REMARK SMILES CCCCCCCCCCCCCCCCCCCCCCCC(=O)[O-]
REMARK SMILES IDX 13 1 14 2 15 3 16 4 17 5 18 6 19 7 20 8 21 9 22 10 23 11
REMARK SMILES IDX 24 12 25 13 26 14 12 15 11 16 10 17 9 18 8 19 7 20 6 21 5 22
REMARK SMILES IDX 4 23 3 24 2 25 1 26
REMARK H PARENT
REMARK Flexibility Score: inf
ROOT
ATOM      1  C   UNL     1     -44.618 -49.906  36.375  1.00  0.00     0.000 C 
ENDROOT
BRANCH   1   2
ATOM      2  C   UNL     1     -43.819 -49.397  35.165  1.00  0.00     0.000 C 
BRANCH   2   3
ATOM      3  C   UNL     1     -42.895 -48.219  35.518  1.00  0.00     0.000 C 
BRANCH   3   4
ATOM      4  C   UNL     1     -42.017 -47.772  34.335  1.00  0.00     0.000 C 
BRANCH   4   5
ATOM      5  C   UNL     1     -40.526 -48.150  34.448  1.00  0.00     0.000 C 
BRANCH   5   6
ATOM      6  C   UNL     1     -40.218 -49.656  34.323  1.00  0.00     0.000 C 
BRANCH   6   7
ATOM      7  C   UNL     1     -39.892 -50.371  35.650  1.00  0.00     0.000 C 
BRANCH   7   8
ATOM      8  C   UNL     1     -40.810 -51.558  35.995  1.00  0.00     0.000 C 
BRANCH   8   9
ATOM      9  C   UNL     1     -41.493 -51.405  37.363  1.00  0.00     0.000 C 
BRANCH   9  10
ATOM     10  C   UNL     1     -42.100 -52.723  37.871  1.00  0.00     0.006 C 
BRANCH  10  11
ATOM     11  C   UNL     1     -43.447 -53.052  37.212  1.00  0.00     0.053 C 
BRANCH  11  12
ATOM     12  C   UNL     1     -44.097 -54.211  37.901  1.00  0.00     0.041 C 
ATOM     13  O   UNL     1     -45.195 -54.663  37.480  1.00  0.00    -0.550 OA
ATOM     14  O   UNL     1     -43.471 -54.817  38.983  1.00  0.00    -0.550 OA
ENDBRANCH  11  12
ENDBRANCH  10  11
ENDBRANCH   9  10
ENDBRANCH   8   9
ENDBRANCH   7   8
ENDBRANCH   6   7
ENDBRANCH   5   6
ENDBRANCH   4   5
ENDBRANCH   3   4
ENDBRANCH   2   3
ENDBRANCH   1   2
BRANCH   1  15
ATOM     15  C   UNL     1     -45.664 -48.895  36.869  1.00  0.00     0.000 C 
BRANCH  15  16
ATOM     16  C   UNL     1     -46.896 -49.610  37.438  1.00  0.00     0.000 C 
BRANCH  16  17
ATOM     17  C   UNL     1     -46.690 -51.132  37.454  1.00  0.00     0.000 C 
BRANCH  17  18
ATOM     18  C   UNL     1     -46.895 -51.747  38.849  1.00  0.00    -0.000 C 
BRANCH  18  19
ATOM     19  C   UNL     1     -46.213 -50.983  40.003  1.00  0.00    -0.000 C 
BRANCH  19  20
ATOM     20  C   UNL     1     -44.758 -51.401  40.293  1.00  0.00    -0.000 C 
BRANCH  20  21
ATOM     21  C   UNL     1     -43.849 -50.274  40.821  1.00  0.00    -0.000 C 
BRANCH  21  22
ATOM     22  C   UNL     1     -43.960 -48.939  40.061  1.00  0.00    -0.000 C 
BRANCH  22  23
ATOM     23  C   UNL     1     -42.706 -48.616  39.236  1.00  0.00    -0.000 C 
BRANCH  23  24
ATOM     24  C   UNL     1     -42.478 -47.099  39.158  1.00  0.00    -0.000 C 
BRANCH  24  25
ATOM     25  C   UNL     1     -43.546 -46.301  39.921  1.00  0.00    -0.003 C 
ATOM     26  C   UNL     1     -42.970 -45.083  40.643  1.00  0.00     0.004 C 
ENDBRANCH  24  25
ENDBRANCH  23  24
ENDBRANCH  22  23
ENDBRANCH  21  22
ENDBRANCH  20  21
ENDBRANCH  19  20
ENDBRANCH  18  19
ENDBRANCH  17  18
ENDBRANCH  16  17
ENDBRANCH  15  16
ENDBRANCH   1  15
TORSDOF 22
ENDMDL
MODEL 7
REMARK VINA RESULT:    -3.814      1.774      3.769
REMARK INTER + INTRA:         -12.469
REMARK INTER:                  -8.899
REMARK INTRA:                  -3.569
REMARK UNBOUND:                -3.750
REMARK SMILES CCCCCCCCCCCCCCCCCCCCCCCC(=O)[O-]
REMARK SMILES IDX 13 1 14 2 15 3 16 4 17 5 18 6 19 7 20 8 21 9 22 10 23 11
REMARK SMILES IDX 24 12 25 13 26 14 12 15 11 16 10 17 9 18 8 19 7 20 6 21 5 22
REMARK SMILES IDX 4 23 3 24 2 25 1 26
REMARK H PARENT
REMARK Flexibility Score: inf
ROOT
ATOM      1  C   UNL     1     -43.499 -48.424  40.218  1.00  0.00     0.000 C 
ENDROOT
BRANCH   1   2
ATOM      2  C   UNL     1     -43.885 -47.574  38.997  1.00  0.00     0.000 C 
BRANCH   2   3
ATOM      3  C   UNL     1     -44.311 -48.429  37.791  1.00  0.00     0.000 C 
BRANCH   3   4
ATOM      4  C   UNL     1     -45.691 -48.032  37.234  1.00  0.00     0.000 C 
BRANCH   4   5
ATOM      5  C   UNL     1     -46.830 -49.025  37.544  1.00  0.00     0.000 C 
BRANCH   5   6
ATOM      6  C   UNL     1     -46.706 -50.402  36.862  1.00  0.00     0.000 C 
BRANCH   6   7
ATOM      7  C   UNL     1     -46.266 -51.555  37.787  1.00  0.00     0.000 C 
BRANCH   7   8
ATOM      8  C   UNL     1     -47.416 -52.344  38.440  1.00  0.00     0.000 C 
BRANCH   8   9
ATOM      9  C   UNL     1     -47.443 -53.821  38.015  1.00  0.00     0.000 C 
BRANCH   9  10
ATOM     10  C   UNL     1     -46.623 -54.721  38.953  1.00  0.00     0.006 C 
BRANCH  10  11
ATOM     11  C   UNL     1     -47.385 -55.982  39.386  1.00  0.00     0.053 C 
BRANCH  11  12
ATOM     12  C   UNL     1     -47.082 -57.118  38.461  1.00  0.00     0.041 C 
ATOM     13  O   UNL     1     -45.891 -57.376  38.143  1.00  0.00    -0.550 OA
ATOM     14  O   UNL     1     -48.112 -57.917  37.979  1.00  0.00    -0.550 OA
ENDBRANCH  11  12
ENDBRANCH  10  11
ENDBRANCH   9  10
ENDBRANCH   8   9
ENDBRANCH   7   8
ENDBRANCH   6   7
ENDBRANCH   5   6
ENDBRANCH   4   5
ENDBRANCH   3   4
ENDBRANCH   2   3
ENDBRANCH   1   2
BRANCH   1  15
ATOM     15  C   UNL     1     -44.295 -49.735  40.310  1.00  0.00     0.000 C 
BRANCH  15  16
ATOM     16  C   UNL     1     -43.367 -50.924  40.584  1.00  0.00     0.000 C 
BRANCH  16  17
ATOM     17  C   UNL     1     -42.913 -51.581  39.271  1.00  0.00     0.000 C 
BRANCH  17  18
ATOM     18  C   UNL     1     -41.447 -51.270  38.924  1.00  0.00    -0.000 C 
BRANCH  18  19
ATOM     19  C   UNL     1     -41.249 -50.369  37.687  1.00  0.00    -0.000 C 
BRANCH  19  20
ATOM     20  C   UNL     1     -40.601 -49.000  37.975  1.00  0.00    -0.000 C 
BRANCH  20  21
ATOM     21  C   UNL     1     -40.795 -47.943  36.870  1.00  0.00    -0.000 C 
BRANCH  21  22
ATOM     22  C   UNL     1     -40.128 -48.278  35.523  1.00  0.00    -0.000 C 
BRANCH  22  23
ATOM     23  C   UNL     1     -40.925 -47.762  34.317  1.00  0.00    -0.000 C 
BRANCH  23  24
ATOM     24  C   UNL     1     -42.435 -47.914  34.553  1.00  0.00    -0.000 C 
BRANCH  24  25
ATOM     25  C   UNL     1     -43.013 -49.172  33.888  1.00  0.00    -0.003 C 
ATOM     26  C   UNL     1     -43.430 -50.239  34.901  1.00  0.00     0.004 C 
ENDBRANCH  24  25
ENDBRANCH  23  24
ENDBRANCH  22  23
ENDBRANCH  21  22
ENDBRANCH  20  21
ENDBRANCH  19  20
ENDBRANCH  18  19
ENDBRANCH  17  18
ENDBRANCH  16  17
ENDBRANCH  15  16
ENDBRANCH   1  15
TORSDOF 22
ENDMDL
MODEL 8
REMARK VINA RESULT:    -3.808      3.897      8.012
REMARK INTER + INTRA:         -12.456
REMARK INTER:                  -8.342
REMARK INTRA:                  -4.114
REMARK UNBOUND:                -3.750
REMARK SMILES CCCCCCCCCCCCCCCCCCCCCCCC(=O)[O-]
REMARK SMILES IDX 13 1 14 2 15 3 16 4 17 5 18 6 19 7 20 8 21 9 22 10 23 11
REMARK SMILES IDX 24 12 25 13 26 14 12 15 11 16 10 17 9 18 8 19 7 20 6 21 5 22
REMARK SMILES IDX 4 23 3 24 2 25 1 26
REMARK H PARENT
REMARK Flexibility Score: inf
ROOT
ATOM      1  C   UNL     1     -42.791 -52.016  37.144  1.00  0.00     0.000 C 
ENDROOT
BRANCH   1   2
ATOM      2  C   UNL     1     -43.553 -51.449  35.936  1.00  0.00     0.000 C 
BRANCH   2   3
ATOM      3  C   UNL     1     -42.716 -50.443  35.126  1.00  0.00     0.000 C 
BRANCH   3   4
ATOM      4  C   UNL     1     -43.372 -49.053  35.038  1.00  0.00     0.000 C 
BRANCH   4   5
ATOM      5  C   UNL     1     -42.481 -47.947  34.437  1.00  0.00     0.000 C 
BRANCH   5   6
ATOM      6  C   UNL     1     -40.970 -48.253  34.429  1.00  0.00     0.000 C 
BRANCH   6   7
ATOM      7  C   UNL     1     -40.193 -47.752  35.665  1.00  0.00     0.000 C 
BRANCH   7   8
ATOM      8  C   UNL     1     -39.745 -48.851  36.644  1.00  0.00     0.000 C 
BRANCH   8   9
ATOM      9  C   UNL     1     -40.613 -48.911  37.912  1.00  0.00     0.000 C 
BRANCH   9  10
ATOM     10  C   UNL     1     -41.298 -47.570  38.223  1.00  0.00     0.006 C 
BRANCH  10  11
ATOM     11  C   UNL     1     -42.796 -47.721  38.524  1.00  0.00     0.053 C 
BRANCH  11  12
ATOM     12  C   UNL     1     -43.119 -47.146  39.867  1.00  0.00     0.041 C 
ATOM     13  O   UNL     1     -42.554 -47.593  40.900  1.00  0.00    -0.550 OA
ATOM     14  O   UNL     1     -44.017 -46.091  39.973  1.00  0.00    -0.550 OA
ENDBRANCH  11  12
ENDBRANCH  10  11
ENDBRANCH   9  10
ENDBRANCH   8   9
ENDBRANCH   7   8
ENDBRANCH   6   7
ENDBRANCH   5   6
ENDBRANCH   4   5
ENDBRANCH   3   4
ENDBRANCH   2   3
ENDBRANCH   1   2
BRANCH   1  15
ATOM     15  C   UNL     1     -43.187 -51.347  38.469  1.00  0.00     0.000 C 
BRANCH  15  16
ATOM     16  C   UNL     1     -43.639 -52.390  39.499  1.00  0.00     0.000 C 
BRANCH  16  17
ATOM     17  C   UNL     1     -44.668 -51.793  40.471  1.00  0.00     0.000 C 
BRANCH  17  18
ATOM     18  C   UNL     1     -45.440 -52.867  41.257  1.00  0.00    -0.000 C 
BRANCH  18  19
ATOM     19  C   UNL     1     -46.934 -52.557  41.484  1.00  0.00    -0.000 C 
BRANCH  19  20
ATOM     20  C   UNL     1     -47.913 -53.451  40.698  1.00  0.00    -0.000 C 
BRANCH  20  21
ATOM     21  C   UNL     1     -47.255 -54.590  39.895  1.00  0.00    -0.000 C 
BRANCH  21  22
ATOM     22  C   UNL     1     -47.215 -54.372  38.370  1.00  0.00    -0.000 C 
BRANCH  22  23
ATOM     23  C   UNL     1     -47.828 -53.031  37.943  1.00  0.00    -0.000 C 
BRANCH  23  24
ATOM     24  C   UNL     1     -46.753 -52.097  37.366  1.00  0.00    -0.000 C 
BRANCH  24  25
ATOM     25  C   UNL     1     -46.849 -50.670  37.925  1.00  0.00    -0.003 C 
ATOM     26  C   UNL     1     -46.544 -49.601  36.876  1.00  0.00     0.004 C 
ENDBRANCH  24  25
ENDBRANCH  23  24
ENDBRANCH  22  23
ENDBRANCH  21  22
ENDBRANCH  20  21
ENDBRANCH  19  20
ENDBRANCH  18  19
ENDBRANCH  17  18
ENDBRANCH  16  17
ENDBRANCH  15  16
ENDBRANCH   1  15
TORSDOF 22
ENDMDL
MODEL 9
REMARK VINA RESULT:    -3.739      3.198      5.083
REMARK INTER + INTRA:         -12.299
REMARK INTER:                  -8.483
REMARK INTRA:                  -3.815
REMARK UNBOUND:                -3.750
REMARK SMILES CCCCCCCCCCCCCCCCCCCCCCCC(=O)[O-]
REMARK SMILES IDX 13 1 14 2 15 3 16 4 17 5 18 6 19 7 20 8 21 9 22 10 23 11
REMARK SMILES IDX 24 12 25 13 26 14 12 15 11 16 10 17 9 18 8 19 7 20 6 21 5 22
REMARK SMILES IDX 4 23 3 24 2 25 1 26
REMARK H PARENT
REMARK Flexibility Score: inf
ROOT
ATOM      1  C   UNL     1     -41.352 -49.496  37.333  1.00  0.00     0.000 C 
ENDROOT
BRANCH   1   2
ATOM      2  C   UNL     1     -41.464 -48.344  36.322  1.00  0.00     0.000 C 
BRANCH   2   3
ATOM      3  C   UNL     1     -42.778 -48.381  35.524  1.00  0.00     0.000 C 
BRANCH   3   4
ATOM      4  C   UNL     1     -44.026 -48.396  36.426  1.00  0.00     0.000 C 
BRANCH   4   5
ATOM      5  C   UNL     1     -44.918 -49.646  36.288  1.00  0.00     0.000 C 
BRANCH   5   6
ATOM      6  C   UNL     1     -46.022 -49.786  37.355  1.00  0.00     0.000 C 
BRANCH   6   7
ATOM      7  C   UNL     1     -46.875 -51.068  37.252  1.00  0.00     0.000 C 
BRANCH   7   8
ATOM      8  C   UNL     1     -46.078 -52.369  37.049  1.00  0.00     0.000 C 
BRANCH   8   9
ATOM      9  C   UNL     1     -46.338 -53.406  38.153  1.00  0.00     0.000 C 
BRANCH   9  10
ATOM     10  C   UNL     1     -47.610 -53.104  38.960  1.00  0.00     0.006 C 
BRANCH  10  11
ATOM     11  C   UNL     1     -47.455 -53.416  40.456  1.00  0.00     0.053 C 
BRANCH  11  12
ATOM     12  C   UNL     1     -47.720 -52.193  41.276  1.00  0.00     0.041 C 
ATOM     13  O   UNL     1     -48.002 -52.300  42.499  1.00  0.00    -0.550 OA
ATOM     14  O   UNL     1     -47.620 -50.934  40.698  1.00  0.00    -0.550 OA
ENDBRANCH  11  12
ENDBRANCH  10  11
ENDBRANCH   9  10
ENDBRANCH   8   9
ENDBRANCH   7   8
ENDBRANCH   6   7
ENDBRANCH   5   6
ENDBRANCH   4   5
ENDBRANCH   3   4
ENDBRANCH   2   3
ENDBRANCH   1   2
BRANCH   1  15
ATOM     15  C   UNL     1     -41.555 -50.877  36.690  1.00  0.00     0.000 C 
BRANCH  15  16
ATOM     16  C   UNL     1     -42.199 -51.855  37.680  1.00  0.00     0.000 C 
BRANCH  16  17
ATOM     17  C   UNL     1     -42.318 -51.227  39.077  1.00  0.00     0.000 C 
BRANCH  17  18
ATOM     18  C   UNL     1     -43.626 -51.605  39.792  1.00  0.00    -0.000 C 
BRANCH  18  19
ATOM     19  C   UNL     1     -44.257 -50.476  40.633  1.00  0.00    -0.000 C 
BRANCH  19  20
ATOM     20  C   UNL     1     -43.489 -49.140  40.611  1.00  0.00    -0.000 C 
BRANCH  20  21
ATOM     21  C   UNL     1     -44.086 -48.060  39.686  1.00  0.00    -0.000 C 
BRANCH  21  22
ATOM     22  C   UNL     1     -43.502 -46.648  39.874  1.00  0.00    -0.000 C 
BRANCH  22  23
ATOM     23  C   UNL     1     -41.997 -46.580  39.580  1.00  0.00    -0.000 C 
BRANCH  23  24
ATOM     24  C   UNL     1     -41.231 -45.997  40.777  1.00  0.00    -0.000 C 
BRANCH  24  25
ATOM     25  C   UNL     1     -41.775 -44.630  41.218  1.00  0.00    -0.003 C 
ATOM     26  C   UNL     1     -40.774 -43.496  40.998  1.00  0.00     0.004 C 
ENDBRANCH  24  25
ENDBRANCH  23  24
ENDBRANCH  22  23
ENDBRANCH  21  22
ENDBRANCH  20  21
ENDBRANCH  19  20
ENDBRANCH  18  19
ENDBRANCH  17  18
ENDBRANCH  16  17
ENDBRANCH  15  16
ENDBRANCH   1  15
TORSDOF 22
ENDMDL
