MODEL 1
REMARK VINA RESULT:    -8.460      0.000      0.000
REMARK INTER + INTRA:         -10.543
REMARK INTER:                 -10.191
REMARK INTRA:                  -0.352
REMARK UNBOUND:                -0.352
REMARK SMILES Oc1cc(O)c2cc(O)c(-c3ccc(O)c(O)c3)[o+]c2c1.[Cl-]
REMARK SMILES IDX 10 1 19 2 20 3 21 4 2 5 3 6 4 7 6 8 7 9 8 10 11 11 12 12
REMARK SMILES IDX 13 13 14 14 18 15 16 16 15 17 17 19 9 21 1 23 5 25
REMARK H PARENT 15 18 17 20 9 22 1 24 5 26
REMARK Flexibility Score: inf
ROOT
ATOM      1  C   UNL     1      -2.890  -0.076   9.528  1.00  0.00     0.402 A 
ATOM      2  O   UNL     1      -2.996   0.361  10.779  1.00  0.00    -0.202 OA
ATOM      3  C   UNL     1      -3.460  -0.386  11.777  1.00  0.00     0.368 A 
ATOM      4  C   UNL     1      -3.535   0.164  13.059  1.00  0.00     0.162 A 
ATOM      5  C   UNL     1      -4.021  -0.600  14.126  1.00  0.00     0.128 A 
ATOM      6  C   UNL     1      -4.435  -1.915  13.908  1.00  0.00     0.093 A 
ATOM      7  C   UNL     1      -4.369  -2.489  12.631  1.00  0.00     0.136 A 
ATOM      8  C   UNL     1      -3.874  -1.721  11.547  1.00  0.00     0.125 A 
ATOM      9  C   UNL     1      -3.760  -2.216  10.238  1.00  0.00     0.078 A 
ATOM     10  C   UNL     1      -3.257  -1.400   9.220  1.00  0.00     0.223 A 
ENDROOT
BRANCH   1  11
ATOM     11  C   UNL     1      -2.369   0.856   8.502  1.00  0.00     0.087 A 
ATOM     12  C   UNL     1      -3.233   1.605   7.685  1.00  0.00     0.022 A 
ATOM     13  C   UNL     1      -2.716   2.495   6.740  1.00  0.00     0.051 A 
ATOM     14  C   UNL     1      -1.331   2.659   6.605  1.00  0.00     0.157 A 
ATOM     15  C   UNL     1      -0.982   1.038   8.377  1.00  0.00     0.068 A 
ATOM     16  C   UNL     1      -0.460   1.929   7.431  1.00  0.00     0.158 A 
BRANCH  14  17
ATOM     17  O   UNL     1      -0.819   3.546   5.660  1.00  0.00    -0.504 OA
ATOM     18  H   UNL     1      -0.384   4.421   5.934  1.00  0.00     0.293 HD
ENDBRANCH  14  17
BRANCH  16  19
ATOM     19  O   UNL     1       0.922   2.074   7.327  1.00  0.00    -0.504 OA
ATOM     20  H   UNL     1       1.553   1.749   8.048  1.00  0.00     0.293 HD
ENDBRANCH  16  19
ENDBRANCH   1  11
BRANCH  10  21
ATOM     21  O   UNL     1      -3.097  -1.908   7.930  1.00  0.00    -0.500 OA
ATOM     22  H   UNL     1      -2.329  -1.619   7.336  1.00  0.00     0.294 HD
ENDBRANCH  10  21
BRANCH   5  23
ATOM     23  O   UNL     1      -4.100  -0.058  15.407  1.00  0.00    -0.507 OA
ATOM     24  H   UNL     1      -4.611  -0.522  16.148  1.00  0.00     0.293 HD
ENDBRANCH   5  23
BRANCH   7  25
ATOM     25  O   UNL     1      -4.805  -3.810  12.497  1.00  0.00    -0.507 OA
ATOM     26  H   UNL     1      -5.594  -4.095  11.935  1.00  0.00     0.293 HD
ENDBRANCH   7  25
TORSDOF 6
ENDMDL
MODEL 2
REMARK VINA RESULT:    -8.401      1.884      2.795
REMARK INTER + INTRA:         -10.471
REMARK INTER:                 -10.130
REMARK INTRA:                  -0.341
REMARK UNBOUND:                -0.352
REMARK SMILES Oc1cc(O)c2cc(O)c(-c3ccc(O)c(O)c3)[o+]c2c1.[Cl-]
REMARK SMILES IDX 10 1 19 2 20 3 21 4 2 5 3 6 4 7 6 8 7 9 8 10 11 11 12 12
REMARK SMILES IDX 13 13 14 14 18 15 16 16 15 17 17 19 9 21 1 23 5 25
REMARK H PARENT 15 18 17 20 9 22 1 24 5 26
REMARK Flexibility Score: inf
ROOT
ATOM      1  C   UNL     1      -2.799   0.081  10.219  1.00  0.00     0.402 A 
ATOM      2  O   UNL     1      -4.066  -0.241   9.974  1.00  0.00    -0.202 OA
ATOM      3  C   UNL     1      -4.777  -1.052  10.752  1.00  0.00     0.368 A 
ATOM      4  C   UNL     1      -6.101  -1.333  10.410  1.00  0.00     0.162 A 
ATOM      5  C   UNL     1      -6.871  -2.185  11.210  1.00  0.00     0.128 A 
ATOM      6  C   UNL     1      -6.311  -2.758  12.353  1.00  0.00     0.093 A 
ATOM      7  C   UNL     1      -4.985  -2.492  12.718  1.00  0.00     0.136 A 
ATOM      8  C   UNL     1      -4.201  -1.627  11.913  1.00  0.00     0.125 A 
ATOM      9  C   UNL     1      -2.869  -1.293  12.206  1.00  0.00     0.078 A 
ATOM     10  C   UNL     1      -2.161  -0.428  11.366  1.00  0.00     0.223 A 
ENDROOT
BRANCH   1  11
ATOM     11  C   UNL     1      -2.110   0.986   9.271  1.00  0.00     0.087 A 
ATOM     12  C   UNL     1      -1.500   0.497   8.103  1.00  0.00     0.022 A 
ATOM     13  C   UNL     1      -0.876   1.375   7.212  1.00  0.00     0.051 A 
ATOM     14  C   UNL     1      -0.863   2.752   7.468  1.00  0.00     0.157 A 
ATOM     15  C   UNL     1      -2.113   2.369   9.513  1.00  0.00     0.068 A 
ATOM     16  C   UNL     1      -1.488   3.252   8.623  1.00  0.00     0.158 A 
BRANCH  14  17
ATOM     17  O   UNL     1      -0.238   3.625   6.578  1.00  0.00    -0.504 OA
ATOM     18  H   UNL     1      -0.752   4.078   5.830  1.00  0.00     0.293 HD
ENDBRANCH  14  17
BRANCH  16  19
ATOM     19  O   UNL     1      -1.500   4.617   8.902  1.00  0.00    -0.504 OA
ATOM     20  H   UNL     1      -1.454   4.974   9.849  1.00  0.00     0.293 HD
ENDBRANCH  16  19
ENDBRANCH   1  11
BRANCH  10  21
ATOM     21  O   UNL     1      -0.854  -0.057  11.685  1.00  0.00    -0.500 OA
ATOM     22  H   UNL     1      -0.352  -0.485  12.455  1.00  0.00     0.294 HD
ENDBRANCH  10  21
BRANCH   5  23
ATOM     23  O   UNL     1      -8.193  -2.470  10.875  1.00  0.00    -0.507 OA
ATOM     24  H   UNL     1      -8.720  -3.185  11.361  1.00  0.00     0.293 HD
ENDBRANCH   5  23
BRANCH   7  25
ATOM     25  O   UNL     1      -4.500  -3.108  13.875  1.00  0.00    -0.507 OA
ATOM     26  H   UNL     1      -4.366  -2.637  14.758  1.00  0.00     0.293 HD
ENDBRANCH   7  25
TORSDOF 6
ENDMDL
MODEL 3
REMARK VINA RESULT:    -8.367      1.311      3.110
REMARK INTER + INTRA:         -10.431
REMARK INTER:                 -10.193
REMARK INTRA:                  -0.238
REMARK UNBOUND:                -0.352
REMARK SMILES Oc1cc(O)c2cc(O)c(-c3ccc(O)c(O)c3)[o+]c2c1.[Cl-]
REMARK SMILES IDX 10 1 19 2 20 3 21 4 2 5 3 6 4 7 6 8 7 9 8 10 11 11 12 12
REMARK SMILES IDX 13 13 14 14 18 15 16 16 15 17 17 19 9 21 1 23 5 25
REMARK H PARENT 15 18 17 20 9 22 1 24 5 26
REMARK Flexibility Score: inf
ROOT
ATOM      1  C   UNL     1      -2.871   1.184  10.553  1.00  0.00     0.402 A 
ATOM      2  O   UNL     1      -3.259  -0.088  10.594  1.00  0.00    -0.202 OA
ATOM      3  C   UNL     1      -3.691  -0.684  11.701  1.00  0.00     0.368 A 
ATOM      4  C   UNL     1      -4.075  -2.026  11.645  1.00  0.00     0.162 A 
ATOM      5  C   UNL     1      -4.532  -2.678  12.795  1.00  0.00     0.128 A 
ATOM      6  C   UNL     1      -4.602  -1.985  14.005  1.00  0.00     0.093 A 
ATOM      7  C   UNL     1      -4.223  -0.639  14.087  1.00  0.00     0.136 A 
ATOM      8  C   UNL     1      -3.763   0.029  12.924  1.00  0.00     0.125 A 
ATOM      9  C   UNL     1      -3.375   1.378  12.909  1.00  0.00     0.078 A 
ATOM     10  C   UNL     1      -2.935   1.968  11.720  1.00  0.00     0.223 A 
ENDROOT
BRANCH   1  11
ATOM     11  C   UNL     1      -2.398   1.731   9.261  1.00  0.00     0.087 A 
ATOM     12  C   UNL     1      -1.067   2.146   9.083  1.00  0.00     0.022 A 
ATOM     13  C   UNL     1      -0.639   2.637   7.847  1.00  0.00     0.051 A 
ATOM     14  C   UNL     1      -1.530   2.709   6.768  1.00  0.00     0.157 A 
ATOM     15  C   UNL     1      -3.282   1.785   8.170  1.00  0.00     0.068 A 
ATOM     16  C   UNL     1      -2.857   2.277   6.931  1.00  0.00     0.158 A 
BRANCH  14  17
ATOM     17  O   UNL     1      -1.101   3.201   5.536  1.00  0.00    -0.504 OA
ATOM     18  H   UNL     1      -0.332   3.859   5.467  1.00  0.00     0.293 HD
ENDBRANCH  14  17
BRANCH  16  19
ATOM     19  O   UNL     1      -3.766   2.329   5.874  1.00  0.00    -0.504 OA
ATOM     20  H   UNL     1      -4.566   2.949   5.883  1.00  0.00     0.293 HD
ENDBRANCH  16  19
ENDBRANCH   1  11
BRANCH  10  21
ATOM     21  O   UNL     1      -2.597   3.322  11.694  1.00  0.00    -0.500 OA
ATOM     22  H   UNL     1      -3.224   4.021  11.313  1.00  0.00     0.294 HD
ENDBRANCH  10  21
BRANCH   5  23
ATOM     23  O   UNL     1      -4.916  -4.016  12.746  1.00  0.00    -0.507 OA
ATOM     24  H   UNL     1      -5.422  -4.450  13.509  1.00  0.00     0.293 HD
ENDBRANCH   5  23
BRANCH   7  25
ATOM     25  O   UNL     1      -4.321  -0.018  15.336  1.00  0.00    -0.507 OA
ATOM     26  H   UNL     1      -4.935   0.757  15.541  1.00  0.00     0.293 HD
ENDBRANCH   7  25
TORSDOF 6
ENDMDL
MODEL 4
REMARK VINA RESULT:    -8.351      1.797      2.724
REMARK INTER + INTRA:         -10.412
REMARK INTER:                 -10.069
REMARK INTRA:                  -0.343
REMARK UNBOUND:                -0.352
REMARK SMILES Oc1cc(O)c2cc(O)c(-c3ccc(O)c(O)c3)[o+]c2c1.[Cl-]
REMARK SMILES IDX 10 1 19 2 20 3 21 4 2 5 3 6 4 7 6 8 7 9 8 10 11 11 12 12
REMARK SMILES IDX 13 13 14 14 18 15 16 16 15 17 17 19 9 21 1 23 5 25
REMARK H PARENT 15 18 17 20 9 22 1 24 5 26
REMARK Flexibility Score: inf
ROOT
ATOM      1  C   UNL     1      -3.391   0.444   9.739  1.00  0.00     0.402 A 
ATOM      2  O   UNL     1      -2.776  -0.693  10.051  1.00  0.00    -0.202 OA
ATOM      3  C   UNL     1      -3.294  -1.601  10.873  1.00  0.00     0.368 A 
ATOM      4  C   UNL     1      -2.570  -2.766  11.141  1.00  0.00     0.162 A 
ATOM      5  C   UNL     1      -3.090  -3.736  12.004  1.00  0.00     0.128 A 
ATOM      6  C   UNL     1      -4.337  -3.539  12.600  1.00  0.00     0.093 A 
ATOM      7  C   UNL     1      -5.082  -2.380  12.347  1.00  0.00     0.136 A 
ATOM      8  C   UNL     1      -4.561  -1.394  11.470  1.00  0.00     0.125 A 
ATOM      9  C   UNL     1      -5.242  -0.209  11.148  1.00  0.00     0.078 A 
ATOM     10  C   UNL     1      -4.665   0.715  10.272  1.00  0.00     0.223 A 
ENDROOT
BRANCH   1  11
ATOM     11  C   UNL     1      -2.706   1.382   8.820  1.00  0.00     0.087 A 
ATOM     12  C   UNL     1      -1.771   2.320   9.292  1.00  0.00     0.022 A 
ATOM     13  C   UNL     1      -1.121   3.178   8.401  1.00  0.00     0.051 A 
ATOM     14  C   UNL     1      -1.384   3.104   7.027  1.00  0.00     0.157 A 
ATOM     15  C   UNL     1      -2.951   1.297   7.440  1.00  0.00     0.068 A 
ATOM     16  C   UNL     1      -2.302   2.156   6.544  1.00  0.00     0.158 A 
BRANCH  14  17
ATOM     17  O   UNL     1      -0.736   3.963   6.141  1.00  0.00    -0.504 OA
ATOM     18  H   UNL     1      -0.761   4.970   6.264  1.00  0.00     0.293 HD
ENDBRANCH  14  17
BRANCH  16  19
ATOM     19  O   UNL     1      -2.580   2.052   5.182  1.00  0.00    -0.504 OA
ATOM     20  H   UNL     1      -3.527   1.983   4.830  1.00  0.00     0.293 HD
ENDBRANCH  16  19
ENDBRANCH   1  11
BRANCH  10  21
ATOM     21  O   UNL     1      -5.363   1.868   9.912  1.00  0.00    -0.500 OA
ATOM     22  H   UNL     1      -4.979   2.793  10.066  1.00  0.00     0.294 HD
ENDBRANCH  10  21
BRANCH   5  23
ATOM     23  O   UNL     1      -2.374  -4.900  12.276  1.00  0.00    -0.507 OA
ATOM     24  H   UNL     1      -1.386  -4.874  12.500  1.00  0.00     0.293 HD
ENDBRANCH   5  23
BRANCH   7  25
ATOM     25  O   UNL     1      -6.319  -2.259  12.986  1.00  0.00    -0.507 OA
ATOM     26  H   UNL     1      -6.894  -3.040  13.268  1.00  0.00     0.293 HD
ENDBRANCH   7  25
TORSDOF 6
ENDMDL
MODEL 5
REMARK VINA RESULT:    -8.345      1.836      1.994
REMARK INTER + INTRA:         -10.404
REMARK INTER:                 -10.172
REMARK INTRA:                  -0.232
REMARK UNBOUND:                -0.352
REMARK SMILES Oc1cc(O)c2cc(O)c(-c3ccc(O)c(O)c3)[o+]c2c1.[Cl-]
REMARK SMILES IDX 10 1 19 2 20 3 21 4 2 5 3 6 4 7 6 8 7 9 8 10 11 11 12 12
REMARK SMILES IDX 13 13 14 14 18 15 16 16 15 17 17 19 9 21 1 23 5 25
REMARK H PARENT 15 18 17 20 9 22 1 24 5 26
REMARK Flexibility Score: inf
ROOT
ATOM      1  C   UNL     1      -3.912   0.311   9.054  1.00  0.00     0.402 A 
ATOM      2  O   UNL     1      -3.603  -0.164  10.258  1.00  0.00    -0.202 OA
ATOM      3  C   UNL     1      -4.424  -0.924  10.976  1.00  0.00     0.368 A 
ATOM      4  C   UNL     1      -4.010  -1.373  12.232  1.00  0.00     0.162 A 
ATOM      5  C   UNL     1      -4.856  -2.172  13.009  1.00  0.00     0.128 A 
ATOM      6  C   UNL     1      -6.119  -2.520  12.528  1.00  0.00     0.093 A 
ATOM      7  C   UNL     1      -6.558  -2.081  11.272  1.00  0.00     0.136 A 
ATOM      8  C   UNL     1      -5.704  -1.274  10.478  1.00  0.00     0.125 A 
ATOM      9  C   UNL     1      -6.053  -0.800   9.203  1.00  0.00     0.078 A 
ATOM     10  C   UNL     1      -5.155  -0.012   8.478  1.00  0.00     0.223 A 
ENDROOT
BRANCH   1  11
ATOM     11  C   UNL     1      -2.916   1.157   8.358  1.00  0.00     0.087 A 
ATOM     12  C   UNL     1      -3.173   2.509   8.072  1.00  0.00     0.022 A 
ATOM     13  C   UNL     1      -2.207   3.292   7.434  1.00  0.00     0.051 A 
ATOM     14  C   UNL     1      -0.968   2.741   7.084  1.00  0.00     0.157 A 
ATOM     15  C   UNL     1      -1.664   0.614   8.024  1.00  0.00     0.068 A 
ATOM     16  C   UNL     1      -0.694   1.396   7.384  1.00  0.00     0.158 A 
BRANCH  14  17
ATOM     17  O   UNL     1      -0.007   3.524   6.446  1.00  0.00    -0.504 OA
ATOM     18  H   UNL     1       0.662   4.076   6.972  1.00  0.00     0.293 HD
ENDBRANCH  14  17
BRANCH  16  19
ATOM     19  O   UNL     1       0.532   0.820   7.056  1.00  0.00    -0.504 OA
ATOM     20  H   UNL     1       0.882  -0.006   7.526  1.00  0.00     0.293 HD
ENDBRANCH  16  19
ENDBRANCH   1  11
BRANCH  10  21
ATOM     21  O   UNL     1      -5.482   0.417   7.191  1.00  0.00    -0.500 OA
ATOM     22  H   UNL     1      -5.118   1.283   6.809  1.00  0.00     0.294 HD
ENDBRANCH  10  21
BRANCH   5  23
ATOM     23  O   UNL     1      -4.449  -2.624  14.262  1.00  0.00    -0.507 OA
ATOM     24  H   UNL     1      -3.469  -2.747  14.490  1.00  0.00     0.293 HD
ENDBRANCH   5  23
BRANCH   7  25
ATOM     25  O   UNL     1      -7.837  -2.471  10.865  1.00  0.00    -0.507 OA
ATOM     26  H   UNL     1      -8.579  -2.737  11.496  1.00  0.00     0.293 HD
ENDBRANCH   7  25
TORSDOF 6
ENDMDL
MODEL 6
REMARK VINA RESULT:    -8.288      1.843      2.241
REMARK INTER + INTRA:         -10.335
REMARK INTER:                 -10.053
REMARK INTRA:                  -0.283
REMARK UNBOUND:                -0.352
REMARK SMILES Oc1cc(O)c2cc(O)c(-c3ccc(O)c(O)c3)[o+]c2c1.[Cl-]
REMARK SMILES IDX 10 1 19 2 20 3 21 4 2 5 3 6 4 7 6 8 7 9 8 10 11 11 12 12
REMARK SMILES IDX 13 13 14 14 18 15 16 16 15 17 17 19 9 21 1 23 5 25
REMARK H PARENT 15 18 17 20 9 22 1 24 5 26
REMARK Flexibility Score: inf
ROOT
ATOM      1  C   UNL     1      -2.238  -0.363   9.702  1.00  0.00     0.402 A 
ATOM      2  O   UNL     1      -3.318  -0.474  10.470  1.00  0.00    -0.202 OA
ATOM      3  C   UNL     1      -3.591  -1.555  11.195  1.00  0.00     0.368 A 
ATOM      4  C   UNL     1      -4.753  -1.578  11.970  1.00  0.00     0.162 A 
ATOM      5  C   UNL     1      -5.064  -2.703  12.740  1.00  0.00     0.128 A 
ATOM      6  C   UNL     1      -4.211  -3.808  12.733  1.00  0.00     0.093 A 
ATOM      7  C   UNL     1      -3.040  -3.809  11.965  1.00  0.00     0.136 A 
ATOM      8  C   UNL     1      -2.717  -2.670  11.185  1.00  0.00     0.125 A 
ATOM      9  C   UNL     1      -1.560  -2.577  10.395  1.00  0.00     0.078 A 
ATOM     10  C   UNL     1      -1.307  -1.417   9.655  1.00  0.00     0.223 A 
ENDROOT
BRANCH   1  11
ATOM     11  C   UNL     1      -2.051   0.888   8.932  1.00  0.00     0.087 A 
ATOM     12  C   UNL     1      -1.631   2.076   9.554  1.00  0.00     0.022 A 
ATOM     13  C   UNL     1      -1.440   3.239   8.802  1.00  0.00     0.051 A 
ATOM     14  C   UNL     1      -1.653   3.228   7.417  1.00  0.00     0.157 A 
ATOM     15  C   UNL     1      -2.243   0.876   7.541  1.00  0.00     0.068 A 
ATOM     16  C   UNL     1      -2.053   2.039   6.783  1.00  0.00     0.158 A 
BRANCH  14  17
ATOM     17  O   UNL     1      -1.463   4.389   6.669  1.00  0.00    -0.504 OA
ATOM     18  H   UNL     1      -0.536   4.717   6.425  1.00  0.00     0.293 HD
ENDBRANCH  14  17
BRANCH  16  19
ATOM     19  O   UNL     1      -2.265   1.993   5.407  1.00  0.00    -0.504 OA
ATOM     20  H   UNL     1      -1.637   1.505   4.781  1.00  0.00     0.293 HD
ENDBRANCH  16  19
ENDBRANCH   1  11
BRANCH  10  21
ATOM     21  O   UNL     1      -0.132  -1.305   8.910  1.00  0.00    -0.500 OA
ATOM     22  H   UNL     1       0.499  -0.520   9.025  1.00  0.00     0.294 HD
ENDBRANCH  10  21
BRANCH   5  23
ATOM     23  O   UNL     1      -6.222  -2.733  13.515  1.00  0.00    -0.507 OA
ATOM     24  H   UNL     1      -6.695  -3.603  13.726  1.00  0.00     0.293 HD
ENDBRANCH   5  23
BRANCH   7  25
ATOM     25  O   UNL     1      -2.242  -4.956  12.011  1.00  0.00    -0.507 OA
ATOM     26  H   UNL     1      -1.334  -5.001  12.452  1.00  0.00     0.293 HD
ENDBRANCH   7  25
TORSDOF 6
ENDMDL
MODEL 7
REMARK VINA RESULT:    -8.206      1.836      7.090
REMARK INTER + INTRA:         -10.237
REMARK INTER:                 -10.039
REMARK INTRA:                  -0.198
REMARK UNBOUND:                -0.352
REMARK SMILES Oc1cc(O)c2cc(O)c(-c3ccc(O)c(O)c3)[o+]c2c1.[Cl-]
REMARK SMILES IDX 10 1 19 2 20 3 21 4 2 5 3 6 4 7 6 8 7 9 8 10 11 11 12 12
REMARK SMILES IDX 13 13 14 14 18 15 16 16 15 17 17 19 9 21 1 23 5 25
REMARK H PARENT 15 18 17 20 9 22 1 24 5 26
REMARK Flexibility Score: inf
ROOT
ATOM      1  C   UNL     1      -2.813   0.062  10.999  1.00  0.00     0.402 A 
ATOM      2  O   UNL     1      -2.835   0.072   9.669  1.00  0.00    -0.202 OA
ATOM      3  C   UNL     1      -2.476   1.125   8.941  1.00  0.00     0.368 A 
ATOM      4  C   UNL     1      -2.536   1.040   7.548  1.00  0.00     0.162 A 
ATOM      5  C   UNL     1      -2.165   2.134   6.758  1.00  0.00     0.128 A 
ATOM      6  C   UNL     1      -1.736   3.315   7.365  1.00  0.00     0.093 A 
ATOM      7  C   UNL     1      -1.667   3.426   8.760  1.00  0.00     0.136 A 
ATOM      8  C   UNL     1      -2.038   2.319   9.566  1.00  0.00     0.125 A 
ATOM      9  C   UNL     1      -1.989   2.334  10.969  1.00  0.00     0.078 A 
ATOM     10  C   UNL     1      -2.367   1.201  11.696  1.00  0.00     0.223 A 
ENDROOT
BRANCH   1  11
ATOM     11  C   UNL     1      -3.249  -1.168  11.698  1.00  0.00     0.087 A 
ATOM     12  C   UNL     1      -4.347  -1.164  12.575  1.00  0.00     0.022 A 
ATOM     13  C   UNL     1      -4.753  -2.344  13.204  1.00  0.00     0.051 A 
ATOM     14  C   UNL     1      -4.077  -3.546  12.958  1.00  0.00     0.157 A 
ATOM     15  C   UNL     1      -2.587  -2.380  11.438  1.00  0.00     0.068 A 
ATOM     16  C   UNL     1      -2.990  -3.564  12.068  1.00  0.00     0.158 A 
BRANCH  14  17
ATOM     17  O   UNL     1      -4.482  -4.721  13.589  1.00  0.00    -0.504 OA
ATOM     18  H   UNL     1      -3.944  -5.577  13.513  1.00  0.00     0.293 HD
ENDBRANCH  14  17
BRANCH  16  19
ATOM     19  O   UNL     1      -2.301  -4.745  11.796  1.00  0.00    -0.504 OA
ATOM     20  H   UNL     1      -1.415  -4.964  12.234  1.00  0.00     0.293 HD
ENDBRANCH  16  19
ENDBRANCH   1  11
BRANCH  10  21
ATOM     21  O   UNL     1      -2.270   1.198  13.088  1.00  0.00    -0.500 OA
ATOM     22  H   UNL     1      -1.933   2.005  13.600  1.00  0.00     0.294 HD
ENDBRANCH  10  21
BRANCH   5  23
ATOM     23  O   UNL     1      -2.223   2.056   5.369  1.00  0.00    -0.507 OA
ATOM     24  H   UNL     1      -3.072   2.273   4.860  1.00  0.00     0.293 HD
ENDBRANCH   5  23
BRANCH   7  25
ATOM     25  O   UNL     1      -1.229   4.644   9.288  1.00  0.00    -0.507 OA
ATOM     26  H   UNL     1      -0.259   4.900   9.401  1.00  0.00     0.293 HD
ENDBRANCH   7  25
TORSDOF 6
ENDMDL
MODEL 8
REMARK VINA RESULT:    -8.204      1.506      6.950
REMARK INTER + INTRA:         -10.234
REMARK INTER:                 -10.039
REMARK INTRA:                  -0.195
REMARK UNBOUND:                -0.352
REMARK SMILES Oc1cc(O)c2cc(O)c(-c3ccc(O)c(O)c3)[o+]c2c1.[Cl-]
REMARK SMILES IDX 10 1 19 2 20 3 21 4 2 5 3 6 4 7 6 8 7 9 8 10 11 11 12 12
REMARK SMILES IDX 13 13 14 14 18 15 16 16 15 17 17 19 9 21 1 23 5 25
REMARK H PARENT 15 18 17 20 9 22 1 24 5 26
REMARK Flexibility Score: inf
ROOT
ATOM      1  C   UNL     1      -4.122   0.065  10.217  1.00  0.00     0.402 A 
ATOM      2  O   UNL     1      -2.856   0.407   9.997  1.00  0.00    -0.202 OA
ATOM      3  C   UNL     1      -2.453   1.050   8.906  1.00  0.00     0.368 A 
ATOM      4  C   UNL     1      -1.099   1.365   8.763  1.00  0.00     0.162 A 
ATOM      5  C   UNL     1      -0.648   2.040   7.624  1.00  0.00     0.128 A 
ATOM      6  C   UNL     1      -1.554   2.397   6.624  1.00  0.00     0.093 A 
ATOM      7  C   UNL     1      -2.916   2.092   6.743  1.00  0.00     0.136 A 
ATOM      8  C   UNL     1      -3.380   1.412   7.897  1.00  0.00     0.125 A 
ATOM      9  C   UNL     1      -4.727   1.078   8.108  1.00  0.00     0.078 A 
ATOM     10  C   UNL     1      -5.110   0.410   9.276  1.00  0.00     0.223 A 
ENDROOT
BRANCH   1  11
ATOM     11  C   UNL     1      -4.445  -0.660  11.468  1.00  0.00     0.087 A 
ATOM     12  C   UNL     1      -5.004  -1.949  11.445  1.00  0.00     0.022 A 
ATOM     13  C   UNL     1      -5.278  -2.621  12.639  1.00  0.00     0.051 A 
ATOM     14  C   UNL     1      -4.986  -2.023  13.871  1.00  0.00     0.157 A 
ATOM     15  C   UNL     1      -4.134  -0.072  12.705  1.00  0.00     0.068 A 
ATOM     16  C   UNL     1      -4.408  -0.742  13.903  1.00  0.00     0.158 A 
BRANCH  14  17
ATOM     17  O   UNL     1      -5.262  -2.695  15.061  1.00  0.00    -0.504 OA
ATOM     18  H   UNL     1      -4.899  -2.371  15.950  1.00  0.00     0.293 HD
ENDBRANCH  14  17
BRANCH  16  19
ATOM     19  O   UNL     1      -4.098  -0.122  15.113  1.00  0.00    -0.504 OA
ATOM     20  H   UNL     1      -3.174  -0.172  15.522  1.00  0.00     0.293 HD
ENDBRANCH  16  19
ENDBRANCH   1  11
BRANCH  10  21
ATOM     21  O   UNL     1      -6.455   0.122   9.508  1.00  0.00    -0.500 OA
ATOM     22  H   UNL     1      -7.109  -0.021   8.747  1.00  0.00     0.294 HD
ENDBRANCH  10  21
BRANCH   5  23
ATOM     23  O   UNL     1       0.700   2.356   7.475  1.00  0.00    -0.507 OA
ATOM     24  H   UNL     1       1.325   1.773   6.932  1.00  0.00     0.293 HD
ENDBRANCH   5  23
BRANCH   7  25
ATOM     25  O   UNL     1      -3.756   2.483   5.696  1.00  0.00    -0.507 OA
ATOM     26  H   UNL     1      -3.435   2.884   4.827  1.00  0.00     0.293 HD
ENDBRANCH   7  25
TORSDOF 6
ENDMDL
MODEL 9
REMARK VINA RESULT:    -8.057      1.886      6.839
REMARK INTER + INTRA:         -10.058
REMARK INTER:                  -9.829
REMARK INTRA:                  -0.228
REMARK UNBOUND:                -0.352
REMARK SMILES Oc1cc(O)c2cc(O)c(-c3ccc(O)c(O)c3)[o+]c2c1.[Cl-]
REMARK SMILES IDX 10 1 19 2 20 3 21 4 2 5 3 6 4 7 6 8 7 9 8 10 11 11 12 12
REMARK SMILES IDX 13 13 14 14 18 15 16 16 15 17 17 19 9 21 1 23 5 25
REMARK H PARENT 15 18 17 20 9 22 1 24 5 26
REMARK Flexibility Score: inf
ROOT
ATOM      1  C   UNL     1      -3.077  -0.893   9.924  1.00  0.00     0.402 A 
ATOM      2  O   UNL     1      -3.225   0.417   9.745  1.00  0.00    -0.202 OA
ATOM      3  C   UNL     1      -2.407   1.148   8.994  1.00  0.00     0.368 A 
ATOM      4  C   UNL     1      -2.644   2.519   8.868  1.00  0.00     0.162 A 
ATOM      5  C   UNL     1      -1.797   3.312   8.086  1.00  0.00     0.128 A 
ATOM      6  C   UNL     1      -0.710   2.731   7.431  1.00  0.00     0.093 A 
ATOM      7  C   UNL     1      -0.451   1.359   7.542  1.00  0.00     0.136 A 
ATOM      8  C   UNL     1      -1.308   0.549   8.330  1.00  0.00     0.125 A 
ATOM      9  C   UNL     1      -1.134  -0.835   8.488  1.00  0.00     0.078 A 
ATOM     10  C   UNL     1      -2.025  -1.568   9.279  1.00  0.00     0.223 A 
ENDROOT
BRANCH   1  11
ATOM     11  C   UNL     1      -4.049  -1.595  10.793  1.00  0.00     0.087 A 
ATOM     12  C   UNL     1      -3.650  -2.206  11.994  1.00  0.00     0.022 A 
ATOM     13  C   UNL     1      -4.590  -2.843  12.809  1.00  0.00     0.051 A 
ATOM     14  C   UNL     1      -5.942  -2.868  12.443  1.00  0.00     0.157 A 
ATOM     15  C   UNL     1      -5.408  -1.604  10.440  1.00  0.00     0.068 A 
ATOM     16  C   UNL     1      -6.353  -2.242  11.253  1.00  0.00     0.158 A 
BRANCH  14  17
ATOM     17  O   UNL     1      -6.878  -3.506  13.256  1.00  0.00    -0.504 OA
ATOM     18  H   UNL     1      -7.810  -3.131  13.387  1.00  0.00     0.293 HD
ENDBRANCH  14  17
BRANCH  16  19
ATOM     19  O   UNL     1      -7.692  -2.243  10.865  1.00  0.00    -0.504 OA
ATOM     20  H   UNL     1      -8.007  -2.706  10.022  1.00  0.00     0.293 HD
ENDBRANCH  16  19
ENDBRANCH   1  11
BRANCH  10  21
ATOM     21  O   UNL     1      -1.881  -2.951   9.395  1.00  0.00    -0.500 OA
ATOM     22  H   UNL     1      -0.969  -3.390   9.451  1.00  0.00     0.294 HD
ENDBRANCH  10  21
BRANCH   5  23
ATOM     23  O   UNL     1      -2.027   4.680   7.957  1.00  0.00    -0.507 OA
ATOM     24  H   UNL     1      -1.939   5.309   8.746  1.00  0.00     0.293 HD
ENDBRANCH   5  23
BRANCH   7  25
ATOM     25  O   UNL     1       0.659   0.856   6.857  1.00  0.00    -0.507 OA
ATOM     26  H   UNL     1       0.685  -0.041   6.395  1.00  0.00     0.293 HD
ENDBRANCH   7  25
TORSDOF 6
ENDMDL
