MODEL 1
REMARK VINA RESULT:     6.270      0.000      0.000
REMARK INTER + INTRA:           6.755
REMARK INTER:                   6.820
REMARK INTRA:                  -0.065
REMARK UNBOUND:                -0.065
REMARK SMILES COc1cc2ccc(=O)oc2cc1O
REMARK SMILES IDX 3 1 13 2 12 3 11 4 5 5 4 6 6 7 7 8 8 9 9 10 10 11 2 12 1 13
REMARK SMILES IDX 14 14
REMARK H PARENT 14 15
REMARK Flexibility Score: inf
ROOT
ATOM      1  C   UNL     1       3.062  -0.699   0.935  1.00  0.00     0.161 A 
ATOM      2  C   UNL     1       2.239  -0.486   2.059  1.00  0.00     0.161 A 
ATOM      3  C   UNL     1       0.887  -0.849   2.022  1.00  0.00     0.098 A 
ATOM      4  C   UNL     1       0.341  -1.428   0.874  1.00  0.00     0.142 A 
ATOM      5  C   UNL     1       1.157  -1.646  -0.256  1.00  0.00     0.022 A 
ATOM      6  C   UNL     1       2.510  -1.282  -0.224  1.00  0.00     0.062 A 
ATOM      7  C   UNL     1       0.581  -2.227  -1.391  1.00  0.00     0.019 A 
ATOM      8  C   UNL     1      -0.769  -2.571  -1.374  1.00  0.00     0.094 A 
ATOM      9  C   UNL     1      -1.517  -2.325  -0.217  1.00  0.00     0.336 A 
ATOM     10  O   UNL     1      -2.738  -2.628  -0.181  1.00  0.00    -0.246 OA
ATOM     11  O   UNL     1      -0.945  -1.772   0.849  1.00  0.00    -0.423 OA
ENDROOT
BRANCH   1  12
ATOM     12  O   UNL     1       4.412  -0.321   1.006  1.00  0.00    -0.493 OA
ATOM     13  C   UNL     1       5.492  -1.221   1.235  1.00  0.00     0.278 C 
ENDBRANCH   1  12
BRANCH   2  14
ATOM     14  O   UNL     1       2.746   0.090   3.223  1.00  0.00    -0.504 OA
ATOM     15  H   UNL     1       2.147   0.400   3.979  1.00  0.00     0.293 HD
ENDBRANCH   2  14
TORSDOF 2
ENDMDL
MODEL 2
REMARK VINA RESULT:     6.766      1.280      4.829
REMARK INTER + INTRA:           7.294
REMARK INTER:                   7.359
REMARK INTRA:                  -0.065
REMARK UNBOUND:                -0.065
REMARK SMILES COc1cc2ccc(=O)oc2cc1O
REMARK SMILES IDX 3 1 13 2 12 3 11 4 5 5 4 6 6 7 7 8 8 9 9 10 10 11 2 12 1 13
REMARK SMILES IDX 14 14
REMARK H PARENT 14 15
REMARK Flexibility Score: inf
ROOT
ATOM      1  C   UNL     1       0.057  -2.442  -0.854  1.00  0.00     0.161 A 
ATOM      2  C   UNL     1      -0.720  -2.288   0.311  1.00  0.00     0.161 A 
ATOM      3  C   UNL     1      -0.190  -1.639   1.432  1.00  0.00     0.098 A 
ATOM      4  C   UNL     1       1.113  -1.135   1.407  1.00  0.00     0.142 A 
ATOM      5  C   UNL     1       1.899  -1.283   0.245  1.00  0.00     0.022 A 
ATOM      6  C   UNL     1       1.372  -1.934  -0.879  1.00  0.00     0.062 A 
ATOM      7  C   UNL     1       3.199  -0.768   0.252  1.00  0.00     0.019 A 
ATOM      8  C   UNL     1       3.678  -0.130   1.394  1.00  0.00     0.094 A 
ATOM      9  C   UNL     1       2.841  -0.020   2.510  1.00  0.00     0.336 A 
ATOM     10  O   UNL     1       3.254   0.553   3.552  1.00  0.00    -0.246 OA
ATOM     11  O   UNL     1       1.608  -0.518   2.478  1.00  0.00    -0.423 OA
ENDROOT
BRANCH   1  12
ATOM     12  O   UNL     1      -0.506  -3.099  -1.960  1.00  0.00    -0.493 OA
ATOM     13  C   UNL     1      -0.998  -2.445  -3.125  1.00  0.00     0.278 C 
ENDBRANCH   1  12
BRANCH   2  14
ATOM     14  O   UNL     1      -2.024  -2.778   0.375  1.00  0.00    -0.504 OA
ATOM     15  H   UNL     1      -2.259  -3.729   0.115  1.00  0.00     0.293 HD
ENDBRANCH   2  14
TORSDOF 2
ENDMDL
