MODEL 1
REMARK VINA RESULT:    -7.323      0.000      0.000
REMARK INTER + INTRA:         -11.066
REMARK INTER:                  -9.677
REMARK INTRA:                  -1.389
REMARK UNBOUND:                -1.389
REMARK SMILES CC[C@@H](C=C[C@@H](C)[C@@H]1CC[C@H]2[C@@H]3CC=C4C[C@H](O)CC[C@]4(C)[C@H]3CC[C@@]21C)C(C)C
REMARK SMILES IDX 6 1 7 2 5 3 4 4 3 5 2 6 1 7 28 8 29 9 30 10 8 11 9 12 26 13
REMARK SMILES IDX 10 14 11 15 25 16 27 17 12 18 24 19 23 20 13 21 21 22 14 23
REMARK SMILES IDX 15 24 20 25 22 26 16 27 19 28 17 29 18 30
REMARK H PARENT 18 31
REMARK Flexibility Score: inf
ROOT
ATOM      1  C   UNL     1      74.159  47.332   6.093  1.00  0.00     0.012 C 
ATOM      2  C   UNL     1      73.707  47.979   4.767  1.00  0.00     0.012 C 
ENDROOT
BRANCH   1   3
ATOM      3  C   UNL     1      73.829  45.850   6.233  1.00  0.00    -0.028 C 
ATOM      4  C   UNL     1      72.605  45.305   6.048  1.00  0.00    -0.027 C 
BRANCH   4   5
ATOM      5  C   UNL     1      72.300  43.819   6.173  1.00  0.00     0.014 C 
BRANCH   5   6
ATOM      6  C   UNL     1      73.269  42.944   5.326  1.00  0.00     0.004 C 
ATOM      7  C   UNL     1      74.067  41.925   6.136  1.00  0.00     0.004 C 
ENDBRANCH   5   6
BRANCH   5   8
ATOM      8  C   UNL     1      70.769  43.575   5.943  1.00  0.00    -0.011 C 
ATOM      9  C   UNL     1      69.874  44.465   6.820  1.00  0.00     0.008 C 
ATOM     10  C   UNL     1      70.353  42.103   6.067  1.00  0.00     0.008 C 
ENDBRANCH   5   8
ENDBRANCH   4   5
ENDBRANCH   1   3
BRANCH   1  11
ATOM     11  C   UNL     1      73.800  48.200   7.350  1.00  0.00     0.002 C 
ATOM     12  C   UNL     1      74.157  47.467   8.677  1.00  0.00     0.005 C 
ATOM     13  C   UNL     1      72.323  48.672   7.578  1.00  0.00    -0.026 C 
ATOM     14  C   UNL     1      72.848  47.214   9.441  1.00  0.00     0.005 C 
ATOM     15  C   UNL     1      71.751  47.541   8.440  1.00  0.00    -0.001 C 
ATOM     16  C   UNL     1      71.400  48.837   6.345  1.00  0.00     0.007 C 
ATOM     17  C   UNL     1      72.390  50.036   8.339  1.00  0.00     0.012 C 
ATOM     18  C   UNL     1      70.334  47.828   8.975  1.00  0.00     0.000 C 
ATOM     19  C   UNL     1      69.930  49.092   6.750  1.00  0.00     0.005 C 
ATOM     20  C   UNL     1      69.372  48.046   7.769  1.00  0.00     0.003 C 
ATOM     21  C   UNL     1      69.833  46.640   9.812  1.00  0.00     0.031 C 
ATOM     22  C   UNL     1      67.897  48.343   8.243  1.00  0.00    -0.008 C 
ATOM     23  C   UNL     1      68.363  46.712  10.122  1.00  0.00    -0.027 C 
ATOM     24  C   UNL     1      67.469  47.345   9.332  1.00  0.00    -0.065 C 
ATOM     25  C   UNL     1      66.932  48.199   7.023  1.00  0.00     0.014 C 
ATOM     26  C   UNL     1      67.769  49.774   8.833  1.00  0.00     0.016 C 
ATOM     27  C   UNL     1      65.994  47.220   9.676  1.00  0.00     0.063 C 
ATOM     28  C   UNL     1      65.442  48.175   7.411  1.00  0.00     0.033 C 
ATOM     29  C   UNL     1      65.139  47.054   8.415  1.00  0.00     0.118 C 
BRANCH  29  30
ATOM     30  O   UNL     1      65.388  45.792   7.848  1.00  0.00    -0.393 OA
ATOM     31  H   UNL     1      65.477  45.148   8.595  1.00  0.00     0.210 HD
ENDBRANCH  29  30
ENDBRANCH   1  11
TORSDOF 6
ENDMDL
MODEL 2
REMARK VINA RESULT:    -7.293      0.542      1.604
REMARK INTER + INTRA:         -11.026
REMARK INTER:                  -9.510
REMARK INTRA:                  -1.516
REMARK UNBOUND:                -1.389
REMARK SMILES CC[C@@H](C=C[C@@H](C)[C@@H]1CC[C@H]2[C@@H]3CC=C4C[C@H](O)CC[C@]4(C)[C@H]3CC[C@@]21C)C(C)C
REMARK SMILES IDX 6 1 7 2 5 3 4 4 3 5 2 6 1 7 28 8 29 9 30 10 8 11 9 12 26 13
REMARK SMILES IDX 10 14 11 15 25 16 27 17 12 18 24 19 23 20 13 21 21 22 14 23
REMARK SMILES IDX 15 24 20 25 22 26 16 27 19 28 17 29 18 30
REMARK H PARENT 18 31
REMARK Flexibility Score: inf
ROOT
ATOM      1  C   UNL     1      74.255  47.386   5.775  1.00  0.00     0.012 C 
ATOM      2  C   UNL     1      73.711  48.085   4.512  1.00  0.00     0.012 C 
ENDROOT
BRANCH   1   3
ATOM      3  C   UNL     1      73.948  45.896   5.873  1.00  0.00    -0.028 C 
ATOM      4  C   UNL     1      72.809  45.308   5.440  1.00  0.00    -0.027 C 
BRANCH   4   5
ATOM      5  C   UNL     1      72.530  43.814   5.528  1.00  0.00     0.014 C 
BRANCH   5   6
ATOM      6  C   UNL     1      71.060  43.511   5.937  1.00  0.00     0.004 C 
ATOM      7  C   UNL     1      70.357  44.660   6.656  1.00  0.00     0.004 C 
ENDBRANCH   5   6
BRANCH   5   8
ATOM      8  C   UNL     1      73.642  43.120   6.386  1.00  0.00    -0.011 C 
ATOM      9  C   UNL     1      74.337  41.959   5.656  1.00  0.00     0.008 C 
ATOM     10  C   UNL     1      73.164  42.675   7.774  1.00  0.00     0.008 C 
ENDBRANCH   5   8
ENDBRANCH   4   5
ENDBRANCH   1   3
BRANCH   1  11
ATOM     11  C   UNL     1      73.975  48.196   7.091  1.00  0.00     0.002 C 
ATOM     12  C   UNL     1      74.372  47.387   8.361  1.00  0.00     0.005 C 
ATOM     13  C   UNL     1      72.521  48.688   7.409  1.00  0.00    -0.026 C 
ATOM     14  C   UNL     1      73.092  47.124   9.170  1.00  0.00     0.005 C 
ATOM     15  C   UNL     1      71.960  47.527   8.237  1.00  0.00    -0.001 C 
ATOM     16  C   UNL     1      71.549  48.937   6.230  1.00  0.00     0.007 C 
ATOM     17  C   UNL     1      72.655  50.009   8.235  1.00  0.00     0.012 C 
ATOM     18  C   UNL     1      70.575  47.817   8.851  1.00  0.00     0.000 C 
ATOM     19  C   UNL     1      70.105  49.204   6.713  1.00  0.00     0.005 C 
ATOM     20  C   UNL     1      69.567  48.119   7.702  1.00  0.00     0.003 C 
ATOM     21  C   UNL     1      70.084  46.599   9.648  1.00  0.00     0.031 C 
ATOM     22  C   UNL     1      68.122  48.424   8.258  1.00  0.00    -0.008 C 
ATOM     23  C   UNL     1      68.630  46.688  10.028  1.00  0.00    -0.027 C 
ATOM     24  C   UNL     1      67.718  47.381   9.313  1.00  0.00    -0.065 C 
ATOM     25  C   UNL     1      67.101  48.366   7.077  1.00  0.00     0.014 C 
ATOM     26  C   UNL     1      68.056  49.825   8.925  1.00  0.00     0.016 C 
ATOM     27  C   UNL     1      66.257  47.271   9.717  1.00  0.00     0.063 C 
ATOM     28  C   UNL     1      65.629  48.354   7.530  1.00  0.00     0.033 C 
ATOM     29  C   UNL     1      65.344  47.190   8.489  1.00  0.00     0.118 C 
BRANCH  29  30
ATOM     30  O   UNL     1      65.536  45.953   7.847  1.00  0.00    -0.393 OA
ATOM     31  H   UNL     1      65.855  45.315   8.533  1.00  0.00     0.210 HD
ENDBRANCH  29  30
ENDBRANCH   1  11
TORSDOF 6
ENDMDL
MODEL 3
REMARK VINA RESULT:    -6.643      1.977      5.775
REMARK INTER + INTRA:         -10.168
REMARK INTER:                  -8.095
REMARK INTRA:                  -2.072
REMARK UNBOUND:                -1.389
REMARK SMILES CC[C@@H](C=C[C@@H](C)[C@@H]1CC[C@H]2[C@@H]3CC=C4C[C@H](O)CC[C@]4(C)[C@H]3CC[C@@]21C)C(C)C
REMARK SMILES IDX 6 1 7 2 5 3 4 4 3 5 2 6 1 7 28 8 29 9 30 10 8 11 9 12 26 13
REMARK SMILES IDX 10 14 11 15 25 16 27 17 12 18 24 19 23 20 13 21 21 22 14 23
REMARK SMILES IDX 15 24 20 25 22 26 16 27 19 28 17 29 18 30
REMARK H PARENT 18 31
REMARK Flexibility Score: inf
ROOT
ATOM      1  C   UNL     1      73.044  49.110   7.298  1.00  0.00     0.012 C 
ATOM      2  C   UNL     1      73.621  49.665   8.617  1.00  0.00     0.012 C 
ENDROOT
BRANCH   1   3
ATOM      3  C   UNL     1      71.525  48.991   7.257  1.00  0.00    -0.028 C 
ATOM      4  C   UNL     1      70.708  49.103   8.330  1.00  0.00    -0.027 C 
BRANCH   4   5
ATOM      5  C   UNL     1      69.190  49.001   8.265  1.00  0.00     0.014 C 
BRANCH   5   6
ATOM      6  C   UNL     1      68.487  50.203   8.958  1.00  0.00     0.004 C 
ATOM      7  C   UNL     1      67.012  49.973   9.274  1.00  0.00     0.004 C 
ENDBRANCH   5   6
BRANCH   5   8
ATOM      8  C   UNL     1      68.739  47.574   8.732  1.00  0.00    -0.011 C 
ATOM      9  C   UNL     1      69.515  47.063   9.958  1.00  0.00     0.008 C 
ATOM     10  C   UNL     1      68.750  46.526   7.613  1.00  0.00     0.008 C 
ENDBRANCH   5   8
ENDBRANCH   4   5
ENDBRANCH   1   3
BRANCH   1  11
ATOM     11  C   UNL     1      73.811  47.842   6.782  1.00  0.00     0.002 C 
ATOM     12  C   UNL     1      73.609  47.629   5.252  1.00  0.00     0.005 C 
ATOM     13  C   UNL     1      73.492  46.434   7.393  1.00  0.00    -0.026 C 
ATOM     14  C   UNL     1      72.860  46.302   5.058  1.00  0.00     0.005 C 
ATOM     15  C   UNL     1      72.399  45.914   6.454  1.00  0.00    -0.001 C 
ATOM     16  C   UNL     1      72.944  46.362   8.839  1.00  0.00     0.007 C 
ATOM     17  C   UNL     1      74.807  45.591   7.314  1.00  0.00     0.012 C 
ATOM     18  C   UNL     1      72.008  44.445   6.714  1.00  0.00     0.000 C 
ATOM     19  C   UNL     1      72.477  44.937   9.214  1.00  0.00     0.005 C 
ATOM     20  C   UNL     1      71.489  44.311   8.176  1.00  0.00     0.003 C 
ATOM     21  C   UNL     1      70.899  44.012   5.742  1.00  0.00     0.031 C 
ATOM     22  C   UNL     1      71.067  42.828   8.513  1.00  0.00    -0.008 C 
ATOM     23  C   UNL     1      70.261  42.701   6.117  1.00  0.00    -0.027 C 
ATOM     24  C   UNL     1      70.199  42.244   7.386  1.00  0.00    -0.065 C 
ATOM     25  C   UNL     1      70.240  42.824   9.839  1.00  0.00     0.014 C 
ATOM     26  C   UNL     1      72.309  41.910   8.680  1.00  0.00     0.016 C 
ATOM     27  C   UNL     1      69.399  40.980   7.654  1.00  0.00     0.063 C 
ATOM     28  C   UNL     1      69.524  41.489  10.119  1.00  0.00     0.033 C 
ATOM     29  C   UNL     1      68.602  41.089   8.958  1.00  0.00     0.118 C 
BRANCH  29  30
ATOM     30  O   UNL     1      67.568  42.029   8.793  1.00  0.00    -0.393 OA
ATOM     31  H   UNL     1      66.757  41.647   9.213  1.00  0.00     0.210 HD
ENDBRANCH  29  30
ENDBRANCH   1  11
TORSDOF 6
ENDMDL
MODEL 4
REMARK VINA RESULT:    -6.466      2.392      5.305
REMARK INTER + INTRA:          -9.933
REMARK INTER:                  -8.151
REMARK INTRA:                  -1.783
REMARK UNBOUND:                -1.389
REMARK SMILES CC[C@@H](C=C[C@@H](C)[C@@H]1CC[C@H]2[C@@H]3CC=C4C[C@H](O)CC[C@]4(C)[C@H]3CC[C@@]21C)C(C)C
REMARK SMILES IDX 6 1 7 2 5 3 4 4 3 5 2 6 1 7 28 8 29 9 30 10 8 11 9 12 26 13
REMARK SMILES IDX 10 14 11 15 25 16 27 17 12 18 24 19 23 20 13 21 21 22 14 23
REMARK SMILES IDX 15 24 20 25 22 26 16 27 19 28 17 29 18 30
REMARK H PARENT 18 31
REMARK Flexibility Score: inf
ROOT
ATOM      1  C   UNL     1      70.542  49.636   7.445  1.00  0.00     0.012 C 
ATOM      2  C   UNL     1      69.515  49.489   6.303  1.00  0.00     0.012 C 
ENDROOT
BRANCH   1   3
ATOM      3  C   UNL     1      71.988  49.358   7.053  1.00  0.00    -0.028 C 
ATOM      4  C   UNL     1      72.432  48.215   6.481  1.00  0.00    -0.027 C 
BRANCH   4   5
ATOM      5  C   UNL     1      73.879  47.964   6.078  1.00  0.00     0.014 C 
BRANCH   5   6
ATOM      6  C   UNL     1      74.091  48.074   4.541  1.00  0.00     0.004 C 
ATOM      7  C   UNL     1      72.845  47.779   3.711  1.00  0.00     0.004 C 
ENDBRANCH   5   6
BRANCH   5   8
ATOM      8  C   UNL     1      74.392  46.646   6.753  1.00  0.00    -0.011 C 
ATOM      9  C   UNL     1      73.489  45.431   6.477  1.00  0.00     0.008 C 
ATOM     10  C   UNL     1      74.661  46.786   8.257  1.00  0.00     0.008 C 
ENDBRANCH   5   8
ENDBRANCH   4   5
ENDBRANCH   1   3
BRANCH   1  11
ATOM     11  C   UNL     1      70.082  48.937   8.773  1.00  0.00     0.002 C 
ATOM     12  C   UNL     1      71.211  48.941   9.847  1.00  0.00     0.005 C 
ATOM     13  C   UNL     1      69.607  47.444   8.747  1.00  0.00    -0.026 C 
ATOM     14  C   UNL     1      71.600  47.481  10.125  1.00  0.00     0.005 C 
ATOM     15  C   UNL     1      70.908  46.685   9.029  1.00  0.00    -0.001 C 
ATOM     16  C   UNL     1      69.009  46.881   7.434  1.00  0.00     0.007 C 
ATOM     17  C   UNL     1      68.552  47.278   9.889  1.00  0.00     0.012 C 
ATOM     18  C   UNL     1      70.708  45.171   9.240  1.00  0.00     0.000 C 
ATOM     19  C   UNL     1      68.795  45.352   7.502  1.00  0.00     0.005 C 
ATOM     20  C   UNL     1      70.065  44.563   7.958  1.00  0.00     0.003 C 
ATOM     21  C   UNL     1      72.060  44.489   9.501  1.00  0.00     0.031 C 
ATOM     22  C   UNL     1      69.833  43.009   8.102  1.00  0.00    -0.008 C 
ATOM     23  C   UNL     1      71.990  42.988   9.425  1.00  0.00    -0.027 C 
ATOM     24  C   UNL     1      71.086  42.325   8.671  1.00  0.00    -0.065 C 
ATOM     25  C   UNL     1      69.528  42.407   6.692  1.00  0.00     0.014 C 
ATOM     26  C   UNL     1      68.648  42.700   9.058  1.00  0.00     0.016 C 
ATOM     27  C   UNL     1      71.214  40.814   8.563  1.00  0.00     0.063 C 
ATOM     28  C   UNL     1      69.573  40.868   6.652  1.00  0.00     0.033 C 
ATOM     29  C   UNL     1      70.926  40.331   7.138  1.00  0.00     0.118 C 
BRANCH  29  30
ATOM     30  O   UNL     1      71.966  40.747   6.287  1.00  0.00    -0.393 OA
ATOM     31  H   UNL     1      72.132  40.011   5.646  1.00  0.00     0.210 HD
ENDBRANCH  29  30
ENDBRANCH   1  11
TORSDOF 6
ENDMDL
MODEL 5
REMARK VINA RESULT:    -6.111      2.399      6.340
REMARK INTER + INTRA:          -9.464
REMARK INTER:                  -8.289
REMARK INTRA:                  -1.175
REMARK UNBOUND:                -1.389
REMARK SMILES CC[C@@H](C=C[C@@H](C)[C@@H]1CC[C@H]2[C@@H]3CC=C4C[C@H](O)CC[C@]4(C)[C@H]3CC[C@@]21C)C(C)C
REMARK SMILES IDX 6 1 7 2 5 3 4 4 3 5 2 6 1 7 28 8 29 9 30 10 8 11 9 12 26 13
REMARK SMILES IDX 10 14 11 15 25 16 27 17 12 18 24 19 23 20 13 21 21 22 14 23
REMARK SMILES IDX 15 24 20 25 22 26 16 27 19 28 17 29 18 30
REMARK H PARENT 18 31
REMARK Flexibility Score: inf
ROOT
ATOM      1  C   UNL     1      65.349  45.510   8.832  1.00  0.00     0.012 C 
ATOM      2  C   UNL     1      64.227  44.963   9.738  1.00  0.00     0.012 C 
ENDROOT
BRANCH   1   3
ATOM      3  C   UNL     1      66.637  44.695   8.835  1.00  0.00    -0.028 C 
ATOM      4  C   UNL     1      66.826  43.537   8.161  1.00  0.00    -0.027 C 
BRANCH   4   5
ATOM      5  C   UNL     1      68.128  42.748   8.161  1.00  0.00     0.014 C 
BRANCH   5   6
ATOM      6  C   UNL     1      68.038  41.461   9.029  1.00  0.00     0.004 C 
ATOM      7  C   UNL     1      68.399  40.176   8.289  1.00  0.00     0.004 C 
ENDBRANCH   5   6
BRANCH   5   8
ATOM      8  C   UNL     1      69.326  43.710   8.472  1.00  0.00    -0.011 C 
ATOM      9  C   UNL     1      70.020  44.245   7.209  1.00  0.00     0.008 C 
ATOM     10  C   UNL     1      70.356  43.118   9.443  1.00  0.00     0.008 C 
ENDBRANCH   5   8
ENDBRANCH   4   5
ENDBRANCH   1   3
BRANCH   1  11
ATOM     11  C   UNL     1      65.558  47.058   8.985  1.00  0.00     0.002 C 
ATOM     12  C   UNL     1      65.138  47.826   7.696  1.00  0.00     0.005 C 
ATOM     13  C   UNL     1      66.984  47.626   9.302  1.00  0.00    -0.026 C 
ATOM     14  C   UNL     1      66.395  48.495   7.118  1.00  0.00     0.005 C 
ATOM     15  C   UNL     1      67.548  47.887   7.901  1.00  0.00    -0.001 C 
ATOM     16  C   UNL     1      67.991  46.721  10.054  1.00  0.00     0.007 C 
ATOM     17  C   UNL     1      66.781  48.941  10.125  1.00  0.00     0.012 C 
ATOM     18  C   UNL     1      68.900  48.628   7.906  1.00  0.00     0.000 C 
ATOM     19  C   UNL     1      69.407  47.338  10.096  1.00  0.00     0.005 C 
ATOM     20  C   UNL     1      69.940  47.774   8.692  1.00  0.00     0.003 C 
ATOM     21  C   UNL     1      69.398  48.832   6.467  1.00  0.00     0.031 C 
ATOM     22  C   UNL     1      71.354  48.473   8.737  1.00  0.00    -0.008 C 
ATOM     23  C   UNL     1      70.833  49.278   6.395  1.00  0.00    -0.027 C 
ATOM     24  C   UNL     1      71.750  48.982   7.341  1.00  0.00    -0.065 C 
ATOM     25  C   UNL     1      72.420  47.434   9.214  1.00  0.00     0.014 C 
ATOM     26  C   UNL     1      71.355  49.689   9.704  1.00  0.00     0.016 C 
ATOM     27  C   UNL     1      73.198  49.363   7.080  1.00  0.00     0.063 C 
ATOM     28  C   UNL     1      73.874  47.903   9.020  1.00  0.00     0.033 C 
ATOM     29  C   UNL     1      74.158  48.267   7.556  1.00  0.00     0.118 C 
BRANCH  29  30
ATOM     30  O   UNL     1      74.025  47.141   6.724  1.00  0.00    -0.393 OA
ATOM     31  H   UNL     1      73.288  46.592   7.092  1.00  0.00     0.210 HD
ENDBRANCH  29  30
ENDBRANCH   1  11
TORSDOF 6
ENDMDL
MODEL 6
REMARK VINA RESULT:    -5.970      2.415      6.313
REMARK INTER + INTRA:          -9.278
REMARK INTER:                  -8.190
REMARK INTRA:                  -1.088
REMARK UNBOUND:                -1.389
REMARK SMILES CC[C@@H](C=C[C@@H](C)[C@@H]1CC[C@H]2[C@@H]3CC=C4C[C@H](O)CC[C@]4(C)[C@H]3CC[C@@]21C)C(C)C
REMARK SMILES IDX 6 1 7 2 5 3 4 4 3 5 2 6 1 7 28 8 29 9 30 10 8 11 9 12 26 13
REMARK SMILES IDX 10 14 11 15 25 16 27 17 12 18 24 19 23 20 13 21 21 22 14 23
REMARK SMILES IDX 15 24 20 25 22 26 16 27 19 28 17 29 18 30
REMARK H PARENT 18 31
REMARK Flexibility Score: inf
ROOT
ATOM      1  C   UNL     1      72.479  47.423   5.840  1.00  0.00     0.012 C 
ATOM      2  C   UNL     1      73.127  47.739   4.476  1.00  0.00     0.012 C 
ENDROOT
BRANCH   1   3
ATOM      3  C   UNL     1      71.871  48.621   6.559  1.00  0.00    -0.028 C 
ATOM      4  C   UNL     1      70.630  48.656   7.099  1.00  0.00    -0.027 C 
BRANCH   4   5
ATOM      5  C   UNL     1      70.048  49.856   7.831  1.00  0.00     0.014 C 
BRANCH   5   6
ATOM      6  C   UNL     1      70.962  50.340   8.993  1.00  0.00     0.004 C 
ATOM      7  C   UNL     1      71.507  49.219   9.874  1.00  0.00     0.004 C 
ENDBRANCH   5   6
BRANCH   5   8
ATOM      8  C   UNL     1      68.552  49.571   8.203  1.00  0.00    -0.011 C 
ATOM      9  C   UNL     1      67.968  50.588   9.197  1.00  0.00     0.008 C 
ATOM     10  C   UNL     1      68.299  48.138   8.689  1.00  0.00     0.008 C 
ENDBRANCH   5   8
ENDBRANCH   4   5
ENDBRANCH   1   3
BRANCH   1  11
ATOM     11  C   UNL     1      73.377  46.508   6.746  1.00  0.00     0.002 C 
ATOM     12  C   UNL     1      74.481  45.784   5.918  1.00  0.00     0.005 C 
ATOM     13  C   UNL     1      72.725  45.350   7.577  1.00  0.00    -0.026 C 
ATOM     14  C   UNL     1      74.211  44.273   5.996  1.00  0.00     0.005 C 
ATOM     15  C   UNL     1      72.826  44.163   6.614  1.00  0.00    -0.001 C 
ATOM     16  C   UNL     1      71.241  45.489   8.000  1.00  0.00     0.007 C 
ATOM     17  C   UNL     1      73.596  45.162   8.862  1.00  0.00     0.012 C 
ATOM     18  C   UNL     1      72.412  42.818   7.246  1.00  0.00     0.000 C 
ATOM     19  C   UNL     1      70.689  44.184   8.617  1.00  0.00     0.005 C 
ATOM     20  C   UNL     1      70.934  42.921   7.729  1.00  0.00     0.003 C 
ATOM     21  C   UNL     1      72.528  41.689   6.210  1.00  0.00     0.031 C 
ATOM     22  C   UNL     1      70.440  41.574   8.386  1.00  0.00    -0.008 C 
ATOM     23  C   UNL     1      71.870  40.410   6.652  1.00  0.00    -0.027 C 
ATOM     24  C   UNL     1      70.828  40.371   7.511  1.00  0.00    -0.065 C 
ATOM     25  C   UNL     1      68.884  41.615   8.522  1.00  0.00     0.014 C 
ATOM     26  C   UNL     1      71.072  41.363   9.790  1.00  0.00     0.016 C 
ATOM     27  C   UNL     1      70.157  39.030   7.763  1.00  0.00     0.063 C 
ATOM     28  C   UNL     1      68.255  40.254   8.874  1.00  0.00     0.033 C 
ATOM     29  C   UNL     1      68.634  39.176   7.849  1.00  0.00     0.118 C 
BRANCH  29  30
ATOM     30  O   UNL     1      68.126  39.494   6.576  1.00  0.00    -0.393 OA
ATOM     31  H   UNL     1      68.250  40.467   6.446  1.00  0.00     0.210 HD
ENDBRANCH  29  30
ENDBRANCH   1  11
TORSDOF 6
ENDMDL
MODEL 7
REMARK VINA RESULT:    -5.924      2.518      4.994
REMARK INTER + INTRA:          -9.217
REMARK INTER:                  -7.144
REMARK INTRA:                  -2.073
REMARK UNBOUND:                -1.389
REMARK SMILES CC[C@@H](C=C[C@@H](C)[C@@H]1CC[C@H]2[C@@H]3CC=C4C[C@H](O)CC[C@]4(C)[C@H]3CC[C@@]21C)C(C)C
REMARK SMILES IDX 6 1 7 2 5 3 4 4 3 5 2 6 1 7 28 8 29 9 30 10 8 11 9 12 26 13
REMARK SMILES IDX 10 14 11 15 25 16 27 17 12 18 24 19 23 20 13 21 21 22 14 23
REMARK SMILES IDX 15 24 20 25 22 26 16 27 19 28 17 29 18 30
REMARK H PARENT 18 31
REMARK Flexibility Score: inf
ROOT
ATOM      1  C   UNL     1      72.765  41.196   7.074  1.00  0.00     0.012 C 
ATOM      2  C   UNL     1      72.354  40.962   5.606  1.00  0.00     0.012 C 
ENDROOT
BRANCH   1   3
ATOM      3  C   UNL     1      71.612  41.472   8.032  1.00  0.00    -0.028 C 
ATOM      4  C   UNL     1      70.435  42.043   7.686  1.00  0.00    -0.027 C 
BRANCH   4   5
ATOM      5  C   UNL     1      69.286  42.291   8.654  1.00  0.00     0.014 C 
BRANCH   5   6
ATOM      6  C   UNL     1      68.094  41.320   8.418  1.00  0.00     0.004 C 
ATOM      7  C   UNL     1      68.371  40.220   7.397  1.00  0.00     0.004 C 
ENDBRANCH   5   6
BRANCH   5   8
ATOM      8  C   UNL     1      68.938  43.819   8.675  1.00  0.00    -0.011 C 
ATOM      9  C   UNL     1      69.117  44.502   7.308  1.00  0.00     0.008 C 
ATOM     10  C   UNL     1      69.671  44.605   9.769  1.00  0.00     0.008 C 
ENDBRANCH   5   8
ENDBRANCH   4   5
ENDBRANCH   1   3
BRANCH   1  11
ATOM     11  C   UNL     1      73.981  42.179   7.219  1.00  0.00     0.002 C 
ATOM     12  C   UNL     1      74.614  42.106   8.640  1.00  0.00     0.005 C 
ATOM     13  C   UNL     1      73.774  43.715   6.988  1.00  0.00    -0.026 C 
ATOM     14  C   UNL     1      74.423  43.475   9.311  1.00  0.00     0.005 C 
ATOM     15  C   UNL     1      73.454  44.215   8.401  1.00  0.00    -0.001 C 
ATOM     16  C   UNL     1      72.628  44.176   6.055  1.00  0.00     0.007 C 
ATOM     17  C   UNL     1      75.125  44.281   6.439  1.00  0.00     0.012 C 
ATOM     18  C   UNL     1      73.376  45.751   8.511  1.00  0.00     0.000 C 
ATOM     19  C   UNL     1      72.419  45.707   6.104  1.00  0.00     0.005 C 
ATOM     20  C   UNL     1      72.262  46.270   7.554  1.00  0.00     0.003 C 
ATOM     21  C   UNL     1      73.036  46.162   9.953  1.00  0.00     0.031 C 
ATOM     22  C   UNL     1      72.123  47.840   7.616  1.00  0.00    -0.008 C 
ATOM     23  C   UNL     1      72.655  47.612  10.080  1.00  0.00    -0.027 C 
ATOM     24  C   UNL     1      72.099  48.323   9.075  1.00  0.00    -0.065 C 
ATOM     25  C   UNL     1      70.785  48.260   6.925  1.00  0.00     0.014 C 
ATOM     26  C   UNL     1      73.311  48.542   6.903  1.00  0.00     0.016 C 
ATOM     27  C   UNL     1      71.623  49.735   9.375  1.00  0.00     0.063 C 
ATOM     28  C   UNL     1      70.392  49.728   7.176  1.00  0.00     0.033 C 
ATOM     29  C   UNL     1      70.292  50.036   8.677  1.00  0.00     0.118 C 
BRANCH  29  30
ATOM     30  O   UNL     1      69.271  49.277   9.277  1.00  0.00    -0.393 OA
ATOM     31  H   UNL     1      69.470  49.234  10.246  1.00  0.00     0.210 HD
ENDBRANCH  29  30
ENDBRANCH   1  11
TORSDOF 6
ENDMDL
MODEL 8
REMARK VINA RESULT:    -5.766      2.510      6.825
REMARK INTER + INTRA:          -9.009
REMARK INTER:                  -7.648
REMARK INTRA:                  -1.361
REMARK UNBOUND:                -1.389
REMARK SMILES CC[C@@H](C=C[C@@H](C)[C@@H]1CC[C@H]2[C@@H]3CC=C4C[C@H](O)CC[C@]4(C)[C@H]3CC[C@@]21C)C(C)C
REMARK SMILES IDX 6 1 7 2 5 3 4 4 3 5 2 6 1 7 28 8 29 9 30 10 8 11 9 12 26 13
REMARK SMILES IDX 10 14 11 15 25 16 27 17 12 18 24 19 23 20 13 21 21 22 14 23
REMARK SMILES IDX 15 24 20 25 22 26 16 27 19 28 17 29 18 30
REMARK H PARENT 18 31
REMARK Flexibility Score: inf
ROOT
ATOM      1  C   UNL     1      68.783  47.831   7.910  1.00  0.00     0.012 C 
ATOM      2  C   UNL     1      67.417  47.771   7.195  1.00  0.00     0.012 C 
ENDROOT
BRANCH   1   3
ATOM      3  C   UNL     1      69.990  47.958   6.988  1.00  0.00    -0.028 C 
ATOM      4  C   UNL     1      71.201  48.438   7.355  1.00  0.00    -0.027 C 
BRANCH   4   5
ATOM      5  C   UNL     1      72.401  48.537   6.424  1.00  0.00     0.014 C 
BRANCH   5   6
ATOM      6  C   UNL     1      72.534  47.295   5.497  1.00  0.00     0.004 C 
ATOM      7  C   UNL     1      73.276  47.562   4.191  1.00  0.00     0.004 C 
ENDBRANCH   5   6
BRANCH   5   8
ATOM      8  C   UNL     1      73.676  48.923   7.250  1.00  0.00    -0.011 C 
ATOM      9  C   UNL     1      74.427  47.704   7.812  1.00  0.00     0.008 C 
ATOM     10  C   UNL     1      73.408  49.948   8.359  1.00  0.00     0.008 C 
ENDBRANCH   5   8
ENDBRANCH   4   5
ENDBRANCH   1   3
BRANCH   1  11
ATOM     11  C   UNL     1      68.932  46.745   9.033  1.00  0.00     0.002 C 
ATOM     12  C   UNL     1      69.959  47.178  10.121  1.00  0.00     0.005 C 
ATOM     13  C   UNL     1      69.387  45.292   8.658  1.00  0.00    -0.026 C 
ATOM     14  C   UNL     1      71.131  46.186  10.083  1.00  0.00     0.005 C 
ATOM     15  C   UNL     1      70.909  45.380   8.813  1.00  0.00    -0.001 C 
ATOM     16  C   UNL     1      69.088  44.768   7.232  1.00  0.00     0.007 C 
ATOM     17  C   UNL     1      68.729  44.324   9.696  1.00  0.00     0.012 C 
ATOM     18  C   UNL     1      71.624  44.020   8.676  1.00  0.00     0.000 C 
ATOM     19  C   UNL     1      69.786  43.417   6.952  1.00  0.00     0.005 C 
ATOM     20  C   UNL     1      71.317  43.428   7.268  1.00  0.00     0.003 C 
ATOM     21  C   UNL     1      73.142  44.202   8.828  1.00  0.00     0.031 C 
ATOM     22  C   UNL     1      72.021  42.032   7.055  1.00  0.00    -0.008 C 
ATOM     23  C   UNL     1      73.928  42.986   8.419  1.00  0.00    -0.027 C 
ATOM     24  C   UNL     1      73.490  42.094   7.504  1.00  0.00    -0.065 C 
ATOM     25  C   UNL     1      71.974  41.665   5.537  1.00  0.00     0.014 C 
ATOM     26  C   UNL     1      71.321  40.914   7.875  1.00  0.00     0.016 C 
ATOM     27  C   UNL     1      74.440  40.990   7.069  1.00  0.00     0.063 C 
ATOM     28  C   UNL     1      72.879  40.477   5.158  1.00  0.00     0.033 C 
ATOM     29  C   UNL     1      74.338  40.729   5.562  1.00  0.00     0.118 C 
BRANCH  29  30
ATOM     30  O   UNL     1      74.869  41.828   4.863  1.00  0.00    -0.393 OA
ATOM     31  H   UNL     1      75.854  41.731   4.870  1.00  0.00     0.210 HD
ENDBRANCH  29  30
ENDBRANCH   1  11
TORSDOF 6
ENDMDL
MODEL 9
REMARK VINA RESULT:    -5.708      1.376      2.248
REMARK INTER + INTRA:          -8.931
REMARK INTER:                  -7.433
REMARK INTRA:                  -1.498
REMARK UNBOUND:                -1.389
REMARK SMILES CC[C@@H](C=C[C@@H](C)[C@@H]1CC[C@H]2[C@@H]3CC=C4C[C@H](O)CC[C@]4(C)[C@H]3CC[C@@]21C)C(C)C
REMARK SMILES IDX 6 1 7 2 5 3 4 4 3 5 2 6 1 7 28 8 29 9 30 10 8 11 9 12 26 13
REMARK SMILES IDX 10 14 11 15 25 16 27 17 12 18 24 19 23 20 13 21 21 22 14 23
REMARK SMILES IDX 15 24 20 25 22 26 16 27 19 28 17 29 18 30
REMARK H PARENT 18 31
REMARK Flexibility Score: inf
ROOT
ATOM      1  C   UNL     1      73.506  45.956   7.118  1.00  0.00     0.012 C 
ATOM      2  C   UNL     1      73.916  47.120   6.193  1.00  0.00     0.012 C 
ENDROOT
BRANCH   1   3
ATOM      3  C   UNL     1      72.567  44.932   6.490  1.00  0.00    -0.028 C 
ATOM      4  C   UNL     1      72.777  43.595   6.470  1.00  0.00    -0.027 C 
BRANCH   4   5
ATOM      5  C   UNL     1      71.817  42.586   5.855  1.00  0.00     0.014 C 
BRANCH   5   6
ATOM      6  C   UNL     1      70.329  43.007   6.025  1.00  0.00     0.004 C 
ATOM      7  C   UNL     1      69.732  42.670   7.389  1.00  0.00     0.004 C 
ENDBRANCH   5   6
BRANCH   5   8
ATOM      8  C   UNL     1      72.186  41.144   6.343  1.00  0.00    -0.011 C 
ATOM      9  C   UNL     1      73.194  41.135   7.505  1.00  0.00     0.008 C 
ATOM     10  C   UNL     1      72.654  40.211   5.218  1.00  0.00     0.008 C 
ENDBRANCH   5   8
ENDBRANCH   4   5
ENDBRANCH   1   3
BRANCH   1  11
ATOM     11  C   UNL     1      73.081  46.434   8.551  1.00  0.00     0.002 C 
ATOM     12  C   UNL     1      73.138  45.272   9.587  1.00  0.00     0.005 C 
ATOM     13  C   UNL     1      71.661  47.058   8.778  1.00  0.00    -0.026 C 
ATOM     14  C   UNL     1      71.708  45.022  10.091  1.00  0.00     0.005 C 
ATOM     15  C   UNL     1      70.825  45.831   9.154  1.00  0.00    -0.001 C 
ATOM     16  C   UNL     1      70.962  47.758   7.587  1.00  0.00     0.007 C 
ATOM     17  C   UNL     1      71.793  48.082   9.953  1.00  0.00     0.012 C 
ATOM     18  C   UNL     1      69.393  46.176   9.613  1.00  0.00     0.000 C 
ATOM     19  C   UNL     1      69.495  48.123   7.908  1.00  0.00     0.005 C 
ATOM     20  C   UNL     1      68.659  46.923   8.460  1.00  0.00     0.003 C 
ATOM     21  C   UNL     1      68.622  44.890   9.954  1.00  0.00     0.031 C 
ATOM     22  C   UNL     1      67.182  47.307   8.861  1.00  0.00    -0.008 C 
ATOM     23  C   UNL     1      67.144  45.115  10.125  1.00  0.00    -0.027 C 
ATOM     24  C   UNL     1      66.469  46.108   9.508  1.00  0.00    -0.065 C 
ATOM     25  C   UNL     1      66.398  47.722   7.574  1.00  0.00     0.014 C 
ATOM     26  C   UNL     1      67.157  48.480   9.878  1.00  0.00     0.016 C 
ATOM     27  C   UNL     1      64.956  46.138   9.645  1.00  0.00     0.063 C 
ATOM     28  C   UNL     1      64.877  47.835   7.784  1.00  0.00     0.033 C 
ATOM     29  C   UNL     1      64.283  46.526   8.324  1.00  0.00     0.118 C 
BRANCH  29  30
ATOM     30  O   UNL     1      64.446  45.482   7.395  1.00  0.00    -0.393 OA
ATOM     31  H   UNL     1      64.790  44.699   7.893  1.00  0.00     0.210 HD
ENDBRANCH  29  30
ENDBRANCH   1  11
TORSDOF 6
ENDMDL
