MODEL 1
REMARK VINA RESULT:    -3.623      0.000      0.000
REMARK INTER + INTRA:          -4.387
REMARK INTER:                  -4.259
REMARK INTRA:                  -0.128
REMARK UNBOUND:                -0.128
REMARK SMILES O=C([O-])C=Cc1ccc(O)c(O)c1
REMARK SMILES IDX 6 1 13 2 7 3 11 4 8 5 9 6 5 7 4 8 2 9 1 10 3 11 12 12 10 14
REMARK H PARENT 12 13 10 15
REMARK Flexibility Score: inf
ROOT
ATOM      1  C   UNL     1       7.666 -22.102 -17.683  1.00  0.00    -0.022 A 
ATOM      2  C   UNL     1       7.400 -21.049 -16.784  1.00  0.00     0.058 A 
ATOM      3  C   UNL     1       6.689 -23.091 -17.877  1.00  0.00     0.012 A 
ATOM      4  C   UNL     1       6.169 -20.980 -16.114  1.00  0.00     0.157 A 
ATOM      5  C   UNL     1       5.463 -23.021 -17.211  1.00  0.00     0.051 A 
ATOM      6  C   UNL     1       5.199 -21.966 -16.331  1.00  0.00     0.157 A 
ENDROOT
BRANCH   1   7
ATOM      7  C   UNL     1       8.956 -22.226 -18.407  1.00  0.00     0.010 C 
ATOM      8  C   UNL     1       9.216 -21.619 -19.574  1.00  0.00     0.025 C 
BRANCH   8   9
ATOM      9  C   UNL     1      10.506 -21.780 -20.263  1.00  0.00     0.064 C 
ATOM     10  O   UNL     1      11.060 -22.910 -20.286  1.00  0.00    -0.545 OA
ATOM     11  O   UNL     1      11.124 -20.705 -20.891  1.00  0.00    -0.545 OA
ENDBRANCH   8   9
ENDBRANCH   1   7
BRANCH   4  12
ATOM     12  O   UNL     1       5.906 -19.936 -15.227  1.00  0.00    -0.504 OA
ATOM     13  H   UNL     1       6.099 -18.973 -15.470  1.00  0.00     0.293 HD
ENDBRANCH   4  12
BRANCH   6  14
ATOM     14  O   UNL     1       3.976 -21.891 -15.665  1.00  0.00    -0.504 OA
ATOM     15  H   UNL     1       3.912 -21.558 -14.710  1.00  0.00     0.293 HD
ENDBRANCH   6  14
TORSDOF 4
ENDMDL
MODEL 2
REMARK VINA RESULT:    -3.474      2.146      5.776
REMARK INTER + INTRA:          -4.211
REMARK INTER:                  -4.073
REMARK INTRA:                  -0.138
REMARK UNBOUND:                -0.128
REMARK SMILES O=C([O-])C=Cc1ccc(O)c(O)c1
REMARK SMILES IDX 6 1 13 2 7 3 11 4 8 5 9 6 5 7 4 8 2 9 1 10 3 11 12 12 10 14
REMARK H PARENT 12 13 10 15
REMARK Flexibility Score: inf
ROOT
ATOM      1  C   UNL     1       8.688 -21.828 -19.707  1.00  0.00    -0.022 A 
ATOM      2  C   UNL     1       9.389 -20.943 -20.552  1.00  0.00     0.058 A 
ATOM      3  C   UNL     1       8.003 -22.912 -20.280  1.00  0.00     0.012 A 
ATOM      4  C   UNL     1       9.418 -21.156 -21.938  1.00  0.00     0.157 A 
ATOM      5  C   UNL     1       8.034 -23.124 -21.661  1.00  0.00     0.051 A 
ATOM      6  C   UNL     1       8.743 -22.249 -22.492  1.00  0.00     0.157 A 
ENDROOT
BRANCH   1   7
ATOM      7  C   UNL     1       8.617 -21.640 -18.237  1.00  0.00     0.010 C 
ATOM      8  C   UNL     1       7.474 -21.438 -17.566  1.00  0.00     0.025 C 
BRANCH   8   9
ATOM      9  C   UNL     1       7.453 -21.245 -16.108  1.00  0.00     0.064 C 
ATOM     10  O   UNL     1       7.942 -22.130 -15.357  1.00  0.00    -0.545 OA
ATOM     11  O   UNL     1       6.903 -20.100 -15.542  1.00  0.00    -0.545 OA
ENDBRANCH   8   9
ENDBRANCH   1   7
BRANCH   4  12
ATOM     12  O   UNL     1      10.114 -20.280 -22.772  1.00  0.00    -0.504 OA
ATOM     13  H   UNL     1       9.926 -19.285 -22.770  1.00  0.00     0.293 HD
ENDBRANCH   4  12
BRANCH   6  14
ATOM     14  O   UNL     1       8.778 -22.458 -23.870  1.00  0.00    -0.504 OA
ATOM     15  H   UNL     1       9.606 -22.249 -24.417  1.00  0.00     0.293 HD
ENDBRANCH   6  14
TORSDOF 4
ENDMDL
MODEL 3
REMARK VINA RESULT:    -3.451      2.250      6.327
REMARK INTER + INTRA:          -4.184
REMARK INTER:                  -4.039
REMARK INTRA:                  -0.145
REMARK UNBOUND:                -0.128
REMARK SMILES O=C([O-])C=Cc1ccc(O)c(O)c1
REMARK SMILES IDX 6 1 13 2 7 3 11 4 8 5 9 6 5 7 4 8 2 9 1 10 3 11 12 12 10 14
REMARK H PARENT 12 13 10 15
REMARK Flexibility Score: inf
ROOT
ATOM      1  C   UNL     1       8.441 -22.259 -20.160  1.00  0.00    -0.022 A 
ATOM      2  C   UNL     1       8.201 -22.662 -21.490  1.00  0.00     0.058 A 
ATOM      3  C   UNL     1       9.462 -21.330 -19.906  1.00  0.00     0.012 A 
ATOM      4  C   UNL     1       8.956 -22.123 -22.543  1.00  0.00     0.157 A 
ATOM      5  C   UNL     1      10.212 -20.793 -20.956  1.00  0.00     0.051 A 
ATOM      6  C   UNL     1       9.960 -21.185 -22.275  1.00  0.00     0.157 A 
ENDROOT
BRANCH   1   7
ATOM      7  C   UNL     1       7.678 -22.807 -19.011  1.00  0.00     0.010 C 
ATOM      8  C   UNL     1       7.419 -22.117 -17.891  1.00  0.00     0.025 C 
BRANCH   8   9
ATOM      9  C   UNL     1       6.668 -22.705 -16.771  1.00  0.00     0.064 C 
ATOM     10  O   UNL     1       5.419 -22.833 -16.861  1.00  0.00    -0.545 OA
ATOM     11  O   UNL     1       7.315 -23.125 -15.614  1.00  0.00    -0.545 OA
ENDBRANCH   8   9
ENDBRANCH   1   7
BRANCH   4  12
ATOM     12  O   UNL     1       8.716 -22.520 -23.858  1.00  0.00    -0.504 OA
ATOM     13  H   UNL     1       7.891 -23.051 -24.109  1.00  0.00     0.293 HD
ENDBRANCH   4  12
BRANCH   6  14
ATOM     14  O   UNL     1      10.705 -20.651 -23.325  1.00  0.00    -0.504 OA
ATOM     15  H   UNL     1      11.217 -21.244 -23.968  1.00  0.00     0.293 HD
ENDBRANCH   6  14
TORSDOF 4
ENDMDL
MODEL 4
REMARK VINA RESULT:    -2.917     15.122     16.486
REMARK INTER + INTRA:          -3.557
REMARK INTER:                  -3.408
REMARK INTRA:                  -0.148
REMARK UNBOUND:                -0.128
REMARK SMILES O=C([O-])C=Cc1ccc(O)c(O)c1
REMARK SMILES IDX 6 1 13 2 7 3 11 4 8 5 9 6 5 7 4 8 2 9 1 10 3 11 12 12 10 14
REMARK H PARENT 12 13 10 15
REMARK Flexibility Score: inf
ROOT
ATOM      1  C   UNL     1      -7.904 -21.960 -12.439  1.00  0.00    -0.022 A 
ATOM      2  C   UNL     1      -8.646 -21.318 -11.428  1.00  0.00     0.058 A 
ATOM      3  C   UNL     1      -6.887 -22.855 -12.070  1.00  0.00     0.012 A 
ATOM      4  C   UNL     1      -8.387 -21.588 -10.075  1.00  0.00     0.157 A 
ATOM      5  C   UNL     1      -6.631 -23.125 -10.723  1.00  0.00     0.051 A 
ATOM      6  C   UNL     1      -7.381 -22.494  -9.723  1.00  0.00     0.157 A 
ENDROOT
BRANCH   1   7
ATOM      7  C   UNL     1      -8.131 -21.701 -13.883  1.00  0.00     0.010 C 
ATOM      8  C   UNL     1      -7.185 -21.838 -14.822  1.00  0.00     0.025 C 
BRANCH   8   9
ATOM      9  C   UNL     1      -7.452 -21.559 -16.242  1.00  0.00     0.064 C 
ATOM     10  O   UNL     1      -6.501 -21.233 -17.000  1.00  0.00    -0.545 OA
ATOM     11  O   UNL     1      -8.738 -21.652 -16.762  1.00  0.00    -0.545 OA
ENDBRANCH   8   9
ENDBRANCH   1   7
BRANCH   4  12
ATOM     12  O   UNL     1      -9.125 -20.953  -9.076  1.00  0.00    -0.504 OA
ATOM     13  H   UNL     1      -8.747 -20.172  -8.553  1.00  0.00     0.293 HD
ENDBRANCH   4  12
BRANCH   6  14
ATOM     14  O   UNL     1      -7.130 -22.761  -8.378  1.00  0.00    -0.504 OA
ATOM     15  H   UNL     1      -6.416 -23.422  -8.093  1.00  0.00     0.293 HD
ENDBRANCH   6  14
TORSDOF 4
ENDMDL
MODEL 5
REMARK VINA RESULT:    -2.818      2.767      3.332
REMARK INTER + INTRA:          -3.440
REMARK INTER:                  -3.313
REMARK INTRA:                  -0.126
REMARK UNBOUND:                -0.128
REMARK SMILES O=C([O-])C=Cc1ccc(O)c(O)c1
REMARK SMILES IDX 6 1 13 2 7 3 11 4 8 5 9 6 5 7 4 8 2 9 1 10 3 11 12 12 10 14
REMARK H PARENT 12 13 10 15
REMARK Flexibility Score: inf
ROOT
ATOM      1  C   UNL     1       6.834 -21.664 -16.051  1.00  0.00    -0.022 A 
ATOM      2  C   UNL     1       5.918 -20.875 -15.326  1.00  0.00     0.058 A 
ATOM      3  C   UNL     1       6.362 -22.796 -16.734  1.00  0.00     0.012 A 
ATOM      4  C   UNL     1       4.554 -21.204 -15.308  1.00  0.00     0.157 A 
ATOM      5  C   UNL     1       5.003 -23.122 -16.717  1.00  0.00     0.051 A 
ATOM      6  C   UNL     1       4.096 -22.327 -16.006  1.00  0.00     0.157 A 
ENDROOT
BRANCH   1   7
ATOM      7  C   UNL     1       8.287 -21.364 -16.093  1.00  0.00     0.010 C 
ATOM      8  C   UNL     1       8.978 -20.880 -15.052  1.00  0.00     0.025 C 
BRANCH   8   9
ATOM      9  C   UNL     1      10.417 -20.586 -15.143  1.00  0.00     0.064 C 
ATOM     10  O   UNL     1      11.019 -20.118 -14.141  1.00  0.00    -0.545 OA
ATOM     11  O   UNL     1      11.125 -20.820 -16.316  1.00  0.00    -0.545 OA
ENDBRANCH   8   9
ENDBRANCH   1   7
BRANCH   4  12
ATOM     12  O   UNL     1       3.649 -20.421 -14.592  1.00  0.00    -0.504 OA
ATOM     13  H   UNL     1       3.802 -20.190 -13.618  1.00  0.00     0.293 HD
ENDBRANCH   4  12
BRANCH   6  14
ATOM     14  O   UNL     1       2.740 -22.648 -15.988  1.00  0.00    -0.504 OA
ATOM     15  H   UNL     1       2.284 -23.072 -16.788  1.00  0.00     0.293 HD
ENDBRANCH   6  14
TORSDOF 4
ENDMDL
MODEL 6
REMARK VINA RESULT:    -2.811      1.529      5.863
REMARK INTER + INTRA:          -3.432
REMARK INTER:                  -3.278
REMARK INTRA:                  -0.154
REMARK UNBOUND:                -0.128
REMARK SMILES O=C([O-])C=Cc1ccc(O)c(O)c1
REMARK SMILES IDX 6 1 13 2 7 3 11 4 8 5 9 6 5 7 4 8 2 9 1 10 3 11 12 12 10 14
REMARK H PARENT 12 13 10 15
REMARK Flexibility Score: inf
ROOT
ATOM      1  C   UNL     1       7.138 -22.103 -17.000  1.00  0.00    -0.022 A 
ATOM      2  C   UNL     1       8.389 -21.613 -16.573  1.00  0.00     0.058 A 
ATOM      3  C   UNL     1       7.063 -22.804 -18.214  1.00  0.00     0.012 A 
ATOM      4  C   UNL     1       9.542 -21.842 -17.339  1.00  0.00     0.157 A 
ATOM      5  C   UNL     1       8.212 -23.034 -18.976  1.00  0.00     0.051 A 
ATOM      6  C   UNL     1       9.454 -22.556 -18.540  1.00  0.00     0.157 A 
ENDROOT
BRANCH   1   7
ATOM      7  C   UNL     1       5.888 -21.878 -16.232  1.00  0.00     0.010 C 
ATOM      8  C   UNL     1       4.716 -22.455 -16.532  1.00  0.00     0.025 C 
BRANCH   8   9
ATOM      9  C   UNL     1       3.498 -22.193 -15.749  1.00  0.00     0.064 C 
ATOM     10  O   UNL     1       3.436 -21.166 -15.023  1.00  0.00    -0.545 OA
ATOM     11  O   UNL     1       2.412 -23.059 -15.799  1.00  0.00    -0.545 OA
ENDBRANCH   8   9
ENDBRANCH   1   7
BRANCH   4  12
ATOM     12  O   UNL     1      10.779 -21.358 -16.914  1.00  0.00    -0.504 OA
ATOM     13  H   UNL     1      11.625 -21.527 -17.443  1.00  0.00     0.293 HD
ENDBRANCH   4  12
BRANCH   6  14
ATOM     14  O   UNL     1      10.603 -22.784 -19.295  1.00  0.00    -0.504 OA
ATOM     15  H   UNL     1      10.555 -22.963 -20.292  1.00  0.00     0.293 HD
ENDBRANCH   6  14
TORSDOF 4
ENDMDL
MODEL 7
REMARK VINA RESULT:    -2.743      1.927      2.931
REMARK INTER + INTRA:          -3.352
REMARK INTER:                  -3.222
REMARK INTRA:                  -0.130
REMARK UNBOUND:                -0.128
REMARK SMILES O=C([O-])C=Cc1ccc(O)c(O)c1
REMARK SMILES IDX 6 1 13 2 7 3 11 4 8 5 9 6 5 7 4 8 2 9 1 10 3 11 12 12 10 14
REMARK H PARENT 12 13 10 15
REMARK Flexibility Score: inf
ROOT
ATOM      1  C   UNL     1       8.577 -22.019 -18.570  1.00  0.00    -0.022 A 
ATOM      2  C   UNL     1       7.367 -21.617 -17.969  1.00  0.00     0.058 A 
ATOM      3  C   UNL     1       9.755 -21.994 -17.805  1.00  0.00     0.012 A 
ATOM      4  C   UNL     1       7.338 -21.222 -16.623  1.00  0.00     0.157 A 
ATOM      5  C   UNL     1       9.724 -21.603 -16.464  1.00  0.00     0.051 A 
ATOM      6  C   UNL     1       8.517 -21.218 -15.870  1.00  0.00     0.157 A 
ENDROOT
BRANCH   1   7
ATOM      7  C   UNL     1       8.663 -22.434 -19.992  1.00  0.00     0.010 C 
ATOM      8  C   UNL     1       9.136 -21.649 -20.970  1.00  0.00     0.025 C 
BRANCH   8   9
ATOM      9  C   UNL     1       9.192 -22.099 -22.370  1.00  0.00     0.064 C 
ATOM     10  O   UNL     1       9.998 -21.551 -23.166  1.00  0.00    -0.545 OA
ATOM     11  O   UNL     1       8.370 -23.123 -22.828  1.00  0.00    -0.545 OA
ENDBRANCH   8   9
ENDBRANCH   1   7
BRANCH   4  12
ATOM     12  O   UNL     1       6.139 -20.827 -16.030  1.00  0.00    -0.504 OA
ATOM     13  H   UNL     1       5.585 -21.469 -15.475  1.00  0.00     0.293 HD
ENDBRANCH   4  12
BRANCH   6  14
ATOM     14  O   UNL     1       8.482 -20.828 -14.532  1.00  0.00    -0.504 OA
ATOM     15  H   UNL     1       7.983 -21.369 -13.835  1.00  0.00     0.293 HD
ENDBRANCH   6  14
TORSDOF 4
ENDMDL
MODEL 8
REMARK VINA RESULT:    -2.628      2.597      3.127
REMARK INTER + INTRA:          -3.217
REMARK INTER:                  -3.074
REMARK INTRA:                  -0.143
REMARK UNBOUND:                -0.128
REMARK SMILES O=C([O-])C=Cc1ccc(O)c(O)c1
REMARK SMILES IDX 6 1 13 2 7 3 11 4 8 5 9 6 5 7 4 8 2 9 1 10 3 11 12 12 10 14
REMARK H PARENT 12 13 10 15
REMARK Flexibility Score: inf
ROOT
ATOM      1  C   UNL     1       8.768 -22.478 -19.412  1.00  0.00    -0.022 A 
ATOM      2  C   UNL     1       9.626 -21.962 -18.419  1.00  0.00     0.058 A 
ATOM      3  C   UNL     1       7.432 -22.752 -19.079  1.00  0.00     0.012 A 
ATOM      4  C   UNL     1       9.144 -21.706 -17.127  1.00  0.00     0.157 A 
ATOM      5  C   UNL     1       6.953 -22.495 -17.792  1.00  0.00     0.051 A 
ATOM      6  C   UNL     1       7.805 -21.969 -16.814  1.00  0.00     0.157 A 
ENDROOT
BRANCH   1   7
ATOM      7  C   UNL     1       9.232 -22.777 -20.790  1.00  0.00     0.010 C 
ATOM      8  C   UNL     1       8.539 -22.462 -21.894  1.00  0.00     0.025 C 
BRANCH   8   9
ATOM      9  C   UNL     1       9.032 -22.789 -23.241  1.00  0.00     0.064 C 
ATOM     10  O   UNL     1      10.270 -22.765 -23.471  1.00  0.00    -0.545 OA
ATOM     11  O   UNL     1       8.154 -23.125 -24.266  1.00  0.00    -0.545 OA
ENDBRANCH   8   9
ENDBRANCH   1   7
BRANCH   4  12
ATOM     12  O   UNL     1       9.993 -21.193 -16.146  1.00  0.00    -0.504 OA
ATOM     13  H   UNL     1       9.970 -21.535 -15.193  1.00  0.00     0.293 HD
ENDBRANCH   4  12
BRANCH   6  14
ATOM     14  O   UNL     1       7.331 -21.710 -15.530  1.00  0.00    -0.504 OA
ATOM     15  H   UNL     1       7.936 -21.770 -14.719  1.00  0.00     0.293 HD
ENDBRANCH   6  14
TORSDOF 4
ENDMDL
MODEL 9
REMARK VINA RESULT:    -2.378     14.932     16.357
REMARK INTER + INTRA:          -2.923
REMARK INTER:                  -2.796
REMARK INTRA:                  -0.127
REMARK UNBOUND:                -0.128
REMARK SMILES O=C([O-])C=Cc1ccc(O)c(O)c1
REMARK SMILES IDX 6 1 13 2 7 3 11 4 8 5 9 6 5 7 4 8 2 9 1 10 3 11 12 12 10 14
REMARK H PARENT 12 13 10 15
REMARK Flexibility Score: inf
ROOT
ATOM      1  C   UNL     1      -8.133 -21.804 -12.893  1.00  0.00    -0.022 A 
ATOM      2  C   UNL     1      -7.118 -22.483 -12.189  1.00  0.00     0.058 A 
ATOM      3  C   UNL     1      -9.121 -21.119 -12.166  1.00  0.00     0.012 A 
ATOM      4  C   UNL     1      -7.084 -22.455 -10.786  1.00  0.00     0.157 A 
ATOM      5  C   UNL     1      -9.085 -21.090 -10.770  1.00  0.00     0.051 A 
ATOM      6  C   UNL     1      -8.067 -21.755 -10.077  1.00  0.00     0.157 A 
ENDROOT
BRANCH   1   7
ATOM      7  C   UNL     1      -8.220 -21.812 -14.374  1.00  0.00     0.010 C 
ATOM      8  C   UNL     1      -7.169 -21.617 -15.183  1.00  0.00     0.025 C 
BRANCH   8   9
ATOM      9  C   UNL     1      -7.305 -21.623 -16.648  1.00  0.00     0.064 C 
ATOM     10  O   UNL     1      -8.452 -21.635 -17.166  1.00  0.00    -0.545 OA
ATOM     11  O   UNL     1      -6.185 -21.612 -17.473  1.00  0.00    -0.545 OA
ENDBRANCH   8   9
ENDBRANCH   1   7
BRANCH   4  12
ATOM     12  O   UNL     1      -6.077 -23.125 -10.092  1.00  0.00    -0.504 OA
ATOM     13  H   UNL     1      -5.740 -22.794  -9.196  1.00  0.00     0.293 HD
ENDBRANCH   4  12
BRANCH   6  14
ATOM     14  O   UNL     1      -8.026 -21.727  -8.684  1.00  0.00    -0.504 OA
ATOM     15  H   UNL     1      -7.246 -22.119  -8.168  1.00  0.00     0.293 HD
ENDBRANCH   6  14
TORSDOF 4
ENDMDL
