MODEL 1
REMARK VINA RESULT:    -3.653      0.000      0.000
REMARK INTER + INTRA:          -8.172
REMARK INTER:                  -6.643
REMARK INTRA:                  -1.529
REMARK UNBOUND:                -1.529
REMARK SMILES CCCCCCCCCCCCCCCC(=O)[O-]
REMARK SMILES IDX 9 1 10 2 11 3 12 4 13 5 14 6 15 7 16 8 17 9 18 10 8 11 7 12
REMARK SMILES IDX 6 13 5 14 4 15 3 16 2 17 1 18
REMARK H PARENT
REMARK Flexibility Score: inf
ROOT
ATOM      1  C   UNL     1      61.145  31.001  61.451  1.00  0.00     0.000 C 
ENDROOT
BRANCH   1   2
ATOM      2  C   UNL     1      62.271  30.141  62.045  1.00  0.00     0.000 C 
BRANCH   2   3
ATOM      3  C   UNL     1      62.205  28.672  61.588  1.00  0.00     0.000 C 
BRANCH   3   4
ATOM      4  C   UNL     1      63.569  28.021  61.281  1.00  0.00     0.000 C 
BRANCH   4   5
ATOM      5  C   UNL     1      64.362  28.674  60.135  1.00  0.00     0.000 C 
BRANCH   5   6
ATOM      6  C   UNL     1      65.541  29.522  60.634  1.00  0.00     0.006 C 
BRANCH   6   7
ATOM      7  C   UNL     1      66.577  28.652  61.351  1.00  0.00     0.053 C 
BRANCH   7   8
ATOM      8  C   UNL     1      67.956  28.969  60.866  1.00  0.00     0.041 C 
ATOM      9  O   UNL     1      68.961  28.584  61.519  1.00  0.00    -0.550 OA
ATOM     10  O   UNL     1      68.133  29.646  59.666  1.00  0.00    -0.550 OA
ENDBRANCH   7   8
ENDBRANCH   6   7
ENDBRANCH   5   6
ENDBRANCH   4   5
ENDBRANCH   3   4
ENDBRANCH   2   3
ENDBRANCH   1   2
BRANCH   1  11
ATOM     11  C   UNL     1      61.687  32.346  60.953  1.00  0.00     0.000 C 
BRANCH  11  12
ATOM     12  C   UNL     1      62.973  32.154  60.140  1.00  0.00    -0.000 C 
BRANCH  12  13
ATOM     13  C   UNL     1      64.169  32.817  60.836  1.00  0.00    -0.000 C 
BRANCH  13  14
ATOM     14  C   UNL     1      64.300  34.288  60.425  1.00  0.00    -0.000 C 
BRANCH  14  15
ATOM     15  C   UNL     1      64.310  35.204  61.658  1.00  0.00    -0.000 C 
BRANCH  15  16
ATOM     16  C   UNL     1      63.215  36.282  61.603  1.00  0.00    -0.000 C 
BRANCH  16  17
ATOM     17  C   UNL     1      62.385  36.216  60.312  1.00  0.00    -0.003 C 
ATOM     18  C   UNL     1      60.905  36.006  60.622  1.00  0.00     0.004 C 
ENDBRANCH  16  17
ENDBRANCH  15  16
ENDBRANCH  14  15
ENDBRANCH  13  14
ENDBRANCH  12  13
ENDBRANCH  11  12
ENDBRANCH   1  11
TORSDOF 14
ENDMDL
MODEL 2
REMARK VINA RESULT:    -3.562     12.330     13.655
REMARK INTER + INTRA:          -8.006
REMARK INTER:                  -6.132
REMARK INTRA:                  -1.874
REMARK UNBOUND:                -1.529
REMARK SMILES CCCCCCCCCCCCCCCC(=O)[O-]
REMARK SMILES IDX 9 1 10 2 11 3 12 4 13 5 14 6 15 7 16 8 17 9 18 10 8 11 7 12
REMARK SMILES IDX 6 13 5 14 4 15 3 16 2 17 1 18
REMARK H PARENT
REMARK Flexibility Score: inf
ROOT
ATOM      1  C   UNL     1      56.983  26.259  51.689  1.00  0.00     0.000 C 
ENDROOT
BRANCH   1   2
ATOM      2  C   UNL     1      57.068  27.770  51.953  1.00  0.00     0.000 C 
BRANCH   2   3
ATOM      3  C   UNL     1      57.150  28.599  50.659  1.00  0.00     0.000 C 
BRANCH   3   4
ATOM      4  C   UNL     1      58.531  29.220  50.365  1.00  0.00     0.000 C 
BRANCH   4   5
ATOM      5  C   UNL     1      59.229  28.692  49.099  1.00  0.00     0.000 C 
BRANCH   5   6
ATOM      6  C   UNL     1      59.689  27.233  49.236  1.00  0.00     0.006 C 
BRANCH   6   7
ATOM      7  C   UNL     1      61.177  27.160  49.587  1.00  0.00     0.053 C 
BRANCH   7   8
ATOM      8  C   UNL     1      61.361  26.788  51.024  1.00  0.00     0.041 C 
ATOM      9  O   UNL     1      60.475  26.124  51.625  1.00  0.00    -0.550 OA
ATOM     10  O   UNL     1      62.533  27.130  51.687  1.00  0.00    -0.550 OA
ENDBRANCH   7   8
ENDBRANCH   6   7
ENDBRANCH   5   6
ENDBRANCH   4   5
ENDBRANCH   3   4
ENDBRANCH   2   3
ENDBRANCH   1   2
BRANCH   1  11
ATOM     11  C   UNL     1      56.342  25.976  50.325  1.00  0.00     0.000 C 
BRANCH  11  12
ATOM     12  C   UNL     1      54.834  25.735  50.465  1.00  0.00    -0.000 C 
BRANCH  12  13
ATOM     13  C   UNL     1      54.110  25.992  49.137  1.00  0.00    -0.000 C 
BRANCH  13  14
ATOM     14  C   UNL     1      52.966  26.997  49.318  1.00  0.00    -0.000 C 
BRANCH  14  15
ATOM     15  C   UNL     1      53.194  27.871  50.560  1.00  0.00    -0.000 C 
BRANCH  15  16
ATOM     16  C   UNL     1      53.614  29.306  50.203  1.00  0.00    -0.000 C 
BRANCH  16  17
ATOM     17  C   UNL     1      53.308  30.308  51.327  1.00  0.00    -0.003 C 
ATOM     18  C   UNL     1      54.322  30.187  52.462  1.00  0.00     0.004 C 
ENDBRANCH  16  17
ENDBRANCH  15  16
ENDBRANCH  14  15
ENDBRANCH  13  14
ENDBRANCH  12  13
ENDBRANCH  11  12
ENDBRANCH   1  11
TORSDOF 14
ENDMDL
MODEL 3
REMARK VINA RESULT:    -3.544     11.130     12.631
REMARK INTER + INTRA:          -7.974
REMARK INTER:                  -5.180
REMARK INTRA:                  -2.794
REMARK UNBOUND:                -1.529
REMARK SMILES CCCCCCCCCCCCCCCC(=O)[O-]
REMARK SMILES IDX 9 1 10 2 11 3 12 4 13 5 14 6 15 7 16 8 17 9 18 10 8 11 7 12
REMARK SMILES IDX 6 13 5 14 4 15 3 16 2 17 1 18
REMARK H PARENT
REMARK Flexibility Score: inf
ROOT
ATOM      1  C   UNL     1      58.289  28.796  52.533  1.00  0.00     0.000 C 
ENDROOT
BRANCH   1   2
ATOM      2  C   UNL     1      58.687  29.642  51.313  1.00  0.00     0.000 C 
BRANCH   2   3
ATOM      3  C   UNL     1      58.236  29.017  49.980  1.00  0.00     0.000 C 
BRANCH   3   4
ATOM      4  C   UNL     1      59.371  28.429  49.117  1.00  0.00     0.000 C 
BRANCH   4   5
ATOM      5  C   UNL     1      59.584  26.912  49.262  1.00  0.00     0.000 C 
BRANCH   5   6
ATOM      6  C   UNL     1      60.999  26.552  49.738  1.00  0.00     0.006 C 
BRANCH   6   7
ATOM      7  C   UNL     1      61.988  27.676  49.416  1.00  0.00     0.053 C 
BRANCH   7   8
ATOM      8  C   UNL     1      62.668  28.149  50.662  1.00  0.00     0.041 C 
ATOM      9  O   UNL     1      63.658  27.521  51.121  1.00  0.00    -0.550 OA
ATOM     10  O   UNL     1      62.241  29.314  51.288  1.00  0.00    -0.550 OA
ENDBRANCH   7   8
ENDBRANCH   6   7
ENDBRANCH   5   6
ENDBRANCH   4   5
ENDBRANCH   3   4
ENDBRANCH   2   3
ENDBRANCH   1   2
BRANCH   1  11
ATOM     11  C   UNL     1      59.446  27.893  52.975  1.00  0.00     0.000 C 
BRANCH  11  12
ATOM     12  C   UNL     1      59.047  26.414  52.906  1.00  0.00    -0.000 C 
BRANCH  12  13
ATOM     13  C   UNL     1      57.538  26.260  52.674  1.00  0.00    -0.000 C 
BRANCH  13  14
ATOM     14  C   UNL     1      57.254  25.307  51.507  1.00  0.00    -0.000 C 
BRANCH  14  15
ATOM     15  C   UNL     1      56.295  25.950  50.493  1.00  0.00    -0.000 C 
BRANCH  15  16
ATOM     16  C   UNL     1      55.326  26.948  51.147  1.00  0.00    -0.000 C 
BRANCH  16  17
ATOM     17  C   UNL     1      54.670  27.889  50.126  1.00  0.00    -0.003 C 
ATOM     18  C   UNL     1      54.519  29.298  50.695  1.00  0.00     0.004 C 
ENDBRANCH  16  17
ENDBRANCH  15  16
ENDBRANCH  14  15
ENDBRANCH  13  14
ENDBRANCH  12  13
ENDBRANCH  11  12
ENDBRANCH   1  11
TORSDOF 14
ENDMDL
MODEL 4
REMARK VINA RESULT:    -3.532      1.572      3.211
REMARK INTER + INTRA:          -7.953
REMARK INTER:                  -5.847
REMARK INTRA:                  -2.105
REMARK UNBOUND:                -1.529
REMARK SMILES CCCCCCCCCCCCCCCC(=O)[O-]
REMARK SMILES IDX 9 1 10 2 11 3 12 4 13 5 14 6 15 7 16 8 17 9 18 10 8 11 7 12
REMARK SMILES IDX 6 13 5 14 4 15 3 16 2 17 1 18
REMARK H PARENT
REMARK Flexibility Score: inf
ROOT
ATOM      1  C   UNL     1      63.708  32.471  59.537  1.00  0.00     0.000 C 
ENDROOT
BRANCH   1   2
ATOM      2  C   UNL     1      62.237  32.027  59.516  1.00  0.00     0.000 C 
BRANCH   2   3
ATOM      3  C   UNL     1      61.528  32.244  60.865  1.00  0.00     0.000 C 
BRANCH   3   4
ATOM      4  C   UNL     1      61.111  30.953  61.600  1.00  0.00     0.000 C 
BRANCH   4   5
ATOM      5  C   UNL     1      62.275  30.067  62.075  1.00  0.00     0.000 C 
BRANCH   5   6
ATOM      6  C   UNL     1      62.299  28.694  61.388  1.00  0.00     0.006 C 
BRANCH   6   7
ATOM      7  C   UNL     1      63.723  28.134  61.331  1.00  0.00     0.053 C 
BRANCH   7   8
ATOM      8  C   UNL     1      64.587  28.985  60.457  1.00  0.00     0.041 C 
ATOM      9  O   UNL     1      65.559  29.616  60.949  1.00  0.00    -0.550 OA
ATOM     10  O   UNL     1      64.351  29.043  59.089  1.00  0.00    -0.550 OA
ENDBRANCH   7   8
ENDBRANCH   6   7
ENDBRANCH   5   6
ENDBRANCH   4   5
ENDBRANCH   3   4
ENDBRANCH   2   3
ENDBRANCH   1   2
BRANCH   1  11
ATOM     11  C   UNL     1      64.051  33.171  60.857  1.00  0.00     0.000 C 
BRANCH  11  12
ATOM     12  C   UNL     1      64.522  34.609  60.611  1.00  0.00    -0.000 C 
BRANCH  12  13
ATOM     13  C   UNL     1      64.104  35.530  61.764  1.00  0.00    -0.000 C 
BRANCH  13  14
ATOM     14  C   UNL     1      63.136  36.616  61.279  1.00  0.00    -0.000 C 
BRANCH  14  15
ATOM     15  C   UNL     1      61.790  36.005  60.861  1.00  0.00    -0.000 C 
BRANCH  15  16
ATOM     16  C   UNL     1      61.528  36.130  59.352  1.00  0.00    -0.000 C 
BRANCH  16  17
ATOM     17  C   UNL     1      60.400  35.205  58.869  1.00  0.00    -0.003 C 
ATOM     18  C   UNL     1      60.660  34.720  57.445  1.00  0.00     0.004 C 
ENDBRANCH  16  17
ENDBRANCH  15  16
ENDBRANCH  14  15
ENDBRANCH  13  14
ENDBRANCH  12  13
ENDBRANCH  11  12
ENDBRANCH   1  11
TORSDOF 14
ENDMDL
MODEL 5
REMARK VINA RESULT:    -3.476     12.173     13.354
REMARK INTER + INTRA:          -7.850
REMARK INTER:                  -6.422
REMARK INTRA:                  -1.429
REMARK UNBOUND:                -1.529
REMARK SMILES CCCCCCCCCCCCCCCC(=O)[O-]
REMARK SMILES IDX 9 1 10 2 11 3 12 4 13 5 14 6 15 7 16 8 17 9 18 10 8 11 7 12
REMARK SMILES IDX 6 13 5 14 4 15 3 16 2 17 1 18
REMARK H PARENT
REMARK Flexibility Score: inf
ROOT
ATOM      1  C   UNL     1      55.586  26.165  49.835  1.00  0.00     0.000 C 
ENDROOT
BRANCH   1   2
ATOM      2  C   UNL     1      57.052  26.509  50.139  1.00  0.00     0.000 C 
BRANCH   2   3
ATOM      3  C   UNL     1      57.269  28.007  50.417  1.00  0.00     0.000 C 
BRANCH   3   4
ATOM      4  C   UNL     1      58.483  28.637  49.702  1.00  0.00     0.000 C 
BRANCH   4   5
ATOM      5  C   UNL     1      59.537  27.635  49.200  1.00  0.00     0.000 C 
BRANCH   5   6
ATOM      6  C   UNL     1      60.592  27.297  50.263  1.00  0.00     0.006 C 
BRANCH   6   7
ATOM      7  C   UNL     1      61.874  26.769  49.613  1.00  0.00     0.053 C 
BRANCH   7   8
ATOM      8  C   UNL     1      62.739  27.902  49.160  1.00  0.00     0.041 C 
ATOM      9  O   UNL     1      63.422  27.796  48.107  1.00  0.00    -0.550 OA
ATOM     10  O   UNL     1      62.752  29.095  49.872  1.00  0.00    -0.550 OA
ENDBRANCH   7   8
ENDBRANCH   6   7
ENDBRANCH   5   6
ENDBRANCH   4   5
ENDBRANCH   3   4
ENDBRANCH   2   3
ENDBRANCH   1   2
BRANCH   1  11
ATOM     11  C   UNL     1      54.638  27.163  50.510  1.00  0.00     0.000 C 
BRANCH  11  12
ATOM     12  C   UNL     1      53.411  27.437  49.632  1.00  0.00    -0.000 C 
BRANCH  12  13
ATOM     13  C   UNL     1      52.875  28.855  49.861  1.00  0.00    -0.000 C 
BRANCH  13  14
ATOM     14  C   UNL     1      53.904  29.722  50.597  1.00  0.00    -0.000 C 
BRANCH  14  15
ATOM     15  C   UNL     1      53.221  30.617  51.642  1.00  0.00    -0.000 C 
BRANCH  15  16
ATOM     16  C   UNL     1      54.110  30.876  52.869  1.00  0.00    -0.000 C 
BRANCH  16  17
ATOM     17  C   UNL     1      55.221  29.828  53.027  1.00  0.00    -0.003 C 
ATOM     18  C   UNL     1      56.596  30.490  53.082  1.00  0.00     0.004 C 
ENDBRANCH  16  17
ENDBRANCH  15  16
ENDBRANCH  14  15
ENDBRANCH  13  14
ENDBRANCH  12  13
ENDBRANCH  11  12
ENDBRANCH   1  11
TORSDOF 14
ENDMDL
MODEL 6
REMARK VINA RESULT:    -3.473      3.612      7.047
REMARK INTER + INTRA:          -7.844
REMARK INTER:                  -5.683
REMARK INTRA:                  -2.161
REMARK UNBOUND:                -1.529
REMARK SMILES CCCCCCCCCCCCCCCC(=O)[O-]
REMARK SMILES IDX 9 1 10 2 11 3 12 4 13 5 14 6 15 7 16 8 17 9 18 10 8 11 7 12
REMARK SMILES IDX 6 13 5 14 4 15 3 16 2 17 1 18
REMARK H PARENT
REMARK Flexibility Score: inf
ROOT
ATOM      1  C   UNL     1      62.176  32.073  59.608  1.00  0.00     0.000 C 
ENDROOT
BRANCH   1   2
ATOM      2  C   UNL     1      63.217  33.198  59.498  1.00  0.00     0.000 C 
BRANCH   2   3
ATOM      3  C   UNL     1      64.098  33.321  60.755  1.00  0.00     0.000 C 
BRANCH   3   4
ATOM      4  C   UNL     1      63.959  34.650  61.524  1.00  0.00     0.000 C 
BRANCH   4   5
ATOM      5  C   UNL     1      63.765  35.897  60.644  1.00  0.00     0.000 C 
BRANCH   5   6
ATOM      6  C   UNL     1      62.558  36.746  61.069  1.00  0.00     0.006 C 
BRANCH   6   7
ATOM      7  C   UNL     1      61.247  35.993  60.829  1.00  0.00     0.053 C 
BRANCH   7   8
ATOM      8  C   UNL     1      60.682  36.335  59.486  1.00  0.00     0.041 C 
ATOM      9  O   UNL     1      59.707  37.125  59.392  1.00  0.00    -0.550 OA
ATOM     10  O   UNL     1      61.266  35.820  58.335  1.00  0.00    -0.550 OA
ENDBRANCH   7   8
ENDBRANCH   6   7
ENDBRANCH   5   6
ENDBRANCH   4   5
ENDBRANCH   3   4
ENDBRANCH   2   3
ENDBRANCH   1   2
BRANCH   1  11
ATOM     11  C   UNL     1      61.235  32.310  60.794  1.00  0.00     0.000 C 
BRANCH  11  12
ATOM     12  C   UNL     1      61.142  31.063  61.681  1.00  0.00    -0.000 C 
BRANCH  12  13
ATOM     13  C   UNL     1      61.580  29.808  60.915  1.00  0.00    -0.000 C 
BRANCH  13  14
ATOM     14  C   UNL     1      62.620  29.010  61.712  1.00  0.00    -0.000 C 
BRANCH  14  15
ATOM     15  C   UNL     1      64.004  29.670  61.623  1.00  0.00    -0.000 C 
BRANCH  15  16
ATOM     16  C   UNL     1      64.853  29.109  60.471  1.00  0.00    -0.000 C 
BRANCH  16  17
ATOM     17  C   UNL     1      65.621  30.204  59.716  1.00  0.00    -0.003 C 
ATOM     18  C   UNL     1      65.203  30.255  58.248  1.00  0.00     0.004 C 
ENDBRANCH  16  17
ENDBRANCH  15  16
ENDBRANCH  14  15
ENDBRANCH  13  14
ENDBRANCH  12  13
ENDBRANCH  11  12
ENDBRANCH   1  11
TORSDOF 14
ENDMDL
MODEL 7
REMARK VINA RESULT:    -3.465      1.834      2.903
REMARK INTER + INTRA:          -7.830
REMARK INTER:                  -5.616
REMARK INTRA:                  -2.214
REMARK UNBOUND:                -1.529
REMARK SMILES CCCCCCCCCCCCCCCC(=O)[O-]
REMARK SMILES IDX 9 1 10 2 11 3 12 4 13 5 14 6 15 7 16 8 17 9 18 10 8 11 7 12
REMARK SMILES IDX 6 13 5 14 4 15 3 16 2 17 1 18
REMARK H PARENT
REMARK Flexibility Score: inf
ROOT
ATOM      1  C   UNL     1      60.753  31.657  59.626  1.00  0.00     0.000 C 
ENDROOT
BRANCH   1   2
ATOM      2  C   UNL     1      61.060  32.004  61.091  1.00  0.00     0.000 C 
BRANCH   2   3
ATOM      3  C   UNL     1      61.135  30.761  61.996  1.00  0.00     0.000 C 
BRANCH   3   4
ATOM      4  C   UNL     1      62.373  29.867  61.779  1.00  0.00     0.000 C 
BRANCH   4   5
ATOM      5  C   UNL     1      63.720  30.612  61.752  1.00  0.00     0.000 C 
BRANCH   5   6
ATOM      6  C   UNL     1      64.562  30.276  60.513  1.00  0.00     0.006 C 
BRANCH   6   7
ATOM      7  C   UNL     1      64.385  28.809  60.111  1.00  0.00     0.053 C 
BRANCH   7   8
ATOM      8  C   UNL     1      65.371  27.945  60.831  1.00  0.00     0.041 C 
ATOM      9  O   UNL     1      66.393  28.455  61.360  1.00  0.00    -0.550 OA
ATOM     10  O   UNL     1      65.137  26.582  60.961  1.00  0.00    -0.550 OA
ENDBRANCH   7   8
ENDBRANCH   6   7
ENDBRANCH   5   6
ENDBRANCH   4   5
ENDBRANCH   3   4
ENDBRANCH   2   3
ENDBRANCH   1   2
BRANCH   1  11
ATOM     11  C   UNL     1      61.808  32.254  58.688  1.00  0.00     0.000 C 
BRANCH  11  12
ATOM     12  C   UNL     1      61.197  33.338  57.792  1.00  0.00    -0.000 C 
BRANCH  12  13
ATOM     13  C   UNL     1      61.639  34.737  58.240  1.00  0.00    -0.000 C 
BRANCH  13  14
ATOM     14  C   UNL     1      60.584  35.385  59.145  1.00  0.00    -0.000 C 
BRANCH  14  15
ATOM     15  C   UNL     1      61.165  35.691  60.534  1.00  0.00    -0.000 C 
BRANCH  15  16
ATOM     16  C   UNL     1      62.691  35.875  60.509  1.00  0.00    -0.000 C 
BRANCH  16  17
ATOM     17  C   UNL     1      63.427  34.823  61.351  1.00  0.00    -0.003 C 
ATOM     18  C   UNL     1      64.422  34.037  60.501  1.00  0.00     0.004 C 
ENDBRANCH  16  17
ENDBRANCH  15  16
ENDBRANCH  14  15
ENDBRANCH  13  14
ENDBRANCH  12  13
ENDBRANCH  11  12
ENDBRANCH   1  11
TORSDOF 14
ENDMDL
MODEL 8
REMARK VINA RESULT:    -3.432     12.037     13.301
REMARK INTER + INTRA:          -7.770
REMARK INTER:                  -5.528
REMARK INTRA:                  -2.242
REMARK UNBOUND:                -1.529
REMARK SMILES CCCCCCCCCCCCCCCC(=O)[O-]
REMARK SMILES IDX 9 1 10 2 11 3 12 4 13 5 14 6 15 7 16 8 17 9 18 10 8 11 7 12
REMARK SMILES IDX 6 13 5 14 4 15 3 16 2 17 1 18
REMARK H PARENT
REMARK Flexibility Score: inf
ROOT
ATOM      1  C   UNL     1      54.607  25.994  49.725  1.00  0.00     0.000 C 
ENDROOT
BRANCH   1   2
ATOM      2  C   UNL     1      55.942  26.714  49.967  1.00  0.00     0.000 C 
BRANCH   2   3
ATOM      3  C   UNL     1      56.553  26.393  51.343  1.00  0.00     0.000 C 
BRANCH   3   4
ATOM      4  C   UNL     1      57.415  27.517  51.955  1.00  0.00     0.000 C 
BRANCH   4   5
ATOM      5  C   UNL     1      57.408  28.843  51.175  1.00  0.00     0.000 C 
BRANCH   5   6
ATOM      6  C   UNL     1      58.802  29.249  50.676  1.00  0.00     0.006 C 
BRANCH   6   7
ATOM      7  C   UNL     1      59.027  28.778  49.236  1.00  0.00     0.053 C 
BRANCH   7   8
ATOM      8  C   UNL     1      59.914  27.574  49.209  1.00  0.00     0.041 C 
ATOM      9  O   UNL     1      59.415  26.421  49.127  1.00  0.00    -0.550 OA
ATOM     10  O   UNL     1      61.295  27.727  49.224  1.00  0.00    -0.550 OA
ENDBRANCH   7   8
ENDBRANCH   6   7
ENDBRANCH   5   6
ENDBRANCH   4   5
ENDBRANCH   3   4
ENDBRANCH   2   3
ENDBRANCH   1   2
BRANCH   1  11
ATOM     11  C   UNL     1      53.456  26.998  49.605  1.00  0.00     0.000 C 
BRANCH  11  12
ATOM     12  C   UNL     1      53.894  28.395  50.061  1.00  0.00    -0.000 C 
BRANCH  12  13
ATOM     13  C   UNL     1      53.070  28.864  51.267  1.00  0.00    -0.000 C 
BRANCH  13  14
ATOM     14  C   UNL     1      53.724  28.430  52.584  1.00  0.00    -0.000 C 
BRANCH  14  15
ATOM     15  C   UNL     1      54.116  29.649  53.432  1.00  0.00    -0.000 C 
BRANCH  15  16
ATOM     16  C   UNL     1      55.353  29.389  54.306  1.00  0.00    -0.000 C 
BRANCH  16  17
ATOM     17  C   UNL     1      56.358  30.551  54.269  1.00  0.00    -0.003 C 
ATOM     18  C   UNL     1      55.783  31.749  53.518  1.00  0.00     0.004 C 
ENDBRANCH  16  17
ENDBRANCH  15  16
ENDBRANCH  14  15
ENDBRANCH  13  14
ENDBRANCH  12  13
ENDBRANCH  11  12
ENDBRANCH   1  11
TORSDOF 14
ENDMDL
MODEL 9
REMARK VINA RESULT:    -3.388      3.276      4.478
REMARK INTER + INTRA:          -7.690
REMARK INTER:                  -5.380
REMARK INTRA:                  -2.310
REMARK UNBOUND:                -1.529
REMARK SMILES CCCCCCCCCCCCCCCC(=O)[O-]
REMARK SMILES IDX 9 1 10 2 11 3 12 4 13 5 14 6 15 7 16 8 17 9 18 10 8 11 7 12
REMARK SMILES IDX 6 13 5 14 4 15 3 16 2 17 1 18
REMARK H PARENT
REMARK Flexibility Score: inf
ROOT
ATOM      1  C   UNL     1      63.903  32.879  59.845  1.00  0.00     0.000 C 
ENDROOT
BRANCH   1   2
ATOM      2  C   UNL     1      62.611  32.055  59.742  1.00  0.00     0.000 C 
BRANCH   2   3
ATOM      3  C   UNL     1      61.650  32.300  60.919  1.00  0.00     0.000 C 
BRANCH   3   4
ATOM      4  C   UNL     1      61.306  31.050  61.754  1.00  0.00     0.000 C 
BRANCH   4   5
ATOM      5  C   UNL     1      62.459  30.047  61.934  1.00  0.00     0.000 C 
BRANCH   5   6
ATOM      6  C   UNL     1      62.048  28.603  61.609  1.00  0.00     0.006 C 
BRANCH   6   7
ATOM      7  C   UNL     1      60.774  28.573  60.761  1.00  0.00     0.053 C 
BRANCH   7   8
ATOM      8  C   UNL     1      61.083  28.144  59.362  1.00  0.00     0.041 C 
ATOM      9  O   UNL     1      61.074  26.922  59.058  1.00  0.00    -0.550 OA
ATOM     10  O   UNL     1      61.333  29.096  58.381  1.00  0.00    -0.550 OA
ENDBRANCH   7   8
ENDBRANCH   6   7
ENDBRANCH   5   6
ENDBRANCH   4   5
ENDBRANCH   3   4
ENDBRANCH   2   3
ENDBRANCH   1   2
BRANCH   1  11
ATOM     11  C   UNL     1      63.978  33.617  61.187  1.00  0.00     0.000 C 
BRANCH  11  12
ATOM     12  C   UNL     1      64.411  35.074  60.991  1.00  0.00    -0.000 C 
BRANCH  12  13
ATOM     13  C   UNL     1      63.422  36.038  61.658  1.00  0.00    -0.000 C 
BRANCH  13  14
ATOM     14  C   UNL     1      62.492  36.680  60.620  1.00  0.00    -0.000 C 
BRANCH  14  15
ATOM     15  C   UNL     1      61.117  35.995  60.616  1.00  0.00    -0.000 C 
BRANCH  15  16
ATOM     16  C   UNL     1      60.747  35.421  59.239  1.00  0.00    -0.000 C 
BRANCH  16  17
ATOM     17  C   UNL     1      61.866  35.602  58.202  1.00  0.00    -0.003 C 
ATOM     18  C   UNL     1      61.794  34.524  57.123  1.00  0.00     0.004 C 
ENDBRANCH  16  17
ENDBRANCH  15  16
ENDBRANCH  14  15
ENDBRANCH  13  14
ENDBRANCH  12  13
ENDBRANCH  11  12
ENDBRANCH   1  11
TORSDOF 14
ENDMDL
