MODEL 1
REMARK VINA RESULT:    -6.239      0.000      0.000
REMARK INTER + INTRA:          -7.886
REMARK INTER:                  -7.515
REMARK INTRA:                  -0.371
REMARK UNBOUND:                -0.371
REMARK SMILES O=c1c(O)c(-c2ccc(O)cc2O)oc2cc(O)cc(O)c12
REMARK SMILES IDX 5 1 3 2 2 3 1 4 22 5 20 6 19 7 17 8 16 9 15 10 14 11 6 12
REMARK SMILES IDX 8 13 7 14 9 15 11 16 12 17 10 18 13 20 4 22 21 24 18 26
REMARK H PARENT 10 19 13 21 4 23 21 25 18 27
REMARK Flexibility Score: inf
ROOT
ATOM      1  C   UNL     1      -0.011   6.898  10.970  1.00  0.00     0.184 A 
ATOM      2  C   UNL     1      -1.174   6.451  11.622  1.00  0.00     0.208 A 
ATOM      3  C   UNL     1      -2.425   6.781  11.077  1.00  0.00     0.238 A 
ATOM      4  O   UNL     1      -3.476   6.394  11.657  1.00  0.00    -0.285 OA
ATOM      5  C   UNL     1      -2.489   7.531   9.884  1.00  0.00     0.111 A 
ATOM      6  C   UNL     1      -3.708   7.903   9.268  1.00  0.00     0.134 A 
ATOM      7  C   UNL     1      -3.688   8.644   8.077  1.00  0.00     0.093 A 
ATOM      8  C   UNL     1      -2.474   9.019   7.491  1.00  0.00     0.123 A 
ATOM      9  C   UNL     1      -1.270   8.655   8.096  1.00  0.00     0.094 A 
ATOM     10  C   UNL     1      -1.268   7.919   9.283  1.00  0.00     0.146 A 
ATOM     11  O   UNL     1      -0.107   7.591   9.840  1.00  0.00    -0.451 OA
ENDROOT
BRANCH   1  12
ATOM     12  C   UNL     1       1.337   6.596  11.496  1.00  0.00     0.063 A 
ATOM     13  C   UNL     1       3.370   5.271  11.359  1.00  0.00     0.047 A 
ATOM     14  C   UNL     1       2.091   5.578  10.890  1.00  0.00     0.020 A 
ATOM     15  C   UNL     1       3.919   5.985  12.428  1.00  0.00     0.119 A 
ATOM     16  C   UNL     1       3.184   7.018  13.024  1.00  0.00     0.093 A 
ATOM     17  C   UNL     1       1.900   7.337  12.556  1.00  0.00     0.130 A 
BRANCH  15  18
ATOM     18  O   UNL     1       5.194   5.664  12.887  1.00  0.00    -0.508 OA
ATOM     19  H   UNL     1       5.987   5.621  12.258  1.00  0.00     0.293 HD
ENDBRANCH  15  18
BRANCH  17  20
ATOM     20  O   UNL     1       1.198   8.400  13.125  1.00  0.00    -0.507 OA
ATOM     21  H   UNL     1       1.644   9.289  13.316  1.00  0.00     0.293 HD
ENDBRANCH  17  20
ENDBRANCH   1  12
BRANCH   2  22
ATOM     22  O   UNL     1      -1.077   5.670  12.776  1.00  0.00    -0.502 OA
ATOM     23  H   UNL     1      -1.344   6.018  13.689  1.00  0.00     0.293 HD
ENDBRANCH   2  22
BRANCH   6  24
ATOM     24  O   UNL     1      -4.935   7.543   9.828  1.00  0.00    -0.507 OA
ATOM     25  H   UNL     1      -5.172   7.773  10.786  1.00  0.00     0.293 HD
ENDBRANCH   6  24
BRANCH   8  26
ATOM     26  O   UNL     1      -2.454   9.753   6.308  1.00  0.00    -0.508 OA
ATOM     27  H   UNL     1      -2.133   9.346   5.437  1.00  0.00     0.293 HD
ENDBRANCH   8  26
TORSDOF 6
ENDMDL
MODEL 2
REMARK VINA RESULT:    -6.192     13.240     14.444
REMARK INTER + INTRA:          -7.830
REMARK INTER:                  -7.550
REMARK INTRA:                  -0.280
REMARK UNBOUND:                -0.371
REMARK SMILES O=c1c(O)c(-c2ccc(O)cc2O)oc2cc(O)cc(O)c12
REMARK SMILES IDX 5 1 3 2 2 3 1 4 22 5 20 6 19 7 17 8 16 9 15 10 14 11 6 12
REMARK SMILES IDX 8 13 7 14 9 15 11 16 12 17 10 18 13 20 4 22 21 24 18 26
REMARK H PARENT 10 19 13 21 4 23 21 25 18 27
REMARK Flexibility Score: inf
ROOT
ATOM      1  C   UNL     1       5.940  -4.555   8.564  1.00  0.00     0.184 A 
ATOM      2  C   UNL     1       7.187  -3.924   8.716  1.00  0.00     0.208 A 
ATOM      3  C   UNL     1       7.859  -3.466   7.573  1.00  0.00     0.238 A 
ATOM      4  O   UNL     1       8.983  -2.907   7.696  1.00  0.00    -0.285 OA
ATOM      5  C   UNL     1       7.265  -3.629   6.304  1.00  0.00     0.111 A 
ATOM      6  C   UNL     1       7.875  -3.193   5.103  1.00  0.00     0.134 A 
ATOM      7  C   UNL     1       7.215  -3.385   3.879  1.00  0.00     0.093 A 
ATOM      8  C   UNL     1       5.960  -4.002   3.835  1.00  0.00     0.123 A 
ATOM      9  C   UNL     1       5.356  -4.434   5.017  1.00  0.00     0.094 A 
ATOM     10  C   UNL     1       5.997  -4.254   6.245  1.00  0.00     0.146 A 
ATOM     11  O   UNL     1       5.401  -4.679   7.354  1.00  0.00    -0.451 OA
ENDROOT
BRANCH   1  12
ATOM     12  C   UNL     1       5.184  -5.070   9.724  1.00  0.00     0.063 A 
ATOM     13  C   UNL     1       3.181  -4.990  11.100  1.00  0.00     0.047 A 
ATOM     14  C   UNL     1       3.924  -4.523  10.014  1.00  0.00     0.020 A 
ATOM     15  C   UNL     1       3.680  -6.020  11.902  1.00  0.00     0.119 A 
ATOM     16  C   UNL     1       4.925  -6.590  11.608  1.00  0.00     0.093 A 
ATOM     17  C   UNL     1       5.675  -6.130  10.515  1.00  0.00     0.130 A 
BRANCH  15  18
ATOM     18  O   UNL     1       2.929  -6.473  12.984  1.00  0.00    -0.508 OA
ATOM     19  H   UNL     1       2.782  -7.462  13.150  1.00  0.00     0.293 HD
ENDBRANCH  15  18
BRANCH  17  20
ATOM     20  O   UNL     1       6.891  -6.739  10.203  1.00  0.00    -0.507 OA
ATOM     21  H   UNL     1       7.642  -6.227   9.754  1.00  0.00     0.293 HD
ENDBRANCH  17  20
ENDBRANCH   1  12
BRANCH   2  22
ATOM     22  O   UNL     1       7.727  -3.736   9.991  1.00  0.00    -0.502 OA
ATOM     23  H   UNL     1       8.019  -2.826  10.327  1.00  0.00     0.293 HD
ENDBRANCH   2  22
BRANCH   6  24
ATOM     24  O   UNL     1       9.125  -2.574   5.115  1.00  0.00    -0.507 OA
ATOM     25  H   UNL     1       9.894  -2.936   5.665  1.00  0.00     0.293 HD
ENDBRANCH   6  24
BRANCH   8  26
ATOM     26  O   UNL     1       5.304  -4.191   2.620  1.00  0.00    -0.508 OA
ATOM     27  H   UNL     1       5.654  -4.839   1.924  1.00  0.00     0.293 HD
ENDBRANCH   8  26
TORSDOF 6
ENDMDL
MODEL 3
REMARK VINA RESULT:    -5.875     12.996     14.339
REMARK INTER + INTRA:          -7.448
REMARK INTER:                  -7.024
REMARK INTRA:                  -0.424
REMARK UNBOUND:                -0.371
REMARK SMILES O=c1c(O)c(-c2ccc(O)cc2O)oc2cc(O)cc(O)c12
REMARK SMILES IDX 5 1 3 2 2 3 1 4 22 5 20 6 19 7 17 8 16 9 15 10 14 11 6 12
REMARK SMILES IDX 8 13 7 14 9 15 11 16 12 17 10 18 13 20 4 22 21 24 18 26
REMARK H PARENT 10 19 13 21 4 23 21 25 18 27
REMARK Flexibility Score: inf
ROOT
ATOM      1  C   UNL     1       4.277  -5.578   8.860  1.00  0.00     0.184 A 
ATOM      2  C   UNL     1       4.014  -6.701   8.055  1.00  0.00     0.208 A 
ATOM      3  C   UNL     1       2.906  -7.507   8.358  1.00  0.00     0.238 A 
ATOM      4  O   UNL     1       2.665  -8.523   7.650  1.00  0.00    -0.285 OA
ATOM      5  C   UNL     1       2.073  -7.166   9.445  1.00  0.00     0.111 A 
ATOM      6  C   UNL     1       0.936  -7.923   9.815  1.00  0.00     0.134 A 
ATOM      7  C   UNL     1       0.152  -7.513  10.904  1.00  0.00     0.093 A 
ATOM      8  C   UNL     1       0.484  -6.363  11.628  1.00  0.00     0.123 A 
ATOM      9  C   UNL     1       1.604  -5.614  11.266  1.00  0.00     0.094 A 
ATOM     10  C   UNL     1       2.399  -6.005  10.186  1.00  0.00     0.146 A 
ATOM     11  O   UNL     1       3.463  -5.277   9.867  1.00  0.00    -0.451 OA
ENDROOT
BRANCH   1  12
ATOM     12  C   UNL     1       5.433  -4.694   8.603  1.00  0.00     0.063 A 
ATOM     13  C   UNL     1       6.463  -2.968   7.236  1.00  0.00     0.047 A 
ATOM     14  C   UNL     1       5.391  -3.821   7.504  1.00  0.00     0.020 A 
ATOM     15  C   UNL     1       7.586  -2.965   8.069  1.00  0.00     0.119 A 
ATOM     16  C   UNL     1       7.627  -3.814   9.182  1.00  0.00     0.093 A 
ATOM     17  C   UNL     1       6.552  -4.671   9.462  1.00  0.00     0.130 A 
BRANCH  15  18
ATOM     18  O   UNL     1       8.650  -2.111   7.787  1.00  0.00    -0.508 OA
ATOM     19  H   UNL     1       8.498  -1.179   7.421  1.00  0.00     0.293 HD
ENDBRANCH  15  18
BRANCH  17  20
ATOM     20  O   UNL     1       6.584  -5.477  10.600  1.00  0.00    -0.507 OA
ATOM     21  H   UNL     1       5.906  -6.215  10.748  1.00  0.00     0.293 HD
ENDBRANCH  17  20
ENDBRANCH   1  12
BRANCH   2  22
ATOM     22  O   UNL     1       4.831  -6.986   6.959  1.00  0.00    -0.502 OA
ATOM     23  H   UNL     1       5.667  -6.452   6.753  1.00  0.00     0.293 HD
ENDBRANCH   2  22
BRANCH   6  24
ATOM     24  O   UNL     1       0.579  -9.075   9.113  1.00  0.00    -0.507 OA
ATOM     25  H   UNL     1      -0.095  -9.736   9.480  1.00  0.00     0.293 HD
ENDBRANCH   6  24
BRANCH   8  26
ATOM     26  O   UNL     1      -0.295  -5.955  12.709  1.00  0.00    -0.508 OA
ATOM     27  H   UNL     1      -1.170  -6.414  12.935  1.00  0.00     0.293 HD
ENDBRANCH   8  26
TORSDOF 6
ENDMDL
MODEL 4
REMARK VINA RESULT:    -5.767     13.109     14.826
REMARK INTER + INTRA:          -7.318
REMARK INTER:                  -6.978
REMARK INTRA:                  -0.340
REMARK UNBOUND:                -0.371
REMARK SMILES O=c1c(O)c(-c2ccc(O)cc2O)oc2cc(O)cc(O)c12
REMARK SMILES IDX 5 1 3 2 2 3 1 4 22 5 20 6 19 7 17 8 16 9 15 10 14 11 6 12
REMARK SMILES IDX 8 13 7 14 9 15 11 16 12 17 10 18 13 20 4 22 21 24 18 26
REMARK H PARENT 10 19 13 21 4 23 21 25 18 27
REMARK Flexibility Score: inf
ROOT
ATOM      1  C   UNL     1       4.205  -5.812   9.195  1.00  0.00     0.184 A 
ATOM      2  C   UNL     1       5.366  -6.272   9.840  1.00  0.00     0.208 A 
ATOM      3  C   UNL     1       6.616  -5.993   9.266  1.00  0.00     0.238 A 
ATOM      4  O   UNL     1       7.665  -6.409   9.830  1.00  0.00    -0.285 OA
ATOM      5  C   UNL     1       6.683  -5.245   8.072  1.00  0.00     0.111 A 
ATOM      6  C   UNL     1       7.902  -4.918   7.431  1.00  0.00     0.134 A 
ATOM      7  C   UNL     1       7.885  -4.162   6.249  1.00  0.00     0.093 A 
ATOM      8  C   UNL     1       6.674  -3.728   5.698  1.00  0.00     0.123 A 
ATOM      9  C   UNL     1       5.470  -4.048   6.327  1.00  0.00     0.094 A 
ATOM     10  C   UNL     1       5.465  -4.802   7.504  1.00  0.00     0.146 A 
ATOM     11  O   UNL     1       4.304  -5.097   8.078  1.00  0.00    -0.451 OA
ENDROOT
BRANCH   1  12
ATOM     12  C   UNL     1       2.857  -6.080   9.739  1.00  0.00     0.063 A 
ATOM     13  C   UNL     1       0.791  -7.355   9.632  1.00  0.00     0.047 A 
ATOM     14  C   UNL     1       2.066  -7.072   9.139  1.00  0.00     0.020 A 
ATOM     15  C   UNL     1       0.294  -6.661  10.739  1.00  0.00     0.119 A 
ATOM     16  C   UNL     1       1.084  -5.686  11.360  1.00  0.00     0.093 A 
ATOM     17  C   UNL     1       2.369  -5.400  10.875  1.00  0.00     0.130 A 
BRANCH  15  18
ATOM     18  O   UNL     1      -0.982  -6.951  11.216  1.00  0.00    -0.508 OA
ATOM     19  H   UNL     1      -1.453  -7.815  10.976  1.00  0.00     0.293 HD
ENDBRANCH  15  18
BRANCH  17  20
ATOM     20  O   UNL     1       3.166  -4.462  11.532  1.00  0.00    -0.507 OA
ATOM     21  H   UNL     1       3.212  -4.419  12.543  1.00  0.00     0.293 HD
ENDBRANCH  17  20
ENDBRANCH   1  12
BRANCH   2  22
ATOM     22  O   UNL     1       5.269  -6.971  11.046  1.00  0.00    -0.502 OA
ATOM     23  H   UNL     1       6.083  -7.212  11.600  1.00  0.00     0.293 HD
ENDBRANCH   2  22
BRANCH   6  24
ATOM     24  O   UNL     1       9.125  -5.337   7.956  1.00  0.00    -0.507 OA
ATOM     25  H   UNL     1       9.462  -6.284   7.833  1.00  0.00     0.293 HD
ENDBRANCH   6  24
BRANCH   8  26
ATOM     26  O   UNL     1       6.657  -2.976   4.526  1.00  0.00    -0.508 OA
ATOM     27  H   UNL     1       6.026  -2.192   4.408  1.00  0.00     0.293 HD
ENDBRANCH   8  26
TORSDOF 6
ENDMDL
MODEL 5
REMARK VINA RESULT:    -5.760     13.288     14.949
REMARK INTER + INTRA:          -7.310
REMARK INTER:                  -6.882
REMARK INTRA:                  -0.428
REMARK UNBOUND:                -0.371
REMARK SMILES O=c1c(O)c(-c2ccc(O)cc2O)oc2cc(O)cc(O)c12
REMARK SMILES IDX 5 1 3 2 2 3 1 4 22 5 20 6 19 7 17 8 16 9 15 10 14 11 6 12
REMARK SMILES IDX 8 13 7 14 9 15 11 16 12 17 10 18 13 20 4 22 21 24 18 26
REMARK H PARENT 10 19 13 21 4 23 21 25 18 27
REMARK Flexibility Score: inf
ROOT
ATOM      1  C   UNL     1       4.233  -5.765   9.322  1.00  0.00     0.184 A 
ATOM      2  C   UNL     1       5.405  -6.249   9.930  1.00  0.00     0.208 A 
ATOM      3  C   UNL     1       6.642  -5.977   9.327  1.00  0.00     0.238 A 
ATOM      4  O   UNL     1       7.700  -6.415   9.857  1.00  0.00    -0.285 OA
ATOM      5  C   UNL     1       6.688  -5.212   8.143  1.00  0.00     0.111 A 
ATOM      6  C   UNL     1       7.893  -4.892   7.474  1.00  0.00     0.134 A 
ATOM      7  C   UNL     1       7.855  -4.118   6.304  1.00  0.00     0.093 A 
ATOM      8  C   UNL     1       6.636  -3.661   5.791  1.00  0.00     0.123 A 
ATOM      9  C   UNL     1       5.445  -3.975   6.447  1.00  0.00     0.094 A 
ATOM     10  C   UNL     1       5.461  -4.746   7.613  1.00  0.00     0.146 A 
ATOM     11  O   UNL     1       4.312  -5.035   8.214  1.00  0.00    -0.451 OA
ENDROOT
BRANCH   1  12
ATOM     12  C   UNL     1       2.897  -6.024   9.898  1.00  0.00     0.063 A 
ATOM     13  C   UNL     1       1.228  -5.507  11.588  1.00  0.00     0.047 A 
ATOM     14  C   UNL     1       2.486  -5.291  11.022  1.00  0.00     0.020 A 
ATOM     15  C   UNL     1       0.357  -6.447  11.030  1.00  0.00     0.119 A 
ATOM     16  C   UNL     1       0.748  -7.167   9.894  1.00  0.00     0.093 A 
ATOM     17  C   UNL     1       2.008  -6.952   9.316  1.00  0.00     0.130 A 
BRANCH  15  18
ATOM     18  O   UNL     1      -0.893  -6.655  11.608  1.00  0.00    -0.508 OA
ATOM     19  H   UNL     1      -1.720  -6.799  11.042  1.00  0.00     0.293 HD
ENDBRANCH  15  18
BRANCH  17  20
ATOM     20  O   UNL     1       2.366  -7.640   8.156  1.00  0.00    -0.507 OA
ATOM     21  H   UNL     1       2.852  -7.181   7.395  1.00  0.00     0.293 HD
ENDBRANCH  17  20
ENDBRANCH   1  12
BRANCH   2  22
ATOM     22  O   UNL     1       5.330  -6.964  11.128  1.00  0.00    -0.502 OA
ATOM     23  H   UNL     1       5.446  -7.970  11.166  1.00  0.00     0.293 HD
ENDBRANCH   2  22
BRANCH   6  24
ATOM     24  O   UNL     1       9.124  -5.333   7.961  1.00  0.00    -0.507 OA
ATOM     25  H   UNL     1       9.416  -6.299   7.875  1.00  0.00     0.293 HD
ENDBRANCH   6  24
BRANCH   8  26
ATOM     26  O   UNL     1       6.598  -2.892   4.631  1.00  0.00    -0.508 OA
ATOM     27  H   UNL     1       6.924  -3.255   3.743  1.00  0.00     0.293 HD
ENDBRANCH   8  26
TORSDOF 6
ENDMDL
MODEL 6
REMARK VINA RESULT:    -5.387     13.251     15.165
REMARK INTER + INTRA:          -6.861
REMARK INTER:                  -7.047
REMARK INTRA:                   0.186
REMARK UNBOUND:                -0.371
REMARK SMILES O=c1c(O)c(-c2ccc(O)cc2O)oc2cc(O)cc(O)c12
REMARK SMILES IDX 5 1 3 2 2 3 1 4 22 5 20 6 19 7 17 8 16 9 15 10 14 11 6 12
REMARK SMILES IDX 8 13 7 14 9 15 11 16 12 17 10 18 13 20 4 22 21 24 18 26
REMARK H PARENT 10 19 13 21 4 23 21 25 18 27
REMARK Flexibility Score: inf
ROOT
ATOM      1  C   UNL     1       4.142  -6.073   8.466  1.00  0.00     0.184 A 
ATOM      2  C   UNL     1       4.596  -6.964   7.477  1.00  0.00     0.208 A 
ATOM      3  C   UNL     1       5.776  -6.660   6.782  1.00  0.00     0.238 A 
ATOM      4  O   UNL     1       6.188  -7.446   5.885  1.00  0.00    -0.285 OA
ATOM      5  C   UNL     1       6.488  -5.484   7.099  1.00  0.00     0.111 A 
ATOM      6  C   UNL     1       7.687  -5.106   6.448  1.00  0.00     0.134 A 
ATOM      7  C   UNL     1       8.341  -3.924   6.827  1.00  0.00     0.093 A 
ATOM      8  C   UNL     1       7.821  -3.116   7.844  1.00  0.00     0.123 A 
ATOM      9  C   UNL     1       6.639  -3.485   8.488  1.00  0.00     0.094 A 
ATOM     10  C   UNL     1       5.971  -4.657   8.124  1.00  0.00     0.146 A 
ATOM     11  O   UNL     1       4.845  -4.981   8.751  1.00  0.00    -0.451 OA
ENDROOT
BRANCH   1  12
ATOM     12  C   UNL     1       2.901  -6.328   9.228  1.00  0.00     0.063 A 
ATOM     13  C   UNL     1       0.692  -7.336   9.323  1.00  0.00     0.047 A 
ATOM     14  C   UNL     1       1.875  -7.073   8.628  1.00  0.00     0.020 A 
ATOM     15  C   UNL     1       0.525  -6.871  10.630  1.00  0.00     0.119 A 
ATOM     16  C   UNL     1       1.553  -6.147  11.247  1.00  0.00     0.093 A 
ATOM     17  C   UNL     1       2.747  -5.883  10.558  1.00  0.00     0.130 A 
BRANCH  15  18
ATOM     18  O   UNL     1      -0.662  -7.138  11.308  1.00  0.00    -0.508 OA
ATOM     19  H   UNL     1      -1.083  -6.456  11.928  1.00  0.00     0.293 HD
ENDBRANCH  15  18
BRANCH  17  20
ATOM     20  O   UNL     1       3.783  -5.204  11.200  1.00  0.00    -0.507 OA
ATOM     21  H   UNL     1       3.950  -5.307  12.194  1.00  0.00     0.293 HD
ENDBRANCH  17  20
ENDBRANCH   1  12
BRANCH   2  22
ATOM     22  O   UNL     1       3.892  -8.143   7.218  1.00  0.00    -0.502 OA
ATOM     23  H   UNL     1       3.053  -8.396   7.725  1.00  0.00     0.293 HD
ENDBRANCH   2  22
BRANCH   6  24
ATOM     24  O   UNL     1       8.230  -5.891   5.430  1.00  0.00    -0.507 OA
ATOM     25  H   UNL     1       8.471  -6.864   5.578  1.00  0.00     0.293 HD
ENDBRANCH   6  24
BRANCH   8  26
ATOM     26  O   UNL     1       8.471  -1.944   8.222  1.00  0.00    -0.508 OA
ATOM     27  H   UNL     1       9.470  -1.923   8.391  1.00  0.00     0.293 HD
ENDBRANCH   8  26
TORSDOF 6
ENDMDL
MODEL 7
REMARK VINA RESULT:    -5.364     13.412     16.403
REMARK INTER + INTRA:          -6.833
REMARK INTER:                  -6.420
REMARK INTRA:                  -0.414
REMARK UNBOUND:                -0.371
REMARK SMILES O=c1c(O)c(-c2ccc(O)cc2O)oc2cc(O)cc(O)c12
REMARK SMILES IDX 5 1 3 2 2 3 1 4 22 5 20 6 19 7 17 8 16 9 15 10 14 11 6 12
REMARK SMILES IDX 8 13 7 14 9 15 11 16 12 17 10 18 13 20 4 22 21 24 18 26
REMARK H PARENT 10 19 13 21 4 23 21 25 18 27
REMARK Flexibility Score: inf
ROOT
ATOM      1  C   UNL     1       6.952  -5.406   4.618  1.00  0.00     0.184 A 
ATOM      2  C   UNL     1       8.056  -4.628   5.008  1.00  0.00     0.208 A 
ATOM      3  C   UNL     1       8.076  -4.078   6.298  1.00  0.00     0.238 A 
ATOM      4  O   UNL     1       9.057  -3.370   6.656  1.00  0.00    -0.285 OA
ATOM      5  C   UNL     1       7.004  -4.331   7.180  1.00  0.00     0.111 A 
ATOM      6  C   UNL     1       6.948  -3.816   8.498  1.00  0.00     0.134 A 
ATOM      7  C   UNL     1       5.850  -4.121   9.317  1.00  0.00     0.093 A 
ATOM      8  C   UNL     1       4.810  -4.928   8.844  1.00  0.00     0.123 A 
ATOM      9  C   UNL     1       4.861  -5.437   7.545  1.00  0.00     0.094 A 
ATOM     10  C   UNL     1       5.944  -5.144   6.712  1.00  0.00     0.146 A 
ATOM     11  O   UNL     1       5.965  -5.637   5.479  1.00  0.00    -0.451 OA
ENDROOT
BRANCH   1  12
ATOM     12  C   UNL     1       6.862  -6.006   3.270  1.00  0.00     0.063 A 
ATOM     13  C   UNL     1       7.445  -7.820   1.762  1.00  0.00     0.047 A 
ATOM     14  C   UNL     1       7.514  -7.223   3.023  1.00  0.00     0.020 A 
ATOM     15  C   UNL     1       6.712  -7.216   0.737  1.00  0.00     0.119 A 
ATOM     16  C   UNL     1       6.038  -6.013   0.980  1.00  0.00     0.093 A 
ATOM     17  C   UNL     1       6.097  -5.410   2.246  1.00  0.00     0.130 A 
BRANCH  15  18
ATOM     18  O   UNL     1       6.656  -7.821  -0.517  1.00  0.00    -0.508 OA
ATOM     19  H   UNL     1       7.451  -8.318  -0.901  1.00  0.00     0.293 HD
ENDBRANCH  15  18
BRANCH  17  20
ATOM     20  O   UNL     1       5.381  -4.238   2.490  1.00  0.00    -0.507 OA
ATOM     21  H   UNL     1       4.590  -3.969   1.917  1.00  0.00     0.293 HD
ENDBRANCH  17  20
ENDBRANCH   1  12
BRANCH   2  22
ATOM     22  O   UNL     1       9.123  -4.434   4.127  1.00  0.00    -0.502 OA
ATOM     23  H   UNL     1      10.012  -4.054   4.429  1.00  0.00     0.293 HD
ENDBRANCH   2  22
BRANCH   6  24
ATOM     24  O   UNL     1       7.970  -3.009   8.998  1.00  0.00    -0.507 OA
ATOM     25  H   UNL     1       8.907  -3.365   9.148  1.00  0.00     0.293 HD
ENDBRANCH   6  24
BRANCH   8  26
ATOM     26  O   UNL     1       3.721  -5.231   9.657  1.00  0.00    -0.508 OA
ATOM     27  H   UNL     1       2.948  -5.794   9.320  1.00  0.00     0.293 HD
ENDBRANCH   8  26
TORSDOF 6
ENDMDL
MODEL 8
REMARK VINA RESULT:    -5.311      2.782      7.471
REMARK INTER + INTRA:          -6.769
REMARK INTER:                  -6.344
REMARK INTRA:                  -0.425
REMARK UNBOUND:                -0.371
REMARK SMILES O=c1c(O)c(-c2ccc(O)cc2O)oc2cc(O)cc(O)c12
REMARK SMILES IDX 5 1 3 2 2 3 1 4 22 5 20 6 19 7 17 8 16 9 15 10 14 11 6 12
REMARK SMILES IDX 8 13 7 14 9 15 11 16 12 17 10 18 13 20 4 22 21 24 18 26
REMARK H PARENT 10 19 13 21 4 23 21 25 18 27
REMARK Flexibility Score: inf
ROOT
ATOM      1  C   UNL     1      -4.212   7.752  10.968  1.00  0.00     0.184 A 
ATOM      2  C   UNL     1      -3.573   8.935  11.378  1.00  0.00     0.208 A 
ATOM      3  C   UNL     1      -2.197   8.903  11.652  1.00  0.00     0.238 A 
ATOM      4  O   UNL     1      -1.615   9.956  12.031  1.00  0.00    -0.285 OA
ATOM      5  C   UNL     1      -1.484   7.696  11.493  1.00  0.00     0.111 A 
ATOM      6  C   UNL     1      -0.096   7.579  11.746  1.00  0.00     0.134 A 
ATOM      7  C   UNL     1       0.544   6.345  11.556  1.00  0.00     0.093 A 
ATOM      8  C   UNL     1      -0.177   5.228  11.118  1.00  0.00     0.123 A 
ATOM      9  C   UNL     1      -1.546   5.339  10.869  1.00  0.00     0.094 A 
ATOM     10  C   UNL     1      -2.202   6.559  11.054  1.00  0.00     0.146 A 
ATOM     11  O   UNL     1      -3.507   6.635  10.814  1.00  0.00    -0.451 OA
ENDROOT
BRANCH   1  12
ATOM     12  C   UNL     1      -5.660   7.714  10.674  1.00  0.00     0.063 A 
ATOM     13  C   UNL     1      -7.489   8.270   9.173  1.00  0.00     0.047 A 
ATOM     14  C   UNL     1      -6.128   8.293   9.484  1.00  0.00     0.020 A 
ATOM     15  C   UNL     1      -8.398   7.655  10.038  1.00  0.00     0.119 A 
ATOM     16  C   UNL     1      -7.939   7.053  11.216  1.00  0.00     0.093 A 
ATOM     17  C   UNL     1      -6.572   7.067  11.533  1.00  0.00     0.130 A 
BRANCH  15  18
ATOM     18  O   UNL     1      -9.753   7.643   9.716  1.00  0.00    -0.508 OA
ATOM     19  H   UNL     1     -10.167   6.880   9.194  1.00  0.00     0.293 HD
ENDBRANCH  15  18
BRANCH  17  20
ATOM     20  O   UNL     1      -6.120   6.421  12.685  1.00  0.00    -0.507 OA
ATOM     21  H   UNL     1      -6.698   6.348  13.514  1.00  0.00     0.293 HD
ENDBRANCH  17  20
ENDBRANCH   1  12
BRANCH   2  22
ATOM     22  O   UNL     1      -4.299  10.125  11.482  1.00  0.00    -0.502 OA
ATOM     23  H   UNL     1      -4.115  10.810  12.205  1.00  0.00     0.293 HD
ENDBRANCH   2  22
BRANCH   6  24
ATOM     24  O   UNL     1       0.650   8.675  12.182  1.00  0.00    -0.507 OA
ATOM     25  H   UNL     1       1.142   9.278  11.533  1.00  0.00     0.293 HD
ENDBRANCH   6  24
BRANCH   8  26
ATOM     26  O   UNL     1       0.458   4.003  10.928  1.00  0.00    -0.508 OA
ATOM     27  H   UNL     1       1.286   3.920  10.350  1.00  0.00     0.293 HD
ENDBRANCH   8  26
TORSDOF 6
ENDMDL
MODEL 9
REMARK VINA RESULT:    -5.292      2.348      6.809
REMARK INTER + INTRA:          -6.746
REMARK INTER:                  -6.337
REMARK INTRA:                  -0.409
REMARK UNBOUND:                -0.371
REMARK SMILES O=c1c(O)c(-c2ccc(O)cc2O)oc2cc(O)cc(O)c12
REMARK SMILES IDX 5 1 3 2 2 3 1 4 22 5 20 6 19 7 17 8 16 9 15 10 14 11 6 12
REMARK SMILES IDX 8 13 7 14 9 15 11 16 12 17 10 18 13 20 4 22 21 24 18 26
REMARK H PARENT 10 19 13 21 4 23 21 25 18 27
REMARK Flexibility Score: inf
ROOT
ATOM      1  C   UNL     1      -2.810   7.292  10.903  1.00  0.00     0.184 A 
ATOM      2  C   UNL     1      -2.411   5.984  10.574  1.00  0.00     0.208 A 
ATOM      3  C   UNL     1      -1.070   5.618  10.762  1.00  0.00     0.238 A 
ATOM      4  O   UNL     1      -0.698   4.451  10.461  1.00  0.00    -0.285 OA
ATOM      5  C   UNL     1      -0.159   6.555  11.291  1.00  0.00     0.111 A 
ATOM      6  C   UNL     1       1.208   6.265  11.514  1.00  0.00     0.134 A 
ATOM      7  C   UNL     1       2.050   7.251  12.053  1.00  0.00     0.093 A 
ATOM      8  C   UNL     1       1.549   8.518  12.372  1.00  0.00     0.123 A 
ATOM      9  C   UNL     1       0.202   8.808  12.154  1.00  0.00     0.094 A 
ATOM     10  C   UNL     1      -0.652   7.842  11.617  1.00  0.00     0.146 A 
ATOM     11  O   UNL     1      -1.929   8.147  11.414  1.00  0.00    -0.451 OA
ENDROOT
BRANCH   1  12
ATOM     12  C   UNL     1      -4.204   7.747  10.720  1.00  0.00     0.063 A 
ATOM     13  C   UNL     1      -5.908   8.683   9.261  1.00  0.00     0.047 A 
ATOM     14  C   UNL     1      -4.597   8.250   9.470  1.00  0.00     0.020 A 
ATOM     15  C   UNL     1      -6.848   8.606  10.293  1.00  0.00     0.119 A 
ATOM     16  C   UNL     1      -6.473   8.083  11.536  1.00  0.00     0.093 A 
ATOM     17  C   UNL     1      -5.159   7.640  11.753  1.00  0.00     0.130 A 
BRANCH  15  18
ATOM     18  O   UNL     1      -8.150   9.046  10.070  1.00  0.00    -0.508 OA
ATOM     19  H   UNL     1      -8.417  10.011  10.227  1.00  0.00     0.293 HD
ENDBRANCH  15  18
BRANCH  17  20
ATOM     20  O   UNL     1      -4.810   7.075  12.980  1.00  0.00    -0.507 OA
ATOM     21  H   UNL     1      -4.429   7.635  13.734  1.00  0.00     0.293 HD
ENDBRANCH  17  20
ENDBRANCH   1  12
BRANCH   2  22
ATOM     22  O   UNL     1      -3.347   5.065  10.094  1.00  0.00    -0.502 OA
ATOM     23  H   UNL     1      -3.926   4.508  10.712  1.00  0.00     0.293 HD
ENDBRANCH   2  22
BRANCH   6  24
ATOM     24  O   UNL     1       1.736   5.011  11.206  1.00  0.00    -0.507 OA
ATOM     25  H   UNL     1       1.143   4.229  10.957  1.00  0.00     0.293 HD
ENDBRANCH   6  24
BRANCH   8  26
ATOM     26  O   UNL     1       2.384   9.496  12.909  1.00  0.00    -0.508 OA
ATOM     27  H   UNL     1       3.354   9.578  12.626  1.00  0.00     0.293 HD
ENDBRANCH   8  26
TORSDOF 6
ENDMDL
