MODEL 1
REMARK VINA RESULT:    -4.588      0.000      0.000
REMARK INTER + INTRA:          -4.856
REMARK INTER:                  -4.856
REMARK INTRA:                   0.000
REMARK UNBOUND:                 0.000
REMARK SMILES O=c1ccc2cc(O)c(O)cc2o1
REMARK SMILES IDX 4 1 3 2 2 3 1 4 13 5 12 6 11 7 9 8 7 9 6 10 5 11 8 12 10 14
REMARK H PARENT 8 13 10 15
REMARK Flexibility Score: inf
ROOT
ATOM      1  C   UNL     1      14.333  -4.433   7.948  1.00  0.00     0.019 A 
ATOM      2  C   UNL     1      13.653  -3.252   7.654  1.00  0.00     0.094 A 
ATOM      3  C   UNL     1      12.391  -3.038   8.218  1.00  0.00     0.336 A 
ATOM      4  O   UNL     1      11.761  -1.978   7.965  1.00  0.00    -0.246 OA
ATOM      5  O   UNL     1      11.850  -3.948   9.023  1.00  0.00    -0.423 OA
ATOM      6  C   UNL     1      12.465  -5.089   9.330  1.00  0.00     0.142 A 
ATOM      7  C   UNL     1      11.847  -6.009  10.182  1.00  0.00     0.098 A 
ATOM      8  C   UNL     1      12.490  -7.212  10.508  1.00  0.00     0.161 A 
ATOM      9  C   UNL     1      13.758  -7.494   9.980  1.00  0.00     0.158 A 
ATOM     10  C   UNL     1      14.383  -6.576   9.124  1.00  0.00     0.062 A 
ATOM     11  C   UNL     1      13.740  -5.373   8.798  1.00  0.00     0.022 A 
ENDROOT
BRANCH   9  12
ATOM     12  O   UNL     1      14.391  -8.692  10.309  1.00  0.00    -0.504 OA
ATOM     13  H   UNL     1      14.176  -9.556   9.826  1.00  0.00     0.293 HD
ENDBRANCH   9  12
BRANCH   8  14
ATOM     14  O   UNL     1      11.877  -8.131  11.357  1.00  0.00    -0.504 OA
ATOM     15  H   UNL     1      10.963  -8.516  11.151  1.00  0.00     0.293 HD
ENDBRANCH   8  14
TORSDOF 2
ENDMDL
MODEL 2
REMARK VINA RESULT:    -4.191      1.631      2.513
REMARK INTER + INTRA:          -4.436
REMARK INTER:                  -4.436
REMARK INTRA:                   0.000
REMARK UNBOUND:                 0.000
REMARK SMILES O=c1ccc2cc(O)c(O)cc2o1
REMARK SMILES IDX 4 1 3 2 2 3 1 4 13 5 12 6 11 7 9 8 7 9 6 10 5 11 8 12 10 14
REMARK H PARENT 8 13 10 15
REMARK Flexibility Score: inf
ROOT
ATOM      1  C   UNL     1      12.449  -3.996   9.333  1.00  0.00     0.019 A 
ATOM      2  C   UNL     1      13.446  -3.182   8.798  1.00  0.00     0.094 A 
ATOM      3  C   UNL     1      14.683  -3.749   8.474  1.00  0.00     0.336 A 
ATOM      4  O   UNL     1      15.596  -3.031   7.989  1.00  0.00    -0.246 OA
ATOM      5  O   UNL     1      14.903  -5.045   8.674  1.00  0.00    -0.423 OA
ATOM      6  C   UNL     1      13.979  -5.858   9.183  1.00  0.00     0.142 A 
ATOM      7  C   UNL     1      14.268  -7.214   9.371  1.00  0.00     0.098 A 
ATOM      8  C   UNL     1      13.298  -8.073   9.907  1.00  0.00     0.161 A 
ATOM      9  C   UNL     1      12.034  -7.576  10.255  1.00  0.00     0.158 A 
ATOM     10  C   UNL     1      11.739  -6.217  10.069  1.00  0.00     0.062 A 
ATOM     11  C   UNL     1      12.708  -5.356   9.533  1.00  0.00     0.022 A 
ENDROOT
BRANCH   9  12
ATOM     12  O   UNL     1      11.076  -8.437  10.787  1.00  0.00    -0.504 OA
ATOM     13  H   UNL     1      11.026  -9.410  10.511  1.00  0.00     0.293 HD
ENDBRANCH   9  12
BRANCH   8  14
ATOM     14  O   UNL     1      13.582  -9.424  10.095  1.00  0.00    -0.504 OA
ATOM     15  H   UNL     1      13.401 -10.110   9.371  1.00  0.00     0.293 HD
ENDBRANCH   8  14
TORSDOF 2
ENDMDL
MODEL 3
REMARK VINA RESULT:    -4.098      1.540      5.011
REMARK INTER + INTRA:          -4.338
REMARK INTER:                  -4.338
REMARK INTRA:                   0.000
REMARK UNBOUND:                 0.000
REMARK SMILES O=c1ccc2cc(O)c(O)cc2o1
REMARK SMILES IDX 4 1 3 2 2 3 1 4 13 5 12 6 11 7 9 8 7 9 6 10 5 11 8 12 10 14
REMARK H PARENT 8 13 10 15
REMARK Flexibility Score: inf
ROOT
ATOM      1  C   UNL     1      11.941  -7.270   9.961  1.00  0.00     0.019 A 
ATOM      2  C   UNL     1      12.442  -8.567   9.860  1.00  0.00     0.094 A 
ATOM      3  C   UNL     1      13.718  -8.761   9.318  1.00  0.00     0.336 A 
ATOM      4  O   UNL     1      14.188  -9.924   9.219  1.00  0.00    -0.246 OA
ATOM      5  O   UNL     1      14.439  -7.722   8.905  1.00  0.00    -0.423 OA
ATOM      6  C   UNL     1      13.999  -6.468   8.983  1.00  0.00     0.142 A 
ATOM      7  C   UNL     1      14.802  -5.416   8.533  1.00  0.00     0.098 A 
ATOM      8  C   UNL     1      14.342  -4.094   8.613  1.00  0.00     0.161 A 
ATOM      9  C   UNL     1      13.074  -3.823   9.145  1.00  0.00     0.158 A 
ATOM     10  C   UNL     1      12.262  -4.874   9.598  1.00  0.00     0.062 A 
ATOM     11  C   UNL     1      12.722  -6.197   9.519  1.00  0.00     0.022 A 
ENDROOT
BRANCH   9  12
ATOM     12  O   UNL     1      12.624  -2.505   9.221  1.00  0.00    -0.504 OA
ATOM     13  H   UNL     1      11.644  -2.286   9.351  1.00  0.00     0.293 HD
ENDBRANCH   9  12
BRANCH   8  14
ATOM     14  O   UNL     1      15.140  -3.043   8.166  1.00  0.00    -0.504 OA
ATOM     15  H   UNL     1      14.894  -2.501   7.346  1.00  0.00     0.293 HD
ENDBRANCH   8  14
TORSDOF 2
ENDMDL
MODEL 4
REMARK VINA RESULT:    -3.971      1.862      2.573
REMARK INTER + INTRA:          -4.203
REMARK INTER:                  -4.203
REMARK INTRA:                   0.000
REMARK UNBOUND:                 0.000
REMARK SMILES O=c1ccc2cc(O)c(O)cc2o1
REMARK SMILES IDX 4 1 3 2 2 3 1 4 13 5 12 6 11 7 9 8 7 9 6 10 5 11 8 12 10 14
REMARK H PARENT 8 13 10 15
REMARK Flexibility Score: inf
ROOT
ATOM      1  C   UNL     1      14.300  -6.589   8.930  1.00  0.00     0.019 A 
ATOM      2  C   UNL     1      14.992  -5.434   8.568  1.00  0.00     0.094 A 
ATOM      3  C   UNL     1      14.344  -4.197   8.661  1.00  0.00     0.336 A 
ATOM      4  O   UNL     1      14.952  -3.143   8.339  1.00  0.00    -0.246 OA
ATOM      5  O   UNL     1      13.087  -4.127   9.088  1.00  0.00    -0.423 OA
ATOM      6  C   UNL     1      12.389  -5.204   9.443  1.00  0.00     0.142 A 
ATOM      7  C   UNL     1      11.069  -5.068   9.885  1.00  0.00     0.098 A 
ATOM      8  C   UNL     1      10.331  -6.200  10.260  1.00  0.00     0.161 A 
ATOM      9  C   UNL     1      10.916  -7.473  10.194  1.00  0.00     0.158 A 
ATOM     10  C   UNL     1      12.239  -7.616   9.751  1.00  0.00     0.062 A 
ATOM     11  C   UNL     1      12.978  -6.485   9.376  1.00  0.00     0.022 A 
ENDROOT
BRANCH   9  12
ATOM     12  O   UNL     1      10.175  -8.593  10.569  1.00  0.00    -0.504 OA
ATOM     13  H   UNL     1       9.714  -9.178   9.883  1.00  0.00     0.293 HD
ENDBRANCH   9  12
BRANCH   8  14
ATOM     14  O   UNL     1       9.016  -6.068  10.702  1.00  0.00    -0.504 OA
ATOM     15  H   UNL     1       8.318  -6.776  10.506  1.00  0.00     0.293 HD
ENDBRANCH   8  14
TORSDOF 2
ENDMDL
MODEL 5
REMARK VINA RESULT:    -3.936      1.452      4.530
REMARK INTER + INTRA:          -4.166
REMARK INTER:                  -4.166
REMARK INTRA:                   0.000
REMARK UNBOUND:                 0.000
REMARK SMILES O=c1ccc2cc(O)c(O)cc2o1
REMARK SMILES IDX 4 1 3 2 2 3 1 4 13 5 12 6 11 7 9 8 7 9 6 10 5 11 8 12 10 14
REMARK H PARENT 8 13 10 15
REMARK Flexibility Score: inf
ROOT
ATOM      1  C   UNL     1      15.317  -7.016   8.458  1.00  0.00     0.019 A 
ATOM      2  C   UNL     1      15.843  -8.291   8.662  1.00  0.00     0.094 A 
ATOM      3  C   UNL     1      15.162  -9.180   9.501  1.00  0.00     0.336 A 
ATOM      4  O   UNL     1      15.620 -10.335   9.698  1.00  0.00    -0.246 OA
ATOM      5  O   UNL     1      14.030  -8.811  10.094  1.00  0.00    -0.423 OA
ATOM      6  C   UNL     1      13.493  -7.604   9.927  1.00  0.00     0.142 A 
ATOM      7  C   UNL     1      12.300  -7.273  10.577  1.00  0.00     0.098 A 
ATOM      8  C   UNL     1      11.732  -6.003  10.404  1.00  0.00     0.161 A 
ATOM      9  C   UNL     1      12.358  -5.060   9.577  1.00  0.00     0.158 A 
ATOM     10  C   UNL     1      13.556  -5.386   8.922  1.00  0.00     0.062 A 
ATOM     11  C   UNL     1      14.125  -6.656   9.095  1.00  0.00     0.022 A 
ENDROOT
BRANCH   9  12
ATOM     12  O   UNL     1      11.786  -3.800   9.410  1.00  0.00    -0.504 OA
ATOM     13  H   UNL     1      12.299  -3.037   8.984  1.00  0.00     0.293 HD
ENDBRANCH   9  12
BRANCH   8  14
ATOM     14  O   UNL     1      10.542  -5.670  11.049  1.00  0.00    -0.504 OA
ATOM     15  H   UNL     1       9.917  -4.963  10.679  1.00  0.00     0.293 HD
ENDBRANCH   8  14
TORSDOF 2
ENDMDL
MODEL 6
REMARK VINA RESULT:    -3.874     13.283     13.427
REMARK INTER + INTRA:          -4.101
REMARK INTER:                  -4.101
REMARK INTRA:                   0.000
REMARK UNBOUND:                 0.000
REMARK SMILES O=c1ccc2cc(O)c(O)cc2o1
REMARK SMILES IDX 4 1 3 2 2 3 1 4 13 5 12 6 11 7 9 8 7 9 6 10 5 11 8 12 10 14
REMARK H PARENT 8 13 10 15
REMARK Flexibility Score: inf
ROOT
ATOM      1  C   UNL     1      17.901   1.117  19.270  1.00  0.00     0.019 A 
ATOM      2  C   UNL     1      18.892   2.010  18.867  1.00  0.00     0.094 A 
ATOM      3  C   UNL     1      20.235   1.637  18.997  1.00  0.00     0.336 A 
ATOM      4  O   UNL     1      21.145   2.429  18.638  1.00  0.00    -0.246 OA
ATOM      5  O   UNL     1      20.557   0.448  19.498  1.00  0.00    -0.423 OA
ATOM      6  C   UNL     1      19.643  -0.435  19.895  1.00  0.00     0.142 A 
ATOM      7  C   UNL     1      20.042  -1.670  20.415  1.00  0.00     0.098 A 
ATOM      8  C   UNL     1      19.082  -2.602  20.834  1.00  0.00     0.161 A 
ATOM      9  C   UNL     1      17.717  -2.298  20.733  1.00  0.00     0.158 A 
ATOM     10  C   UNL     1      17.310  -1.060  20.214  1.00  0.00     0.062 A 
ATOM     11  C   UNL     1      18.269  -0.127  19.794  1.00  0.00     0.022 A 
ENDROOT
BRANCH   9  12
ATOM     12  O   UNL     1      16.769  -3.230  21.153  1.00  0.00    -0.504 OA
ATOM     13  H   UNL     1      16.320  -3.860  20.499  1.00  0.00     0.293 HD
ENDBRANCH   9  12
BRANCH   8  14
ATOM     14  O   UNL     1      19.476  -3.834  21.352  1.00  0.00    -0.504 OA
ATOM     15  H   UNL     1      19.676  -4.624  20.749  1.00  0.00     0.293 HD
ENDBRANCH   8  14
TORSDOF 2
ENDMDL
MODEL 7
REMARK VINA RESULT:    -3.775      1.627      4.373
REMARK INTER + INTRA:          -3.996
REMARK INTER:                  -3.996
REMARK INTRA:                   0.000
REMARK UNBOUND:                 0.000
REMARK SMILES O=c1ccc2cc(O)c(O)cc2o1
REMARK SMILES IDX 4 1 3 2 2 3 1 4 13 5 12 6 11 7 9 8 7 9 6 10 5 11 8 12 10 14
REMARK H PARENT 8 13 10 15
REMARK Flexibility Score: inf
ROOT
ATOM      1  C   UNL     1      13.705  -7.993   9.129  1.00  0.00     0.019 A 
ATOM      2  C   UNL     1      12.670  -8.830   9.544  1.00  0.00     0.094 A 
ATOM      3  C   UNL     1      11.462  -8.260   9.960  1.00  0.00     0.336 A 
ATOM      4  O   UNL     1      10.515  -8.998  10.337  1.00  0.00    -0.246 OA
ATOM      5  O   UNL     1      11.306  -6.939   9.958  1.00  0.00    -0.423 OA
ATOM      6  C   UNL     1      12.267  -6.103   9.570  1.00  0.00     0.142 A 
ATOM      7  C   UNL     1      12.045  -4.723   9.590  1.00  0.00     0.098 A 
ATOM      8  C   UNL     1      13.055  -3.840   9.182  1.00  0.00     0.161 A 
ATOM      9  C   UNL     1      14.292  -4.340   8.752  1.00  0.00     0.158 A 
ATOM     10  C   UNL     1      14.522  -5.723   8.731  1.00  0.00     0.062 A 
ATOM     11  C   UNL     1      13.512  -6.607   9.138  1.00  0.00     0.022 A 
ENDROOT
BRANCH   9  12
ATOM     12  O   UNL     1      15.291  -3.455   8.349  1.00  0.00    -0.504 OA
ATOM     13  H   UNL     1      15.099  -2.472   8.195  1.00  0.00     0.293 HD
ENDBRANCH   9  12
BRANCH   8  14
ATOM     14  O   UNL     1      12.836  -2.464   9.200  1.00  0.00    -0.504 OA
ATOM     15  H   UNL     1      12.662  -1.966  10.065  1.00  0.00     0.293 HD
ENDBRANCH   8  14
TORSDOF 2
ENDMDL
MODEL 8
REMARK VINA RESULT:    -3.764     13.165     13.510
REMARK INTER + INTRA:          -3.984
REMARK INTER:                  -3.984
REMARK INTRA:                   0.000
REMARK UNBOUND:                 0.000
REMARK SMILES O=c1ccc2cc(O)c(O)cc2o1
REMARK SMILES IDX 4 1 3 2 2 3 1 4 13 5 12 6 11 7 9 8 7 9 6 10 5 11 8 12 10 14
REMARK H PARENT 8 13 10 15
REMARK Flexibility Score: inf
ROOT
ATOM      1  C   UNL     1      18.112   0.870  19.518  1.00  0.00     0.019 A 
ATOM      2  C   UNL     1      17.131   0.384  20.382  1.00  0.00     0.094 A 
ATOM      3  C   UNL     1      17.285  -0.892  20.934  1.00  0.00     0.336 A 
ATOM      4  O   UNL     1      16.411  -1.348  21.716  1.00  0.00    -0.246 OA
ATOM      5  O   UNL     1      18.353  -1.629  20.638  1.00  0.00    -0.423 OA
ATOM      6  C   UNL     1      19.312  -1.204  19.819  1.00  0.00     0.142 A 
ATOM      7  C   UNL     1      20.412  -2.024  19.544  1.00  0.00     0.098 A 
ATOM      8  C   UNL     1      21.424  -1.580  18.682  1.00  0.00     0.161 A 
ATOM      9  C   UNL     1      21.338  -0.311  18.092  1.00  0.00     0.158 A 
ATOM     10  C   UNL     1      20.237   0.516  18.362  1.00  0.00     0.062 A 
ATOM     11  C   UNL     1      19.224   0.073  19.225  1.00  0.00     0.022 A 
ENDROOT
BRANCH   9  12
ATOM     12  O   UNL     1      22.349   0.122  17.235  1.00  0.00    -0.504 OA
ATOM     13  H   UNL     1      22.572  -0.376  16.382  1.00  0.00     0.293 HD
ENDBRANCH   9  12
BRANCH   8  14
ATOM     14  O   UNL     1      22.521  -2.394  18.407  1.00  0.00    -0.504 OA
ATOM     15  H   UNL     1      23.276  -2.082  17.807  1.00  0.00     0.293 HD
ENDBRANCH   8  14
TORSDOF 2
ENDMDL
MODEL 9
REMARK VINA RESULT:    -3.739      1.292      4.455
REMARK INTER + INTRA:          -3.958
REMARK INTER:                  -3.958
REMARK INTRA:                   0.000
REMARK UNBOUND:                 0.000
REMARK SMILES O=c1ccc2cc(O)c(O)cc2o1
REMARK SMILES IDX 4 1 3 2 2 3 1 4 13 5 12 6 11 7 9 8 7 9 6 10 5 11 8 12 10 14
REMARK H PARENT 8 13 10 15
REMARK Flexibility Score: inf
ROOT
ATOM      1  C   UNL     1      14.637  -5.357   8.737  1.00  0.00     0.019 A 
ATOM      2  C   UNL     1      14.874  -6.669   9.144  1.00  0.00     0.094 A 
ATOM      3  C   UNL     1      13.792  -7.460   9.546  1.00  0.00     0.336 A 
ATOM      4  O   UNL     1      13.985  -8.647   9.917  1.00  0.00    -0.246 OA
ATOM      5  O   UNL     1      12.557  -6.965   9.540  1.00  0.00    -0.423 OA
ATOM      6  C   UNL     1      12.287  -5.719   9.159  1.00  0.00     0.142 A 
ATOM      7  C   UNL     1      10.968  -5.253   9.173  1.00  0.00     0.098 A 
ATOM      8  C   UNL     1      10.679  -3.941   8.774  1.00  0.00     0.161 A 
ATOM      9  C   UNL     1      11.713  -3.090   8.357  1.00  0.00     0.158 A 
ATOM     10  C   UNL     1      13.038  -3.550   8.341  1.00  0.00     0.062 A 
ATOM     11  C   UNL     1      13.328  -4.863   8.741  1.00  0.00     0.022 A 
ENDROOT
BRANCH   9  12
ATOM     12  O   UNL     1      11.416  -1.787   7.961  1.00  0.00    -0.504 OA
ATOM     13  H   UNL     1      11.171  -1.071   8.634  1.00  0.00     0.293 HD
ENDBRANCH   9  12
BRANCH   8  14
ATOM     14  O   UNL     1       9.366  -3.474   8.786  1.00  0.00    -0.504 OA
ATOM     15  H   UNL     1       8.666  -3.843   8.153  1.00  0.00     0.293 HD
ENDBRANCH   8  14
TORSDOF 2
ENDMDL
