MODEL 1
REMARK VINA RESULT:    -7.417      0.000      0.000
REMARK INTER + INTRA:          -9.287
REMARK INTER:                  -8.934
REMARK INTRA:                  -0.353
REMARK UNBOUND:                -0.353
REMARK SMILES Oc1cc(O)c2cc(O)c(-c3ccc(O)c(O)c3)[o+]c2c1
REMARK SMILES IDX 10 1 19 2 20 3 21 4 2 5 3 6 4 7 6 8 7 9 8 10 11 11 12 12
REMARK SMILES IDX 13 13 14 14 18 15 16 16 15 17 17 19 9 21 1 23 5 25
REMARK H PARENT 15 18 17 20 9 22 1 24 5 26
REMARK Flexibility Score: inf
ROOT
ATOM      1  C   UNL     1      21.592  47.653   3.748  1.00  0.00     0.402 A 
ATOM      2  O   UNL     1      21.637  48.449   4.813  1.00  0.00    -0.202 OA
ATOM      3  C   UNL     1      21.256  48.066   6.027  1.00  0.00     0.368 A 
ATOM      4  C   UNL     1      21.344  48.975   7.085  1.00  0.00     0.162 A 
ATOM      5  C   UNL     1      20.953  48.597   8.373  1.00  0.00     0.128 A 
ATOM      6  C   UNL     1      20.473  47.307   8.604  1.00  0.00     0.093 A 
ATOM      7  C   UNL     1      20.376  46.377   7.561  1.00  0.00     0.136 A 
ATOM      8  C   UNL     1      20.769  46.756   6.251  1.00  0.00     0.125 A 
ATOM      9  C   UNL     1      20.693  45.896   5.143  1.00  0.00     0.078 A 
ATOM     10  C   UNL     1      21.095  46.343   3.881  1.00  0.00     0.223 A 
ENDROOT
BRANCH   1  11
ATOM     11  C   UNL     1      22.055  48.192   2.450  1.00  0.00     0.087 A 
ATOM     12  C   UNL     1      21.181  48.968   1.675  1.00  0.00     0.022 A 
ATOM     13  C   UNL     1      21.603  49.503   0.455  1.00  0.00     0.051 A 
ATOM     14  C   UNL     1      22.906  49.288  -0.006  1.00  0.00     0.157 A 
ATOM     15  C   UNL     1      23.371  47.993   2.000  1.00  0.00     0.068 A 
ATOM     16  C   UNL     1      23.804  48.529   0.780  1.00  0.00     0.158 A 
BRANCH  14  17
ATOM     17  O   UNL     1      23.263  49.844  -1.236  1.00  0.00    -0.504 OA
ATOM     18  H   UNL     1      22.690  50.500  -1.747  1.00  0.00     0.293 HD
ENDBRANCH  14  17
BRANCH  16  19
ATOM     19  O   UNL     1      25.125  48.289   0.395  1.00  0.00    -0.504 OA
ATOM     20  H   UNL     1      25.486  48.474  -0.529  1.00  0.00     0.293 HD
ENDBRANCH  16  19
ENDBRANCH   1  11
BRANCH  10  21
ATOM     21  O   UNL     1      20.973  45.506   2.771  1.00  0.00    -0.500 OA
ATOM     22  H   UNL     1      20.187  44.876   2.662  1.00  0.00     0.294 HD
ENDBRANCH  10  21
BRANCH   5  23
ATOM     23  O   UNL     1      21.037  49.498   9.433  1.00  0.00    -0.507 OA
ATOM     24  H   UNL     1      21.930  49.844   9.764  1.00  0.00     0.293 HD
ENDBRANCH   5  23
BRANCH   7  25
ATOM     25  O   UNL     1      19.888  45.105   7.875  1.00  0.00    -0.507 OA
ATOM     26  H   UNL     1      20.422  44.389   8.344  1.00  0.00     0.293 HD
ENDBRANCH   7  25
TORSDOF 6
ENDMDL
MODEL 2
REMARK VINA RESULT:    -7.369      1.479      2.207
REMARK INTER + INTRA:          -9.230
REMARK INTER:                  -8.882
REMARK INTRA:                  -0.348
REMARK UNBOUND:                -0.353
REMARK SMILES Oc1cc(O)c2cc(O)c(-c3ccc(O)c(O)c3)[o+]c2c1
REMARK SMILES IDX 10 1 19 2 20 3 21 4 2 5 3 6 4 7 6 8 7 9 8 10 11 11 12 12
REMARK SMILES IDX 13 13 14 14 18 15 16 16 15 17 17 19 9 21 1 23 5 25
REMARK H PARENT 15 18 17 20 9 22 1 24 5 26
REMARK Flexibility Score: inf
ROOT
ATOM      1  C   UNL     1      21.476  47.593   5.157  1.00  0.00     0.402 A 
ATOM      2  O   UNL     1      21.832  48.533   6.030  1.00  0.00    -0.202 OA
ATOM      3  C   UNL     1      21.546  48.470   7.326  1.00  0.00     0.368 A 
ATOM      4  C   UNL     1      21.967  49.506   8.165  1.00  0.00     0.162 A 
ATOM      5  C   UNL     1      21.682  49.464   9.533  1.00  0.00     0.128 A 
ATOM      6  C   UNL     1      20.975  48.384  10.064  1.00  0.00     0.093 A 
ATOM      7  C   UNL     1      20.543  47.333   9.244  1.00  0.00     0.136 A 
ATOM      8  C   UNL     1      20.827  47.371   7.854  1.00  0.00     0.125 A 
ATOM      9  C   UNL     1      20.422  46.371   6.956  1.00  0.00     0.078 A 
ATOM     10  C   UNL     1      20.735  46.481   5.598  1.00  0.00     0.223 A 
ENDROOT
BRANCH   1  11
ATOM     11  C   UNL     1      21.863  47.771   3.740  1.00  0.00     0.087 A 
ATOM     12  C   UNL     1      23.079  47.241   3.285  1.00  0.00     0.022 A 
ATOM     13  C   UNL     1      23.456  47.381   1.948  1.00  0.00     0.051 A 
ATOM     14  C   UNL     1      22.622  48.038   1.036  1.00  0.00     0.157 A 
ATOM     15  C   UNL     1      21.014  48.411   2.822  1.00  0.00     0.068 A 
ATOM     16  C   UNL     1      21.381  48.554   1.478  1.00  0.00     0.158 A 
BRANCH  14  17
ATOM     17  O   UNL     1      23.060  48.151  -0.284  1.00  0.00    -0.504 OA
ATOM     18  H   UNL     1      22.888  47.458  -0.998  1.00  0.00     0.293 HD
ENDBRANCH  14  17
BRANCH  16  19
ATOM     19  O   UNL     1      20.488  49.203   0.623  1.00  0.00    -0.504 OA
ATOM     20  H   UNL     1      20.585  50.164   0.329  1.00  0.00     0.293 HD
ENDBRANCH  16  19
ENDBRANCH   1  11
BRANCH  10  21
ATOM     21  O   UNL     1      20.291  45.513   4.697  1.00  0.00    -0.500 OA
ATOM     22  H   UNL     1      19.538  45.699   4.044  1.00  0.00     0.294 HD
ENDBRANCH  10  21
BRANCH   5  23
ATOM     23  O   UNL     1      22.097  50.493  10.376  1.00  0.00    -0.507 OA
ATOM     24  H   UNL     1      21.571  51.354  10.459  1.00  0.00     0.293 HD
ENDBRANCH   5  23
BRANCH   7  25
ATOM     25  O   UNL     1      19.844  46.287   9.853  1.00  0.00    -0.507 OA
ATOM     26  H   UNL     1      19.007  46.404  10.405  1.00  0.00     0.293 HD
ENDBRANCH   7  25
TORSDOF 6
ENDMDL
MODEL 3
REMARK VINA RESULT:    -6.240      1.809      3.835
REMARK INTER + INTRA:          -7.870
REMARK INTER:                  -8.074
REMARK INTRA:                   0.204
REMARK UNBOUND:                -0.353
REMARK SMILES Oc1cc(O)c2cc(O)c(-c3ccc(O)c(O)c3)[o+]c2c1
REMARK SMILES IDX 10 1 19 2 20 3 21 4 2 5 3 6 4 7 6 8 7 9 8 10 11 11 12 12
REMARK SMILES IDX 13 13 14 14 18 15 16 16 15 17 17 19 9 21 1 23 5 25
REMARK H PARENT 15 18 17 20 9 22 1 24 5 26
REMARK Flexibility Score: inf
ROOT
ATOM      1  C   UNL     1      21.078  47.582   6.238  1.00  0.00     0.402 A 
ATOM      2  O   UNL     1      21.086  46.487   6.996  1.00  0.00    -0.202 OA
ATOM      3  C   UNL     1      20.871  46.506   8.307  1.00  0.00     0.368 A 
ATOM      4  C   UNL     1      20.897  45.302   9.017  1.00  0.00     0.162 A 
ATOM      5  C   UNL     1      20.670  45.292  10.396  1.00  0.00     0.128 A 
ATOM      6  C   UNL     1      20.417  46.490  11.068  1.00  0.00     0.093 A 
ATOM      7  C   UNL     1      20.385  47.709  10.379  1.00  0.00     0.136 A 
ATOM      8  C   UNL     1      20.617  47.725   8.979  1.00  0.00     0.125 A 
ATOM      9  C   UNL     1      20.618  48.900   8.210  1.00  0.00     0.078 A 
ATOM     10  C   UNL     1      20.859  48.837   6.835  1.00  0.00     0.223 A 
ENDROOT
BRANCH   1  11
ATOM     11  C   UNL     1      21.321  47.430   4.786  1.00  0.00     0.087 A 
ATOM     12  C   UNL     1      22.068  48.403   4.107  1.00  0.00     0.022 A 
ATOM     13  C   UNL     1      22.325  48.270   2.740  1.00  0.00     0.051 A 
ATOM     14  C   UNL     1      21.857  47.159   2.030  1.00  0.00     0.157 A 
ATOM     15  C   UNL     1      20.868  46.302   4.081  1.00  0.00     0.068 A 
ATOM     16  C   UNL     1      21.124  46.158   2.711  1.00  0.00     0.158 A 
BRANCH  14  17
ATOM     17  O   UNL     1      22.141  47.090   0.665  1.00  0.00    -0.504 OA
ATOM     18  H   UNL     1      22.713  46.373   0.243  1.00  0.00     0.293 HD
ENDBRANCH  14  17
BRANCH  16  19
ATOM     19  O   UNL     1      20.642  45.013   2.074  1.00  0.00    -0.504 OA
ATOM     20  H   UNL     1      20.260  45.004   1.140  1.00  0.00     0.293 HD
ENDBRANCH  16  19
ENDBRANCH   1  11
BRANCH  10  21
ATOM     21  O   UNL     1      20.909  50.009   6.078  1.00  0.00    -0.500 OA
ATOM     22  H   UNL     1      20.954  50.922   6.515  1.00  0.00     0.294 HD
ENDBRANCH  10  21
BRANCH   5  23
ATOM     23  O   UNL     1      20.695  44.097  11.111  1.00  0.00    -0.507 OA
ATOM     24  H   UNL     1      21.230  43.299  10.790  1.00  0.00     0.293 HD
ENDBRANCH   5  23
BRANCH   7  25
ATOM     25  O   UNL     1      20.121  48.863  11.124  1.00  0.00    -0.507 OA
ATOM     26  H   UNL     1      20.308  48.960  12.111  1.00  0.00     0.293 HD
ENDBRANCH   7  25
TORSDOF 6
ENDMDL
MODEL 4
REMARK VINA RESULT:    -5.430      1.355      6.861
REMARK INTER + INTRA:          -6.894
REMARK INTER:                  -7.310
REMARK INTRA:                   0.417
REMARK UNBOUND:                -0.353
REMARK SMILES Oc1cc(O)c2cc(O)c(-c3ccc(O)c(O)c3)[o+]c2c1
REMARK SMILES IDX 10 1 19 2 20 3 21 4 2 5 3 6 4 7 6 8 7 9 8 10 11 11 12 12
REMARK SMILES IDX 13 13 14 14 18 15 16 16 15 17 17 19 9 21 1 23 5 25
REMARK H PARENT 15 18 17 20 9 22 1 24 5 26
REMARK Flexibility Score: inf
ROOT
ATOM      1  C   UNL     1      21.424  47.977   5.888  1.00  0.00     0.402 A 
ATOM      2  O   UNL     1      22.173  48.554   4.951  1.00  0.00    -0.202 OA
ATOM      3  C   UNL     1      22.187  48.157   3.683  1.00  0.00     0.368 A 
ATOM      4  C   UNL     1      23.005  48.829   2.769  1.00  0.00     0.162 A 
ATOM      5  C   UNL     1      23.036  48.435   1.428  1.00  0.00     0.128 A 
ATOM      6  C   UNL     1      22.247  47.366   0.999  1.00  0.00     0.093 A 
ATOM      7  C   UNL     1      21.418  46.678   1.894  1.00  0.00     0.136 A 
ATOM      8  C   UNL     1      21.384  47.072   3.257  1.00  0.00     0.125 A 
ATOM      9  C   UNL     1      20.595  46.432   4.226  1.00  0.00     0.078 A 
ATOM     10  C   UNL     1      20.618  46.874   5.552  1.00  0.00     0.223 A 
ENDROOT
BRANCH   1  11
ATOM     11  C   UNL     1      21.488  48.517   7.265  1.00  0.00     0.087 A 
ATOM     12  C   UNL     1      22.251  49.666   7.520  1.00  0.00     0.022 A 
ATOM     13  C   UNL     1      22.310  50.203   8.808  1.00  0.00     0.051 A 
ATOM     14  C   UNL     1      21.599  49.616   9.860  1.00  0.00     0.157 A 
ATOM     15  C   UNL     1      20.755  47.938   8.314  1.00  0.00     0.068 A 
ATOM     16  C   UNL     1      20.805  48.472   9.609  1.00  0.00     0.158 A 
BRANCH  14  17
ATOM     17  O   UNL     1      21.707  50.197  11.125  1.00  0.00    -0.504 OA
ATOM     18  H   UNL     1      20.916  50.443  11.702  1.00  0.00     0.293 HD
ENDBRANCH  14  17
BRANCH  16  19
ATOM     19  O   UNL     1      20.052  47.844  10.603  1.00  0.00    -0.504 OA
ATOM     20  H   UNL     1      20.323  46.984  11.058  1.00  0.00     0.293 HD
ENDBRANCH  16  19
ENDBRANCH   1  11
BRANCH  10  21
ATOM     21  O   UNL     1      19.873  46.208   6.525  1.00  0.00    -0.500 OA
ATOM     22  H   UNL     1      19.332  46.712   7.219  1.00  0.00     0.294 HD
ENDBRANCH  10  21
BRANCH   5  23
ATOM     23  O   UNL     1      23.850  49.098   0.513  1.00  0.00    -0.507 OA
ATOM     24  H   UNL     1      23.473  49.783  -0.131  1.00  0.00     0.293 HD
ENDBRANCH   5  23
BRANCH   7  25
ATOM     25  O   UNL     1      20.657  45.622   1.384  1.00  0.00    -0.507 OA
ATOM     26  H   UNL     1      21.023  44.708   1.164  1.00  0.00     0.293 HD
ENDBRANCH   7  25
TORSDOF 6
ENDMDL
MODEL 5
REMARK VINA RESULT:    -5.345      1.389      6.800
REMARK INTER + INTRA:          -6.792
REMARK INTER:                  -7.126
REMARK INTRA:                   0.335
REMARK UNBOUND:                -0.353
REMARK SMILES Oc1cc(O)c2cc(O)c(-c3ccc(O)c(O)c3)[o+]c2c1
REMARK SMILES IDX 10 1 19 2 20 3 21 4 2 5 3 6 4 7 6 8 7 9 8 10 11 11 12 12
REMARK SMILES IDX 13 13 14 14 18 15 16 16 15 17 17 19 9 21 1 23 5 25
REMARK H PARENT 15 18 17 20 9 22 1 24 5 26
REMARK Flexibility Score: inf
ROOT
ATOM      1  C   UNL     1      21.627  47.389   4.476  1.00  0.00     0.402 A 
ATOM      2  O   UNL     1      22.443  48.400   4.187  1.00  0.00    -0.202 OA
ATOM      3  C   UNL     1      22.917  48.628   2.966  1.00  0.00     0.368 A 
ATOM      4  C   UNL     1      23.766  49.719   2.760  1.00  0.00     0.162 A 
ATOM      5  C   UNL     1      24.277  49.984   1.486  1.00  0.00     0.128 A 
ATOM      6  C   UNL     1      23.938  49.156   0.414  1.00  0.00     0.093 A 
ATOM      7  C   UNL     1      23.089  48.057   0.595  1.00  0.00     0.136 A 
ATOM      8  C   UNL     1      22.569  47.781   1.886  1.00  0.00     0.125 A 
ATOM      9  C   UNL     1      21.724  46.695   2.163  1.00  0.00     0.078 A 
ATOM     10  C   UNL     1      21.254  46.486   3.463  1.00  0.00     0.223 A 
ENDROOT
BRANCH   1  11
ATOM     11  C   UNL     1      21.157  47.246   5.872  1.00  0.00     0.087 A 
ATOM     12  C   UNL     1      20.807  45.978   6.355  1.00  0.00     0.022 A 
ATOM     13  C   UNL     1      20.378  45.818   7.675  1.00  0.00     0.051 A 
ATOM     14  C   UNL     1      20.306  46.914   8.540  1.00  0.00     0.157 A 
ATOM     15  C   UNL     1      21.107  48.346   6.745  1.00  0.00     0.068 A 
ATOM     16  C   UNL     1      20.682  48.195   8.071  1.00  0.00     0.158 A 
BRANCH  14  17
ATOM     17  O   UNL     1      19.863  46.688   9.845  1.00  0.00    -0.504 OA
ATOM     18  H   UNL     1      20.064  45.852  10.373  1.00  0.00     0.293 HD
ENDBRANCH  14  17
BRANCH  16  19
ATOM     19  O   UNL     1      20.655  49.332   8.881  1.00  0.00    -0.504 OA
ATOM     20  H   UNL     1      21.223  49.450   9.708  1.00  0.00     0.293 HD
ENDBRANCH  16  19
ENDBRANCH   1  11
BRANCH  10  21
ATOM     21  O   UNL     1      20.454  45.379   3.749  1.00  0.00    -0.500 OA
ATOM     22  H   UNL     1      19.969  44.870   3.019  1.00  0.00     0.294 HD
ENDBRANCH  10  21
BRANCH   5  23
ATOM     23  O   UNL     1      25.124  51.069   1.273  1.00  0.00    -0.507 OA
ATOM     24  H   UNL     1      26.107  51.031   1.519  1.00  0.00     0.293 HD
ENDBRANCH   5  23
BRANCH   7  25
ATOM     25  O   UNL     1      22.796  47.278  -0.529  1.00  0.00    -0.507 OA
ATOM     26  H   UNL     1      23.276  46.425  -0.773  1.00  0.00     0.293 HD
ENDBRANCH   7  25
TORSDOF 6
ENDMDL
