MODEL 1
REMARK VINA RESULT:    -4.646      0.000      0.000
REMARK INTER + INTRA:         -17.351
REMARK INTER:                 -12.250
REMARK INTRA:                  -5.100
REMARK UNBOUND:                -5.100
REMARK SMILES CCCCCCCCCCCCCCCCCCCCCCCCCCCCCC(=O)[O-]
REMARK SMILES IDX 16 1 17 2 18 3 19 4 20 5 21 6 22 7 23 8 24 9 25 10 26 11
REMARK SMILES IDX 27 12 28 13 29 14 30 15 31 16 32 17 15 18 14 19 13 20 12 21
REMARK SMILES IDX 11 22 10 23 9 24 8 25 7 26 6 27 5 28 4 29 3 30 2 31 1 32
REMARK H PARENT
REMARK Flexibility Score: inf
ROOT
ATOM      1  C   UNL     1      28.077  61.390  10.658  1.00  0.00     0.000 C 
ENDROOT
BRANCH   1   2
ATOM      2  C   UNL     1      27.377  61.613   9.302  1.00  0.00     0.000 C 
BRANCH   2   3
ATOM      3  C   UNL     1      27.284  60.352   8.419  1.00  0.00     0.000 C 
BRANCH   3   4
ATOM      4  C   UNL     1      27.010  60.595   6.921  1.00  0.00     0.000 C 
BRANCH   4   5
ATOM      5  C   UNL     1      27.712  61.819   6.302  1.00  0.00     0.000 C 
BRANCH   5   6
ATOM      6  C   UNL     1      29.234  61.649   6.157  1.00  0.00     0.000 C 
BRANCH   6   7
ATOM      7  C   UNL     1      29.888  62.750   5.301  1.00  0.00     0.000 C 
BRANCH   7   8
ATOM      8  C   UNL     1      28.964  63.375   4.233  1.00  0.00     0.000 C 
BRANCH   8   9
ATOM      9  C   UNL     1      28.873  64.919   4.234  1.00  0.00     0.000 C 
BRANCH   9  10
ATOM     10  C   UNL     1      27.783  65.529   5.136  1.00  0.00     0.000 C 
BRANCH  10  11
ATOM     11  C   UNL     1      26.378  64.926   4.954  1.00  0.00     0.000 C 
BRANCH  11  12
ATOM     12  C   UNL     1      25.413  65.250   6.114  1.00  0.00     0.000 C 
BRANCH  12  13
ATOM     13  C   UNL     1      25.357  64.129   7.165  1.00  0.00     0.006 C 
BRANCH  13  14
ATOM     14  C   UNL     1      24.011  64.091   7.899  1.00  0.00     0.053 C 
BRANCH  14  15
ATOM     15  C   UNL     1      22.896  63.683   6.986  1.00  0.00     0.041 C 
ATOM     16  O   UNL     1      22.647  62.464   6.792  1.00  0.00    -0.550 OA
ATOM     17  O   UNL     1      22.148  64.650   6.328  1.00  0.00    -0.550 OA
ENDBRANCH  14  15
ENDBRANCH  13  14
ENDBRANCH  12  13
ENDBRANCH  11  12
ENDBRANCH  10  11
ENDBRANCH   9  10
ENDBRANCH   8   9
ENDBRANCH   7   8
ENDBRANCH   6   7
ENDBRANCH   5   6
ENDBRANCH   4   5
ENDBRANCH   3   4
ENDBRANCH   2   3
ENDBRANCH   1   2
BRANCH   1  18
ATOM     18  C   UNL     1      29.383  60.584  10.542  1.00  0.00     0.000 C 
BRANCH  18  19
ATOM     19  C   UNL     1      30.524  61.382   9.886  1.00  0.00     0.000 C 
BRANCH  19  20
ATOM     20  C   UNL     1      31.124  62.474  10.798  1.00  0.00     0.000 C 
BRANCH  20  21
ATOM     21  C   UNL     1      30.823  63.891  10.287  1.00  0.00     0.000 C 
BRANCH  21  22
ATOM     22  C   UNL     1      30.946  63.966   8.758  1.00  0.00     0.000 C 
BRANCH  22  23
ATOM     23  C   UNL     1      30.056  65.058   8.143  1.00  0.00     0.000 C 
BRANCH  23  24
ATOM     24  C   UNL     1      28.570  64.878   8.488  1.00  0.00    -0.000 C 
BRANCH  24  25
ATOM     25  C   UNL     1      28.075  66.006   9.401  1.00  0.00    -0.000 C 
BRANCH  25  26
ATOM     26  C   UNL     1      27.693  67.248   8.582  1.00  0.00    -0.000 C 
BRANCH  26  27
ATOM     27  C   UNL     1      28.397  68.526   9.067  1.00  0.00    -0.000 C 
BRANCH  27  28
ATOM     28  C   UNL     1      29.735  68.264   9.791  1.00  0.00    -0.000 C 
BRANCH  28  29
ATOM     29  C   UNL     1      29.583  68.281  11.323  1.00  0.00    -0.000 C 
BRANCH  29  30
ATOM     30  C   UNL     1      30.180  67.018  11.982  1.00  0.00    -0.000 C 
BRANCH  30  31
ATOM     31  C   UNL     1      30.662  67.246  13.425  1.00  0.00    -0.003 C 
ATOM     32  C   UNL     1      32.178  67.124  13.574  1.00  0.00     0.004 C 
ENDBRANCH  30  31
ENDBRANCH  29  30
ENDBRANCH  28  29
ENDBRANCH  27  28
ENDBRANCH  26  27
ENDBRANCH  25  26
ENDBRANCH  24  25
ENDBRANCH  23  24
ENDBRANCH  22  23
ENDBRANCH  21  22
ENDBRANCH  20  21
ENDBRANCH  19  20
ENDBRANCH  18  19
ENDBRANCH   1  18
TORSDOF 28
ENDMDL
MODEL 2
REMARK VINA RESULT:    -4.573      2.202      5.843
REMARK INTER + INTRA:         -17.158
REMARK INTER:                 -11.748
REMARK INTRA:                  -5.410
REMARK UNBOUND:                -5.100
REMARK SMILES CCCCCCCCCCCCCCCCCCCCCCCCCCCCCC(=O)[O-]
REMARK SMILES IDX 16 1 17 2 18 3 19 4 20 5 21 6 22 7 23 8 24 9 25 10 26 11
REMARK SMILES IDX 27 12 28 13 29 14 30 15 31 16 32 17 15 18 14 19 13 20 12 21
REMARK SMILES IDX 11 22 10 23 9 24 8 25 7 26 6 27 5 28 4 29 3 30 2 31 1 32
REMARK H PARENT
REMARK Flexibility Score: inf
ROOT
ATOM      1  C   UNL     1      30.022  65.005   8.839  1.00  0.00     0.000 C 
ENDROOT
BRANCH   1   2
ATOM      2  C   UNL     1      29.828  65.533  10.276  1.00  0.00     0.000 C 
BRANCH   2   3
ATOM      3  C   UNL     1      28.628  66.486  10.447  1.00  0.00     0.000 C 
BRANCH   3   4
ATOM      4  C   UNL     1      27.972  66.986   9.142  1.00  0.00     0.000 C 
BRANCH   4   5
ATOM      5  C   UNL     1      28.102  68.495   8.863  1.00  0.00     0.000 C 
BRANCH   5   6
ATOM      6  C   UNL     1      29.523  69.043   9.083  1.00  0.00     0.000 C 
BRANCH   6   7
ATOM      7  C   UNL     1      30.358  69.098   7.790  1.00  0.00     0.000 C 
BRANCH   7   8
ATOM      8  C   UNL     1      29.574  69.516   6.528  1.00  0.00     0.000 C 
BRANCH   8   9
ATOM      9  C   UNL     1      29.656  68.547   5.325  1.00  0.00     0.000 C 
BRANCH   9  10
ATOM     10  C   UNL     1      29.909  67.067   5.669  1.00  0.00     0.000 C 
BRANCH  10  11
ATOM     11  C   UNL     1      28.639  66.216   5.850  1.00  0.00     0.000 C 
BRANCH  11  12
ATOM     12  C   UNL     1      27.355  66.906   5.340  1.00  0.00     0.000 C 
BRANCH  12  13
ATOM     13  C   UNL     1      26.503  65.983   4.454  1.00  0.00     0.006 C 
BRANCH  13  14
ATOM     14  C   UNL     1      25.000  66.217   4.653  1.00  0.00     0.053 C 
BRANCH  14  15
ATOM     15  C   UNL     1      24.482  67.289   3.744  1.00  0.00     0.041 C 
ATOM     16  O   UNL     1      23.525  68.023   4.107  1.00  0.00    -0.550 OA
ATOM     17  O   UNL     1      25.038  67.459   2.483  1.00  0.00    -0.550 OA
ENDBRANCH  14  15
ENDBRANCH  13  14
ENDBRANCH  12  13
ENDBRANCH  11  12
ENDBRANCH  10  11
ENDBRANCH   9  10
ENDBRANCH   8   9
ENDBRANCH   7   8
ENDBRANCH   6   7
ENDBRANCH   5   6
ENDBRANCH   4   5
ENDBRANCH   3   4
ENDBRANCH   2   3
ENDBRANCH   1   2
BRANCH   1  18
ATOM     18  C   UNL     1      31.344  64.240   8.648  1.00  0.00     0.000 C 
BRANCH  18  19
ATOM     19  C   UNL     1      31.145  62.851   8.015  1.00  0.00     0.000 C 
BRANCH  19  20
ATOM     20  C   UNL     1      31.297  61.684   9.016  1.00  0.00     0.000 C 
BRANCH  20  21
ATOM     21  C   UNL     1      31.627  62.172  10.435  1.00  0.00     0.000 C 
BRANCH  21  22
ATOM     22  C   UNL     1      30.875  61.351  11.492  1.00  0.00     0.000 C 
BRANCH  22  23
ATOM     23  C   UNL     1      29.959  60.282  10.873  1.00  0.00     0.000 C 
BRANCH  23  24
ATOM     24  C   UNL     1      28.467  60.581  11.088  1.00  0.00    -0.000 C 
BRANCH  24  25
ATOM     25  C   UNL     1      27.694  60.506   9.767  1.00  0.00    -0.000 C 
BRANCH  25  26
ATOM     26  C   UNL     1      27.528  61.900   9.146  1.00  0.00    -0.000 C 
BRANCH  26  27
ATOM     27  C   UNL     1      27.708  61.903   7.619  1.00  0.00    -0.000 C 
BRANCH  27  28
ATOM     28  C   UNL     1      26.794  62.908   6.886  1.00  0.00    -0.000 C 
BRANCH  28  29
ATOM     29  C   UNL     1      26.439  64.122   7.765  1.00  0.00    -0.000 C 
BRANCH  29  30
ATOM     30  C   UNL     1      24.913  64.315   7.903  1.00  0.00    -0.000 C 
BRANCH  30  31
ATOM     31  C   UNL     1      24.094  63.479   6.903  1.00  0.00    -0.003 C 
ATOM     32  C   UNL     1      22.649  63.957   6.769  1.00  0.00     0.004 C 
ENDBRANCH  30  31
ENDBRANCH  29  30
ENDBRANCH  28  29
ENDBRANCH  27  28
ENDBRANCH  26  27
ENDBRANCH  25  26
ENDBRANCH  24  25
ENDBRANCH  23  24
ENDBRANCH  22  23
ENDBRANCH  21  22
ENDBRANCH  20  21
ENDBRANCH  19  20
ENDBRANCH  18  19
ENDBRANCH   1  18
TORSDOF 28
ENDMDL
MODEL 3
REMARK VINA RESULT:    -4.572      1.672      3.243
REMARK INTER + INTRA:         -17.157
REMARK INTER:                 -11.648
REMARK INTRA:                  -5.510
REMARK UNBOUND:                -5.100
REMARK SMILES CCCCCCCCCCCCCCCCCCCCCCCCCCCCCC(=O)[O-]
REMARK SMILES IDX 16 1 17 2 18 3 19 4 20 5 21 6 22 7 23 8 24 9 25 10 26 11
REMARK SMILES IDX 27 12 28 13 29 14 30 15 31 16 32 17 15 18 14 19 13 20 12 21
REMARK SMILES IDX 11 22 10 23 9 24 8 25 7 26 6 27 5 28 4 29 3 30 2 31 1 32
REMARK H PARENT
REMARK Flexibility Score: inf
ROOT
ATOM      1  C   UNL     1      30.954  62.027   8.251  1.00  0.00     0.000 C 
ENDROOT
BRANCH   1   2
ATOM      2  C   UNL     1      31.274  62.578   6.846  1.00  0.00     0.000 C 
BRANCH   2   3
ATOM      3  C   UNL     1      30.398  61.995   5.718  1.00  0.00     0.000 C 
BRANCH   3   4
ATOM      4  C   UNL     1      28.918  61.744   6.075  1.00  0.00     0.000 C 
BRANCH   4   5
ATOM      5  C   UNL     1      27.900  62.687   5.406  1.00  0.00     0.000 C 
BRANCH   5   6
ATOM      6  C   UNL     1      28.234  63.018   3.942  1.00  0.00     0.000 C 
BRANCH   6   7
ATOM      7  C   UNL     1      28.383  64.528   3.681  1.00  0.00     0.000 C 
BRANCH   7   8
ATOM      8  C   UNL     1      29.132  65.306   4.784  1.00  0.00     0.000 C 
BRANCH   8   9
ATOM      9  C   UNL     1      28.469  66.620   5.259  1.00  0.00     0.000 C 
BRANCH   9  10
ATOM     10  C   UNL     1      27.083  66.474   5.917  1.00  0.00     0.000 C 
BRANCH  10  11
ATOM     11  C   UNL     1      25.899  66.440   4.933  1.00  0.00     0.000 C 
BRANCH  11  12
ATOM     12  C   UNL     1      24.838  65.374   5.281  1.00  0.00     0.000 C 
BRANCH  12  13
ATOM     13  C   UNL     1      25.012  64.812   6.702  1.00  0.00     0.006 C 
BRANCH  13  14
ATOM     14  C   UNL     1      24.557  63.351   6.805  1.00  0.00     0.053 C 
BRANCH  14  15
ATOM     15  C   UNL     1      23.100  63.249   7.140  1.00  0.00     0.041 C 
ATOM     16  O   UNL     1      22.447  62.217   6.831  1.00  0.00    -0.550 OA
ATOM     17  O   UNL     1      22.457  64.306   7.770  1.00  0.00    -0.550 OA
ENDBRANCH  14  15
ENDBRANCH  13  14
ENDBRANCH  12  13
ENDBRANCH  11  12
ENDBRANCH  10  11
ENDBRANCH   9  10
ENDBRANCH   8   9
ENDBRANCH   7   8
ENDBRANCH   6   7
ENDBRANCH   5   6
ENDBRANCH   4   5
ENDBRANCH   3   4
ENDBRANCH   2   3
ENDBRANCH   1   2
BRANCH   1  18
ATOM     18  C   UNL     1      31.186  63.054   9.373  1.00  0.00     0.000 C 
BRANCH  18  19
ATOM     19  C   UNL     1      30.861  62.498  10.770  1.00  0.00     0.000 C 
BRANCH  19  20
ATOM     20  C   UNL     1      31.336  61.045  10.988  1.00  0.00     0.000 C 
BRANCH  20  21
ATOM     21  C   UNL     1      30.164  60.073  11.191  1.00  0.00     0.000 C 
BRANCH  21  22
ATOM     22  C   UNL     1      28.816  60.805  11.109  1.00  0.00     0.000 C 
BRANCH  22  23
ATOM     23  C   UNL     1      27.916  60.269   9.983  1.00  0.00     0.000 C 
BRANCH  23  24
ATOM     24  C   UNL     1      27.388  61.381   9.064  1.00  0.00    -0.000 C 
BRANCH  24  25
ATOM     25  C   UNL     1      27.282  62.713   9.815  1.00  0.00    -0.000 C 
BRANCH  25  26
ATOM     26  C   UNL     1      27.796  63.874   8.951  1.00  0.00    -0.000 C 
BRANCH  26  27
ATOM     27  C   UNL     1      28.096  65.142   9.767  1.00  0.00    -0.000 C 
BRANCH  27  28
ATOM     28  C   UNL     1      28.869  66.221   8.978  1.00  0.00    -0.000 C 
BRANCH  28  29
ATOM     29  C   UNL     1      28.972  67.548   9.752  1.00  0.00    -0.000 C 
BRANCH  29  30
ATOM     30  C   UNL     1      28.371  68.731   8.962  1.00  0.00    -0.000 C 
BRANCH  30  31
ATOM     31  C   UNL     1      29.219  69.158   7.752  1.00  0.00    -0.003 C 
ATOM     32  C   UNL     1      30.156  70.326   8.061  1.00  0.00     0.004 C 
ENDBRANCH  30  31
ENDBRANCH  29  30
ENDBRANCH  28  29
ENDBRANCH  27  28
ENDBRANCH  26  27
ENDBRANCH  25  26
ENDBRANCH  24  25
ENDBRANCH  23  24
ENDBRANCH  22  23
ENDBRANCH  21  22
ENDBRANCH  20  21
ENDBRANCH  19  20
ENDBRANCH  18  19
ENDBRANCH   1  18
TORSDOF 28
ENDMDL
MODEL 4
REMARK VINA RESULT:    -4.553      1.265      2.682
REMARK INTER + INTRA:         -17.107
REMARK INTER:                 -12.180
REMARK INTRA:                  -4.926
REMARK UNBOUND:                -5.100
REMARK SMILES CCCCCCCCCCCCCCCCCCCCCCCCCCCCCC(=O)[O-]
REMARK SMILES IDX 16 1 17 2 18 3 19 4 20 5 21 6 22 7 23 8 24 9 25 10 26 11
REMARK SMILES IDX 27 12 28 13 29 14 30 15 31 16 32 17 15 18 14 19 13 20 12 21
REMARK SMILES IDX 11 22 10 23 9 24 8 25 7 26 6 27 5 28 4 29 3 30 2 31 1 32
REMARK H PARENT
REMARK Flexibility Score: inf
ROOT
ATOM      1  C   UNL     1      27.586  61.179   8.764  1.00  0.00     0.000 C 
ENDROOT
BRANCH   1   2
ATOM      2  C   UNL     1      26.907  60.571   7.519  1.00  0.00     0.000 C 
BRANCH   2   3
ATOM      3  C   UNL     1      27.376  61.174   6.180  1.00  0.00     0.000 C 
BRANCH   3   4
ATOM      4  C   UNL     1      28.851  61.625   6.123  1.00  0.00     0.000 C 
BRANCH   4   5
ATOM      5  C   UNL     1      29.082  63.130   5.886  1.00  0.00     0.000 C 
BRANCH   5   6
ATOM      6  C   UNL     1      28.751  63.587   4.455  1.00  0.00     0.000 C 
BRANCH   6   7
ATOM      7  C   UNL     1      29.402  64.932   4.082  1.00  0.00     0.000 C 
BRANCH   7   8
ATOM      8  C   UNL     1      28.409  66.044   3.678  1.00  0.00     0.000 C 
BRANCH   8   9
ATOM      9  C   UNL     1      28.056  67.072   4.778  1.00  0.00     0.000 C 
BRANCH   9  10
ATOM     10  C   UNL     1      28.042  66.535   6.222  1.00  0.00     0.000 C 
BRANCH  10  11
ATOM     11  C   UNL     1      26.645  66.198   6.775  1.00  0.00     0.000 C 
BRANCH  11  12
ATOM     12  C   UNL     1      25.694  65.589   5.723  1.00  0.00     0.000 C 
BRANCH  12  13
ATOM     13  C   UNL     1      25.295  64.142   6.058  1.00  0.00     0.006 C 
BRANCH  13  14
ATOM     14  C   UNL     1      24.427  64.059   7.320  1.00  0.00     0.053 C 
BRANCH  14  15
ATOM     15  C   UNL     1      22.999  63.751   6.990  1.00  0.00     0.041 C 
ATOM     16  O   UNL     1      22.162  64.683   6.854  1.00  0.00    -0.550 OA
ATOM     17  O   UNL     1      22.585  62.433   6.858  1.00  0.00    -0.550 OA
ENDBRANCH  14  15
ENDBRANCH  13  14
ENDBRANCH  12  13
ENDBRANCH  11  12
ENDBRANCH  10  11
ENDBRANCH   9  10
ENDBRANCH   8   9
ENDBRANCH   7   8
ENDBRANCH   6   7
ENDBRANCH   5   6
ENDBRANCH   4   5
ENDBRANCH   3   4
ENDBRANCH   2   3
ENDBRANCH   1   2
BRANCH   1  18
ATOM     18  C   UNL     1      27.736  60.177   9.923  1.00  0.00     0.000 C 
BRANCH  18  19
ATOM     19  C   UNL     1      28.583  60.727  11.084  1.00  0.00     0.000 C 
BRANCH  19  20
ATOM     20  C   UNL     1      30.088  60.405  10.963  1.00  0.00     0.000 C 
BRANCH  20  21
ATOM     21  C   UNL     1      30.973  61.532  11.520  1.00  0.00     0.000 C 
BRANCH  21  22
ATOM     22  C   UNL     1      31.789  62.197  10.403  1.00  0.00     0.000 C 
BRANCH  22  23
ATOM     23  C   UNL     1      30.910  62.723   9.256  1.00  0.00     0.000 C 
BRANCH  23  24
ATOM     24  C   UNL     1      31.516  63.950   8.558  1.00  0.00    -0.000 C 
BRANCH  24  25
ATOM     25  C   UNL     1      30.556  65.144   8.609  1.00  0.00    -0.000 C 
BRANCH  25  26
ATOM     26  C   UNL     1      29.449  64.915   9.649  1.00  0.00    -0.000 C 
BRANCH  26  27
ATOM     27  C   UNL     1      28.607  66.173   9.916  1.00  0.00    -0.000 C 
BRANCH  27  28
ATOM     28  C   UNL     1      29.200  67.102  10.996  1.00  0.00    -0.000 C 
BRANCH  28  29
ATOM     29  C   UNL     1      29.245  68.573  10.541  1.00  0.00    -0.000 C 
BRANCH  29  30
ATOM     30  C   UNL     1      28.553  68.782   9.177  1.00  0.00    -0.000 C 
BRANCH  30  31
ATOM     31  C   UNL     1      29.423  69.535   8.155  1.00  0.00    -0.003 C 
ATOM     32  C   UNL     1      30.602  68.706   7.648  1.00  0.00     0.004 C 
ENDBRANCH  30  31
ENDBRANCH  29  30
ENDBRANCH  28  29
ENDBRANCH  27  28
ENDBRANCH  26  27
ENDBRANCH  25  26
ENDBRANCH  24  25
ENDBRANCH  23  24
ENDBRANCH  22  23
ENDBRANCH  21  22
ENDBRANCH  20  21
ENDBRANCH  19  20
ENDBRANCH  18  19
ENDBRANCH   1  18
TORSDOF 28
ENDMDL
MODEL 5
REMARK VINA RESULT:    -4.495      1.301      3.043
REMARK INTER + INTRA:         -16.952
REMARK INTER:                 -11.342
REMARK INTRA:                  -5.610
REMARK UNBOUND:                -5.100
REMARK SMILES CCCCCCCCCCCCCCCCCCCCCCCCCCCCCC(=O)[O-]
REMARK SMILES IDX 16 1 17 2 18 3 19 4 20 5 21 6 22 7 23 8 24 9 25 10 26 11
REMARK SMILES IDX 27 12 28 13 29 14 30 15 31 16 32 17 15 18 14 19 13 20 12 21
REMARK SMILES IDX 11 22 10 23 9 24 8 25 7 26 6 27 5 28 4 29 3 30 2 31 1 32
REMARK H PARENT
REMARK Flexibility Score: inf
ROOT
ATOM      1  C   UNL     1      30.727  61.442  10.529  1.00  0.00     0.000 C 
ENDROOT
BRANCH   1   2
ATOM      2  C   UNL     1      29.193  61.597  10.583  1.00  0.00     0.000 C 
BRANCH   2   3
ATOM      3  C   UNL     1      28.650  62.819   9.815  1.00  0.00     0.000 C 
BRANCH   3   4
ATOM      4  C   UNL     1      27.296  62.621   9.101  1.00  0.00     0.000 C 
BRANCH   4   5
ATOM      5  C   UNL     1      27.122  61.284   8.355  1.00  0.00     0.000 C 
BRANCH   5   6
ATOM      6  C   UNL     1      26.580  61.442   6.924  1.00  0.00     0.000 C 
BRANCH   6   7
ATOM      7  C   UNL     1      27.631  61.135   5.841  1.00  0.00     0.000 C 
BRANCH   7   8
ATOM      8  C   UNL     1      29.008  61.795   6.068  1.00  0.00     0.000 C 
BRANCH   8   9
ATOM      9  C   UNL     1      29.276  63.098   5.278  1.00  0.00     0.000 C 
BRANCH   9  10
ATOM     10  C   UNL     1      28.246  63.447   4.187  1.00  0.00     0.000 C 
BRANCH  10  11
ATOM     11  C   UNL     1      27.277  64.587   4.549  1.00  0.00     0.000 C 
BRANCH  11  12
ATOM     12  C   UNL     1      27.442  65.101   5.996  1.00  0.00     0.000 C 
BRANCH  12  13
ATOM     13  C   UNL     1      26.095  65.246   6.725  1.00  0.00     0.006 C 
BRANCH  13  14
ATOM     14  C   UNL     1      24.945  64.592   5.950  1.00  0.00     0.053 C 
BRANCH  14  15
ATOM     15  C   UNL     1      23.818  64.203   6.858  1.00  0.00     0.041 C 
ATOM     16  O   UNL     1      24.041  63.928   8.066  1.00  0.00    -0.550 OA
ATOM     17  O   UNL     1      22.524  64.119   6.362  1.00  0.00    -0.550 OA
ENDBRANCH  14  15
ENDBRANCH  13  14
ENDBRANCH  12  13
ENDBRANCH  11  12
ENDBRANCH  10  11
ENDBRANCH   9  10
ENDBRANCH   8   9
ENDBRANCH   7   8
ENDBRANCH   6   7
ENDBRANCH   5   6
ENDBRANCH   4   5
ENDBRANCH   3   4
ENDBRANCH   2   3
ENDBRANCH   1   2
BRANCH   1  18
ATOM     18  C   UNL     1      31.464  62.775  10.315  1.00  0.00     0.000 C 
BRANCH  18  19
ATOM     19  C   UNL     1      31.854  63.464  11.635  1.00  0.00     0.000 C 
BRANCH  19  20
ATOM     20  C   UNL     1      31.751  65.004  11.588  1.00  0.00     0.000 C 
BRANCH  20  21
ATOM     21  C   UNL     1      31.726  65.629  12.991  1.00  0.00     0.000 C 
BRANCH  21  22
ATOM     22  C   UNL     1      30.978  66.970  12.986  1.00  0.00     0.000 C 
BRANCH  22  23
ATOM     23  C   UNL     1      30.683  67.481  11.566  1.00  0.00     0.000 C 
BRANCH  23  24
ATOM     24  C   UNL     1      29.187  67.736  11.325  1.00  0.00    -0.000 C 
BRANCH  24  25
ATOM     25  C   UNL     1      28.587  66.664  10.407  1.00  0.00    -0.000 C 
BRANCH  25  26
ATOM     26  C   UNL     1      28.059  67.287   9.107  1.00  0.00    -0.000 C 
BRANCH  26  27
ATOM     27  C   UNL     1      28.331  68.798   9.012  1.00  0.00    -0.000 C 
BRANCH  27  28
ATOM     28  C   UNL     1      29.272  69.190   7.853  1.00  0.00    -0.000 C 
BRANCH  28  29
ATOM     29  C   UNL     1      30.743  68.849   8.155  1.00  0.00    -0.000 C 
BRANCH  29  30
ATOM     30  C   UNL     1      31.269  67.700   7.267  1.00  0.00    -0.000 C 
BRANCH  30  31
ATOM     31  C   UNL     1      31.704  66.457   8.063  1.00  0.00    -0.003 C 
ATOM     32  C   UNL     1      30.785  65.256   7.843  1.00  0.00     0.004 C 
ENDBRANCH  30  31
ENDBRANCH  29  30
ENDBRANCH  28  29
ENDBRANCH  27  28
ENDBRANCH  26  27
ENDBRANCH  25  26
ENDBRANCH  24  25
ENDBRANCH  23  24
ENDBRANCH  22  23
ENDBRANCH  21  22
ENDBRANCH  20  21
ENDBRANCH  19  20
ENDBRANCH  18  19
ENDBRANCH   1  18
TORSDOF 28
ENDMDL
MODEL 6
REMARK VINA RESULT:    -4.436      1.321      2.068
REMARK INTER + INTRA:         -16.797
REMARK INTER:                 -10.711
REMARK INTRA:                  -6.086
REMARK UNBOUND:                -5.100
REMARK SMILES CCCCCCCCCCCCCCCCCCCCCCCCCCCCCC(=O)[O-]
REMARK SMILES IDX 16 1 17 2 18 3 19 4 20 5 21 6 22 7 23 8 24 9 25 10 26 11
REMARK SMILES IDX 27 12 28 13 29 14 30 15 31 16 32 17 15 18 14 19 13 20 12 21
REMARK SMILES IDX 11 22 10 23 9 24 8 25 7 26 6 27 5 28 4 29 3 30 2 31 1 32
REMARK H PARENT
REMARK Flexibility Score: inf
ROOT
ATOM      1  C   UNL     1      29.734  62.375   9.751  1.00  0.00     0.000 C 
ENDROOT
BRANCH   1   2
ATOM      2  C   UNL     1      28.362  63.051   9.545  1.00  0.00     0.000 C 
BRANCH   2   3
ATOM      3  C   UNL     1      27.183  62.067   9.405  1.00  0.00     0.000 C 
BRANCH   3   4
ATOM      4  C   UNL     1      27.366  60.937   8.369  1.00  0.00     0.000 C 
BRANCH   4   5
ATOM      5  C   UNL     1      26.727  61.184   6.989  1.00  0.00     0.000 C 
BRANCH   5   6
ATOM      6  C   UNL     1      27.745  61.228   5.837  1.00  0.00     0.000 C 
BRANCH   6   7
ATOM      7  C   UNL     1      29.148  61.680   6.283  1.00  0.00     0.000 C 
BRANCH   7   8
ATOM      8  C   UNL     1      29.651  62.982   5.622  1.00  0.00     0.000 C 
BRANCH   8   9
ATOM      9  C   UNL     1      28.893  64.274   6.003  1.00  0.00     0.000 C 
BRANCH   9  10
ATOM     10  C   UNL     1      27.772  64.707   5.039  1.00  0.00     0.000 C 
BRANCH  10  11
ATOM     11  C   UNL     1      27.032  65.996   5.440  1.00  0.00     0.000 C 
BRANCH  11  12
ATOM     12  C   UNL     1      25.602  65.749   5.966  1.00  0.00     0.000 C 
BRANCH  12  13
ATOM     13  C   UNL     1      25.374  64.287   6.388  1.00  0.00     0.006 C 
BRANCH  13  14
ATOM     14  C   UNL     1      24.543  64.180   7.673  1.00  0.00     0.053 C 
BRANCH  14  15
ATOM     15  C   UNL     1      23.118  63.824   7.381  1.00  0.00     0.041 C 
ATOM     16  O   UNL     1      22.844  62.797   6.705  1.00  0.00    -0.550 OA
ATOM     17  O   UNL     1      22.091  64.643   7.832  1.00  0.00    -0.550 OA
ENDBRANCH  14  15
ENDBRANCH  13  14
ENDBRANCH  12  13
ENDBRANCH  11  12
ENDBRANCH  10  11
ENDBRANCH   9  10
ENDBRANCH   8   9
ENDBRANCH   7   8
ENDBRANCH   6   7
ENDBRANCH   5   6
ENDBRANCH   4   5
ENDBRANCH   3   4
ENDBRANCH   2   3
ENDBRANCH   1   2
BRANCH   1  18
ATOM     18  C   UNL     1      30.790  63.318  10.355  1.00  0.00     0.000 C 
BRANCH  18  19
ATOM     19  C   UNL     1      31.788  63.847   9.311  1.00  0.00     0.000 C 
BRANCH  19  20
ATOM     20  C   UNL     1      31.213  64.961   8.409  1.00  0.00     0.000 C 
BRANCH  20  21
ATOM     21  C   UNL     1      32.244  66.061   8.113  1.00  0.00     0.000 C 
BRANCH  21  22
ATOM     22  C   UNL     1      31.670  67.116   7.156  1.00  0.00     0.000 C 
BRANCH  22  23
ATOM     23  C   UNL     1      30.697  68.082   7.851  1.00  0.00     0.000 C 
BRANCH  23  24
ATOM     24  C   UNL     1      29.273  68.007   7.277  1.00  0.00    -0.000 C 
BRANCH  24  25
ATOM     25  C   UNL     1      28.225  68.065   8.394  1.00  0.00    -0.000 C 
BRANCH  25  26
ATOM     26  C   UNL     1      28.040  66.687   9.046  1.00  0.00    -0.000 C 
BRANCH  26  27
ATOM     27  C   UNL     1      28.667  66.597  10.446  1.00  0.00    -0.000 C 
BRANCH  27  28
ATOM     28  C   UNL     1      29.003  67.969  11.068  1.00  0.00    -0.000 C 
BRANCH  28  29
ATOM     29  C   UNL     1      30.403  67.994  11.709  1.00  0.00    -0.000 C 
BRANCH  29  30
ATOM     30  C   UNL     1      30.920  66.575  12.032  1.00  0.00    -0.000 C 
BRANCH  30  31
ATOM     31  C   UNL     1      32.429  66.399  11.786  1.00  0.00    -0.003 C 
ATOM     32  C   UNL     1      33.121  67.697  11.371  1.00  0.00     0.004 C 
ENDBRANCH  30  31
ENDBRANCH  29  30
ENDBRANCH  28  29
ENDBRANCH  27  28
ENDBRANCH  26  27
ENDBRANCH  25  26
ENDBRANCH  24  25
ENDBRANCH  23  24
ENDBRANCH  22  23
ENDBRANCH  21  22
ENDBRANCH  20  21
ENDBRANCH  19  20
ENDBRANCH  18  19
ENDBRANCH   1  18
TORSDOF 28
ENDMDL
MODEL 7
REMARK VINA RESULT:    -4.428      1.334      2.265
REMARK INTER + INTRA:         -16.776
REMARK INTER:                 -10.777
REMARK INTRA:                  -5.998
REMARK UNBOUND:                -5.100
REMARK SMILES CCCCCCCCCCCCCCCCCCCCCCCCCCCCCC(=O)[O-]
REMARK SMILES IDX 16 1 17 2 18 3 19 4 20 5 21 6 22 7 23 8 24 9 25 10 26 11
REMARK SMILES IDX 27 12 28 13 29 14 30 15 31 16 32 17 15 18 14 19 13 20 12 21
REMARK SMILES IDX 11 22 10 23 9 24 8 25 7 26 6 27 5 28 4 29 3 30 2 31 1 32
REMARK H PARENT
REMARK Flexibility Score: inf
ROOT
ATOM      1  C   UNL     1      30.634  60.906  10.313  1.00  0.00     0.000 C 
ENDROOT
BRANCH   1   2
ATOM      2  C   UNL     1      29.433  59.990  10.628  1.00  0.00     0.000 C 
BRANCH   2   3
ATOM      3  C   UNL     1      28.165  60.737  11.086  1.00  0.00     0.000 C 
BRANCH   3   4
ATOM      4  C   UNL     1      27.742  61.942  10.221  1.00  0.00     0.000 C 
BRANCH   4   5
ATOM      5  C   UNL     1      27.698  61.693   8.701  1.00  0.00     0.000 C 
BRANCH   5   6
ATOM      6  C   UNL     1      27.936  62.960   7.861  1.00  0.00     0.000 C 
BRANCH   6   7
ATOM      7  C   UNL     1      28.982  62.762   6.749  1.00  0.00     0.000 C 
BRANCH   7   8
ATOM      8  C   UNL     1      28.634  63.437   5.404  1.00  0.00     0.000 C 
BRANCH   8   9
ATOM      9  C   UNL     1      29.390  64.748   5.087  1.00  0.00     0.000 C 
BRANCH   9  10
ATOM     10  C   UNL     1      28.801  66.030   5.705  1.00  0.00     0.000 C 
BRANCH  10  11
ATOM     11  C   UNL     1      27.448  66.472   5.118  1.00  0.00     0.000 C 
BRANCH  11  12
ATOM     12  C   UNL     1      26.259  66.256   6.077  1.00  0.00     0.000 C 
BRANCH  12  13
ATOM     13  C   UNL     1      25.133  65.423   5.441  1.00  0.00     0.006 C 
BRANCH  13  14
ATOM     14  C   UNL     1      24.958  64.065   6.133  1.00  0.00     0.053 C 
BRANCH  14  15
ATOM     15  C   UNL     1      23.881  64.110   7.173  1.00  0.00     0.041 C 
ATOM     16  O   UNL     1      24.166  63.958   8.391  1.00  0.00    -0.550 OA
ATOM     17  O   UNL     1      22.558  64.293   6.796  1.00  0.00    -0.550 OA
ENDBRANCH  14  15
ENDBRANCH  13  14
ENDBRANCH  12  13
ENDBRANCH  11  12
ENDBRANCH  10  11
ENDBRANCH   9  10
ENDBRANCH   8   9
ENDBRANCH   7   8
ENDBRANCH   6   7
ENDBRANCH   5   6
ENDBRANCH   4   5
ENDBRANCH   3   4
ENDBRANCH   2   3
ENDBRANCH   1   2
BRANCH   1  18
ATOM     18  C   UNL     1      31.143  61.682  11.542  1.00  0.00     0.000 C 
BRANCH  18  19
ATOM     19  C   UNL     1      31.384  63.174  11.250  1.00  0.00     0.000 C 
BRANCH  19  20
ATOM     20  C   UNL     1      30.883  63.625   9.861  1.00  0.00     0.000 C 
BRANCH  20  21
ATOM     21  C   UNL     1      31.980  64.327   9.045  1.00  0.00     0.000 C 
BRANCH  21  22
ATOM     22  C   UNL     1      31.384  65.401   8.123  1.00  0.00     0.000 C 
BRANCH  22  23
ATOM     23  C   UNL     1      31.893  66.814   8.450  1.00  0.00     0.000 C 
BRANCH  23  24
ATOM     24  C   UNL     1      31.378  67.874   7.464  1.00  0.00    -0.000 C 
BRANCH  24  25
ATOM     25  C   UNL     1      30.742  69.055   8.207  1.00  0.00    -0.000 C 
BRANCH  25  26
ATOM     26  C   UNL     1      29.241  69.154   7.898  1.00  0.00    -0.000 C 
BRANCH  26  27
ATOM     27  C   UNL     1      28.355  68.750   9.087  1.00  0.00    -0.000 C 
BRANCH  27  28
ATOM     28  C   UNL     1      27.939  67.264   9.077  1.00  0.00    -0.000 C 
BRANCH  28  29
ATOM     29  C   UNL     1      28.549  66.477  10.252  1.00  0.00    -0.000 C 
BRANCH  29  30
ATOM     30  C   UNL     1      29.304  67.395  11.237  1.00  0.00    -0.000 C 
BRANCH  30  31
ATOM     31  C   UNL     1      30.510  66.716  11.911  1.00  0.00    -0.003 C 
ATOM     32  C   UNL     1      31.769  67.582  11.894  1.00  0.00     0.004 C 
ENDBRANCH  30  31
ENDBRANCH  29  30
ENDBRANCH  28  29
ENDBRANCH  27  28
ENDBRANCH  26  27
ENDBRANCH  25  26
ENDBRANCH  24  25
ENDBRANCH  23  24
ENDBRANCH  22  23
ENDBRANCH  21  22
ENDBRANCH  20  21
ENDBRANCH  19  20
ENDBRANCH  18  19
ENDBRANCH   1  18
TORSDOF 28
ENDMDL
MODEL 8
REMARK VINA RESULT:    -4.424      1.265      3.158
REMARK INTER + INTRA:         -16.767
REMARK INTER:                 -11.432
REMARK INTRA:                  -5.335
REMARK UNBOUND:                -5.100
REMARK SMILES CCCCCCCCCCCCCCCCCCCCCCCCCCCCCC(=O)[O-]
REMARK SMILES IDX 16 1 17 2 18 3 19 4 20 5 21 6 22 7 23 8 24 9 25 10 26 11
REMARK SMILES IDX 27 12 28 13 29 14 30 15 31 16 32 17 15 18 14 19 13 20 12 21
REMARK SMILES IDX 11 22 10 23 9 24 8 25 7 26 6 27 5 28 4 29 3 30 2 31 1 32
REMARK H PARENT
REMARK Flexibility Score: inf
ROOT
ATOM      1  C   UNL     1      27.469  61.639   5.907  1.00  0.00     0.000 C 
ENDROOT
BRANCH   1   2
ATOM      2  C   UNL     1      28.988  61.620   6.176  1.00  0.00     0.000 C 
BRANCH   2   3
ATOM      3  C   UNL     1      29.811  62.533   5.246  1.00  0.00     0.000 C 
BRANCH   3   4
ATOM      4  C   UNL     1      30.568  61.825   4.102  1.00  0.00     0.000 C 
BRANCH   4   5
ATOM      5  C   UNL     1      30.088  62.156   2.676  1.00  0.00     0.000 C 
BRANCH   5   6
ATOM      6  C   UNL     1      28.595  61.865   2.444  1.00  0.00     0.000 C 
BRANCH   6   7
ATOM      7  C   UNL     1      27.794  63.108   2.016  1.00  0.00     0.000 C 
BRANCH   7   8
ATOM      8  C   UNL     1      28.583  64.435   2.060  1.00  0.00     0.000 C 
BRANCH   8   9
ATOM      9  C   UNL     1      28.162  65.439   3.158  1.00  0.00     0.000 C 
BRANCH   9  10
ATOM     10  C   UNL     1      27.052  64.964   4.116  1.00  0.00     0.000 C 
BRANCH  10  11
ATOM     11  C   UNL     1      26.138  66.079   4.655  1.00  0.00     0.000 C 
BRANCH  11  12
ATOM     12  C   UNL     1      24.991  65.560   5.547  1.00  0.00     0.000 C 
BRANCH  12  13
ATOM     13  C   UNL     1      25.376  64.288   6.320  1.00  0.00     0.006 C 
BRANCH  13  14
ATOM     14  C   UNL     1      24.544  64.114   7.597  1.00  0.00     0.053 C 
BRANCH  14  15
ATOM     15  C   UNL     1      23.127  63.741   7.287  1.00  0.00     0.041 C 
ATOM     16  O   UNL     1      22.849  62.582   6.880  1.00  0.00    -0.550 OA
ATOM     17  O   UNL     1      22.115  64.682   7.423  1.00  0.00    -0.550 OA
ENDBRANCH  14  15
ENDBRANCH  13  14
ENDBRANCH  12  13
ENDBRANCH  11  12
ENDBRANCH  10  11
ENDBRANCH   9  10
ENDBRANCH   8   9
ENDBRANCH   7   8
ENDBRANCH   6   7
ENDBRANCH   5   6
ENDBRANCH   4   5
ENDBRANCH   3   4
ENDBRANCH   2   3
ENDBRANCH   1   2
BRANCH   1  18
ATOM     18  C   UNL     1      26.652  60.907   6.987  1.00  0.00     0.000 C 
BRANCH  18  19
ATOM     19  C   UNL     1      27.502  60.486   8.198  1.00  0.00     0.000 C 
BRANCH  19  20
ATOM     20  C   UNL     1      27.333  61.406   9.427  1.00  0.00     0.000 C 
BRANCH  20  21
ATOM     21  C   UNL     1      28.396  61.141  10.504  1.00  0.00     0.000 C 
BRANCH  21  22
ATOM     22  C   UNL     1      29.814  61.288   9.931  1.00  0.00     0.000 C 
BRANCH  22  23
ATOM     23  C   UNL     1      30.444  62.654  10.248  1.00  0.00     0.000 C 
BRANCH  23  24
ATOM     24  C   UNL     1      29.556  63.832   9.821  1.00  0.00    -0.000 C 
BRANCH  24  25
ATOM     25  C   UNL     1      29.958  64.353   8.436  1.00  0.00    -0.000 C 
BRANCH  25  26
ATOM     26  C   UNL     1      28.772  65.036   7.740  1.00  0.00    -0.000 C 
BRANCH  26  27
ATOM     27  C   UNL     1      29.208  66.074   6.693  1.00  0.00    -0.000 C 
BRANCH  27  28
ATOM     28  C   UNL     1      28.962  67.535   7.126  1.00  0.00    -0.000 C 
BRANCH  28  29
ATOM     29  C   UNL     1      28.077  67.631   8.383  1.00  0.00    -0.000 C 
BRANCH  29  30
ATOM     30  C   UNL     1      28.352  68.917   9.193  1.00  0.00    -0.000 C 
BRANCH  30  31
ATOM     31  C   UNL     1      29.137  68.668  10.493  1.00  0.00    -0.003 C 
ATOM     32  C   UNL     1      29.191  67.192  10.885  1.00  0.00     0.004 C 
ENDBRANCH  30  31
ENDBRANCH  29  30
ENDBRANCH  28  29
ENDBRANCH  27  28
ENDBRANCH  26  27
ENDBRANCH  25  26
ENDBRANCH  24  25
ENDBRANCH  23  24
ENDBRANCH  22  23
ENDBRANCH  21  22
ENDBRANCH  20  21
ENDBRANCH  19  20
ENDBRANCH  18  19
ENDBRANCH   1  18
TORSDOF 28
ENDMDL
MODEL 9
REMARK VINA RESULT:    -4.410      1.424      2.603
REMARK INTER + INTRA:         -16.728
REMARK INTER:                 -10.952
REMARK INTRA:                  -5.776
REMARK UNBOUND:                -5.100
REMARK SMILES CCCCCCCCCCCCCCCCCCCCCCCCCCCCCC(=O)[O-]
REMARK SMILES IDX 16 1 17 2 18 3 19 4 20 5 21 6 22 7 23 8 24 9 25 10 26 11
REMARK SMILES IDX 27 12 28 13 29 14 30 15 31 16 32 17 15 18 14 19 13 20 12 21
REMARK SMILES IDX 11 22 10 23 9 24 8 25 7 26 6 27 5 28 4 29 3 30 2 31 1 32
REMARK H PARENT
REMARK Flexibility Score: inf
ROOT
ATOM      1  C   UNL     1      28.888  60.721  11.443  1.00  0.00     0.000 C 
ENDROOT
BRANCH   1   2
ATOM      2  C   UNL     1      27.762  61.257  10.535  1.00  0.00     0.000 C 
BRANCH   2   3
ATOM      3  C   UNL     1      28.149  61.381   9.047  1.00  0.00     0.000 C 
BRANCH   3   4
ATOM      4  C   UNL     1      27.277  60.586   8.054  1.00  0.00     0.000 C 
BRANCH   4   5
ATOM      5  C   UNL     1      26.726  61.385   6.858  1.00  0.00     0.000 C 
BRANCH   5   6
ATOM      6  C   UNL     1      27.556  61.224   5.573  1.00  0.00     0.000 C 
BRANCH   6   7
ATOM      7  C   UNL     1      27.977  62.569   4.951  1.00  0.00     0.000 C 
BRANCH   7   8
ATOM      8  C   UNL     1      29.070  63.331   5.733  1.00  0.00     0.000 C 
BRANCH   8   9
ATOM      9  C   UNL     1      28.686  64.742   6.235  1.00  0.00     0.000 C 
BRANCH   9  10
ATOM     10  C   UNL     1      28.025  64.805   7.625  1.00  0.00     0.000 C 
BRANCH  10  11
ATOM     11  C   UNL     1      26.657  65.510   7.662  1.00  0.00     0.000 C 
BRANCH  11  12
ATOM     12  C   UNL     1      26.014  65.684   6.270  1.00  0.00     0.000 C 
BRANCH  12  13
ATOM     13  C   UNL     1      24.979  64.589   5.958  1.00  0.00     0.006 C 
BRANCH  13  14
ATOM     14  C   UNL     1      24.491  63.878   7.226  1.00  0.00     0.053 C 
BRANCH  14  15
ATOM     15  C   UNL     1      23.015  63.628   7.186  1.00  0.00     0.041 C 
ATOM     16  O   UNL     1      22.206  64.551   7.471  1.00  0.00    -0.550 OA
ATOM     17  O   UNL     1      22.532  62.368   6.862  1.00  0.00    -0.550 OA
ENDBRANCH  14  15
ENDBRANCH  13  14
ENDBRANCH  12  13
ENDBRANCH  11  12
ENDBRANCH  10  11
ENDBRANCH   9  10
ENDBRANCH   8   9
ENDBRANCH   7   8
ENDBRANCH   6   7
ENDBRANCH   5   6
ENDBRANCH   4   5
ENDBRANCH   3   4
ENDBRANCH   2   3
ENDBRANCH   1   2
BRANCH   1  18
ATOM     18  C   UNL     1      30.273  60.748  10.773  1.00  0.00     0.000 C 
BRANCH  18  19
ATOM     19  C   UNL     1      31.360  61.367  11.670  1.00  0.00     0.000 C 
BRANCH  19  20
ATOM     20  C   UNL     1      31.576  62.878  11.435  1.00  0.00     0.000 C 
BRANCH  20  21
ATOM     21  C   UNL     1      31.067  63.332  10.057  1.00  0.00     0.000 C 
BRANCH  21  22
ATOM     22  C   UNL     1      30.345  64.684  10.151  1.00  0.00     0.000 C 
BRANCH  22  23
ATOM     23  C   UNL     1      31.007  65.642  11.155  1.00  0.00     0.000 C 
BRANCH  23  24
ATOM     24  C   UNL     1      30.207  66.939  11.354  1.00  0.00    -0.000 C 
BRANCH  24  25
ATOM     25  C   UNL     1      28.883  66.895  10.582  1.00  0.00    -0.000 C 
BRANCH  25  26
ATOM     26  C   UNL     1      28.676  68.183   9.773  1.00  0.00    -0.000 C 
BRANCH  26  27
ATOM     27  C   UNL     1      29.300  68.116   8.369  1.00  0.00    -0.000 C 
BRANCH  27  28
ATOM     28  C   UNL     1      30.647  68.861   8.250  1.00  0.00    -0.000 C 
BRANCH  28  29
ATOM     29  C   UNL     1      31.837  67.896   8.105  1.00  0.00    -0.000 C 
BRANCH  29  30
ATOM     30  C   UNL     1      31.653  66.916   6.925  1.00  0.00    -0.000 C 
BRANCH  30  31
ATOM     31  C   UNL     1      32.233  65.516   7.191  1.00  0.00    -0.003 C 
ATOM     32  C   UNL     1      33.421  65.535   8.152  1.00  0.00     0.004 C 
ENDBRANCH  30  31
ENDBRANCH  29  30
ENDBRANCH  28  29
ENDBRANCH  27  28
ENDBRANCH  26  27
ENDBRANCH  25  26
ENDBRANCH  24  25
ENDBRANCH  23  24
ENDBRANCH  22  23
ENDBRANCH  21  22
ENDBRANCH  20  21
ENDBRANCH  19  20
ENDBRANCH  18  19
ENDBRANCH   1  18
TORSDOF 28
ENDMDL
