MODEL 1
REMARK VINA RESULT:    -5.096      0.000      0.000
REMARK INTER + INTRA:          -5.394
REMARK INTER:                  -5.394
REMARK INTRA:                   0.000
REMARK UNBOUND:                 0.000
REMARK SMILES O=c1ccc2cc(O)c(O)cc2o1
REMARK SMILES IDX 4 1 3 2 2 3 1 4 13 5 12 6 11 7 9 8 7 9 6 10 5 11 8 12 10 14
REMARK H PARENT 8 13 10 15
REMARK Flexibility Score: inf
ROOT
ATOM      1  C   UNL     1      33.328 -46.714  42.929  1.00  0.00     0.019 A 
ATOM      2  C   UNL     1      32.944 -47.907  42.318  1.00  0.00     0.094 A 
ATOM      3  C   UNL     1      31.826 -47.908  41.477  1.00  0.00     0.336 A 
ATOM      4  O   UNL     1      31.463 -48.974  40.915  1.00  0.00    -0.246 OA
ATOM      5  O   UNL     1      31.142 -46.787  41.264  1.00  0.00    -0.423 OA
ATOM      6  C   UNL     1      31.474 -45.627  41.828  1.00  0.00     0.142 A 
ATOM      7  C   UNL     1      30.717 -44.481  41.567  1.00  0.00     0.098 A 
ATOM      8  C   UNL     1      31.064 -43.256  42.158  1.00  0.00     0.161 A 
ATOM      9  C   UNL     1      32.173 -43.180  43.013  1.00  0.00     0.158 A 
ATOM     10  C   UNL     1      32.936 -44.327  43.278  1.00  0.00     0.062 A 
ATOM     11  C   UNL     1      32.591 -45.551  42.689  1.00  0.00     0.022 A 
ENDROOT
BRANCH   9  12
ATOM     12  O   UNL     1      32.511 -41.960  43.597  1.00  0.00    -0.504 OA
ATOM     13  H   UNL     1      33.446 -41.578  43.525  1.00  0.00     0.293 HD
ENDBRANCH   9  12
BRANCH   8  14
ATOM     14  O   UNL     1      30.312 -42.113  41.901  1.00  0.00    -0.504 OA
ATOM     15  H   UNL     1      29.333 -42.052  42.160  1.00  0.00     0.293 HD
ENDBRANCH   8  14
TORSDOF 2
ENDMDL
MODEL 2
REMARK VINA RESULT:    -4.883     12.262     13.622
REMARK INTER + INTRA:          -5.169
REMARK INTER:                  -5.169
REMARK INTRA:                   0.000
REMARK UNBOUND:                 0.000
REMARK SMILES O=c1ccc2cc(O)c(O)cc2o1
REMARK SMILES IDX 4 1 3 2 2 3 1 4 13 5 12 6 11 7 9 8 7 9 6 10 5 11 8 12 10 14
REMARK H PARENT 8 13 10 15
REMARK Flexibility Score: inf
ROOT
ATOM      1  C   UNL     1      38.284 -46.427  29.375  1.00  0.00     0.019 A 
ATOM      2  C   UNL     1      39.615 -46.277  29.763  1.00  0.00     0.094 A 
ATOM      3  C   UNL     1      40.083 -46.991  30.871  1.00  0.00     0.336 A 
ATOM      4  O   UNL     1      41.281 -46.870  31.237  1.00  0.00    -0.246 OA
ATOM      5  O   UNL     1      39.268 -47.799  31.544  1.00  0.00    -0.423 OA
ATOM      6  C   UNL     1      37.991 -47.971  31.209  1.00  0.00     0.142 A 
ATOM      7  C   UNL     1      37.182 -48.834  31.953  1.00  0.00     0.098 A 
ATOM      8  C   UNL     1      35.836 -49.018  31.603  1.00  0.00     0.161 A 
ATOM      9  C   UNL     1      35.298 -48.335  30.503  1.00  0.00     0.158 A 
ATOM     10  C   UNL     1      36.105 -47.468  29.751  1.00  0.00     0.062 A 
ATOM     11  C   UNL     1      37.450 -47.282  30.100  1.00  0.00     0.022 A 
ENDROOT
BRANCH   9  12
ATOM     12  O   UNL     1      33.960 -48.523  30.162  1.00  0.00    -0.504 OA
ATOM     13  H   UNL     1      33.209 -48.191  30.755  1.00  0.00     0.293 HD
ENDBRANCH   9  12
BRANCH   8  14
ATOM     14  O   UNL     1      35.027 -49.877  32.343  1.00  0.00    -0.504 OA
ATOM     15  H   UNL     1      35.413 -50.483  33.059  1.00  0.00     0.293 HD
ENDBRANCH   8  14
TORSDOF 2
ENDMDL
MODEL 3
REMARK VINA RESULT:    -4.882     10.517     12.339
REMARK INTER + INTRA:          -5.167
REMARK INTER:                  -5.167
REMARK INTRA:                   0.000
REMARK UNBOUND:                 0.000
REMARK SMILES O=c1ccc2cc(O)c(O)cc2o1
REMARK SMILES IDX 4 1 3 2 2 3 1 4 13 5 12 6 11 7 9 8 7 9 6 10 5 11 8 12 10 14
REMARK H PARENT 8 13 10 15
REMARK Flexibility Score: inf
ROOT
ATOM      1  C   UNL     1      32.859 -38.055  32.362  1.00  0.00     0.019 A 
ATOM      2  C   UNL     1      32.906 -36.938  31.529  1.00  0.00     0.094 A 
ATOM      3  C   UNL     1      31.753 -36.162  31.371  1.00  0.00     0.336 A 
ATOM      4  O   UNL     1      31.776 -35.149  30.624  1.00  0.00    -0.246 OA
ATOM      5  O   UNL     1      30.630 -36.486  32.006  1.00  0.00    -0.423 OA
ATOM      6  C   UNL     1      30.542 -37.543  32.810  1.00  0.00     0.142 A 
ATOM      7  C   UNL     1      29.334 -37.835  33.452  1.00  0.00     0.098 A 
ATOM      8  C   UNL     1      29.236 -38.949  34.299  1.00  0.00     0.161 A 
ATOM      9  C   UNL     1      30.352 -39.773  34.506  1.00  0.00     0.158 A 
ATOM     10  C   UNL     1      31.567 -39.485  33.865  1.00  0.00     0.062 A 
ATOM     11  C   UNL     1      31.666 -38.373  33.017  1.00  0.00     0.022 A 
ENDROOT
BRANCH   9  12
ATOM     12  O   UNL     1      30.247 -40.878  35.350  1.00  0.00    -0.504 OA
ATOM     13  H   UNL     1      31.048 -41.241  35.850  1.00  0.00     0.293 HD
ENDBRANCH   9  12
BRANCH   8  14
ATOM     14  O   UNL     1      28.035 -39.243  34.940  1.00  0.00    -0.504 OA
ATOM     15  H   UNL     1      27.832 -38.897  35.871  1.00  0.00     0.293 HD
ENDBRANCH   8  14
TORSDOF 2
ENDMDL
MODEL 4
REMARK VINA RESULT:    -4.863     10.469     12.284
REMARK INTER + INTRA:          -5.148
REMARK INTER:                  -5.148
REMARK INTRA:                   0.000
REMARK UNBOUND:                 0.000
REMARK SMILES O=c1ccc2cc(O)c(O)cc2o1
REMARK SMILES IDX 4 1 3 2 2 3 1 4 13 5 12 6 11 7 9 8 7 9 6 10 5 11 8 12 10 14
REMARK H PARENT 8 13 10 15
REMARK Flexibility Score: inf
ROOT
ATOM      1  C   UNL     1      30.803 -36.442  31.964  1.00  0.00     0.019 A 
ATOM      2  C   UNL     1      32.032 -36.251  31.333  1.00  0.00     0.094 A 
ATOM      3  C   UNL     1      33.062 -37.169  31.564  1.00  0.00     0.336 A 
ATOM      4  O   UNL     1      34.178 -37.015  31.004  1.00  0.00    -0.246 OA
ATOM      5  O   UNL     1      32.870 -38.208  32.374  1.00  0.00    -0.423 OA
ATOM      6  C   UNL     1      31.714 -38.426  32.996  1.00  0.00     0.142 A 
ATOM      7  C   UNL     1      31.570 -39.535  33.835  1.00  0.00     0.098 A 
ATOM      8  C   UNL     1      30.353 -39.770  34.493  1.00  0.00     0.161 A 
ATOM      9  C   UNL     1      29.276 -38.891  34.309  1.00  0.00     0.158 A 
ATOM     10  C   UNL     1      29.414 -37.777  33.467  1.00  0.00     0.062 A 
ATOM     11  C   UNL     1      30.629 -37.541  32.810  1.00  0.00     0.022 A 
ENDROOT
BRANCH   9  12
ATOM     12  O   UNL     1      28.070 -39.131  34.966  1.00  0.00    -0.504 OA
ATOM     13  H   UNL     1      27.289 -38.491  34.891  1.00  0.00     0.293 HD
ENDBRANCH   9  12
BRANCH   8  14
ATOM     14  O   UNL     1      30.207 -40.873  35.330  1.00  0.00    -0.504 OA
ATOM     15  H   UNL     1      30.012 -41.798  34.961  1.00  0.00     0.293 HD
ENDBRANCH   8  14
TORSDOF 2
ENDMDL
MODEL 5
REMARK VINA RESULT:    -4.860      1.173      2.268
REMARK INTER + INTRA:          -5.144
REMARK INTER:                  -5.144
REMARK INTRA:                   0.000
REMARK UNBOUND:                 0.000
REMARK SMILES O=c1ccc2cc(O)c(O)cc2o1
REMARK SMILES IDX 4 1 3 2 2 3 1 4 13 5 12 6 11 7 9 8 7 9 6 10 5 11 8 12 10 14
REMARK H PARENT 8 13 10 15
REMARK Flexibility Score: inf
ROOT
ATOM      1  C   UNL     1      31.025 -46.944  41.413  1.00  0.00     0.019 A 
ATOM      2  C   UNL     1      31.811 -48.051  41.732  1.00  0.00     0.094 A 
ATOM      3  C   UNL     1      32.937 -47.870  42.542  1.00  0.00     0.336 A 
ATOM      4  O   UNL     1      33.660 -48.856  42.843  1.00  0.00    -0.246 OA
ATOM      5  O   UNL     1      33.251 -46.660  42.999  1.00  0.00    -0.423 OA
ATOM      6  C   UNL     1      32.529 -45.578  42.717  1.00  0.00     0.142 A 
ATOM      7  C   UNL     1      32.908 -44.332  43.226  1.00  0.00     0.098 A 
ATOM      8  C   UNL     1      32.149 -43.189  42.932  1.00  0.00     0.161 A 
ATOM      9  C   UNL     1      31.006 -43.295  42.126  1.00  0.00     0.158 A 
ATOM     10  C   UNL     1      30.620 -44.543  41.614  1.00  0.00     0.062 A 
ATOM     11  C   UNL     1      31.378 -45.685  41.906  1.00  0.00     0.022 A 
ENDROOT
BRANCH   9  12
ATOM     12  O   UNL     1      30.257 -42.154  41.839  1.00  0.00    -0.504 OA
ATOM     13  H   UNL     1      29.586 -42.138  41.081  1.00  0.00     0.293 HD
ENDBRANCH   9  12
BRANCH   8  14
ATOM     14  O   UNL     1      32.524 -41.946  43.437  1.00  0.00    -0.504 OA
ATOM     15  H   UNL     1      32.750 -41.172  42.823  1.00  0.00     0.293 HD
ENDBRANCH   8  14
TORSDOF 2
ENDMDL
MODEL 6
REMARK VINA RESULT:    -4.677      9.592     10.985
REMARK INTER + INTRA:          -4.950
REMARK INTER:                  -4.950
REMARK INTRA:                   0.000
REMARK UNBOUND:                 0.000
REMARK SMILES O=c1ccc2cc(O)c(O)cc2o1
REMARK SMILES IDX 4 1 3 2 2 3 1 4 13 5 12 6 11 7 9 8 7 9 6 10 5 11 8 12 10 14
REMARK H PARENT 8 13 10 15
REMARK Flexibility Score: inf
ROOT
ATOM      1  C   UNL     1      33.291 -36.749  34.536  1.00  0.00     0.019 A 
ATOM      2  C   UNL     1      34.378 -37.026  33.708  1.00  0.00     0.094 A 
ATOM      3  C   UNL     1      34.412 -38.244  33.021  1.00  0.00     0.336 A 
ATOM      4  O   UNL     1      35.384 -38.514  32.268  1.00  0.00    -0.246 OA
ATOM      5  O   UNL     1      33.421 -39.122  33.156  1.00  0.00    -0.423 OA
ATOM      6  C   UNL     1      32.367 -38.897  33.936  1.00  0.00     0.142 A 
ATOM      7  C   UNL     1      31.355 -39.857  34.039  1.00  0.00     0.098 A 
ATOM      8  C   UNL     1      30.241 -39.623  34.859  1.00  0.00     0.161 A 
ATOM      9  C   UNL     1      30.139 -38.424  35.579  1.00  0.00     0.158 A 
ATOM     10  C   UNL     1      31.151 -37.456  35.479  1.00  0.00     0.062 A 
ATOM     11  C   UNL     1      32.265 -37.689  34.660  1.00  0.00     0.022 A 
ENDROOT
BRANCH   9  12
ATOM     12  O   UNL     1      29.030 -38.199  36.392  1.00  0.00    -0.504 OA
ATOM     13  H   UNL     1      28.103 -38.073  36.003  1.00  0.00     0.293 HD
ENDBRANCH   9  12
BRANCH   8  14
ATOM     14  O   UNL     1      29.232 -40.577  34.965  1.00  0.00    -0.504 OA
ATOM     15  H   UNL     1      28.866 -41.054  34.148  1.00  0.00     0.293 HD
ENDBRANCH   8  14
TORSDOF 2
ENDMDL
MODEL 7
REMARK VINA RESULT:    -4.658      9.898     11.518
REMARK INTER + INTRA:          -4.931
REMARK INTER:                  -4.931
REMARK INTRA:                   0.000
REMARK UNBOUND:                 0.000
REMARK SMILES O=c1ccc2cc(O)c(O)cc2o1
REMARK SMILES IDX 4 1 3 2 2 3 1 4 13 5 12 6 11 7 9 8 7 9 6 10 5 11 8 12 10 14
REMARK H PARENT 8 13 10 15
REMARK Flexibility Score: inf
ROOT
ATOM      1  C   UNL     1      30.511 -36.586  33.576  1.00  0.00     0.019 A 
ATOM      2  C   UNL     1      31.874 -36.667  33.857  1.00  0.00     0.094 A 
ATOM      3  C   UNL     1      32.388 -37.859  34.380  1.00  0.00     0.336 A 
ATOM      4  O   UNL     1      33.616 -37.953  34.640  1.00  0.00    -0.246 OA
ATOM      5  O   UNL     1      31.587 -38.897  34.604  1.00  0.00    -0.423 OA
ATOM      6  C   UNL     1      30.280 -38.861  34.350  1.00  0.00     0.142 A 
ATOM      7  C   UNL     1      29.487 -39.984  34.606  1.00  0.00     0.098 A 
ATOM      8  C   UNL     1      28.110 -39.950  34.340  1.00  0.00     0.161 A 
ATOM      9  C   UNL     1      27.525 -38.789  33.815  1.00  0.00     0.158 A 
ATOM     10  C   UNL     1      28.316 -37.659  33.555  1.00  0.00     0.062 A 
ATOM     11  C   UNL     1      29.692 -37.691  33.821  1.00  0.00     0.022 A 
ENDROOT
BRANCH   9  12
ATOM     12  O   UNL     1      26.156 -38.764  33.553  1.00  0.00    -0.504 OA
ATOM     13  H   UNL     1      25.683 -39.551  33.126  1.00  0.00     0.293 HD
ENDBRANCH   9  12
BRANCH   8  14
ATOM     14  O   UNL     1      27.316 -41.067  34.594  1.00  0.00    -0.504 OA
ATOM     15  H   UNL     1      26.742 -41.130  35.427  1.00  0.00     0.293 HD
ENDBRANCH   8  14
TORSDOF 2
ENDMDL
MODEL 8
REMARK VINA RESULT:    -4.594     12.644     13.677
REMARK INTER + INTRA:          -4.862
REMARK INTER:                  -4.862
REMARK INTRA:                   0.000
REMARK UNBOUND:                 0.000
REMARK SMILES O=c1ccc2cc(O)c(O)cc2o1
REMARK SMILES IDX 4 1 3 2 2 3 1 4 13 5 12 6 11 7 9 8 7 9 6 10 5 11 8 12 10 14
REMARK H PARENT 8 13 10 15
REMARK Flexibility Score: inf
ROOT
ATOM      1  C   UNL     1      35.828 -47.676  30.254  1.00  0.00     0.019 A 
ATOM      2  C   UNL     1      35.344 -48.770  30.970  1.00  0.00     0.094 A 
ATOM      3  C   UNL     1      36.246 -49.561  31.689  1.00  0.00     0.336 A 
ATOM      4  O   UNL     1      35.829 -50.553  32.343  1.00  0.00    -0.246 OA
ATOM      5  O   UNL     1      37.544 -49.272  31.690  1.00  0.00    -0.423 OA
ATOM      6  C   UNL     1      38.048 -48.238  31.020  1.00  0.00     0.142 A 
ATOM      7  C   UNL     1      39.422 -47.982  31.057  1.00  0.00     0.098 A 
ATOM      8  C   UNL     1      39.957 -46.893  30.353  1.00  0.00     0.161 A 
ATOM      9  C   UNL     1      39.113 -46.056  29.609  1.00  0.00     0.158 A 
ATOM     10  C   UNL     1      37.733 -46.306  29.569  1.00  0.00     0.062 A 
ATOM     11  C   UNL     1      37.197 -47.395  30.271  1.00  0.00     0.022 A 
ENDROOT
BRANCH   9  12
ATOM     12  O   UNL     1      39.652 -44.976  28.912  1.00  0.00    -0.504 OA
ATOM     13  H   UNL     1      39.382 -44.022  29.120  1.00  0.00     0.293 HD
ENDBRANCH   9  12
BRANCH   8  14
ATOM     14  O   UNL     1      41.326 -46.636  30.387  1.00  0.00    -0.504 OA
ATOM     15  H   UNL     1      41.883 -46.617  29.540  1.00  0.00     0.293 HD
ENDBRANCH   8  14
TORSDOF 2
ENDMDL
MODEL 9
REMARK VINA RESULT:    -4.493     10.800     13.133
REMARK INTER + INTRA:          -4.756
REMARK INTER:                  -4.756
REMARK INTRA:                   0.000
REMARK UNBOUND:                 0.000
REMARK SMILES O=c1ccc2cc(O)c(O)cc2o1
REMARK SMILES IDX 4 1 3 2 2 3 1 4 13 5 12 6 11 7 9 8 7 9 6 10 5 11 8 12 10 14
REMARK H PARENT 8 13 10 15
REMARK Flexibility Score: inf
ROOT
ATOM      1  C   UNL     1      33.492 -33.104  35.004  1.00  0.00     0.019 A 
ATOM      2  C   UNL     1      33.194 -32.399  36.170  1.00  0.00     0.094 A 
ATOM      3  C   UNL     1      32.664 -33.092  37.263  1.00  0.00     0.336 A 
ATOM      4  O   UNL     1      32.390 -32.475  38.326  1.00  0.00    -0.246 OA
ATOM      5  O   UNL     1      32.449 -34.403  37.190  1.00  0.00    -0.423 OA
ATOM      6  C   UNL     1      32.718 -35.113  36.096  1.00  0.00     0.142 A 
ATOM      7  C   UNL     1      32.470 -36.489  36.077  1.00  0.00     0.098 A 
ATOM      8  C   UNL     1      32.753 -37.241  34.927  1.00  0.00     0.161 A 
ATOM      9  C   UNL     1      33.286 -36.613  33.792  1.00  0.00     0.158 A 
ATOM     10  C   UNL     1      33.537 -35.233  33.806  1.00  0.00     0.062 A 
ATOM     11  C   UNL     1      33.255 -34.480  34.954  1.00  0.00     0.022 A 
ENDROOT
BRANCH   9  12
ATOM     12  O   UNL     1      33.563 -37.368  32.653  1.00  0.00    -0.504 OA
ATOM     13  H   UNL     1      34.368 -37.980  32.606  1.00  0.00     0.293 HD
ENDBRANCH   9  12
BRANCH   8  14
ATOM     14  O   UNL     1      32.507 -38.612  34.904  1.00  0.00    -0.504 OA
ATOM     15  H   UNL     1      32.877 -39.205  34.169  1.00  0.00     0.293 HD
ENDBRANCH   8  14
TORSDOF 2
ENDMDL
