MODEL 1
REMARK VINA RESULT:    -6.050      0.000      0.000
REMARK INTER + INTRA:          -7.682
REMARK INTER:                  -7.288
REMARK INTRA:                  -0.394
REMARK UNBOUND:                -0.394
REMARK SMILES O=c1c(O)c(-c2ccc(O)cc2O)oc2cc(O)cc(O)c12
REMARK SMILES IDX 5 1 3 2 2 3 1 4 22 5 20 6 19 7 17 8 16 9 15 10 14 11 6 12
REMARK SMILES IDX 8 13 7 14 9 15 11 16 12 17 10 18 13 20 4 22 21 24 18 26
REMARK H PARENT 10 19 13 21 4 23 21 25 18 27
REMARK Flexibility Score: inf
ROOT
ATOM      1  C   UNL     1      -9.211  12.008 -37.565  1.00  0.00     0.184 A 
ATOM      2  C   UNL     1      -8.748  11.837 -38.880  1.00  0.00     0.208 A 
ATOM      3  C   UNL     1      -8.929  10.596 -39.509  1.00  0.00     0.238 A 
ATOM      4  O   UNL     1      -8.567  10.468 -40.708  1.00  0.00    -0.285 OA
ATOM      5  C   UNL     1      -9.545   9.533 -38.804  1.00  0.00     0.111 A 
ATOM      6  C   UNL     1      -9.745   8.220 -39.328  1.00  0.00     0.134 A 
ATOM      7  C   UNL     1     -10.474   7.283 -38.585  1.00  0.00     0.093 A 
ATOM      8  C   UNL     1     -10.955   7.589 -37.314  1.00  0.00     0.123 A 
ATOM      9  C   UNL     1     -10.717   8.851 -36.767  1.00  0.00     0.094 A 
ATOM     10  C   UNL     1     -10.024   9.819 -37.498  1.00  0.00     0.146 A 
ATOM     11  O   UNL     1      -9.830  11.011 -36.947  1.00  0.00    -0.451 OA
ENDROOT
BRANCH   1  12
ATOM     12  C   UNL     1      -9.027  13.286 -36.846  1.00  0.00     0.063 A 
ATOM     13  C   UNL     1      -7.795  14.596 -35.205  1.00  0.00     0.047 A 
ATOM     14  C   UNL     1      -7.960  13.420 -35.940  1.00  0.00     0.020 A 
ATOM     15  C   UNL     1      -8.700  15.652 -35.358  1.00  0.00     0.119 A 
ATOM     16  C   UNL     1      -9.765  15.529 -36.254  1.00  0.00     0.093 A 
ATOM     17  C   UNL     1      -9.935  14.359 -37.004  1.00  0.00     0.130 A 
BRANCH  15  18
ATOM     18  O   UNL     1      -8.549  16.828 -34.625  1.00  0.00    -0.508 OA
ATOM     19  H   UNL     1      -7.883  17.540 -34.899  1.00  0.00     0.293 HD
ENDBRANCH  15  18
BRANCH  17  20
ATOM     20  O   UNL     1     -10.997  14.305 -37.910  1.00  0.00    -0.507 OA
ATOM     21  H   UNL     1     -11.967  14.341 -37.627  1.00  0.00     0.293 HD
ENDBRANCH  17  20
ENDBRANCH   1  12
BRANCH   2  22
ATOM     22  O   UNL     1      -8.141  12.903 -39.550  1.00  0.00    -0.502 OA
ATOM     23  H   UNL     1      -8.655  13.522 -40.164  1.00  0.00     0.293 HD
ENDBRANCH   2  22
BRANCH   6  24
ATOM     24  O   UNL     1      -9.227   7.780 -40.551  1.00  0.00    -0.507 OA
ATOM     25  H   UNL     1      -9.677   7.905 -41.445  1.00  0.00     0.293 HD
ENDBRANCH   6  24
BRANCH   8  26
ATOM     26  O   UNL     1     -11.665   6.628 -36.597  1.00  0.00    -0.508 OA
ATOM     27  H   UNL     1     -12.352   6.886 -35.900  1.00  0.00     0.293 HD
ENDBRANCH   8  26
TORSDOF 6
ENDMDL
MODEL 2
REMARK VINA RESULT:    -5.978     12.684     14.651
REMARK INTER + INTRA:          -7.595
REMARK INTER:                  -7.219
REMARK INTRA:                  -0.376
REMARK UNBOUND:                -0.394
REMARK SMILES O=c1c(O)c(-c2ccc(O)cc2O)oc2cc(O)cc(O)c12
REMARK SMILES IDX 5 1 3 2 2 3 1 4 22 5 20 6 19 7 17 8 16 9 15 10 14 11 6 12
REMARK SMILES IDX 8 13 7 14 9 15 11 16 12 17 10 18 13 20 4 22 21 24 18 26
REMARK H PARENT 10 19 13 21 4 23 21 25 18 27
REMARK Flexibility Score: inf
ROOT
ATOM      1  C   UNL     1     -13.531  16.924 -24.595  1.00  0.00     0.184 A 
ATOM      2  C   UNL     1     -12.743  16.606 -23.477  1.00  0.00     0.208 A 
ATOM      3  C   UNL     1     -12.455  15.259 -23.209  1.00  0.00     0.238 A 
ATOM      4  O   UNL     1     -11.697  14.985 -22.242  1.00  0.00    -0.285 OA
ATOM      5  C   UNL     1     -12.983  14.246 -24.046  1.00  0.00     0.111 A 
ATOM      6  C   UNL     1     -12.789  12.846 -23.846  1.00  0.00     0.134 A 
ATOM      7  C   UNL     1     -13.257  11.940 -24.806  1.00  0.00     0.093 A 
ATOM      8  C   UNL     1     -13.966  12.377 -25.923  1.00  0.00     0.123 A 
ATOM      9  C   UNL     1     -14.211  13.739 -26.100  1.00  0.00     0.094 A 
ATOM     10  C   UNL     1     -13.726  14.670 -25.179  1.00  0.00     0.146 A 
ATOM     11  O   UNL     1     -13.970  15.958 -25.392  1.00  0.00    -0.451 OA
ENDROOT
BRANCH   1  12
ATOM     12  C   UNL     1     -13.885  18.324 -24.914  1.00  0.00     0.063 A 
ATOM     13  C   UNL     1     -15.123  20.341 -24.347  1.00  0.00     0.047 A 
ATOM     14  C   UNL     1     -14.727  19.037 -24.043  1.00  0.00     0.020 A 
ATOM     15  C   UNL     1     -14.689  20.948 -25.530  1.00  0.00     0.119 A 
ATOM     16  C   UNL     1     -13.853  20.249 -26.404  1.00  0.00     0.093 A 
ATOM     17  C   UNL     1     -13.441  18.944 -26.105  1.00  0.00     0.130 A 
BRANCH  15  18
ATOM     18  O   UNL     1     -15.082  22.247 -25.847  1.00  0.00    -0.508 OA
ATOM     19  H   UNL     1     -15.023  22.603 -26.793  1.00  0.00     0.293 HD
ENDBRANCH  15  18
BRANCH  17  20
ATOM     20  O   UNL     1     -12.576  18.305 -26.997  1.00  0.00    -0.507 OA
ATOM     21  H   UNL     1     -11.651  17.988 -26.737  1.00  0.00     0.293 HD
ENDBRANCH  17  20
ENDBRANCH   1  12
BRANCH   2  22
ATOM     22  O   UNL     1     -12.237  17.627 -22.667  1.00  0.00    -0.502 OA
ATOM     23  H   UNL     1     -11.573  18.311 -23.006  1.00  0.00     0.293 HD
ENDBRANCH   2  22
BRANCH   6  24
ATOM     24  O   UNL     1     -12.173  12.296 -22.717  1.00  0.00    -0.507 OA
ATOM     25  H   UNL     1     -12.456  11.439 -22.267  1.00  0.00     0.293 HD
ENDBRANCH   6  24
BRANCH   8  26
ATOM     26  O   UNL     1     -14.430  11.446 -26.850  1.00  0.00    -0.508 OA
ATOM     27  H   UNL     1     -15.006  10.661 -26.571  1.00  0.00     0.293 HD
ENDBRANCH   8  26
TORSDOF 6
ENDMDL
MODEL 3
REMARK VINA RESULT:    -5.941     14.222     15.824
REMARK INTER + INTRA:          -7.551
REMARK INTER:                  -7.163
REMARK INTRA:                  -0.388
REMARK UNBOUND:                -0.394
REMARK SMILES O=c1c(O)c(-c2ccc(O)cc2O)oc2cc(O)cc(O)c12
REMARK SMILES IDX 5 1 3 2 2 3 1 4 22 5 20 6 19 7 17 8 16 9 15 10 14 11 6 12
REMARK SMILES IDX 8 13 7 14 9 15 11 16 12 17 10 18 13 20 4 22 21 24 18 26
REMARK H PARENT 10 19 13 21 4 23 21 25 18 27
REMARK Flexibility Score: inf
ROOT
ATOM      1  C   UNL     1     -12.338  17.357 -23.633  1.00  0.00     0.184 A 
ATOM      2  C   UNL     1     -13.600  17.373 -23.019  1.00  0.00     0.208 A 
ATOM      3  C   UNL     1     -14.010  16.254 -22.277  1.00  0.00     0.238 A 
ATOM      4  O   UNL     1     -15.115  16.298 -21.678  1.00  0.00    -0.285 OA
ATOM      5  C   UNL     1     -13.162  15.122 -22.184  1.00  0.00     0.111 A 
ATOM      6  C   UNL     1     -13.490  13.918 -21.493  1.00  0.00     0.134 A 
ATOM      7  C   UNL     1     -12.526  12.910 -21.364  1.00  0.00     0.093 A 
ATOM      8  C   UNL     1     -11.270  13.036 -21.956  1.00  0.00     0.123 A 
ATOM      9  C   UNL     1     -10.957  14.185 -22.683  1.00  0.00     0.094 A 
ATOM     10  C   UNL     1     -11.885  15.223 -22.798  1.00  0.00     0.146 A 
ATOM     11  O   UNL     1     -11.543  16.305 -23.487  1.00  0.00    -0.451 OA
ENDROOT
BRANCH   1  12
ATOM     12  C   UNL     1     -11.864  18.498 -24.445  1.00  0.00     0.063 A 
ATOM     13  C   UNL     1     -10.629  20.592 -24.577  1.00  0.00     0.047 A 
ATOM     14  C   UNL     1     -11.046  19.475 -23.850  1.00  0.00     0.020 A 
ATOM     15  C   UNL     1     -11.031  20.753 -25.907  1.00  0.00     0.119 A 
ATOM     16  C   UNL     1     -11.846  19.790 -26.509  1.00  0.00     0.093 A 
ATOM     17  C   UNL     1     -12.262  18.661 -25.793  1.00  0.00     0.130 A 
BRANCH  15  18
ATOM     18  O   UNL     1     -10.627  21.867 -26.641  1.00  0.00    -0.508 OA
ATOM     19  H   UNL     1     -10.366  21.792 -27.617  1.00  0.00     0.293 HD
ENDBRANCH  15  18
BRANCH  17  20
ATOM     20  O   UNL     1     -13.046  17.713 -26.454  1.00  0.00    -0.507 OA
ATOM     21  H   UNL     1     -14.039  17.606 -26.291  1.00  0.00     0.293 HD
ENDBRANCH  17  20
ENDBRANCH   1  12
BRANCH   2  22
ATOM     22  O   UNL     1     -14.417  18.501 -23.129  1.00  0.00    -0.502 OA
ATOM     23  H   UNL     1     -14.060  19.403 -23.420  1.00  0.00     0.293 HD
ENDBRANCH   2  22
BRANCH   6  24
ATOM     24  O   UNL     1     -14.748  13.651 -20.942  1.00  0.00    -0.507 OA
ATOM     25  H   UNL     1     -15.607  14.094 -21.227  1.00  0.00     0.293 HD
ENDBRANCH   6  24
BRANCH   8  26
ATOM     26  O   UNL     1     -10.341  12.007 -21.820  1.00  0.00    -0.508 OA
ATOM     27  H   UNL     1     -10.545  11.064 -22.129  1.00  0.00     0.293 HD
ENDBRANCH   8  26
TORSDOF 6
ENDMDL
MODEL 4
REMARK VINA RESULT:    -5.807     10.990     14.405
REMARK INTER + INTRA:          -7.388
REMARK INTER:                  -6.992
REMARK INTRA:                  -0.396
REMARK UNBOUND:                -0.394
REMARK SMILES O=c1c(O)c(-c2ccc(O)cc2O)oc2cc(O)cc(O)c12
REMARK SMILES IDX 5 1 3 2 2 3 1 4 22 5 20 6 19 7 17 8 16 9 15 10 14 11 6 12
REMARK SMILES IDX 8 13 7 14 9 15 11 16 12 17 10 18 13 20 4 22 21 24 18 26
REMARK H PARENT 10 19 13 21 4 23 21 25 18 27
REMARK Flexibility Score: inf
ROOT
ATOM      1  C   UNL     1     -13.992  13.524 -26.297  1.00  0.00     0.184 A 
ATOM      2  C   UNL     1     -13.988  13.223 -24.926  1.00  0.00     0.208 A 
ATOM      3  C   UNL     1     -14.050  14.275 -23.999  1.00  0.00     0.238 A 
ATOM      4  O   UNL     1     -14.109  13.996 -22.773  1.00  0.00    -0.285 OA
ATOM      5  C   UNL     1     -14.085  15.615 -24.456  1.00  0.00     0.111 A 
ATOM      6  C   UNL     1     -14.108  16.762 -23.606  1.00  0.00     0.134 A 
ATOM      7  C   UNL     1     -14.265  18.035 -24.168  1.00  0.00     0.093 A 
ATOM      8  C   UNL     1     -14.334  18.209 -25.549  1.00  0.00     0.123 A 
ATOM      9  C   UNL     1     -14.255  17.101 -26.393  1.00  0.00     0.094 A 
ATOM     10  C   UNL     1     -14.136  15.815 -25.861  1.00  0.00     0.146 A 
ATOM     11  O   UNL     1     -14.077  14.786 -26.698  1.00  0.00    -0.451 OA
ENDROOT
BRANCH   1  12
ATOM     12  C   UNL     1     -13.906  12.458 -27.318  1.00  0.00     0.063 A 
ATOM     13  C   UNL     1     -15.039  10.893 -28.798  1.00  0.00     0.047 A 
ATOM     14  C   UNL     1     -15.088  11.938 -27.873  1.00  0.00     0.020 A 
ATOM     15  C   UNL     1     -13.808  10.347 -29.176  1.00  0.00     0.119 A 
ATOM     16  C   UNL     1     -12.626  10.855 -28.630  1.00  0.00     0.093 A 
ATOM     17  C   UNL     1     -12.661  11.910 -27.709  1.00  0.00     0.130 A 
BRANCH  15  18
ATOM     18  O   UNL     1     -13.748   9.300 -30.094  1.00  0.00    -0.508 OA
ATOM     19  H   UNL     1     -12.890   9.074 -30.583  1.00  0.00     0.293 HD
ENDBRANCH  15  18
BRANCH  17  20
ATOM     20  O   UNL     1     -11.448  12.402 -27.223  1.00  0.00    -0.507 OA
ATOM     21  H   UNL     1     -10.775  12.884 -27.805  1.00  0.00     0.293 HD
ENDBRANCH  17  20
ENDBRANCH   1  12
BRANCH   2  22
ATOM     22  O   UNL     1     -13.950  11.892 -24.504  1.00  0.00    -0.502 OA
ATOM     23  H   UNL     1     -13.874  11.118 -25.152  1.00  0.00     0.293 HD
ENDBRANCH   2  22
BRANCH   6  24
ATOM     24  O   UNL     1     -13.955  16.708 -22.217  1.00  0.00    -0.507 OA
ATOM     25  H   UNL     1     -13.858  15.859 -21.681  1.00  0.00     0.293 HD
ENDBRANCH   6  24
BRANCH   8  26
ATOM     26  O   UNL     1     -14.476  19.492 -26.073  1.00  0.00    -0.508 OA
ATOM     27  H   UNL     1     -14.763  19.644 -27.033  1.00  0.00     0.293 HD
ENDBRANCH   8  26
TORSDOF 6
ENDMDL
MODEL 5
REMARK VINA RESULT:    -5.795      2.291      3.186
REMARK INTER + INTRA:          -7.374
REMARK INTER:                  -7.029
REMARK INTRA:                  -0.345
REMARK UNBOUND:                -0.394
REMARK SMILES O=c1c(O)c(-c2ccc(O)cc2O)oc2cc(O)cc(O)c12
REMARK SMILES IDX 5 1 3 2 2 3 1 4 22 5 20 6 19 7 17 8 16 9 15 10 14 11 6 12
REMARK SMILES IDX 8 13 7 14 9 15 11 16 12 17 10 18 13 20 4 22 21 24 18 26
REMARK H PARENT 10 19 13 21 4 23 21 25 18 27
REMARK Flexibility Score: inf
ROOT
ATOM      1  C   UNL     1      -8.757  10.581 -39.177  1.00  0.00     0.184 A 
ATOM      2  C   UNL     1      -7.573   9.899 -39.499  1.00  0.00     0.208 A 
ATOM      3  C   UNL     1      -7.461   8.539 -39.174  1.00  0.00     0.238 A 
ATOM      4  O   UNL     1      -6.423   7.918 -39.522  1.00  0.00    -0.285 OA
ATOM      5  C   UNL     1      -8.525   7.885 -38.505  1.00  0.00     0.111 A 
ATOM      6  C   UNL     1      -8.506   6.519 -38.091  1.00  0.00     0.134 A 
ATOM      7  C   UNL     1      -9.661   5.946 -37.545  1.00  0.00     0.093 A 
ATOM      8  C   UNL     1     -10.812   6.705 -37.339  1.00  0.00     0.123 A 
ATOM      9  C   UNL     1     -10.825   8.055 -37.687  1.00  0.00     0.094 A 
ATOM     10  C   UNL     1      -9.700   8.647 -38.267  1.00  0.00     0.146 A 
ATOM     11  O   UNL     1      -9.758   9.932 -38.595  1.00  0.00    -0.451 OA
ENDROOT
BRANCH   1  12
ATOM     12  C   UNL     1      -8.921  12.020 -39.474  1.00  0.00     0.063 A 
ATOM     13  C   UNL     1      -9.081  13.802 -41.125  1.00  0.00     0.047 A 
ATOM     14  C   UNL     1      -8.982  12.444 -40.813  1.00  0.00     0.020 A 
ATOM     15  C   UNL     1      -9.113  14.756 -40.103  1.00  0.00     0.119 A 
ATOM     16  C   UNL     1      -9.051  14.346 -38.768  1.00  0.00     0.093 A 
ATOM     17  C   UNL     1      -8.962  12.987 -38.442  1.00  0.00     0.130 A 
BRANCH  15  18
ATOM     18  O   UNL     1      -9.205  16.114 -40.402  1.00  0.00    -0.508 OA
ATOM     19  H   UNL     1      -9.974  16.484 -40.947  1.00  0.00     0.293 HD
ENDBRANCH  15  18
BRANCH  17  20
ATOM     20  O   UNL     1      -8.940  12.632 -37.092  1.00  0.00    -0.507 OA
ATOM     21  H   UNL     1      -8.456  13.173 -36.387  1.00  0.00     0.293 HD
ENDBRANCH  17  20
ENDBRANCH   1  12
BRANCH   2  22
ATOM     22  O   UNL     1      -6.538  10.570 -40.157  1.00  0.00    -0.502 OA
ATOM     23  H   UNL     1      -6.711  11.283 -40.855  1.00  0.00     0.293 HD
ENDBRANCH   2  22
BRANCH   6  24
ATOM     24  O   UNL     1      -7.378   5.696 -38.168  1.00  0.00    -0.507 OA
ATOM     25  H   UNL     1      -7.402   4.688 -38.199  1.00  0.00     0.293 HD
ENDBRANCH   6  24
BRANCH   8  26
ATOM     26  O   UNL     1     -11.939   6.105 -36.780  1.00  0.00    -0.508 OA
ATOM     27  H   UNL     1     -12.814   6.044 -37.287  1.00  0.00     0.293 HD
ENDBRANCH   8  26
TORSDOF 6
ENDMDL
MODEL 6
REMARK VINA RESULT:    -5.717     12.427     15.636
REMARK INTER + INTRA:          -7.280
REMARK INTER:                  -6.990
REMARK INTRA:                  -0.290
REMARK UNBOUND:                -0.394
REMARK SMILES O=c1c(O)c(-c2ccc(O)cc2O)oc2cc(O)cc(O)c12
REMARK SMILES IDX 5 1 3 2 2 3 1 4 22 5 20 6 19 7 17 8 16 9 15 10 14 11 6 12
REMARK SMILES IDX 8 13 7 14 9 15 11 16 12 17 10 18 13 20 4 22 21 24 18 26
REMARK H PARENT 10 19 13 21 4 23 21 25 18 27
REMARK Flexibility Score: inf
ROOT
ATOM      1  C   UNL     1     -13.393  15.791 -25.013  1.00  0.00     0.184 A 
ATOM      2  C   UNL     1     -14.216  16.419 -24.065  1.00  0.00     0.208 A 
ATOM      3  C   UNL     1     -14.128  17.810 -23.902  1.00  0.00     0.238 A 
ATOM      4  O   UNL     1     -14.912  18.374 -23.095  1.00  0.00    -0.285 OA
ATOM      5  C   UNL     1     -13.196  18.551 -24.670  1.00  0.00     0.111 A 
ATOM      6  C   UNL     1     -12.992  19.959 -24.559  1.00  0.00     0.134 A 
ATOM      7  C   UNL     1     -12.130  20.604 -25.455  1.00  0.00     0.093 A 
ATOM      8  C   UNL     1     -11.416  19.885 -26.412  1.00  0.00     0.123 A 
ATOM      9  C   UNL     1     -11.564  18.501 -26.492  1.00  0.00     0.094 A 
ATOM     10  C   UNL     1     -12.444  17.833 -25.637  1.00  0.00     0.146 A 
ATOM     11  O   UNL     1     -12.565  16.516 -25.755  1.00  0.00    -0.451 OA
ENDROOT
BRANCH   1  12
ATOM     12  C   UNL     1     -13.427  14.326 -25.211  1.00  0.00     0.063 A 
ATOM     13  C   UNL     1     -14.054  12.425 -26.595  1.00  0.00     0.047 A 
ATOM     14  C   UNL     1     -13.958  13.804 -26.404  1.00  0.00     0.020 A 
ATOM     15  C   UNL     1     -13.628  11.546 -25.594  1.00  0.00     0.119 A 
ATOM     16  C   UNL     1     -13.100  12.053 -24.403  1.00  0.00     0.093 A 
ATOM     17  C   UNL     1     -12.990  13.435 -24.204  1.00  0.00     0.130 A 
BRANCH  15  18
ATOM     18  O   UNL     1     -13.725  10.167 -25.771  1.00  0.00    -0.508 OA
ATOM     19  H   UNL     1     -14.345   9.602 -25.204  1.00  0.00     0.293 HD
ENDBRANCH  15  18
BRANCH  17  20
ATOM     20  O   UNL     1     -12.421  13.885 -23.010  1.00  0.00    -0.507 OA
ATOM     21  H   UNL     1     -11.728  14.621 -22.972  1.00  0.00     0.293 HD
ENDBRANCH  17  20
ENDBRANCH   1  12
BRANCH   2  22
ATOM     22  O   UNL     1     -15.125  15.662 -23.319  1.00  0.00    -0.502 OA
ATOM     23  H   UNL     1     -16.102  15.586 -23.570  1.00  0.00     0.293 HD
ENDBRANCH   2  22
BRANCH   6  24
ATOM     24  O   UNL     1     -13.586  20.760 -23.579  1.00  0.00    -0.507 OA
ATOM     25  H   UNL     1     -14.580  20.880 -23.458  1.00  0.00     0.293 HD
ENDBRANCH   6  24
BRANCH   8  26
ATOM     26  O   UNL     1     -10.556  20.559 -27.276  1.00  0.00    -0.508 OA
ATOM     27  H   UNL     1      -9.673  20.939 -26.956  1.00  0.00     0.293 HD
ENDBRANCH   8  26
TORSDOF 6
ENDMDL
MODEL 7
REMARK VINA RESULT:    -5.664      3.171      4.708
REMARK INTER + INTRA:          -7.216
REMARK INTER:                  -6.879
REMARK INTRA:                  -0.337
REMARK UNBOUND:                -0.394
REMARK SMILES O=c1c(O)c(-c2ccc(O)cc2O)oc2cc(O)cc(O)c12
REMARK SMILES IDX 5 1 3 2 2 3 1 4 22 5 20 6 19 7 17 8 16 9 15 10 14 11 6 12
REMARK SMILES IDX 8 13 7 14 9 15 11 16 12 17 10 18 13 20 4 22 21 24 18 26
REMARK H PARENT 10 19 13 21 4 23 21 25 18 27
REMARK Flexibility Score: inf
ROOT
ATOM      1  C   UNL     1      -7.926  10.762 -39.242  1.00  0.00     0.184 A 
ATOM      2  C   UNL     1      -8.668   9.877 -38.444  1.00  0.00     0.208 A 
ATOM      3  C   UNL     1      -8.177   8.579 -38.232  1.00  0.00     0.238 A 
ATOM      4  O   UNL     1      -8.815   7.810 -37.466  1.00  0.00    -0.285 OA
ATOM      5  C   UNL     1      -6.965   8.176 -38.844  1.00  0.00     0.111 A 
ATOM      6  C   UNL     1      -6.393   6.873 -38.731  1.00  0.00     0.134 A 
ATOM      7  C   UNL     1      -5.129   6.623 -39.280  1.00  0.00     0.093 A 
ATOM      8  C   UNL     1      -4.446   7.607 -39.991  1.00  0.00     0.123 A 
ATOM      9  C   UNL     1      -5.020   8.868 -40.158  1.00  0.00     0.094 A 
ATOM     10  C   UNL     1      -6.263   9.159 -39.591  1.00  0.00     0.146 A 
ATOM     11  O   UNL     1      -6.768  10.375 -39.761  1.00  0.00    -0.451 OA
ENDROOT
BRANCH   1  12
ATOM     12  C   UNL     1      -8.406  12.133 -39.518  1.00  0.00     0.063 A 
ATOM     13  C   UNL     1      -9.206  13.777 -41.125  1.00  0.00     0.047 A 
ATOM     14  C   UNL     1      -8.802  12.475 -40.823  1.00  0.00     0.020 A 
ATOM     15  C   UNL     1      -9.212  14.759 -40.129  1.00  0.00     0.119 A 
ATOM     16  C   UNL     1      -8.818  14.432 -38.828  1.00  0.00     0.093 A 
ATOM     17  C   UNL     1      -8.421  13.127 -38.511  1.00  0.00     0.130 A 
BRANCH  15  18
ATOM     18  O   UNL     1      -9.607  16.063 -40.420  1.00  0.00    -0.508 OA
ATOM     19  H   UNL     1      -9.041  16.671 -40.999  1.00  0.00     0.293 HD
ENDBRANCH  15  18
BRANCH  17  20
ATOM     20  O   UNL     1      -8.072  12.847 -37.188  1.00  0.00    -0.507 OA
ATOM     21  H   UNL     1      -7.422  12.116 -36.931  1.00  0.00     0.293 HD
ENDBRANCH  17  20
ENDBRANCH   1  12
BRANCH   2  22
ATOM     22  O   UNL     1      -9.862  10.301 -37.855  1.00  0.00    -0.502 OA
ATOM     23  H   UNL     1     -10.666  10.584 -38.401  1.00  0.00     0.293 HD
ENDBRANCH   2  22
BRANCH   6  24
ATOM     24  O   UNL     1      -7.032   5.790 -38.119  1.00  0.00    -0.507 OA
ATOM     25  H   UNL     1      -6.595   4.906 -37.911  1.00  0.00     0.293 HD
ENDBRANCH   6  24
BRANCH   8  26
ATOM     26  O   UNL     1      -3.197   7.319 -40.537  1.00  0.00    -0.508 OA
ATOM     27  H   UNL     1      -2.473   8.024 -40.605  1.00  0.00     0.293 HD
ENDBRANCH   8  26
TORSDOF 6
ENDMDL
MODEL 8
REMARK VINA RESULT:    -5.637     11.850     13.681
REMARK INTER + INTRA:          -7.184
REMARK INTER:                  -6.935
REMARK INTRA:                  -0.249
REMARK UNBOUND:                -0.394
REMARK SMILES O=c1c(O)c(-c2ccc(O)cc2O)oc2cc(O)cc(O)c12
REMARK SMILES IDX 5 1 3 2 2 3 1 4 22 5 20 6 19 7 17 8 16 9 15 10 14 11 6 12
REMARK SMILES IDX 8 13 7 14 9 15 11 16 12 17 10 18 13 20 4 22 21 24 18 26
REMARK H PARENT 10 19 13 21 4 23 21 25 18 27
REMARK Flexibility Score: inf
ROOT
ATOM      1  C   UNL     1     -13.752  13.997 -24.878  1.00  0.00     0.184 A 
ATOM      2  C   UNL     1     -12.813  13.271 -24.129  1.00  0.00     0.208 A 
ATOM      3  C   UNL     1     -12.513  11.953 -24.506  1.00  0.00     0.238 A 
ATOM      4  O   UNL     1     -11.626  11.330 -23.868  1.00  0.00    -0.285 OA
ATOM      5  C   UNL     1     -13.178  11.370 -25.612  1.00  0.00     0.111 A 
ATOM      6  C   UNL     1     -12.982  10.029 -26.061  1.00  0.00     0.134 A 
ATOM      7  C   UNL     1     -13.604   9.597 -27.239  1.00  0.00     0.093 A 
ATOM      8  C   UNL     1     -14.463  10.434 -27.949  1.00  0.00     0.123 A 
ATOM      9  C   UNL     1     -14.707  11.729 -27.489  1.00  0.00     0.094 A 
ATOM     10  C   UNL     1     -14.073  12.201 -26.337  1.00  0.00     0.146 A 
ATOM     11  O   UNL     1     -14.322  13.443 -25.940  1.00  0.00    -0.451 OA
ENDROOT
BRANCH   1  12
ATOM     12  C   UNL     1     -14.124  15.381 -24.513  1.00  0.00     0.063 A 
ATOM     13  C   UNL     1     -14.103  17.755 -25.049  1.00  0.00     0.047 A 
ATOM     14  C   UNL     1     -13.814  16.433 -25.393  1.00  0.00     0.020 A 
ATOM     15  C   UNL     1     -14.698  18.046 -23.818  1.00  0.00     0.119 A 
ATOM     16  C   UNL     1     -15.009  17.009 -22.934  1.00  0.00     0.093 A 
ATOM     17  C   UNL     1     -14.733  15.678 -23.272  1.00  0.00     0.130 A 
BRANCH  15  18
ATOM     18  O   UNL     1     -14.986  19.362 -23.462  1.00  0.00    -0.508 OA
ATOM     19  H   UNL     1     -15.244  20.054 -24.155  1.00  0.00     0.293 HD
ENDBRANCH  15  18
BRANCH  17  20
ATOM     20  O   UNL     1     -15.098  14.679 -22.366  1.00  0.00    -0.507 OA
ATOM     21  H   UNL     1     -14.741  13.734 -22.414  1.00  0.00     0.293 HD
ENDBRANCH  17  20
ENDBRANCH   1  12
BRANCH   2  22
ATOM     22  O   UNL     1     -12.174  13.872 -23.040  1.00  0.00    -0.502 OA
ATOM     23  H   UNL     1     -12.201  14.871 -22.878  1.00  0.00     0.293 HD
ENDBRANCH   2  22
BRANCH   6  24
ATOM     24  O   UNL     1     -12.216   9.080 -25.376  1.00  0.00    -0.507 OA
ATOM     25  H   UNL     1     -11.533   8.475 -25.804  1.00  0.00     0.293 HD
ENDBRANCH   6  24
BRANCH   8  26
ATOM     26  O   UNL     1     -15.076   9.966 -29.109  1.00  0.00    -0.508 OA
ATOM     27  H   UNL     1     -14.595   9.343 -29.748  1.00  0.00     0.293 HD
ENDBRANCH   8  26
TORSDOF 6
ENDMDL
