MODEL 1
REMARK VINA RESULT:    -3.193      0.000      0.000
REMARK INTER + INTRA:          -3.193
REMARK INTER:                  -3.193
REMARK INTRA:                   0.000
REMARK UNBOUND:                 0.000
REMARK SMILES CC1(C)O[C@]2(C)CC[C@H]1CC2
REMARK SMILES IDX 1 1 2 2 9 3 10 4 11 5 5 6 4 7 7 8 8 9 6 10 3 11
REMARK H PARENT
REMARK Flexibility Score: inf
ROOT
ATOM      1  C   UNL     1     133.121 139.785 141.404  1.00  0.00     0.042 C 
ATOM      2  C   UNL     1     134.155 140.587 140.585  1.00  0.00     0.066 C 
ATOM      3  C   UNL     1     135.315 141.115 141.515  1.00  0.00     0.021 C 
ATOM      4  C   UNL     1     136.292 141.952 140.653  1.00  0.00     0.009 C 
ATOM      5  C   UNL     1     135.490 143.015 139.863  1.00  0.00     0.035 C 
ATOM      6  C   UNL     1     133.989 142.949 140.267  1.00  0.00     0.066 C 
ATOM      7  O   UNL     1     133.468 141.662 139.928  1.00  0.00    -0.369 OA
ATOM      8  C   UNL     1     133.868 143.161 141.803  1.00  0.00     0.035 C 
ATOM      9  C   UNL     1     134.707 142.095 142.547  1.00  0.00     0.009 C 
ATOM     10  C   UNL     1     133.187 144.019 139.517  1.00  0.00     0.042 C 
ATOM     11  C   UNL     1     134.714 139.641 139.499  1.00  0.00     0.042 C 
ENDROOT
TORSDOF 0
ENDMDL
MODEL 2
REMARK VINA RESULT:    -3.188     11.624     13.434
REMARK INTER + INTRA:          -3.188
REMARK INTER:                  -3.188
REMARK INTRA:                   0.000
REMARK UNBOUND:                 0.000
REMARK SMILES CC1(C)O[C@]2(C)CC[C@H]1CC2
REMARK SMILES IDX 1 1 2 2 9 3 10 4 11 5 5 6 4 7 7 8 8 9 6 10 3 11
REMARK H PARENT
REMARK Flexibility Score: inf
ROOT
ATOM      1  C   UNL     1     148.493 141.828 141.424  1.00  0.00     0.042 C 
ATOM      2  C   UNL     1     147.479 141.014 140.592  1.00  0.00     0.066 C 
ATOM      3  C   UNL     1     146.300 140.494 141.502  1.00  0.00     0.021 C 
ATOM      4  C   UNL     1     145.345 139.645 140.629  1.00  0.00     0.009 C 
ATOM      5  C   UNL     1     146.167 138.574 139.870  1.00  0.00     0.035 C 
ATOM      6  C   UNL     1     147.658 138.649 140.306  1.00  0.00     0.066 C 
ATOM      7  O   UNL     1     148.183 139.932 139.964  1.00  0.00    -0.369 OA
ATOM      8  C   UNL     1     147.745 138.455 141.847  1.00  0.00     0.035 C 
ATOM      9  C   UNL     1     146.887 139.528 142.559  1.00  0.00     0.009 C 
ATOM     10  C   UNL     1     148.478 137.572 139.587  1.00  0.00     0.042 C 
ATOM     11  C   UNL     1     146.943 141.945 139.482  1.00  0.00     0.042 C 
ENDROOT
TORSDOF 0
ENDMDL
MODEL 3
REMARK VINA RESULT:    -3.170      8.010      9.440
REMARK INTER + INTRA:          -3.170
REMARK INTER:                  -3.170
REMARK INTRA:                   0.000
REMARK UNBOUND:                 0.000
REMARK SMILES CC1(C)O[C@]2(C)CC[C@H]1CC2
REMARK SMILES IDX 1 1 2 2 9 3 10 4 11 5 5 6 4 7 7 8 8 9 6 10 3 11
REMARK H PARENT
REMARK Flexibility Score: inf
ROOT
ATOM      1  C   UNL     1     141.846 133.159 141.451  1.00  0.00     0.042 C 
ATOM      2  C   UNL     1     141.054 134.202 140.632  1.00  0.00     0.066 C 
ATOM      3  C   UNL     1     140.563 135.381 141.558  1.00  0.00     0.021 C 
ATOM      4  C   UNL     1     139.735 136.366 140.698  1.00  0.00     0.009 C 
ATOM      5  C   UNL     1     138.645 135.580 139.930  1.00  0.00     0.035 C 
ATOM      6  C   UNL     1     138.685 134.081 140.347  1.00  0.00     0.066 C 
ATOM      7  O   UNL     1     139.956 133.531 139.997  1.00  0.00    -0.369 OA
ATOM      8  C   UNL     1     138.491 133.979 141.887  1.00  0.00     0.035 C 
ATOM      9  C   UNL     1     139.585 134.803 142.609  1.00  0.00     0.009 C 
ATOM     10  C   UNL     1     137.589 133.295 139.620  1.00  0.00     0.042 C 
ATOM     11  C   UNL     1     141.996 134.731 139.528  1.00  0.00     0.042 C 
ENDROOT
TORSDOF 0
ENDMDL
MODEL 4
REMARK VINA RESULT:    -3.162      8.018      9.469
REMARK INTER + INTRA:          -3.162
REMARK INTER:                  -3.162
REMARK INTRA:                   0.000
REMARK UNBOUND:                 0.000
REMARK SMILES CC1(C)O[C@]2(C)CC[C@H]1CC2
REMARK SMILES IDX 1 1 2 2 9 3 10 4 11 5 5 6 4 7 7 8 8 9 6 10 3 11
REMARK H PARENT
REMARK Flexibility Score: inf
ROOT
ATOM      1  C   UNL     1     139.826 148.493 141.426  1.00  0.00     0.042 C 
ATOM      2  C   UNL     1     140.597 147.439 140.601  1.00  0.00     0.066 C 
ATOM      3  C   UNL     1     141.113 146.273 141.529  1.00  0.00     0.021 C 
ATOM      4  C   UNL     1     141.919 145.276 140.661  1.00  0.00     0.009 C 
ATOM      5  C   UNL     1     142.989 146.053 139.856  1.00  0.00     0.035 C 
ATOM      6  C   UNL     1     142.958 147.557 140.254  1.00  0.00     0.066 C 
ATOM      7  O   UNL     1     141.678 148.102 139.929  1.00  0.00    -0.369 OA
ATOM      8  C   UNL     1     143.191 147.679 141.787  1.00  0.00     0.035 C 
ATOM      9  C   UNL     1     142.117 146.864 142.547  1.00  0.00     0.009 C 
ATOM     10  C   UNL     1     144.035 148.334 139.489  1.00  0.00     0.042 C 
ATOM     11  C   UNL     1     139.628 146.896 139.528  1.00  0.00     0.042 C 
ENDROOT
TORSDOF 0
ENDMDL
MODEL 5
REMARK VINA RESULT:    -3.137      0.941      2.109
REMARK INTER + INTRA:          -3.137
REMARK INTER:                  -3.137
REMARK INTRA:                   0.000
REMARK UNBOUND:                 0.000
REMARK SMILES CC1(C)O[C@]2(C)CC[C@H]1CC2
REMARK SMILES IDX 1 1 2 2 9 3 10 4 11 5 5 6 4 7 7 8 8 9 6 10 3 11
REMARK H PARENT
REMARK Flexibility Score: inf
ROOT
ATOM      1  C   UNL     1     134.997 139.997 138.965  1.00  0.00     0.042 C 
ATOM      2  C   UNL     1     135.071 141.123 140.018  1.00  0.00     0.066 C 
ATOM      3  C   UNL     1     134.609 140.597 141.432  1.00  0.00     0.021 C 
ATOM      4  C   UNL     1     134.656 141.776 142.433  1.00  0.00     0.009 C 
ATOM      5  C   UNL     1     133.873 142.974 141.844  1.00  0.00     0.035 C 
ATOM      6  C   UNL     1     133.226 142.566 140.489  1.00  0.00     0.066 C 
ATOM      7  O   UNL     1     134.257 142.214 139.564  1.00  0.00    -0.369 OA
ATOM      8  C   UNL     1     132.304 141.334 140.720  1.00  0.00     0.035 C 
ATOM      9  C   UNL     1     133.124 140.174 141.335  1.00  0.00     0.009 C 
ATOM     10  C   UNL     1     132.419 143.733 139.909  1.00  0.00     0.042 C 
ATOM     11  C   UNL     1     136.537 141.608 140.068  1.00  0.00     0.042 C 
ENDROOT
TORSDOF 0
ENDMDL
MODEL 6
REMARK VINA RESULT:    -3.075     11.907     13.700
REMARK INTER + INTRA:          -3.075
REMARK INTER:                  -3.075
REMARK INTRA:                   0.000
REMARK UNBOUND:                 0.000
REMARK SMILES CC1(C)O[C@]2(C)CC[C@H]1CC2
REMARK SMILES IDX 1 1 2 2 9 3 10 4 11 5 5 6 4 7 7 8 8 9 6 10 3 11
REMARK H PARENT
REMARK Flexibility Score: inf
ROOT
ATOM      1  C   UNL     1     146.760 141.603 138.879  1.00  0.00     0.042 C 
ATOM      2  C   UNL     1     146.650 140.508 139.962  1.00  0.00     0.066 C 
ATOM      3  C   UNL     1     147.090 141.070 141.369  1.00  0.00     0.021 C 
ATOM      4  C   UNL     1     147.009 139.920 142.402  1.00  0.00     0.009 C 
ATOM      5  C   UNL     1     147.788 138.696 141.863  1.00  0.00     0.035 C 
ATOM      6  C   UNL     1     148.467 139.058 140.510  1.00  0.00     0.066 C 
ATOM      7  O   UNL     1     147.460 139.395 139.556  1.00  0.00    -0.369 OA
ATOM      8  C   UNL     1     149.400 140.285 140.725  1.00  0.00     0.035 C 
ATOM      9  C   UNL     1     148.582 141.471 141.290  1.00  0.00     0.009 C 
ATOM     10  C   UNL     1     149.271 137.865 139.981  1.00  0.00     0.042 C 
ATOM     11  C   UNL     1     145.177 140.042 139.996  1.00  0.00     0.042 C 
ENDROOT
TORSDOF 0
ENDMDL
MODEL 7
REMARK VINA RESULT:    -3.073      8.021      9.359
REMARK INTER + INTRA:          -3.073
REMARK INTER:                  -3.073
REMARK INTRA:                   0.000
REMARK UNBOUND:                 0.000
REMARK SMILES CC1(C)O[C@]2(C)CC[C@H]1CC2
REMARK SMILES IDX 1 1 2 2 9 3 10 4 11 5 5 6 4 7 7 8 8 9 6 10 3 11
REMARK H PARENT
REMARK Flexibility Score: inf
ROOT
ATOM      1  C   UNL     1     139.934 146.486 139.083  1.00  0.00     0.042 C 
ATOM      2  C   UNL     1     141.071 146.443 140.127  1.00  0.00     0.066 C 
ATOM      3  C   UNL     1     140.557 146.943 141.532  1.00  0.00     0.021 C 
ATOM      4  C   UNL     1     141.746 146.927 142.522  1.00  0.00     0.009 C 
ATOM      5  C   UNL     1     142.937 147.696 141.900  1.00  0.00     0.035 C 
ATOM      6  C   UNL     1     142.514 148.303 140.531  1.00  0.00     0.066 C 
ATOM      7  O   UNL     1     142.155 147.247 139.640  1.00  0.00    -0.369 OA
ATOM      8  C   UNL     1     141.282 149.229 140.748  1.00  0.00     0.035 C 
ATOM      9  C   UNL     1     140.130 148.424 141.398  1.00  0.00     0.009 C 
ATOM     10  C   UNL     1     143.673 149.096 139.918  1.00  0.00     0.042 C 
ATOM     11  C   UNL     1     141.560 144.980 140.213  1.00  0.00     0.042 C 
ENDROOT
TORSDOF 0
ENDMDL
MODEL 8
REMARK VINA RESULT:    -3.036      7.200      8.999
REMARK INTER + INTRA:          -3.036
REMARK INTER:                  -3.036
REMARK INTRA:                   0.000
REMARK UNBOUND:                 0.000
REMARK SMILES CC1(C)O[C@]2(C)CC[C@H]1CC2
REMARK SMILES IDX 1 1 2 2 9 3 10 4 11 5 5 6 4 7 7 8 8 9 6 10 3 11
REMARK H PARENT
REMARK Flexibility Score: inf
ROOT
ATOM      1  C   UNL     1     140.129 147.298 139.162  1.00  0.00     0.042 C 
ATOM      2  C   UNL     1     140.668 147.271 140.609  1.00  0.00     0.066 C 
ATOM      3  C   UNL     1     142.237 147.440 140.623  1.00  0.00     0.021 C 
ATOM      4  C   UNL     1     142.725 147.355 142.089  1.00  0.00     0.009 C 
ATOM      5  C   UNL     1     142.155 146.072 142.741  1.00  0.00     0.035 C 
ATOM      6  C   UNL     1     141.359 145.253 141.684  1.00  0.00     0.066 C 
ATOM      7  O   UNL     1     140.260 146.035 141.214  1.00  0.00    -0.369 OA
ATOM      8  C   UNL     1     142.299 144.922 140.489  1.00  0.00     0.035 C 
ATOM      9  C   UNL     1     142.866 146.231 139.890  1.00  0.00     0.009 C 
ATOM     10  C   UNL     1     140.816 143.962 142.307  1.00  0.00     0.042 C 
ATOM     11  C   UNL     1     139.987 148.427 141.374  1.00  0.00     0.042 C 
ENDROOT
TORSDOF 0
ENDMDL
MODEL 9
REMARK VINA RESULT:    -3.009      1.277      2.986
REMARK INTER + INTRA:          -3.009
REMARK INTER:                  -3.009
REMARK INTRA:                   0.000
REMARK UNBOUND:                 0.000
REMARK SMILES CC1(C)O[C@]2(C)CC[C@H]1CC2
REMARK SMILES IDX 1 1 2 2 9 3 10 4 11 5 5 6 4 7 7 8 8 9 6 10 3 11
REMARK H PARENT
REMARK Flexibility Score: inf
ROOT
ATOM      1  C   UNL     1     133.459 140.767 139.109  1.00  0.00     0.042 C 
ATOM      2  C   UNL     1     134.019 140.797 140.548  1.00  0.00     0.066 C 
ATOM      3  C   UNL     1     134.023 142.270 141.114  1.00  0.00     0.021 C 
ATOM      4  C   UNL     1     134.639 142.248 142.534  1.00  0.00     0.009 C 
ATOM      5  C   UNL     1     136.001 141.514 142.486  1.00  0.00     0.035 C 
ATOM      6  C   UNL     1     136.338 141.125 141.017  1.00  0.00     0.066 C 
ATOM      7  O   UNL     1     135.337 140.232 140.527  1.00  0.00    -0.369 OA
ATOM      8  C   UNL     1     136.347 142.412 140.143  1.00  0.00     0.035 C 
ATOM      9  C   UNL     1     134.977 143.125 140.246  1.00  0.00     0.009 C 
ATOM     10  C   UNL     1     137.701 140.427 140.949  1.00  0.00     0.042 C 
ATOM     11  C   UNL     1     133.120 139.884 141.410  1.00  0.00     0.042 C 
ENDROOT
TORSDOF 0
ENDMDL
