MODEL 1
REMARK VINA RESULT:    29.449      0.000      0.000
REMARK INTER + INTRA:          77.121
REMARK INTER:                  77.652
REMARK INTRA:                  -0.531
REMARK UNBOUND:                -0.531
REMARK SMILES CCCCCCCCCCCCCCCCCCCCCCCCCCCCCC(=O)[O-]
REMARK SMILES IDX 16 1 17 2 18 3 19 4 20 5 21 6 22 7 23 8 24 9 25 10 26 11
REMARK SMILES IDX 27 12 28 13 29 14 30 15 31 16 32 17 15 18 14 19 13 20 12 21
REMARK SMILES IDX 11 22 10 23 9 24 8 25 7 26 6 27 5 28 4 29 3 30 2 31 1 32
REMARK H PARENT
REMARK Flexibility Score: inf
ROOT
ATOM      1  C   UNL     1      57.489  48.050  18.198  1.00  0.00     0.000 C 
ENDROOT
BRANCH   1   2
ATOM      2  C   UNL     1      56.308  47.625  19.083  1.00  0.00     0.000 C 
BRANCH   2   3
ATOM      3  C   UNL     1      56.060  48.650  20.197  1.00  0.00     0.000 C 
BRANCH   3   4
ATOM      4  C   UNL     1      55.772  47.997  21.560  1.00  0.00     0.000 C 
BRANCH   4   5
ATOM      5  C   UNL     1      57.043  47.656  22.367  1.00  0.00     0.000 C 
BRANCH   5   6
ATOM      6  C   UNL     1      57.535  46.220  22.106  1.00  0.00     0.000 C 
BRANCH   6   7
ATOM      7  C   UNL     1      56.593  45.443  21.161  1.00  0.00     0.000 C 
BRANCH   7   8
ATOM      8  C   UNL     1      56.820  43.922  21.185  1.00  0.00     0.000 C 
BRANCH   8   9
ATOM      9  C   UNL     1      55.682  43.141  20.514  1.00  0.00     0.000 C 
BRANCH   9  10
ATOM     10  C   UNL     1      55.372  41.848  21.281  1.00  0.00     0.000 C 
BRANCH  10  11
ATOM     11  C   UNL     1      53.934  41.347  21.051  1.00  0.00     0.000 C 
BRANCH  11  12
ATOM     12  C   UNL     1      53.809  40.125  20.118  1.00  0.00     0.000 C 
BRANCH  12  13
ATOM     13  C   UNL     1      55.055  39.220  20.054  1.00  0.00     0.006 C 
BRANCH  13  14
ATOM     14  C   UNL     1      56.031  39.402  21.226  1.00  0.00     0.053 C 
BRANCH  14  15
ATOM     15  C   UNL     1      57.185  38.450  21.147  1.00  0.00     0.041 C 
ATOM     16  O   UNL     1      57.006  37.219  21.346  1.00  0.00    -0.550 OA
ATOM     17  O   UNL     1      58.451  38.917  20.819  1.00  0.00    -0.550 OA
ENDBRANCH  14  15
ENDBRANCH  13  14
ENDBRANCH  12  13
ENDBRANCH  11  12
ENDBRANCH  10  11
ENDBRANCH   9  10
ENDBRANCH   8   9
ENDBRANCH   7   8
ENDBRANCH   6   7
ENDBRANCH   5   6
ENDBRANCH   4   5
ENDBRANCH   3   4
ENDBRANCH   2   3
ENDBRANCH   1   2
BRANCH   1  18
ATOM     18  C   UNL     1      57.078  48.330  16.740  1.00  0.00     0.000 C 
BRANCH  18  19
ATOM     19  C   UNL     1      56.523  49.743  16.483  1.00  0.00     0.000 C 
BRANCH  19  20
ATOM     20  C   UNL     1      54.985  49.784  16.449  1.00  0.00     0.000 C 
BRANCH  20  21
ATOM     21  C   UNL     1      54.404  50.939  17.280  1.00  0.00     0.000 C 
BRANCH  21  22
ATOM     22  C   UNL     1      55.379  52.124  17.413  1.00  0.00     0.000 C 
BRANCH  22  23
ATOM     23  C   UNL     1      55.063  53.020  18.629  1.00  0.00     0.000 C 
BRANCH  23  24
ATOM     24  C   UNL     1      55.917  52.710  19.874  1.00  0.00    -0.000 C 
BRANCH  24  25
ATOM     25  C   UNL     1      55.136  52.159  21.080  1.00  0.00    -0.000 C 
BRANCH  25  26
ATOM     26  C   UNL     1      53.702  52.707  21.233  1.00  0.00    -0.000 C 
BRANCH  26  27
ATOM     27  C   UNL     1      53.433  53.493  22.531  1.00  0.00    -0.000 C 
BRANCH  27  28
ATOM     28  C   UNL     1      54.055  54.901  22.589  1.00  0.00    -0.000 C 
BRANCH  28  29
ATOM     29  C   UNL     1      53.876  55.575  23.960  1.00  0.00    -0.000 C 
BRANCH  29  30
ATOM     30  C   UNL     1      54.993  56.584  24.283  1.00  0.00    -0.000 C 
BRANCH  30  31
ATOM     31  C   UNL     1      55.690  56.374  25.639  1.00  0.00    -0.003 C 
ATOM     32  C   UNL     1      57.215  56.358  25.534  1.00  0.00     0.004 C 
ENDBRANCH  30  31
ENDBRANCH  29  30
ENDBRANCH  28  29
ENDBRANCH  27  28
ENDBRANCH  26  27
ENDBRANCH  25  26
ENDBRANCH  24  25
ENDBRANCH  23  24
ENDBRANCH  22  23
ENDBRANCH  21  22
ENDBRANCH  20  21
ENDBRANCH  19  20
ENDBRANCH  18  19
ENDBRANCH   1  18
TORSDOF 28
ENDMDL
MODEL 2
REMARK VINA RESULT:    29.766      4.552     11.469
REMARK INTER + INTRA:          77.959
REMARK INTER:                  79.062
REMARK INTRA:                  -1.103
REMARK UNBOUND:                -0.531
REMARK SMILES CCCCCCCCCCCCCCCCCCCCCCCCCCCCCC(=O)[O-]
REMARK SMILES IDX 16 1 17 2 18 3 19 4 20 5 21 6 22 7 23 8 24 9 25 10 26 11
REMARK SMILES IDX 27 12 28 13 29 14 30 15 31 16 32 17 15 18 14 19 13 20 12 21
REMARK SMILES IDX 11 22 10 23 9 24 8 25 7 26 6 27 5 28 4 29 3 30 2 31 1 32
REMARK H PARENT
REMARK Flexibility Score: inf
ROOT
ATOM      1  C   UNL     1      54.424  51.403  17.366  1.00  0.00     0.000 C 
ENDROOT
BRANCH   1   2
ATOM      2  C   UNL     1      55.365  52.540  17.792  1.00  0.00     0.000 C 
BRANCH   2   3
ATOM      3  C   UNL     1      54.810  53.285  19.014  1.00  0.00     0.000 C 
BRANCH   3   4
ATOM      4  C   UNL     1      55.302  52.699  20.348  1.00  0.00     0.000 C 
BRANCH   4   5
ATOM      5  C   UNL     1      54.218  52.656  21.446  1.00  0.00     0.000 C 
BRANCH   5   6
ATOM      6  C   UNL     1      53.577  54.035  21.691  1.00  0.00     0.000 C 
BRANCH   6   7
ATOM      7  C   UNL     1      53.834  54.552  23.124  1.00  0.00     0.000 C 
BRANCH   7   8
ATOM      8  C   UNL     1      55.327  54.715  23.457  1.00  0.00     0.000 C 
BRANCH   8   9
ATOM      9  C   UNL     1      55.723  56.176  23.709  1.00  0.00     0.000 C 
BRANCH   9  10
ATOM     10  C   UNL     1      55.047  56.722  24.974  1.00  0.00     0.000 C 
BRANCH  10  11
ATOM     11  C   UNL     1      53.534  56.939  24.797  1.00  0.00     0.000 C 
BRANCH  11  12
ATOM     12  C   UNL     1      52.665  56.501  25.994  1.00  0.00     0.000 C 
BRANCH  12  13
ATOM     13  C   UNL     1      53.216  55.308  26.801  1.00  0.00     0.006 C 
BRANCH  13  14
ATOM     14  C   UNL     1      52.383  54.944  28.040  1.00  0.00     0.053 C 
BRANCH  14  15
ATOM     15  C   UNL     1      52.234  53.461  28.197  1.00  0.00     0.041 C 
ATOM     16  O   UNL     1      53.107  52.683  27.728  1.00  0.00    -0.550 OA
ATOM     17  O   UNL     1      51.149  52.940  28.890  1.00  0.00    -0.550 OA
ENDBRANCH  14  15
ENDBRANCH  13  14
ENDBRANCH  12  13
ENDBRANCH  11  12
ENDBRANCH  10  11
ENDBRANCH   9  10
ENDBRANCH   8   9
ENDBRANCH   7   8
ENDBRANCH   6   7
ENDBRANCH   5   6
ENDBRANCH   4   5
ENDBRANCH   3   4
ENDBRANCH   2   3
ENDBRANCH   1   2
BRANCH   1  18
ATOM     18  C   UNL     1      54.659  50.940  15.916  1.00  0.00     0.000 C 
BRANCH  18  19
ATOM     19  C   UNL     1      55.562  49.701  15.771  1.00  0.00     0.000 C 
BRANCH  19  20
ATOM     20  C   UNL     1      56.487  49.491  16.982  1.00  0.00     0.000 C 
BRANCH  20  21
ATOM     21  C   UNL     1      57.269  48.170  16.908  1.00  0.00     0.000 C 
BRANCH  21  22
ATOM     22  C   UNL     1      57.304  47.425  18.256  1.00  0.00     0.000 C 
BRANCH  22  23
ATOM     23  C   UNL     1      56.253  47.954  19.255  1.00  0.00     0.000 C 
BRANCH  23  24
ATOM     24  C   UNL     1      56.209  47.178  20.586  1.00  0.00    -0.000 C 
BRANCH  24  25
ATOM     25  C   UNL     1      56.948  47.849  21.757  1.00  0.00    -0.000 C 
BRANCH  25  26
ATOM     26  C   UNL     1      57.439  46.883  22.856  1.00  0.00    -0.000 C 
BRANCH  26  27
ATOM     27  C   UNL     1      56.606  45.596  23.019  1.00  0.00    -0.000 C 
BRANCH  27  28
ATOM     28  C   UNL     1      57.151  44.361  22.277  1.00  0.00    -0.000 C 
BRANCH  28  29
ATOM     29  C   UNL     1      56.121  43.739  21.319  1.00  0.00    -0.000 C 
BRANCH  29  30
ATOM     30  C   UNL     1      56.351  42.235  21.084  1.00  0.00    -0.000 C 
BRANCH  30  31
ATOM     31  C   UNL     1      55.194  41.322  21.527  1.00  0.00    -0.003 C 
ATOM     32  C   UNL     1      54.827  40.269  20.480  1.00  0.00     0.004 C 
ENDBRANCH  30  31
ENDBRANCH  29  30
ENDBRANCH  28  29
ENDBRANCH  27  28
ENDBRANCH  26  27
ENDBRANCH  25  26
ENDBRANCH  24  25
ENDBRANCH  23  24
ENDBRANCH  22  23
ENDBRANCH  21  22
ENDBRANCH  20  21
ENDBRANCH  19  20
ENDBRANCH  18  19
ENDBRANCH   1  18
TORSDOF 28
ENDMDL
MODEL 3
REMARK VINA RESULT:    29.788      1.002      2.032
REMARK INTER + INTRA:          78.017
REMARK INTER:                  79.535
REMARK INTRA:                  -1.518
REMARK UNBOUND:                -0.531
REMARK SMILES CCCCCCCCCCCCCCCCCCCCCCCCCCCCCC(=O)[O-]
REMARK SMILES IDX 16 1 17 2 18 3 19 4 20 5 21 6 22 7 23 8 24 9 25 10 26 11
REMARK SMILES IDX 27 12 28 13 29 14 30 15 31 16 32 17 15 18 14 19 13 20 12 21
REMARK SMILES IDX 11 22 10 23 9 24 8 25 7 26 6 27 5 28 4 29 3 30 2 31 1 32
REMARK H PARENT
REMARK Flexibility Score: inf
ROOT
ATOM      1  C   UNL     1      55.291  49.179  16.751  1.00  0.00     0.000 C 
ENDROOT
BRANCH   1   2
ATOM      2  C   UNL     1      56.738  48.848  17.146  1.00  0.00     0.000 C 
BRANCH   2   3
ATOM      3  C   UNL     1      56.776  47.837  18.300  1.00  0.00     0.000 C 
BRANCH   3   4
ATOM      4  C   UNL     1      55.736  48.136  19.393  1.00  0.00     0.000 C 
BRANCH   4   5
ATOM      5  C   UNL     1      55.990  47.382  20.716  1.00  0.00     0.000 C 
BRANCH   5   6
ATOM      6  C   UNL     1      57.491  47.217  21.018  1.00  0.00     0.000 C 
BRANCH   6   7
ATOM      7  C   UNL     1      57.743  46.661  22.436  1.00  0.00     0.000 C 
BRANCH   7   8
ATOM      8  C   UNL     1      56.865  45.447  22.783  1.00  0.00     0.000 C 
BRANCH   8   9
ATOM      9  C   UNL     1      57.283  44.176  22.032  1.00  0.00     0.000 C 
BRANCH   9  10
ATOM     10  C   UNL     1      56.168  43.698  21.092  1.00  0.00     0.000 C 
BRANCH  10  11
ATOM     11  C   UNL     1      56.150  42.170  20.915  1.00  0.00     0.000 C 
BRANCH  11  12
ATOM     12  C   UNL     1      54.941  41.452  21.550  1.00  0.00     0.000 C 
BRANCH  12  13
ATOM     13  C   UNL     1      54.665  40.033  21.013  1.00  0.00     0.006 C 
BRANCH  13  14
ATOM     14  C   UNL     1      55.763  39.482  20.090  1.00  0.00     0.053 C 
BRANCH  14  15
ATOM     15  C   UNL     1      56.901  38.890  20.865  1.00  0.00     0.041 C 
ATOM     16  O   UNL     1      57.855  39.618  21.246  1.00  0.00    -0.550 OA
ATOM     17  O   UNL     1      56.890  37.542  21.197  1.00  0.00    -0.550 OA
ENDBRANCH  14  15
ENDBRANCH  13  14
ENDBRANCH  12  13
ENDBRANCH  11  12
ENDBRANCH  10  11
ENDBRANCH   9  10
ENDBRANCH   8   9
ENDBRANCH   7   8
ENDBRANCH   6   7
ENDBRANCH   5   6
ENDBRANCH   4   5
ENDBRANCH   3   4
ENDBRANCH   2   3
ENDBRANCH   1   2
BRANCH   1  18
ATOM     18  C   UNL     1      55.198  50.279  15.677  1.00  0.00     0.000 C 
BRANCH  18  19
ATOM     19  C   UNL     1      55.996  51.559  15.989  1.00  0.00     0.000 C 
BRANCH  19  20
ATOM     20  C   UNL     1      56.046  51.880  17.492  1.00  0.00     0.000 C 
BRANCH  20  21
ATOM     21  C   UNL     1      55.436  53.250  17.827  1.00  0.00     0.000 C 
BRANCH  21  22
ATOM     22  C   UNL     1      54.861  53.311  19.254  1.00  0.00     0.000 C 
BRANCH  22  23
ATOM     23  C   UNL     1      55.410  52.192  20.165  1.00  0.00     0.000 C 
BRANCH  23  24
ATOM     24  C   UNL     1      55.661  52.636  21.619  1.00  0.00    -0.000 C 
BRANCH  24  25
ATOM     25  C   UNL     1      55.028  53.984  22.009  1.00  0.00    -0.000 C 
BRANCH  25  26
ATOM     26  C   UNL     1      53.605  53.888  22.600  1.00  0.00    -0.000 C 
BRANCH  26  27
ATOM     27  C   UNL     1      53.291  54.900  23.720  1.00  0.00    -0.000 C 
BRANCH  27  28
ATOM     28  C   UNL     1      53.940  56.287  23.555  1.00  0.00    -0.000 C 
BRANCH  28  29
ATOM     29  C   UNL     1      54.117  57.024  24.893  1.00  0.00    -0.000 C 
BRANCH  29  30
ATOM     30  C   UNL     1      55.394  56.605  25.645  1.00  0.00    -0.000 C 
BRANCH  30  31
ATOM     31  C   UNL     1      56.555  56.138  24.748  1.00  0.00    -0.003 C 
ATOM     32  C   UNL     1      57.667  55.433  25.525  1.00  0.00     0.004 C 
ENDBRANCH  30  31
ENDBRANCH  29  30
ENDBRANCH  28  29
ENDBRANCH  27  28
ENDBRANCH  26  27
ENDBRANCH  25  26
ENDBRANCH  24  25
ENDBRANCH  23  24
ENDBRANCH  22  23
ENDBRANCH  21  22
ENDBRANCH  20  21
ENDBRANCH  19  20
ENDBRANCH  18  19
ENDBRANCH   1  18
TORSDOF 28
ENDMDL
MODEL 4
REMARK VINA RESULT:    30.724      2.112      2.727
REMARK INTER + INTRA:          80.485
REMARK INTER:                  82.711
REMARK INTRA:                  -2.226
REMARK UNBOUND:                -0.531
REMARK SMILES CCCCCCCCCCCCCCCCCCCCCCCCCCCCCC(=O)[O-]
REMARK SMILES IDX 16 1 17 2 18 3 19 4 20 5 21 6 22 7 23 8 24 9 25 10 26 11
REMARK SMILES IDX 27 12 28 13 29 14 30 15 31 16 32 17 15 18 14 19 13 20 12 21
REMARK SMILES IDX 11 22 10 23 9 24 8 25 7 26 6 27 5 28 4 29 3 30 2 31 1 32
REMARK H PARENT
REMARK Flexibility Score: inf
ROOT
ATOM      1  C   UNL     1      56.767  48.153  16.734  1.00  0.00     0.000 C 
ENDROOT
BRANCH   1   2
ATOM      2  C   UNL     1      57.222  48.017  18.194  1.00  0.00     0.000 C 
BRANCH   2   3
ATOM      3  C   UNL     1      56.182  48.612  19.152  1.00  0.00     0.000 C 
BRANCH   3   4
ATOM      4  C   UNL     1      55.586  47.570  20.113  1.00  0.00     0.000 C 
BRANCH   4   5
ATOM      5  C   UNL     1      56.600  47.014  21.135  1.00  0.00     0.000 C 
BRANCH   5   6
ATOM      6  C   UNL     1      56.471  45.490  21.319  1.00  0.00     0.000 C 
BRANCH   6   7
ATOM      7  C   UNL     1      55.517  44.856  20.283  1.00  0.00     0.000 C 
BRANCH   7   8
ATOM      8  C   UNL     1      55.869  43.399  19.937  1.00  0.00     0.000 C 
BRANCH   8   9
ATOM      9  C   UNL     1      56.067  42.524  21.182  1.00  0.00     0.000 C 
BRANCH   9  10
ATOM     10  C   UNL     1      56.051  41.033  20.817  1.00  0.00     0.000 C 
BRANCH  10  11
ATOM     11  C   UNL     1      54.779  40.313  21.297  1.00  0.00     0.000 C 
BRANCH  11  12
ATOM     12  C   UNL     1      53.738  40.019  20.197  1.00  0.00     0.000 C 
BRANCH  12  13
ATOM     13  C   UNL     1      52.691  41.127  19.973  1.00  0.00     0.006 C 
BRANCH  13  14
ATOM     14  C   UNL     1      52.558  42.118  21.140  1.00  0.00     0.053 C 
BRANCH  14  15
ATOM     15  C   UNL     1      51.547  41.662  22.148  1.00  0.00     0.041 C 
ATOM     16  O   UNL     1      50.411  42.201  22.196  1.00  0.00    -0.550 OA
ATOM     17  O   UNL     1      51.849  40.617  23.012  1.00  0.00    -0.550 OA
ENDBRANCH  14  15
ENDBRANCH  13  14
ENDBRANCH  12  13
ENDBRANCH  11  12
ENDBRANCH  10  11
ENDBRANCH   9  10
ENDBRANCH   8   9
ENDBRANCH   7   8
ENDBRANCH   6   7
ENDBRANCH   5   6
ENDBRANCH   4   5
ENDBRANCH   3   4
ENDBRANCH   2   3
ENDBRANCH   1   2
BRANCH   1  18
ATOM     18  C   UNL     1      56.578  49.617  16.296  1.00  0.00     0.000 C 
BRANCH  18  19
ATOM     19  C   UNL     1      55.228  49.923  15.621  1.00  0.00     0.000 C 
BRANCH  19  20
ATOM     20  C   UNL     1      54.417  50.997  16.367  1.00  0.00     0.000 C 
BRANCH  20  21
ATOM     21  C   UNL     1      55.070  51.419  17.692  1.00  0.00     0.000 C 
BRANCH  21  22
ATOM     22  C   UNL     1      55.182  52.949  17.837  1.00  0.00     0.000 C 
BRANCH  22  23
ATOM     23  C   UNL     1      55.131  53.412  19.308  1.00  0.00     0.000 C 
BRANCH  23  24
ATOM     24  C   UNL     1      54.908  52.268  20.317  1.00  0.00    -0.000 C 
BRANCH  24  25
ATOM     25  C   UNL     1      54.065  52.640  21.550  1.00  0.00    -0.000 C 
BRANCH  25  26
ATOM     26  C   UNL     1      54.495  53.939  22.264  1.00  0.00    -0.000 C 
BRANCH  26  27
ATOM     27  C   UNL     1      53.354  54.726  22.937  1.00  0.00    -0.000 C 
BRANCH  27  28
ATOM     28  C   UNL     1      53.774  56.044  23.616  1.00  0.00    -0.000 C 
BRANCH  28  29
ATOM     29  C   UNL     1      54.183  55.851  25.087  1.00  0.00    -0.000 C 
BRANCH  29  30
ATOM     30  C   UNL     1      55.396  56.710  25.490  1.00  0.00    -0.000 C 
BRANCH  30  31
ATOM     31  C   UNL     1      56.733  56.291  24.853  1.00  0.00    -0.003 C 
ATOM     32  C   UNL     1      57.908  56.351  25.829  1.00  0.00     0.004 C 
ENDBRANCH  30  31
ENDBRANCH  29  30
ENDBRANCH  28  29
ENDBRANCH  27  28
ENDBRANCH  26  27
ENDBRANCH  25  26
ENDBRANCH  24  25
ENDBRANCH  23  24
ENDBRANCH  22  23
ENDBRANCH  21  22
ENDBRANCH  20  21
ENDBRANCH  19  20
ENDBRANCH  18  19
ENDBRANCH   1  18
TORSDOF 28
ENDMDL
MODEL 5
REMARK VINA RESULT:    30.997      4.726     12.001
REMARK INTER + INTRA:          81.205
REMARK INTER:                  82.723
REMARK INTRA:                  -1.518
REMARK UNBOUND:                -0.531
REMARK SMILES CCCCCCCCCCCCCCCCCCCCCCCCCCCCCC(=O)[O-]
REMARK SMILES IDX 16 1 17 2 18 3 19 4 20 5 21 6 22 7 23 8 24 9 25 10 26 11
REMARK SMILES IDX 27 12 28 13 29 14 30 15 31 16 32 17 15 18 14 19 13 20 12 21
REMARK SMILES IDX 11 22 10 23 9 24 8 25 7 26 6 27 5 28 4 29 3 30 2 31 1 32
REMARK H PARENT
REMARK Flexibility Score: inf
ROOT
ATOM      1  C   UNL     1      56.873  47.365  18.785  1.00  0.00     0.000 C 
ENDROOT
BRANCH   1   2
ATOM      2  C   UNL     1      56.245  48.537  18.017  1.00  0.00     0.000 C 
BRANCH   2   3
ATOM      3  C   UNL     1      57.014  48.820  16.720  1.00  0.00     0.000 C 
BRANCH   3   4
ATOM      4  C   UNL     1      56.093  49.183  15.543  1.00  0.00     0.000 C 
BRANCH   4   5
ATOM      5  C   UNL     1      54.892  50.067  15.942  1.00  0.00     0.000 C 
BRANCH   5   6
ATOM      6  C   UNL     1      55.330  51.444  16.475  1.00  0.00     0.000 C 
BRANCH   6   7
ATOM      7  C   UNL     1      54.844  51.693  17.919  1.00  0.00     0.000 C 
BRANCH   7   8
ATOM      8  C   UNL     1      55.416  52.976  18.546  1.00  0.00     0.000 C 
BRANCH   8   9
ATOM      9  C   UNL     1      54.495  53.576  19.616  1.00  0.00     0.000 C 
BRANCH   9  10
ATOM     10  C   UNL     1      54.682  52.870  20.966  1.00  0.00     0.000 C 
BRANCH  10  11
ATOM     11  C   UNL     1      53.512  53.115  21.936  1.00  0.00     0.000 C 
BRANCH  11  12
ATOM     12  C   UNL     1      53.582  54.439  22.724  1.00  0.00     0.000 C 
BRANCH  12  13
ATOM     13  C   UNL     1      55.006  54.953  23.016  1.00  0.00     0.006 C 
BRANCH  13  14
ATOM     14  C   UNL     1      55.057  56.351  23.650  1.00  0.00     0.053 C 
BRANCH  14  15
ATOM     15  C   UNL     1      55.609  56.314  25.042  1.00  0.00     0.041 C 
ATOM     16  O   UNL     1      56.824  56.048  25.237  1.00  0.00    -0.550 OA
ATOM     17  O   UNL     1      54.788  56.608  26.124  1.00  0.00    -0.550 OA
ENDBRANCH  14  15
ENDBRANCH  13  14
ENDBRANCH  12  13
ENDBRANCH  11  12
ENDBRANCH  10  11
ENDBRANCH   9  10
ENDBRANCH   8   9
ENDBRANCH   7   8
ENDBRANCH   6   7
ENDBRANCH   5   6
ENDBRANCH   4   5
ENDBRANCH   3   4
ENDBRANCH   2   3
ENDBRANCH   1   2
BRANCH   1  18
ATOM     18  C   UNL     1      56.192  47.101  20.142  1.00  0.00     0.000 C 
BRANCH  18  19
ATOM     19  C   UNL     1      56.300  48.255  21.156  1.00  0.00     0.000 C 
BRANCH  19  20
ATOM     20  C   UNL     1      56.561  47.767  22.591  1.00  0.00     0.000 C 
BRANCH  20  21
ATOM     21  C   UNL     1      57.889  47.005  22.726  1.00  0.00     0.000 C 
BRANCH  21  22
ATOM     22  C   UNL     1      57.686  45.496  22.958  1.00  0.00     0.000 C 
BRANCH  22  23
ATOM     23  C   UNL     1      56.565  44.905  22.077  1.00  0.00     0.000 C 
BRANCH  23  24
ATOM     24  C   UNL     1      56.974  43.625  21.320  1.00  0.00    -0.000 C 
BRANCH  24  25
ATOM     25  C   UNL     1      56.217  43.377  20.003  1.00  0.00    -0.000 C 
BRANCH  25  26
ATOM     26  C   UNL     1      54.683  43.283  20.141  1.00  0.00    -0.000 C 
BRANCH  26  27
ATOM     27  C   UNL     1      54.113  41.852  20.170  1.00  0.00    -0.000 C 
BRANCH  27  28
ATOM     28  C   UNL     1      53.887  41.263  21.576  1.00  0.00    -0.000 C 
BRANCH  28  29
ATOM     29  C   UNL     1      55.016  40.314  22.012  1.00  0.00    -0.000 C 
BRANCH  29  30
ATOM     30  C   UNL     1      55.923  39.883  20.845  1.00  0.00    -0.000 C 
BRANCH  30  31
ATOM     31  C   UNL     1      56.462  38.444  20.935  1.00  0.00    -0.003 C 
ATOM     32  C   UNL     1      57.963  38.383  21.221  1.00  0.00     0.004 C 
ENDBRANCH  30  31
ENDBRANCH  29  30
ENDBRANCH  28  29
ENDBRANCH  27  28
ENDBRANCH  26  27
ENDBRANCH  25  26
ENDBRANCH  24  25
ENDBRANCH  23  24
ENDBRANCH  22  23
ENDBRANCH  21  22
ENDBRANCH  20  21
ENDBRANCH  19  20
ENDBRANCH  18  19
ENDBRANCH   1  18
TORSDOF 28
ENDMDL
MODEL 6
REMARK VINA RESULT:    31.008      4.750     11.926
REMARK INTER + INTRA:          81.234
REMARK INTER:                  81.652
REMARK INTRA:                  -0.418
REMARK UNBOUND:                -0.531
REMARK SMILES CCCCCCCCCCCCCCCCCCCCCCCCCCCCCC(=O)[O-]
REMARK SMILES IDX 16 1 17 2 18 3 19 4 20 5 21 6 22 7 23 8 24 9 25 10 26 11
REMARK SMILES IDX 27 12 28 13 29 14 30 15 31 16 32 17 15 18 14 19 13 20 12 21
REMARK SMILES IDX 11 22 10 23 9 24 8 25 7 26 6 27 5 28 4 29 3 30 2 31 1 32
REMARK H PARENT
REMARK Flexibility Score: inf
ROOT
ATOM      1  C   UNL     1      57.147  48.366  17.123  1.00  0.00     0.000 C 
ENDROOT
BRANCH   1   2
ATOM      2  C   UNL     1      56.542  49.547  16.351  1.00  0.00     0.000 C 
BRANCH   2   3
ATOM      3  C   UNL     1      55.013  49.434  16.283  1.00  0.00     0.000 C 
BRANCH   3   4
ATOM      4  C   UNL     1      54.337  50.728  15.798  1.00  0.00     0.000 C 
BRANCH   4   5
ATOM      5  C   UNL     1      54.406  51.885  16.817  1.00  0.00     0.000 C 
BRANCH   5   6
ATOM      6  C   UNL     1      55.597  51.746  17.783  1.00  0.00     0.000 C 
BRANCH   6   7
ATOM      7  C   UNL     1      55.595  52.839  18.875  1.00  0.00     0.000 C 
BRANCH   7   8
ATOM      8  C   UNL     1      55.433  52.281  20.299  1.00  0.00     0.000 C 
BRANCH   8   9
ATOM      9  C   UNL     1      54.072  52.622  20.919  1.00  0.00     0.000 C 
BRANCH   9  10
ATOM     10  C   UNL     1      54.103  53.998  21.599  1.00  0.00     0.000 C 
BRANCH  10  11
ATOM     11  C   UNL     1      53.119  54.105  22.778  1.00  0.00     0.000 C 
BRANCH  11  12
ATOM     12  C   UNL     1      53.694  54.759  24.051  1.00  0.00     0.000 C 
BRANCH  12  13
ATOM     13  C   UNL     1      54.554  56.015  23.811  1.00  0.00     0.006 C 
BRANCH  13  14
ATOM     14  C   UNL     1      54.969  56.753  25.094  1.00  0.00     0.053 C 
BRANCH  14  15
ATOM     15  C   UNL     1      56.454  56.732  25.295  1.00  0.00     0.041 C 
ATOM     16  O   UNL     1      56.945  57.003  26.423  1.00  0.00    -0.550 OA
ATOM     17  O   UNL     1      57.294  56.380  24.246  1.00  0.00    -0.550 OA
ENDBRANCH  14  15
ENDBRANCH  13  14
ENDBRANCH  12  13
ENDBRANCH  11  12
ENDBRANCH  10  11
ENDBRANCH   9  10
ENDBRANCH   8   9
ENDBRANCH   7   8
ENDBRANCH   6   7
ENDBRANCH   5   6
ENDBRANCH   4   5
ENDBRANCH   3   4
ENDBRANCH   2   3
ENDBRANCH   1   2
BRANCH   1  18
ATOM     18  C   UNL     1      56.287  47.928  18.324  1.00  0.00     0.000 C 
BRANCH  18  19
ATOM     19  C   UNL     1      57.077  47.617  19.608  1.00  0.00     0.000 C 
BRANCH  19  20
ATOM     20  C   UNL     1      56.168  47.372  20.825  1.00  0.00     0.000 C 
BRANCH  20  21
ATOM     21  C   UNL     1      56.778  47.894  22.135  1.00  0.00     0.000 C 
BRANCH  21  22
ATOM     22  C   UNL     1      57.551  46.806  22.905  1.00  0.00     0.000 C 
BRANCH  22  23
ATOM     23  C   UNL     1      56.648  45.636  23.348  1.00  0.00     0.000 C 
BRANCH  23  24
ATOM     24  C   UNL     1      57.182  44.247  22.945  1.00  0.00    -0.000 C 
BRANCH  24  25
ATOM     25  C   UNL     1      57.191  43.965  21.432  1.00  0.00    -0.000 C 
BRANCH  25  26
ATOM     26  C   UNL     1      55.796  43.848  20.783  1.00  0.00    -0.000 C 
BRANCH  26  27
ATOM     27  C   UNL     1      55.298  42.407  20.553  1.00  0.00    -0.000 C 
BRANCH  27  28
ATOM     28  C   UNL     1      55.865  41.353  21.522  1.00  0.00    -0.000 C 
BRANCH  28  29
ATOM     29  C   UNL     1      55.450  39.919  21.151  1.00  0.00    -0.000 C 
BRANCH  29  30
ATOM     30  C   UNL     1      54.384  39.871  20.040  1.00  0.00    -0.000 C 
BRANCH  30  31
ATOM     31  C   UNL     1      52.989  40.371  20.454  1.00  0.00    -0.003 C 
ATOM     32  C   UNL     1      52.533  41.599  19.666  1.00  0.00     0.004 C 
ENDBRANCH  30  31
ENDBRANCH  29  30
ENDBRANCH  28  29
ENDBRANCH  27  28
ENDBRANCH  26  27
ENDBRANCH  25  26
ENDBRANCH  24  25
ENDBRANCH  23  24
ENDBRANCH  22  23
ENDBRANCH  21  22
ENDBRANCH  20  21
ENDBRANCH  19  20
ENDBRANCH  18  19
ENDBRANCH   1  18
TORSDOF 28
ENDMDL
MODEL 7
REMARK VINA RESULT:    31.142      4.801      8.215
REMARK INTER + INTRA:          81.587
REMARK INTER:                  81.931
REMARK INTRA:                  -0.343
REMARK UNBOUND:                -0.531
REMARK SMILES CCCCCCCCCCCCCCCCCCCCCCCCCCCCCC(=O)[O-]
REMARK SMILES IDX 16 1 17 2 18 3 19 4 20 5 21 6 22 7 23 8 24 9 25 10 26 11
REMARK SMILES IDX 27 12 28 13 29 14 30 15 31 16 32 17 15 18 14 19 13 20 12 21
REMARK SMILES IDX 11 22 10 23 9 24 8 25 7 26 6 27 5 28 4 29 3 30 2 31 1 32
REMARK H PARENT
REMARK Flexibility Score: inf
ROOT
ATOM      1  C   UNL     1      53.715  52.969  21.673  1.00  0.00     0.000 C 
ENDROOT
BRANCH   1   2
ATOM      2  C   UNL     1      54.968  53.008  20.786  1.00  0.00     0.000 C 
BRANCH   2   3
ATOM      3  C   UNL     1      54.628  53.501  19.374  1.00  0.00     0.000 C 
BRANCH   3   4
ATOM      4  C   UNL     1      55.498  52.849  18.285  1.00  0.00     0.000 C 
BRANCH   4   5
ATOM      5  C   UNL     1      54.737  51.834  17.405  1.00  0.00     0.000 C 
BRANCH   5   6
ATOM      6  C   UNL     1      55.601  51.298  16.248  1.00  0.00     0.000 C 
BRANCH   6   7
ATOM      7  C   UNL     1      55.281  49.825  15.915  1.00  0.00     0.000 C 
BRANCH   7   8
ATOM      8  C   UNL     1      56.445  48.864  16.208  1.00  0.00     0.000 C 
BRANCH   8   9
ATOM      9  C   UNL     1      56.699  48.677  17.710  1.00  0.00     0.000 C 
BRANCH   9  10
ATOM     10  C   UNL     1      55.379  48.563  18.483  1.00  0.00     0.000 C 
BRANCH  10  11
ATOM     11  C   UNL     1      55.586  48.403  20.000  1.00  0.00     0.000 C 
BRANCH  11  12
ATOM     12  C   UNL     1      56.306  47.108  20.428  1.00  0.00     0.000 C 
BRANCH  12  13
ATOM     13  C   UNL     1      57.444  47.300  21.450  1.00  0.00     0.006 C 
BRANCH  13  14
ATOM     14  C   UNL     1      57.407  46.318  22.631  1.00  0.00     0.053 C 
BRANCH  14  15
ATOM     15  C   UNL     1      56.643  46.874  23.795  1.00  0.00     0.041 C 
ATOM     16  O   UNL     1      56.401  48.107  23.864  1.00  0.00    -0.550 OA
ATOM     17  O   UNL     1      56.170  46.023  24.787  1.00  0.00    -0.550 OA
ENDBRANCH  14  15
ENDBRANCH  13  14
ENDBRANCH  12  13
ENDBRANCH  11  12
ENDBRANCH  10  11
ENDBRANCH   9  10
ENDBRANCH   8   9
ENDBRANCH   7   8
ENDBRANCH   6   7
ENDBRANCH   5   6
ENDBRANCH   4   5
ENDBRANCH   3   4
ENDBRANCH   2   3
ENDBRANCH   1   2
BRANCH   1  18
ATOM     18  C   UNL     1      53.237  54.370  22.099  1.00  0.00     0.000 C 
BRANCH  18  19
ATOM     19  C   UNL     1      53.817  54.874  23.434  1.00  0.00     0.000 C 
BRANCH  19  20
ATOM     20  C   UNL     1      55.013  55.823  23.246  1.00  0.00     0.000 C 
BRANCH  20  21
ATOM     21  C   UNL     1      55.693  56.191  24.574  1.00  0.00     0.000 C 
BRANCH  21  22
ATOM     22  C   UNL     1      54.680  56.491  25.695  1.00  0.00     0.000 C 
BRANCH  22  23
ATOM     23  C   UNL     1      53.648  55.358  25.883  1.00  0.00     0.000 C 
BRANCH  23  24
ATOM     24  C   UNL     1      52.794  55.496  27.158  1.00  0.00    -0.000 C 
BRANCH  24  25
ATOM     25  C   UNL     1      52.993  54.380  28.200  1.00  0.00    -0.000 C 
BRANCH  25  26
ATOM     26  C   UNL     1      52.096  53.140  28.007  1.00  0.00    -0.000 C 
BRANCH  26  27
ATOM     27  C   UNL     1      50.735  53.196  28.727  1.00  0.00    -0.000 C 
BRANCH  27  28
ATOM     28  C   UNL     1      50.603  52.279  29.958  1.00  0.00    -0.000 C 
BRANCH  28  29
ATOM     29  C   UNL     1      50.503  53.063  31.277  1.00  0.00    -0.000 C 
BRANCH  29  30
ATOM     30  C   UNL     1      49.129  52.922  31.957  1.00  0.00    -0.000 C 
BRANCH  30  31
ATOM     31  C   UNL     1      48.710  54.115  32.835  1.00  0.00    -0.003 C 
ATOM     32  C   UNL     1      49.129  53.958  34.298  1.00  0.00     0.004 C 
ENDBRANCH  30  31
ENDBRANCH  29  30
ENDBRANCH  28  29
ENDBRANCH  27  28
ENDBRANCH  26  27
ENDBRANCH  25  26
ENDBRANCH  24  25
ENDBRANCH  23  24
ENDBRANCH  22  23
ENDBRANCH  21  22
ENDBRANCH  20  21
ENDBRANCH  19  20
ENDBRANCH  18  19
ENDBRANCH   1  18
TORSDOF 28
ENDMDL
MODEL 8
REMARK VINA RESULT:    31.582      4.802     12.541
REMARK INTER + INTRA:          82.747
REMARK INTER:                  84.088
REMARK INTRA:                  -1.341
REMARK UNBOUND:                -0.531
REMARK SMILES CCCCCCCCCCCCCCCCCCCCCCCCCCCCCC(=O)[O-]
REMARK SMILES IDX 16 1 17 2 18 3 19 4 20 5 21 6 22 7 23 8 24 9 25 10 26 11
REMARK SMILES IDX 27 12 28 13 29 14 30 15 31 16 32 17 15 18 14 19 13 20 12 21
REMARK SMILES IDX 11 22 10 23 9 24 8 25 7 26 6 27 5 28 4 29 3 30 2 31 1 32
REMARK H PARENT
REMARK Flexibility Score: inf
ROOT
ATOM      1  C   UNL     1      55.274  47.800  19.830  1.00  0.00     0.000 C 
ENDROOT
BRANCH   1   2
ATOM      2  C   UNL     1      55.126  49.234  19.300  1.00  0.00     0.000 C 
BRANCH   2   3
ATOM      3  C   UNL     1      54.790  50.208  20.436  1.00  0.00     0.000 C 
BRANCH   3   4
ATOM      4  C   UNL     1      54.817  51.681  19.992  1.00  0.00     0.000 C 
BRANCH   4   5
ATOM      5  C   UNL     1      55.239  52.660  21.108  1.00  0.00     0.000 C 
BRANCH   5   6
ATOM      6  C   UNL     1      54.035  53.383  21.740  1.00  0.00     0.000 C 
BRANCH   6   7
ATOM      7  C   UNL     1      54.469  54.548  22.656  1.00  0.00     0.000 C 
BRANCH   7   8
ATOM      8  C   UNL     1      53.288  55.291  23.303  1.00  0.00     0.000 C 
BRANCH   8   9
ATOM      9  C   UNL     1      53.729  56.522  24.106  1.00  0.00     0.000 C 
BRANCH   9  10
ATOM     10  C   UNL     1      54.815  56.156  25.127  1.00  0.00     0.000 C 
BRANCH  10  11
ATOM     11  C   UNL     1      54.251  55.450  26.372  1.00  0.00     0.000 C 
BRANCH  11  12
ATOM     12  C   UNL     1      52.783  55.785  26.706  1.00  0.00     0.000 C 
BRANCH  12  13
ATOM     13  C   UNL     1      52.238  55.135  27.993  1.00  0.00     0.006 C 
BRANCH  13  14
ATOM     14  C   UNL     1      52.529  53.631  28.114  1.00  0.00     0.053 C 
BRANCH  14  15
ATOM     15  C   UNL     1      51.326  52.864  28.571  1.00  0.00     0.041 C 
ATOM     16  O   UNL     1      50.797  52.005  27.817  1.00  0.00    -0.550 OA
ATOM     17  O   UNL     1      50.809  53.073  29.843  1.00  0.00    -0.550 OA
ENDBRANCH  14  15
ENDBRANCH  13  14
ENDBRANCH  12  13
ENDBRANCH  11  12
ENDBRANCH  10  11
ENDBRANCH   9  10
ENDBRANCH   8   9
ENDBRANCH   7   8
ENDBRANCH   6   7
ENDBRANCH   5   6
ENDBRANCH   4   5
ENDBRANCH   3   4
ENDBRANCH   2   3
ENDBRANCH   1   2
BRANCH   1  18
ATOM     18  C   UNL     1      56.654  47.530  20.457  1.00  0.00     0.000 C 
BRANCH  18  19
ATOM     19  C   UNL     1      56.931  48.291  21.767  1.00  0.00     0.000 C 
BRANCH  19  20
ATOM     20  C   UNL     1      57.295  47.358  22.935  1.00  0.00     0.000 C 
BRANCH  20  21
ATOM     21  C   UNL     1      56.377  46.129  23.020  1.00  0.00     0.000 C 
BRANCH  21  22
ATOM     22  C   UNL     1      57.125  44.859  23.468  1.00  0.00     0.000 C 
BRANCH  22  23
ATOM     23  C   UNL     1      57.498  43.941  22.285  1.00  0.00     0.000 C 
BRANCH  23  24
ATOM     24  C   UNL     1      56.326  43.085  21.764  1.00  0.00    -0.000 C 
BRANCH  24  25
ATOM     25  C   UNL     1      55.880  43.398  20.324  1.00  0.00    -0.000 C 
BRANCH  25  26
ATOM     26  C   UNL     1      54.400  43.085  20.019  1.00  0.00    -0.000 C 
BRANCH  26  27
ATOM     27  C   UNL     1      53.829  41.847  20.738  1.00  0.00    -0.000 C 
BRANCH  27  28
ATOM     28  C   UNL     1      53.700  40.582  19.869  1.00  0.00    -0.000 C 
BRANCH  28  29
ATOM     29  C   UNL     1      54.759  39.518  20.206  1.00  0.00    -0.000 C 
BRANCH  29  30
ATOM     30  C   UNL     1      55.837  40.031  21.178  1.00  0.00    -0.000 C 
BRANCH  30  31
ATOM     31  C   UNL     1      57.110  39.170  21.253  1.00  0.00    -0.003 C 
ATOM     32  C   UNL     1      56.823  37.669  21.202  1.00  0.00     0.004 C 
ENDBRANCH  30  31
ENDBRANCH  29  30
ENDBRANCH  28  29
ENDBRANCH  27  28
ENDBRANCH  26  27
ENDBRANCH  25  26
ENDBRANCH  24  25
ENDBRANCH  23  24
ENDBRANCH  22  23
ENDBRANCH  21  22
ENDBRANCH  20  21
ENDBRANCH  19  20
ENDBRANCH  18  19
ENDBRANCH   1  18
TORSDOF 28
ENDMDL
MODEL 9
REMARK VINA RESULT:    31.636      4.699     11.724
REMARK INTER + INTRA:          82.888
REMARK INTER:                  83.866
REMARK INTRA:                  -0.978
REMARK UNBOUND:                -0.531
REMARK SMILES CCCCCCCCCCCCCCCCCCCCCCCCCCCCCC(=O)[O-]
REMARK SMILES IDX 16 1 17 2 18 3 19 4 20 5 21 6 22 7 23 8 24 9 25 10 26 11
REMARK SMILES IDX 27 12 28 13 29 14 30 15 31 16 32 17 15 18 14 19 13 20 12 21
REMARK SMILES IDX 11 22 10 23 9 24 8 25 7 26 6 27 5 28 4 29 3 30 2 31 1 32
REMARK H PARENT
REMARK Flexibility Score: inf
ROOT
ATOM      1  C   UNL     1      54.652  50.175  15.033  1.00  0.00     0.000 C 
ENDROOT
BRANCH   1   2
ATOM      2  C   UNL     1      55.261  51.487  15.549  1.00  0.00     0.000 C 
BRANCH   2   3
ATOM      3  C   UNL     1      54.633  51.897  16.887  1.00  0.00     0.000 C 
BRANCH   3   4
ATOM      4  C   UNL     1      55.667  52.412  17.903  1.00  0.00     0.000 C 
BRANCH   4   5
ATOM      5  C   UNL     1      55.050  53.224  19.061  1.00  0.00     0.000 C 
BRANCH   5   6
ATOM      6  C   UNL     1      55.304  52.573  20.434  1.00  0.00     0.000 C 
BRANCH   6   7
ATOM      7  C   UNL     1      54.048  52.599  21.333  1.00  0.00     0.000 C 
BRANCH   7   8
ATOM      8  C   UNL     1      53.606  54.018  21.729  1.00  0.00     0.000 C 
BRANCH   8   9
ATOM      9  C   UNL     1      53.551  54.220  23.249  1.00  0.00     0.000 C 
BRANCH   9  10
ATOM     10  C   UNL     1      53.655  55.708  23.612  1.00  0.00     0.000 C 
BRANCH  10  11
ATOM     11  C   UNL     1      54.971  56.057  24.329  1.00  0.00     0.000 C 
BRANCH  11  12
ATOM     12  C   UNL     1      54.891  56.079  25.869  1.00  0.00     0.000 C 
BRANCH  12  13
ATOM     13  C   UNL     1      53.517  55.704  26.459  1.00  0.00     0.006 C 
BRANCH  13  14
ATOM     14  C   UNL     1      53.336  54.204  26.737  1.00  0.00     0.053 C 
BRANCH  14  15
ATOM     15  C   UNL     1      52.671  53.956  28.057  1.00  0.00     0.041 C 
ATOM     16  O   UNL     1      52.765  54.804  28.984  1.00  0.00    -0.550 OA
ATOM     17  O   UNL     1      51.918  52.805  28.252  1.00  0.00    -0.550 OA
ENDBRANCH  14  15
ENDBRANCH  13  14
ENDBRANCH  12  13
ENDBRANCH  11  12
ENDBRANCH  10  11
ENDBRANCH   9  10
ENDBRANCH   8   9
ENDBRANCH   7   8
ENDBRANCH   6   7
ENDBRANCH   5   6
ENDBRANCH   4   5
ENDBRANCH   3   4
ENDBRANCH   2   3
ENDBRANCH   1   2
BRANCH   1  18
ATOM     18  C   UNL     1      54.983  48.966  15.929  1.00  0.00     0.000 C 
BRANCH  18  19
ATOM     19  C   UNL     1      56.087  49.216  16.973  1.00  0.00     0.000 C 
BRANCH  19  20
ATOM     20  C   UNL     1      56.253  48.046  17.958  1.00  0.00     0.000 C 
BRANCH  20  21
ATOM     21  C   UNL     1      55.736  48.379  19.367  1.00  0.00     0.000 C 
BRANCH  21  22
ATOM     22  C   UNL     1      56.250  47.396  20.435  1.00  0.00     0.000 C 
BRANCH  22  23
ATOM     23  C   UNL     1      57.125  48.085  21.504  1.00  0.00     0.000 C 
BRANCH  23  24
ATOM     24  C   UNL     1      57.028  47.441  22.901  1.00  0.00    -0.000 C 
BRANCH  24  25
ATOM     25  C   UNL     1      56.460  46.011  22.923  1.00  0.00    -0.000 C 
BRANCH  25  26
ATOM     26  C   UNL     1      57.504  44.892  22.724  1.00  0.00    -0.000 C 
BRANCH  26  27
ATOM     27  C   UNL     1      56.922  43.488  22.471  1.00  0.00    -0.000 C 
BRANCH  27  28
ATOM     28  C   UNL     1      56.293  43.278  21.080  1.00  0.00    -0.000 C 
BRANCH  28  29
ATOM     29  C   UNL     1      55.438  42.001  21.000  1.00  0.00    -0.000 C 
BRANCH  29  30
ATOM     30  C   UNL     1      56.226  40.782  20.485  1.00  0.00    -0.000 C 
BRANCH  30  31
ATOM     31  C   UNL     1      55.863  39.443  21.151  1.00  0.00    -0.003 C 
ATOM     32  C   UNL     1      56.997  38.419  21.095  1.00  0.00     0.004 C 
ENDBRANCH  30  31
ENDBRANCH  29  30
ENDBRANCH  28  29
ENDBRANCH  27  28
ENDBRANCH  26  27
ENDBRANCH  25  26
ENDBRANCH  24  25
ENDBRANCH  23  24
ENDBRANCH  22  23
ENDBRANCH  21  22
ENDBRANCH  20  21
ENDBRANCH  19  20
ENDBRANCH  18  19
ENDBRANCH   1  18
TORSDOF 28
ENDMDL
