MODEL 1
REMARK VINA RESULT:    -6.507      0.000      0.000
REMARK INTER + INTRA:          -9.940
REMARK INTER:                  -8.599
REMARK INTRA:                  -1.341
REMARK UNBOUND:                -1.341
REMARK SMILES CC[C@H](C=C[C@H](C)[C@H]1CC[C@H]2[C@@H]3CC=C4C[C@H](O)CC[C@]4(C)[C@@H]3CC[C@@]12C)C(C)C
REMARK SMILES IDX 6 1 7 2 5 3 4 4 3 5 2 6 1 7 28 8 29 9 30 10 8 11 9 12 26 13
REMARK SMILES IDX 10 14 11 15 25 16 27 17 12 18 24 19 23 20 13 21 21 22 14 23
REMARK SMILES IDX 15 24 20 25 22 26 16 27 19 28 17 29 18 30
REMARK H PARENT 18 31
REMARK Flexibility Score: inf
ROOT
ATOM      1  C   UNL     1      36.989  11.057 108.735  1.00  0.00     0.012 C 
ATOM      2  C   UNL     1      35.499  11.296 108.427  1.00  0.00     0.012 C 
ENDROOT
BRANCH   1   3
ATOM      3  C   UNL     1      37.464   9.884 107.905  1.00  0.00    -0.028 C 
ATOM      4  C   UNL     1      38.472  10.011 107.029  1.00  0.00    -0.027 C 
BRANCH   4   5
ATOM      5  C   UNL     1      38.956   8.845 106.190  1.00  0.00     0.014 C 
BRANCH   5   6
ATOM      6  C   UNL     1      38.064   7.611 106.477  1.00  0.00     0.004 C 
ATOM      7  C   UNL     1      38.878   6.352 106.789  1.00  0.00     0.004 C 
ENDBRANCH   5   6
BRANCH   5   8
ATOM      8  C   UNL     1      38.950   9.244 104.682  1.00  0.00    -0.011 C 
ATOM      9  C   UNL     1      40.325   9.043 104.020  1.00  0.00     0.008 C 
ATOM     10  C   UNL     1      38.519  10.713 104.496  1.00  0.00     0.008 C 
ENDBRANCH   5   8
ENDBRANCH   4   5
ENDBRANCH   1   3
BRANCH   1  11
ATOM     11  C   UNL     1      37.943  12.290 108.530  1.00  0.00     0.002 C 
ATOM     12  C   UNL     1      37.298  13.575 107.986  1.00  0.00     0.005 C 
ATOM     13  C   UNL     1      38.805  12.739 109.745  1.00  0.00    -0.026 C 
ATOM     14  C   UNL     1      38.201  14.727 108.440  1.00  0.00     0.005 C 
ATOM     15  C   UNL     1      39.348  14.101 109.251  1.00  0.00    -0.001 C 
ATOM     16  C   UNL     1      37.945  12.932 111.021  1.00  0.00     0.007 C 
ATOM     17  C   UNL     1      39.947  11.721 110.002  1.00  0.00     0.012 C 
ATOM     18  C   UNL     1      39.922  15.060 110.341  1.00  0.00     0.000 C 
ATOM     19  C   UNL     1      38.662  13.719 112.119  1.00  0.00     0.005 C 
ATOM     20  C   UNL     1      39.059  15.139 111.641  1.00  0.00     0.003 C 
ATOM     21  C   UNL     1      41.439  14.800 110.603  1.00  0.00     0.031 C 
ATOM     22  C   UNL     1      39.791  15.999 112.742  1.00  0.00    -0.008 C 
ATOM     23  C   UNL     1      41.868  14.807 112.050  1.00  0.00    -0.027 C 
ATOM     24  C   UNL     1      41.151  15.382 113.034  1.00  0.00    -0.065 C 
ATOM     25  C   UNL     1      38.966  16.060 114.065  1.00  0.00     0.014 C 
ATOM     26  C   UNL     1      39.992  17.449 112.223  1.00  0.00     0.016 C 
ATOM     27  C   UNL     1      41.644  15.291 114.465  1.00  0.00     0.063 C 
ATOM     28  C   UNL     1      39.688  16.784 115.221  1.00  0.00     0.033 C 
ATOM     29  C   UNL     1      41.214  16.524 115.278  1.00  0.00     0.118 C 
BRANCH  29  30
ATOM     30  O   UNL     1      41.607  16.367 116.617  1.00  0.00    -0.393 OA
ATOM     31  H   UNL     1      42.388  15.752 116.619  1.00  0.00     0.210 HD
ENDBRANCH  29  30
ENDBRANCH   1  11
TORSDOF 6
ENDMDL
MODEL 2
REMARK VINA RESULT:    -6.449      4.530      7.903
REMARK INTER + INTRA:          -9.864
REMARK INTER:                  -8.719
REMARK INTRA:                  -1.145
REMARK UNBOUND:                -1.341
REMARK SMILES CC[C@H](C=C[C@H](C)[C@H]1CC[C@H]2[C@@H]3CC=C4C[C@H](O)CC[C@]4(C)[C@@H]3CC[C@@]12C)C(C)C
REMARK SMILES IDX 6 1 7 2 5 3 4 4 3 5 2 6 1 7 28 8 29 9 30 10 8 11 9 12 26 13
REMARK SMILES IDX 10 14 11 15 25 16 27 17 12 18 24 19 23 20 13 21 21 22 14 23
REMARK SMILES IDX 15 24 20 25 22 26 16 27 19 28 17 29 18 30
REMARK H PARENT 18 31
REMARK Flexibility Score: inf
ROOT
ATOM      1  C   UNL     1      42.133  13.239 113.814  1.00  0.00     0.012 C 
ATOM      2  C   UNL     1      41.793  14.418 114.745  1.00  0.00     0.012 C 
ENDROOT
BRANCH   1   3
ATOM      3  C   UNL     1      42.391  12.017 114.669  1.00  0.00    -0.028 C 
ATOM      4  C   UNL     1      42.984  10.925 114.165  1.00  0.00    -0.027 C 
BRANCH   4   5
ATOM      5  C   UNL     1      43.246   9.693 115.009  1.00  0.00     0.014 C 
BRANCH   5   6
ATOM      6  C   UNL     1      43.848   8.584 114.111  1.00  0.00     0.004 C 
ATOM      7  C   UNL     1      43.265   7.199 114.410  1.00  0.00     0.004 C 
ENDBRANCH   5   6
BRANCH   5   8
ATOM      8  C   UNL     1      44.180  10.062 116.203  1.00  0.00    -0.011 C 
ATOM      9  C   UNL     1      45.629   9.596 115.976  1.00  0.00     0.008 C 
ATOM     10  C   UNL     1      43.663   9.456 117.522  1.00  0.00     0.008 C 
ENDBRANCH   5   8
ENDBRANCH   4   5
ENDBRANCH   1   3
BRANCH   1  11
ATOM     11  C   UNL     1      41.072  12.910 112.701  1.00  0.00     0.002 C 
ATOM     12  C   UNL     1      39.670  13.512 112.888  1.00  0.00     0.005 C 
ATOM     13  C   UNL     1      41.463  13.217 111.226  1.00  0.00    -0.026 C 
ATOM     14  C   UNL     1      39.052  13.589 111.489  1.00  0.00     0.005 C 
ATOM     15  C   UNL     1      40.103  13.046 110.506  1.00  0.00    -0.001 C 
ATOM     16  C   UNL     1      41.985  14.666 111.058  1.00  0.00     0.007 C 
ATOM     17  C   UNL     1      42.514  12.193 110.722  1.00  0.00     0.012 C 
ATOM     18  C   UNL     1      39.988  13.670 109.078  1.00  0.00     0.000 C 
ATOM     19  C   UNL     1      42.023  15.129 109.600  1.00  0.00     0.005 C 
ATOM     20  C   UNL     1      40.617  15.094 108.950  1.00  0.00     0.003 C 
ATOM     21  C   UNL     1      40.449  12.671 107.970  1.00  0.00     0.031 C 
ATOM     22  C   UNL     1      40.598  15.575 107.448  1.00  0.00    -0.008 C 
ATOM     23  C   UNL     1      41.304  13.255 106.873  1.00  0.00    -0.027 C 
ATOM     24  C   UNL     1      41.357  14.571 106.593  1.00  0.00    -0.065 C 
ATOM     25  C   UNL     1      41.258  16.980 107.288  1.00  0.00     0.014 C 
ATOM     26  C   UNL     1      39.130  15.663 106.947  1.00  0.00     0.016 C 
ATOM     27  C   UNL     1      42.287  15.064 105.502  1.00  0.00     0.063 C 
ATOM     28  C   UNL     1      41.381  17.452 105.824  1.00  0.00     0.033 C 
ATOM     29  C   UNL     1      41.724  16.322 104.820  1.00  0.00     0.118 C 
BRANCH  29  30
ATOM     30  O   UNL     1      42.649  16.804 103.881  1.00  0.00    -0.393 OA
ATOM     31  H   UNL     1      42.715  16.121 103.162  1.00  0.00     0.210 HD
ENDBRANCH  29  30
ENDBRANCH   1  11
TORSDOF 6
ENDMDL
MODEL 3
REMARK VINA RESULT:    -6.235      8.312     12.241
REMARK INTER + INTRA:          -9.580
REMARK INTER:                  -8.158
REMARK INTRA:                  -1.422
REMARK UNBOUND:                -1.341
REMARK SMILES CC[C@H](C=C[C@H](C)[C@H]1CC[C@H]2[C@@H]3CC=C4C[C@H](O)CC[C@]4(C)[C@@H]3CC[C@@]12C)C(C)C
REMARK SMILES IDX 6 1 7 2 5 3 4 4 3 5 2 6 1 7 28 8 29 9 30 10 8 11 9 12 26 13
REMARK SMILES IDX 10 14 11 15 25 16 27 17 12 18 24 19 23 20 13 21 21 22 14 23
REMARK SMILES IDX 15 24 20 25 22 26 16 27 19 28 17 29 18 30
REMARK H PARENT 18 31
REMARK Flexibility Score: inf
ROOT
ATOM      1  C   UNL     1      34.629   3.260 112.291  1.00  0.00     0.012 C 
ATOM      2  C   UNL     1      33.585   2.217 112.731  1.00  0.00     0.012 C 
ENDROOT
BRANCH   1   3
ATOM      3  C   UNL     1      33.901   4.535 111.925  1.00  0.00    -0.028 C 
ATOM      4  C   UNL     1      34.350   5.734 112.324  1.00  0.00    -0.027 C 
BRANCH   4   5
ATOM      5  C   UNL     1      33.629   7.019 111.967  1.00  0.00     0.014 C 
BRANCH   5   6
ATOM      6  C   UNL     1      33.334   7.811 113.266  1.00  0.00     0.004 C 
ATOM      7  C   UNL     1      32.875   6.909 114.416  1.00  0.00     0.004 C 
ENDBRANCH   5   6
BRANCH   5   8
ATOM      8  C   UNL     1      34.487   7.839 110.955  1.00  0.00    -0.011 C 
ATOM      9  C   UNL     1      35.996   7.712 111.231  1.00  0.00     0.008 C 
ATOM     10  C   UNL     1      34.102   9.332 110.977  1.00  0.00     0.008 C 
ENDBRANCH   5   8
ENDBRANCH   4   5
ENDBRANCH   1   3
BRANCH   1  11
ATOM     11  C   UNL     1      35.776   3.565 113.321  1.00  0.00     0.002 C 
ATOM     12  C   UNL     1      35.638   2.927 114.713  1.00  0.00     0.005 C 
ATOM     13  C   UNL     1      37.238   3.274 112.873  1.00  0.00    -0.026 C 
ATOM     14  C   UNL     1      37.058   2.839 115.281  1.00  0.00     0.005 C 
ATOM     15  C   UNL     1      38.003   3.412 114.211  1.00  0.00    -0.001 C 
ATOM     16  C   UNL     1      37.392   1.840 112.308  1.00  0.00     0.007 C 
ATOM     17  C   UNL     1      37.702   4.327 111.832  1.00  0.00     0.012 C 
ATOM     18  C   UNL     1      39.435   2.791 114.261  1.00  0.00     0.000 C 
ATOM     19  C   UNL     1      38.849   1.383 112.208  1.00  0.00     0.005 C 
ATOM     20  C   UNL     1      39.546   1.384 113.592  1.00  0.00     0.003 C 
ATOM     21  C   UNL     1      40.525   3.805 113.789  1.00  0.00     0.031 C 
ATOM     22  C   UNL     1      41.049   0.908 113.546  1.00  0.00    -0.008 C 
ATOM     23  C   UNL     1      41.593   3.248 112.882  1.00  0.00    -0.027 C 
ATOM     24  C   UNL     1      41.875   1.935 112.785  1.00  0.00    -0.065 C 
ATOM     25  C   UNL     1      41.191  -0.479 112.846  1.00  0.00     0.014 C 
ATOM     26  C   UNL     1      41.600   0.784 114.994  1.00  0.00     0.016 C 
ATOM     27  C   UNL     1      42.935   1.470 111.806  1.00  0.00     0.063 C 
ATOM     28  C   UNL     1      42.652  -0.942 112.661  1.00  0.00     0.033 C 
ATOM     29  C   UNL     1      43.639   0.200 112.313  1.00  0.00     0.118 C 
BRANCH  29  30
ATOM     30  O   UNL     1      44.548  -0.254 111.344  1.00  0.00    -0.393 OA
ATOM     31  H   UNL     1      44.066  -0.260 110.475  1.00  0.00     0.210 HD
ENDBRANCH  29  30
ENDBRANCH   1  11
TORSDOF 6
ENDMDL
MODEL 4
REMARK VINA RESULT:    -6.230      1.631      2.499
REMARK INTER + INTRA:          -9.574
REMARK INTER:                  -8.213
REMARK INTRA:                  -1.362
REMARK UNBOUND:                -1.341
REMARK SMILES CC[C@H](C=C[C@H](C)[C@H]1CC[C@H]2[C@@H]3CC=C4C[C@H](O)CC[C@]4(C)[C@@H]3CC[C@@]12C)C(C)C
REMARK SMILES IDX 6 1 7 2 5 3 4 4 3 5 2 6 1 7 28 8 29 9 30 10 8 11 9 12 26 13
REMARK SMILES IDX 10 14 11 15 25 16 27 17 12 18 24 19 23 20 13 21 21 22 14 23
REMARK SMILES IDX 15 24 20 25 22 26 16 27 19 28 17 29 18 30
REMARK H PARENT 18 31
REMARK Flexibility Score: inf
ROOT
ATOM      1  C   UNL     1      36.312  10.156 108.567  1.00  0.00     0.012 C 
ATOM      2  C   UNL     1      35.246  11.026 107.875  1.00  0.00     0.012 C 
ENDROOT
BRANCH   1   3
ATOM      3  C   UNL     1      36.157   8.733 108.076  1.00  0.00    -0.028 C 
ATOM      4  C   UNL     1      37.191   7.880 108.069  1.00  0.00    -0.027 C 
BRANCH   4   5
ATOM      5  C   UNL     1      37.050   6.453 107.577  1.00  0.00     0.014 C 
BRANCH   5   6
ATOM      6  C   UNL     1      35.607   6.238 107.055  1.00  0.00     0.004 C 
ATOM      7  C   UNL     1      35.064   4.842 107.374  1.00  0.00     0.004 C 
ENDBRANCH   5   6
BRANCH   5   8
ATOM      8  C   UNL     1      38.125   6.164 106.484  1.00  0.00    -0.011 C 
ATOM      9  C   UNL     1      38.711   4.745 106.602  1.00  0.00     0.008 C 
ATOM     10  C   UNL     1      39.278   7.185 106.553  1.00  0.00     0.008 C 
ENDBRANCH   5   8
ENDBRANCH   4   5
ENDBRANCH   1   3
BRANCH   1  11
ATOM     11  C   UNL     1      37.803  10.628 108.402  1.00  0.00     0.002 C 
ATOM     12  C   UNL     1      38.068  11.705 107.337  1.00  0.00     0.005 C 
ATOM     13  C   UNL     1      38.546  11.114 109.680  1.00  0.00    -0.026 C 
ATOM     14  C   UNL     1      39.360  12.411 107.763  1.00  0.00     0.005 C 
ATOM     15  C   UNL     1      39.820  11.748 109.072  1.00  0.00    -0.001 C 
ATOM     16  C   UNL     1      37.728  12.180 110.452  1.00  0.00     0.007 C 
ATOM     17  C   UNL     1      38.883   9.910 110.598  1.00  0.00     0.012 C 
ATOM     18  C   UNL     1      40.627  12.714 109.997  1.00  0.00     0.000 C 
ATOM     19  C   UNL     1      38.557  12.949 111.482  1.00  0.00     0.005 C 
ATOM     20  C   UNL     1      39.739  13.701 110.820  1.00  0.00     0.003 C 
ATOM     21  C   UNL     1      41.685  11.949 110.854  1.00  0.00     0.031 C 
ATOM     22  C   UNL     1      40.621  14.522 111.839  1.00  0.00    -0.008 C 
ATOM     23  C   UNL     1      41.792  12.371 112.298  1.00  0.00    -0.027 C 
ATOM     24  C   UNL     1      41.349  13.555 112.761  1.00  0.00    -0.065 C 
ATOM     25  C   UNL     1      39.750  15.489 112.701  1.00  0.00     0.014 C 
ATOM     26  C   UNL     1      41.666  15.368 111.060  1.00  0.00     0.016 C 
ATOM     27  C   UNL     1      41.458  13.865 114.240  1.00  0.00     0.063 C 
ATOM     28  C   UNL     1      40.539  16.230 113.801  1.00  0.00     0.033 C 
ATOM     29  C   UNL     1      41.639  15.375 114.478  1.00  0.00     0.118 C 
BRANCH  29  30
ATOM     30  O   UNL     1      41.646  15.637 115.858  1.00  0.00    -0.393 OA
ATOM     31  H   UNL     1      40.752  16.005 116.086  1.00  0.00     0.210 HD
ENDBRANCH  29  30
ENDBRANCH   1  11
TORSDOF 6
ENDMDL
MODEL 5
REMARK VINA RESULT:    -6.034      4.469      7.502
REMARK INTER + INTRA:          -9.315
REMARK INTER:                  -8.268
REMARK INTRA:                  -1.047
REMARK UNBOUND:                -1.341
REMARK SMILES CC[C@H](C=C[C@H](C)[C@H]1CC[C@H]2[C@@H]3CC=C4C[C@H](O)CC[C@]4(C)[C@@H]3CC[C@@]12C)C(C)C
REMARK SMILES IDX 6 1 7 2 5 3 4 4 3 5 2 6 1 7 28 8 29 9 30 10 8 11 9 12 26 13
REMARK SMILES IDX 10 14 11 15 25 16 27 17 12 18 24 19 23 20 13 21 21 22 14 23
REMARK SMILES IDX 15 24 20 25 22 26 16 27 19 28 17 29 18 30
REMARK H PARENT 18 31
REMARK Flexibility Score: inf
ROOT
ATOM      1  C   UNL     1      41.620  10.998 113.254  1.00  0.00     0.012 C 
ATOM      2  C   UNL     1      41.502   9.657 112.505  1.00  0.00     0.012 C 
ENDROOT
BRANCH   1   3
ATOM      3  C   UNL     1      42.619  10.828 114.379  1.00  0.00    -0.028 C 
ATOM      4  C   UNL     1      43.445   9.772 114.425  1.00  0.00    -0.027 C 
BRANCH   4   5
ATOM      5  C   UNL     1      44.448   9.588 115.547  1.00  0.00     0.014 C 
BRANCH   5   6
ATOM      6  C   UNL     1      43.730   8.964 116.770  1.00  0.00     0.004 C 
ATOM      7  C   UNL     1      43.723   9.891 117.988  1.00  0.00     0.004 C 
ENDBRANCH   5   6
BRANCH   5   8
ATOM      8  C   UNL     1      45.640   8.713 115.048  1.00  0.00    -0.011 C 
ATOM      9  C   UNL     1      45.332   8.015 113.711  1.00  0.00     0.008 C 
ATOM     10  C   UNL     1      46.021   7.644 116.092  1.00  0.00     0.008 C 
ENDBRANCH   5   8
ENDBRANCH   4   5
ENDBRANCH   1   3
BRANCH   1  11
ATOM     11  C   UNL     1      41.996  12.248 112.378  1.00  0.00     0.002 C 
ATOM     12  C   UNL     1      42.637  11.960 111.010  1.00  0.00     0.005 C 
ATOM     13  C   UNL     1      40.876  13.292 112.101  1.00  0.00    -0.026 C 
ATOM     14  C   UNL     1      42.348  13.188 110.141  1.00  0.00     0.005 C 
ATOM     15  C   UNL     1      41.533  14.165 111.006  1.00  0.00    -0.001 C 
ATOM     16  C   UNL     1      39.588  12.624 111.558  1.00  0.00     0.007 C 
ATOM     17  C   UNL     1      40.571  14.109 113.384  1.00  0.00     0.012 C 
ATOM     18  C   UNL     1      40.575  15.072 110.169  1.00  0.00     0.000 C 
ATOM     19  C   UNL     1      38.611  13.618 110.927  1.00  0.00     0.005 C 
ATOM     20  C   UNL     1      39.251  14.369 109.731  1.00  0.00     0.003 C 
ATOM     21  C   UNL     1      40.361  16.465 110.840  1.00  0.00     0.031 C 
ATOM     22  C   UNL     1      38.279  15.399 109.035  1.00  0.00    -0.008 C 
ATOM     23  C   UNL     1      38.945  16.986 110.838  1.00  0.00    -0.027 C 
ATOM     24  C   UNL     1      37.992  16.542 109.997  1.00  0.00    -0.065 C 
ATOM     25  C   UNL     1      36.932  14.729 108.624  1.00  0.00     0.014 C 
ATOM     26  C   UNL     1      38.954  15.968 107.756  1.00  0.00     0.016 C 
ATOM     27  C   UNL     1      36.585  17.095 110.109  1.00  0.00     0.063 C 
ATOM     28  C   UNL     1      35.892  15.714 108.049  1.00  0.00     0.033 C 
ATOM     29  C   UNL     1      35.882  17.101 108.740  1.00  0.00     0.118 C 
BRANCH  29  30
ATOM     30  O   UNL     1      34.555  17.532 108.893  1.00  0.00    -0.393 OA
ATOM     31  H   UNL     1      34.494  18.434 108.480  1.00  0.00     0.210 HD
ENDBRANCH  29  30
ENDBRANCH   1  11
TORSDOF 6
ENDMDL
MODEL 6
REMARK VINA RESULT:    -5.894      4.624      7.849
REMARK INTER + INTRA:          -9.130
REMARK INTER:                  -8.847
REMARK INTRA:                  -0.283
REMARK UNBOUND:                -1.341
REMARK SMILES CC[C@H](C=C[C@H](C)[C@H]1CC[C@H]2[C@@H]3CC=C4C[C@H](O)CC[C@]4(C)[C@@H]3CC[C@@]12C)C(C)C
REMARK SMILES IDX 6 1 7 2 5 3 4 4 3 5 2 6 1 7 28 8 29 9 30 10 8 11 9 12 26 13
REMARK SMILES IDX 10 14 11 15 25 16 27 17 12 18 24 19 23 20 13 21 21 22 14 23
REMARK SMILES IDX 15 24 20 25 22 26 16 27 19 28 17 29 18 30
REMARK H PARENT 18 31
REMARK Flexibility Score: inf
ROOT
ATOM      1  C   UNL     1      41.773  11.269 113.194  1.00  0.00     0.012 C 
ATOM      2  C   UNL     1      42.603  10.932 111.942  1.00  0.00     0.012 C 
ENDROOT
BRANCH   1   3
ATOM      3  C   UNL     1      42.601  10.938 114.417  1.00  0.00    -0.028 C 
ATOM      4  C   UNL     1      43.354   9.829 114.470  1.00  0.00    -0.027 C 
BRANCH   4   5
ATOM      5  C   UNL     1      44.186   9.484 115.689  1.00  0.00     0.014 C 
BRANCH   5   6
ATOM      6  C   UNL     1      43.718  10.353 116.883  1.00  0.00     0.004 C 
ATOM      7  C   UNL     1      43.444   9.527 118.144  1.00  0.00     0.004 C 
ENDBRANCH   5   6
BRANCH   5   8
ATOM      8  C   UNL     1      44.074   7.956 115.987  1.00  0.00    -0.011 C 
ATOM      9  C   UNL     1      45.448   7.261 115.995  1.00  0.00     0.008 C 
ATOM     10  C   UNL     1      43.167   7.253 114.958  1.00  0.00     0.008 C 
ENDBRANCH   5   8
ENDBRANCH   4   5
ENDBRANCH   1   3
BRANCH   1  11
ATOM     11  C   UNL     1      41.232  12.743 113.287  1.00  0.00     0.002 C 
ATOM     12  C   UNL     1      42.228  13.812 113.765  1.00  0.00     0.005 C 
ATOM     13  C   UNL     1      40.557  13.340 112.018  1.00  0.00    -0.026 C 
ATOM     14  C   UNL     1      41.717  15.145 113.208  1.00  0.00     0.005 C 
ATOM     15  C   UNL     1      40.443  14.834 112.404  1.00  0.00    -0.001 C 
ATOM     16  C   UNL     1      41.448  13.174 110.761  1.00  0.00     0.007 C 
ATOM     17  C   UNL     1      39.165  12.694 111.793  1.00  0.00     0.012 C 
ATOM     18  C   UNL     1      40.196  15.839 111.235  1.00  0.00     0.000 C 
ATOM     19  C   UNL     1      41.012  14.058 109.590  1.00  0.00     0.005 C 
ATOM     20  C   UNL     1      41.056  15.562 109.961  1.00  0.00     0.003 C 
ATOM     21  C   UNL     1      38.673  16.027 110.943  1.00  0.00     0.031 C 
ATOM     22  C   UNL     1      40.627  16.519 108.783  1.00  0.00    -0.008 C 
ATOM     23  C   UNL     1      38.282  16.057 109.487  1.00  0.00    -0.027 C 
ATOM     24  C   UNL     1      39.148  16.318 108.489  1.00  0.00    -0.065 C 
ATOM     25  C   UNL     1      41.446  16.235 107.485  1.00  0.00     0.014 C 
ATOM     26  C   UNL     1      40.867  17.997 109.199  1.00  0.00     0.016 C 
ATOM     27  C   UNL     1      38.666  16.276 107.053  1.00  0.00     0.063 C 
ATOM     28  C   UNL     1      40.988  17.056 106.262  1.00  0.00     0.033 C 
ATOM     29  C   UNL     1      39.455  17.262 106.174  1.00  0.00     0.118 C 
BRANCH  29  30
ATOM     30  O   UNL     1      39.046  17.132 104.837  1.00  0.00    -0.393 OA
ATOM     31  H   UNL     1      39.091  16.165 104.613  1.00  0.00     0.210 HD
ENDBRANCH  29  30
ENDBRANCH   1  11
TORSDOF 6
ENDMDL
MODEL 7
REMARK VINA RESULT:    -5.736      3.149      9.092
REMARK INTER + INTRA:          -8.921
REMARK INTER:                  -7.480
REMARK INTRA:                  -1.441
REMARK UNBOUND:                -1.341
REMARK SMILES CC[C@H](C=C[C@H](C)[C@H]1CC[C@H]2[C@@H]3CC=C4C[C@H](O)CC[C@]4(C)[C@@H]3CC[C@@]12C)C(C)C
REMARK SMILES IDX 6 1 7 2 5 3 4 4 3 5 2 6 1 7 28 8 29 9 30 10 8 11 9 12 26 13
REMARK SMILES IDX 10 14 11 15 25 16 27 17 12 18 24 19 23 20 13 21 21 22 14 23
REMARK SMILES IDX 15 24 20 25 22 26 16 27 19 28 17 29 18 30
REMARK H PARENT 18 31
REMARK Flexibility Score: inf
ROOT
ATOM      1  C   UNL     1      40.824  13.129 112.891  1.00  0.00     0.012 C 
ATOM      2  C   UNL     1      42.134  12.416 113.274  1.00  0.00     0.012 C 
ENDROOT
BRANCH   1   3
ATOM      3  C   UNL     1      40.799  14.479 113.574  1.00  0.00    -0.028 C 
ATOM      4  C   UNL     1      40.743  15.618 112.869  1.00  0.00    -0.027 C 
BRANCH   4   5
ATOM      5  C   UNL     1      40.721  16.977 113.541  1.00  0.00     0.014 C 
BRANCH   5   6
ATOM      6  C   UNL     1      39.676  17.874 112.830  1.00  0.00     0.004 C 
ATOM      7  C   UNL     1      39.251  17.321 111.467  1.00  0.00     0.004 C 
ENDBRANCH   5   6
BRANCH   5   8
ATOM      8  C   UNL     1      40.420  16.807 115.062  1.00  0.00    -0.011 C 
ATOM      9  C   UNL     1      38.958  17.139 115.409  1.00  0.00     0.008 C 
ATOM     10  C   UNL     1      41.348  17.694 115.916  1.00  0.00     0.008 C 
ENDBRANCH   5   8
ENDBRANCH   4   5
ENDBRANCH   1   3
BRANCH   1  11
ATOM     11  C   UNL     1      40.554  13.295 111.350  1.00  0.00     0.002 C 
ATOM     12  C   UNL     1      41.740  13.023 110.412  1.00  0.00     0.005 C 
ATOM     13  C   UNL     1      39.355  12.509 110.745  1.00  0.00    -0.026 C 
ATOM     14  C   UNL     1      41.131  12.648 109.057  1.00  0.00     0.005 C 
ATOM     15  C   UNL     1      39.602  12.691 109.228  1.00  0.00    -0.001 C 
ATOM     16  C   UNL     1      39.402  11.007 111.123  1.00  0.00     0.007 C 
ATOM     17  C   UNL     1      38.013  13.145 111.191  1.00  0.00     0.012 C 
ATOM     18  C   UNL     1      38.851  11.707 108.276  1.00  0.00     0.000 C 
ATOM     19  C   UNL     1      38.482  10.138 110.262  1.00  0.00     0.005 C 
ATOM     20  C   UNL     1      38.854  10.222 108.760  1.00  0.00     0.003 C 
ATOM     21  C   UNL     1      37.438  12.244 107.885  1.00  0.00     0.031 C 
ATOM     22  C   UNL     1      37.941   9.334 107.829  1.00  0.00    -0.008 C 
ATOM     23  C   UNL     1      36.323  11.228 107.893  1.00  0.00    -0.027 C 
ATOM     24  C   UNL     1      36.528   9.898 107.828  1.00  0.00    -0.065 C 
ATOM     25  C   UNL     1      37.896   7.852 108.316  1.00  0.00     0.014 C 
ATOM     26  C   UNL     1      38.499   9.356 106.379  1.00  0.00     0.016 C 
ATOM     27  C   UNL     1      35.343   8.957 107.893  1.00  0.00     0.063 C 
ATOM     28  C   UNL     1      36.922   6.959 107.518  1.00  0.00     0.033 C 
ATOM     29  C   UNL     1      35.613   7.670 107.094  1.00  0.00     0.118 C 
BRANCH  29  30
ATOM     30  O   UNL     1      34.534   6.784 107.250  1.00  0.00    -0.393 OA
ATOM     31  H   UNL     1      34.259   6.501 106.338  1.00  0.00     0.210 HD
ENDBRANCH  29  30
ENDBRANCH   1  11
TORSDOF 6
ENDMDL
MODEL 8
REMARK VINA RESULT:    -5.724      8.212     11.102
REMARK INTER + INTRA:          -8.905
REMARK INTER:                  -8.120
REMARK INTRA:                  -0.785
REMARK UNBOUND:                -1.341
REMARK SMILES CC[C@H](C=C[C@H](C)[C@H]1CC[C@H]2[C@@H]3CC=C4C[C@H](O)CC[C@]4(C)[C@@H]3CC[C@@]12C)C(C)C
REMARK SMILES IDX 6 1 7 2 5 3 4 4 3 5 2 6 1 7 28 8 29 9 30 10 8 11 9 12 26 13
REMARK SMILES IDX 10 14 11 15 25 16 27 17 12 18 24 19 23 20 13 21 21 22 14 23
REMARK SMILES IDX 15 24 20 25 22 26 16 27 19 28 17 29 18 30
REMARK H PARENT 18 31
REMARK Flexibility Score: inf
ROOT
ATOM      1  C   UNL     1      34.761   3.866 110.233  1.00  0.00     0.012 C 
ATOM      2  C   UNL     1      33.223   3.955 110.214  1.00  0.00     0.012 C 
ENDROOT
BRANCH   1   3
ATOM      3  C   UNL     1      35.310   4.926 109.304  1.00  0.00    -0.028 C 
ATOM      4  C   UNL     1      35.955   4.599 108.175  1.00  0.00    -0.027 C 
BRANCH   4   5
ATOM      5  C   UNL     1      36.513   5.651 107.236  1.00  0.00     0.014 C 
BRANCH   5   6
ATOM      6  C   UNL     1      36.437   7.036 107.927  1.00  0.00     0.004 C 
ATOM      7  C   UNL     1      35.521   8.016 107.189  1.00  0.00     0.004 C 
ENDBRANCH   5   6
BRANCH   5   8
ATOM      8  C   UNL     1      37.969   5.271 106.825  1.00  0.00    -0.011 C 
ATOM      9  C   UNL     1      38.856   6.511 106.608  1.00  0.00     0.008 C 
ATOM     10  C   UNL     1      37.981   4.419 105.541  1.00  0.00     0.008 C 
ENDBRANCH   5   8
ENDBRANCH   4   5
ENDBRANCH   1   3
BRANCH   1  11
ATOM     11  C   UNL     1      35.441   3.976 111.646  1.00  0.00     0.002 C 
ATOM     12  C   UNL     1      34.883   3.063 112.750  1.00  0.00     0.005 C 
ATOM     13  C   UNL     1      36.987   3.811 111.712  1.00  0.00    -0.026 C 
ATOM     14  C   UNL     1      36.016   2.888 113.767  1.00  0.00     0.005 C 
ATOM     15  C   UNL     1      37.219   3.686 113.237  1.00  0.00    -0.001 C 
ATOM     16  C   UNL     1      37.460   2.525 110.987  1.00  0.00     0.007 C 
ATOM     17  C   UNL     1      37.688   5.062 111.122  1.00  0.00     0.012 C 
ATOM     18  C   UNL     1      38.593   3.095 113.687  1.00  0.00     0.000 C 
ATOM     19  C   UNL     1      38.895   2.126 111.339  1.00  0.00     0.005 C 
ATOM     20  C   UNL     1      39.059   1.857 112.856  1.00  0.00     0.003 C 
ATOM     21  C   UNL     1      39.681   4.205 113.836  1.00  0.00     0.031 C 
ATOM     22  C   UNL     1      40.520   1.429 113.271  1.00  0.00    -0.008 C 
ATOM     23  C   UNL     1      41.046   3.865 113.291  1.00  0.00    -0.027 C 
ATOM     24  C   UNL     1      41.463   2.605 113.063  1.00  0.00    -0.065 C 
ATOM     25  C   UNL     1      41.024   0.218 112.426  1.00  0.00     0.014 C 
ATOM     26  C   UNL     1      40.537   1.022 114.770  1.00  0.00     0.016 C 
ATOM     27  C   UNL     1      42.836   2.371 112.466  1.00  0.00     0.063 C 
ATOM     28  C   UNL     1      42.493  -0.169 112.701  1.00  0.00     0.033 C 
ATOM     29  C   UNL     1      43.431   1.038 112.951  1.00  0.00     0.118 C 
BRANCH  29  30
ATOM     30  O   UNL     1      44.659   0.809 112.310  1.00  0.00    -0.393 OA
ATOM     31  H   UNL     1      44.756  -0.174 112.212  1.00  0.00     0.210 HD
ENDBRANCH  29  30
ENDBRANCH   1  11
TORSDOF 6
ENDMDL
