MODEL 1
REMARK VINA RESULT:    -6.516      0.000      0.000
REMARK INTER + INTRA:          -7.951
REMARK INTER:                  -7.659
REMARK INTRA:                  -0.292
REMARK UNBOUND:                -0.292
REMARK SMILES O=c1c(O)c(-c2ccc(O)cc2)oc2cc(O)cc(O)c12
REMARK SMILES IDX 5 1 3 2 2 3 1 4 21 5 19 6 18 7 16 8 15 9 14 10 13 11 6 12
REMARK SMILES IDX 7 13 8 14 9 15 12 16 11 17 10 18 4 20 20 22 17 24
REMARK H PARENT 10 19 4 21 20 23 17 25
REMARK Flexibility Score: inf
ROOT
ATOM      1  C   UNL     1      23.172 -19.192 -10.688  1.00  0.00     0.180 A 
ATOM      2  C   UNL     1      23.765 -18.875  -9.455  1.00  0.00     0.208 A 
ATOM      3  C   UNL     1      23.710 -17.550  -8.991  1.00  0.00     0.238 A 
ATOM      4  O   UNL     1      24.195 -17.284  -7.861  1.00  0.00    -0.285 OA
ATOM      5  C   UNL     1      23.076 -16.557  -9.776  1.00  0.00     0.111 A 
ATOM      6  C   UNL     1      22.995 -15.176  -9.424  1.00  0.00     0.134 A 
ATOM      7  C   UNL     1      22.232 -14.306 -10.211  1.00  0.00     0.093 A 
ATOM      8  C   UNL     1      21.599 -14.753 -11.373  1.00  0.00     0.123 A 
ATOM      9  C   UNL     1      21.720 -16.086 -11.757  1.00  0.00     0.094 A 
ATOM     10  C   UNL     1      22.445 -16.987 -10.973  1.00  0.00     0.146 A 
ATOM     11  O   UNL     1      22.527 -18.252 -11.369  1.00  0.00    -0.452 OA
ENDROOT
BRANCH   1  12
ATOM     12  C   UNL     1      23.210 -20.560 -11.254  1.00  0.00     0.021 A 
ATOM     13  C   UNL     1      22.096 -21.402 -11.106  1.00  0.00     0.016 A 
ATOM     14  C   UNL     1      22.103 -22.689 -11.651  1.00  0.00     0.047 A 
ATOM     15  C   UNL     1      23.216 -23.146 -12.365  1.00  0.00     0.115 A 
ATOM     16  C   UNL     1      24.319 -21.017 -11.990  1.00  0.00     0.016 A 
ATOM     17  C   UNL     1      24.324 -22.304 -12.536  1.00  0.00     0.047 A 
BRANCH  15  18
ATOM     18  O   UNL     1      23.210 -24.430 -12.902  1.00  0.00    -0.508 OA
ATOM     19  H   UNL     1      23.584 -24.620 -13.824  1.00  0.00     0.293 HD
ENDBRANCH  15  18
ENDBRANCH   1  12
BRANCH   2  20
ATOM     20  O   UNL     1      24.366 -19.876  -8.686  1.00  0.00    -0.502 OA
ATOM     21  H   UNL     1      24.235 -20.862  -8.876  1.00  0.00     0.293 HD
ENDBRANCH   2  20
BRANCH   6  22
ATOM     22  O   UNL     1      23.665 -14.608  -8.335  1.00  0.00    -0.507 OA
ATOM     23  H   UNL     1      24.581 -14.884  -8.017  1.00  0.00     0.293 HD
ENDBRANCH   6  22
BRANCH   8  24
ATOM     24  O   UNL     1      20.853 -13.878 -12.159  1.00  0.00    -0.508 OA
ATOM     25  H   UNL     1      21.230 -12.988 -12.466  1.00  0.00     0.293 HD
ENDBRANCH   8  24
TORSDOF 5
ENDMDL
MODEL 2
REMARK VINA RESULT:    -6.290      1.719      3.759
REMARK INTER + INTRA:          -7.686
REMARK INTER:                  -7.400
REMARK INTRA:                  -0.286
REMARK UNBOUND:                -0.292
REMARK SMILES O=c1c(O)c(-c2ccc(O)cc2)oc2cc(O)cc(O)c12
REMARK SMILES IDX 5 1 3 2 2 3 1 4 21 5 19 6 18 7 16 8 15 9 14 10 13 11 6 12
REMARK SMILES IDX 7 13 8 14 9 15 12 16 11 17 10 18 4 20 20 22 17 24
REMARK H PARENT 10 19 4 21 20 23 17 25
REMARK Flexibility Score: inf
ROOT
ATOM      1  C   UNL     1      22.188 -21.061 -11.587  1.00  0.00     0.180 A 
ATOM      2  C   UNL     1      21.535 -20.191 -12.477  1.00  0.00     0.208 A 
ATOM      3  C   UNL     1      21.505 -18.817 -12.188  1.00  0.00     0.238 A 
ATOM      4  O   UNL     1      20.967 -18.036 -13.016  1.00  0.00    -0.285 OA
ATOM      5  C   UNL     1      22.113 -18.333 -11.004  1.00  0.00     0.111 A 
ATOM      6  C   UNL     1      22.109 -16.967 -10.592  1.00  0.00     0.134 A 
ATOM      7  C   UNL     1      22.853 -16.582  -9.470  1.00  0.00     0.093 A 
ATOM      8  C   UNL     1      23.549 -17.524  -8.709  1.00  0.00     0.123 A 
ATOM      9  C   UNL     1      23.511 -18.868  -9.070  1.00  0.00     0.094 A 
ATOM     10  C   UNL     1      22.807 -19.279 -10.205  1.00  0.00     0.146 A 
ATOM     11  O   UNL     1      22.806 -20.569 -10.520  1.00  0.00    -0.452 OA
ENDROOT
BRANCH   1  12
ATOM     12  C   UNL     1      22.241 -22.524 -11.811  1.00  0.00     0.021 A 
ATOM     13  C   UNL     1      23.277 -23.068 -12.587  1.00  0.00     0.016 A 
ATOM     14  C   UNL     1      23.358 -24.449 -12.792  1.00  0.00     0.047 A 
ATOM     15  C   UNL     1      22.416 -25.304 -12.212  1.00  0.00     0.115 A 
ATOM     16  C   UNL     1      21.308 -23.391 -11.213  1.00  0.00     0.016 A 
ATOM     17  C   UNL     1      21.391 -24.771 -11.419  1.00  0.00     0.047 A 
BRANCH  15  18
ATOM     18  O   UNL     1      22.509 -26.677 -12.425  1.00  0.00    -0.508 OA
ATOM     19  H   UNL     1      22.054 -27.121 -13.214  1.00  0.00     0.293 HD
ENDBRANCH  15  18
ENDBRANCH   1  12
BRANCH   2  20
ATOM     20  O   UNL     1      20.960 -20.687 -13.651  1.00  0.00    -0.502 OA
ATOM     21  H   UNL     1      20.022 -21.066 -13.679  1.00  0.00     0.293 HD
ENDBRANCH   2  20
BRANCH   6  22
ATOM     22  O   UNL     1      21.372 -15.962 -11.227  1.00  0.00    -0.507 OA
ATOM     23  H   UNL     1      20.366 -15.889 -11.209  1.00  0.00     0.293 HD
ENDBRANCH   6  22
BRANCH   8  24
ATOM     24  O   UNL     1      24.275 -17.135  -7.586  1.00  0.00    -0.508 OA
ATOM     25  H   UNL     1      24.876 -17.784  -7.091  1.00  0.00     0.293 HD
ENDBRANCH   8  24
TORSDOF 5
ENDMDL
MODEL 3
REMARK VINA RESULT:    -6.249      1.977      2.593
REMARK INTER + INTRA:          -7.637
REMARK INTER:                  -7.349
REMARK INTRA:                  -0.288
REMARK UNBOUND:                -0.292
REMARK SMILES O=c1c(O)c(-c2ccc(O)cc2)oc2cc(O)cc(O)c12
REMARK SMILES IDX 5 1 3 2 2 3 1 4 21 5 19 6 18 7 16 8 15 9 14 10 13 11 6 12
REMARK SMILES IDX 7 13 8 14 9 15 12 16 11 17 10 18 4 20 20 22 17 24
REMARK H PARENT 10 19 4 21 20 23 17 25
REMARK Flexibility Score: inf
ROOT
ATOM      1  C   UNL     1      22.388 -19.941 -11.929  1.00  0.00     0.180 A 
ATOM      2  C   UNL     1      23.182 -20.381 -10.857  1.00  0.00     0.208 A 
ATOM      3  C   UNL     1      23.568 -19.459  -9.870  1.00  0.00     0.238 A 
ATOM      4  O   UNL     1      24.233 -19.870  -8.885  1.00  0.00    -0.285 OA
ATOM      5  C   UNL     1      23.167 -18.105  -9.978  1.00  0.00     0.111 A 
ATOM      6  C   UNL     1      23.532 -17.077  -9.058  1.00  0.00     0.134 A 
ATOM      7  C   UNL     1      22.972 -15.801  -9.191  1.00  0.00     0.093 A 
ATOM      8  C   UNL     1      22.110 -15.498 -10.247  1.00  0.00     0.123 A 
ATOM      9  C   UNL     1      21.794 -16.479 -11.184  1.00  0.00     0.094 A 
ATOM     10  C   UNL     1      22.308 -17.772 -11.058  1.00  0.00     0.146 A 
ATOM     11  O   UNL     1      21.973 -18.680 -11.967  1.00  0.00    -0.452 OA
ENDROOT
BRANCH   1  12
ATOM     12  C   UNL     1      21.962 -20.849 -13.020  1.00  0.00     0.021 A 
ATOM     13  C   UNL     1      22.778 -20.998 -14.154  1.00  0.00     0.016 A 
ATOM     14  C   UNL     1      22.406 -21.866 -15.184  1.00  0.00     0.047 A 
ATOM     15  C   UNL     1      21.223 -22.607 -15.089  1.00  0.00     0.115 A 
ATOM     16  C   UNL     1      20.784 -21.611 -12.920  1.00  0.00     0.016 A 
ATOM     17  C   UNL     1      20.414 -22.479 -13.952  1.00  0.00     0.047 A 
BRANCH  15  18
ATOM     18  O   UNL     1      20.865 -23.467 -16.123  1.00  0.00    -0.508 OA
ATOM     19  H   UNL     1      21.561 -23.985 -16.646  1.00  0.00     0.293 HD
ENDBRANCH  15  18
ENDBRANCH   1  12
BRANCH   2  20
ATOM     20  O   UNL     1      23.548 -21.727 -10.759  1.00  0.00    -0.502 OA
ATOM     21  H   UNL     1      22.979 -22.413 -10.278  1.00  0.00     0.293 HD
ENDBRANCH   2  20
BRANCH   6  22
ATOM     22  O   UNL     1      24.457 -17.249  -8.022  1.00  0.00    -0.507 OA
ATOM     23  H   UNL     1      25.457 -17.171  -8.126  1.00  0.00     0.293 HD
ENDBRANCH   6  22
BRANCH   8  24
ATOM     24  O   UNL     1      21.569 -14.222 -10.380  1.00  0.00    -0.508 OA
ATOM     25  H   UNL     1      22.131 -13.390 -10.242  1.00  0.00     0.293 HD
ENDBRANCH   8  24
TORSDOF 5
ENDMDL
MODEL 4
REMARK VINA RESULT:    -6.179      2.670      5.403
REMARK INTER + INTRA:          -7.554
REMARK INTER:                  -7.277
REMARK INTRA:                  -0.277
REMARK UNBOUND:                -0.292
REMARK SMILES O=c1c(O)c(-c2ccc(O)cc2)oc2cc(O)cc(O)c12
REMARK SMILES IDX 5 1 3 2 2 3 1 4 21 5 19 6 18 7 16 8 15 9 14 10 13 11 6 12
REMARK SMILES IDX 7 13 8 14 9 15 12 16 11 17 10 18 4 20 20 22 17 24
REMARK H PARENT 10 19 4 21 20 23 17 25
REMARK Flexibility Score: inf
ROOT
ATOM      1  C   UNL     1      23.812 -22.945 -13.072  1.00  0.00     0.180 A 
ATOM      2  C   UNL     1      22.495 -22.642 -13.456  1.00  0.00     0.208 A 
ATOM      3  C   UNL     1      21.860 -21.523 -12.891  1.00  0.00     0.238 A 
ATOM      4  O   UNL     1      20.701 -21.225 -13.279  1.00  0.00    -0.285 OA
ATOM      5  C   UNL     1      22.546 -20.733 -11.938  1.00  0.00     0.111 A 
ATOM      6  C   UNL     1      21.988 -19.600 -11.272  1.00  0.00     0.134 A 
ATOM      7  C   UNL     1      22.800 -18.815 -10.445  1.00  0.00     0.093 A 
ATOM      8  C   UNL     1      24.134 -19.157 -10.210  1.00  0.00     0.123 A 
ATOM      9  C   UNL     1      24.671 -20.293 -10.809  1.00  0.00     0.094 A 
ATOM     10  C   UNL     1      23.896 -21.077 -11.667  1.00  0.00     0.146 A 
ATOM     11  O   UNL     1      24.451 -22.146 -12.226  1.00  0.00    -0.452 OA
ENDROOT
BRANCH   1  12
ATOM     12  C   UNL     1      24.538 -24.122 -13.605  1.00  0.00     0.021 A 
ATOM     13  C   UNL     1      25.509 -23.941 -14.603  1.00  0.00     0.016 A 
ATOM     14  C   UNL     1      26.222 -25.035 -15.104  1.00  0.00     0.047 A 
ATOM     15  C   UNL     1      25.984 -26.319 -14.603  1.00  0.00     0.115 A 
ATOM     16  C   UNL     1      24.318 -25.412 -13.091  1.00  0.00     0.016 A 
ATOM     17  C   UNL     1      25.032 -26.505 -13.592  1.00  0.00     0.047 A 
BRANCH  15  18
ATOM     18  O   UNL     1      26.701 -27.399 -15.112  1.00  0.00    -0.508 OA
ATOM     19  H   UNL     1      26.661 -28.313 -14.676  1.00  0.00     0.293 HD
ENDBRANCH  15  18
ENDBRANCH   1  12
BRANCH   2  20
ATOM     20  O   UNL     1      21.844 -23.423 -14.415  1.00  0.00    -0.502 OA
ATOM     21  H   UNL     1      22.217 -23.567 -15.345  1.00  0.00     0.293 HD
ENDBRANCH   2  20
BRANCH   6  22
ATOM     22  O   UNL     1      20.643 -19.225 -11.365  1.00  0.00    -0.507 OA
ATOM     23  H   UNL     1      20.297 -18.288 -11.224  1.00  0.00     0.293 HD
ENDBRANCH   6  22
BRANCH   8  24
ATOM     24  O   UNL     1      24.931 -18.378  -9.375  1.00  0.00    -0.508 OA
ATOM     25  H   UNL     1      25.811 -17.990  -9.692  1.00  0.00     0.293 HD
ENDBRANCH   8  24
TORSDOF 5
ENDMDL
MODEL 5
REMARK VINA RESULT:    -6.154      2.660      7.880
REMARK INTER + INTRA:          -7.525
REMARK INTER:                  -7.270
REMARK INTRA:                  -0.255
REMARK UNBOUND:                -0.292
REMARK SMILES O=c1c(O)c(-c2ccc(O)cc2)oc2cc(O)cc(O)c12
REMARK SMILES IDX 5 1 3 2 2 3 1 4 21 5 19 6 18 7 16 8 15 9 14 10 13 11 6 12
REMARK SMILES IDX 7 13 8 14 9 15 12 16 11 17 10 18 4 20 20 22 17 24
REMARK H PARENT 10 19 4 21 20 23 17 25
REMARK Flexibility Score: inf
ROOT
ATOM      1  C   UNL     1      22.307 -21.603 -11.474  1.00  0.00     0.180 A 
ATOM      2  C   UNL     1      22.098 -21.571 -12.863  1.00  0.00     0.208 A 
ATOM      3  C   UNL     1      21.537 -22.693 -13.494  1.00  0.00     0.238 A 
ATOM      4  O   UNL     1      21.302 -22.637 -14.729  1.00  0.00    -0.285 OA
ATOM      5  C   UNL     1      21.207 -23.838 -12.730  1.00  0.00     0.111 A 
ATOM      6  C   UNL     1      20.670 -25.045 -13.271  1.00  0.00     0.134 A 
ATOM      7  C   UNL     1      20.259 -26.066 -12.405  1.00  0.00     0.093 A 
ATOM      8  C   UNL     1      20.425 -25.951 -11.023  1.00  0.00     0.123 A 
ATOM      9  C   UNL     1      21.003 -24.801 -10.491  1.00  0.00     0.094 A 
ATOM     10  C   UNL     1      21.389 -23.749 -11.325  1.00  0.00     0.146 A 
ATOM     11  O   UNL     1      21.926 -22.666 -10.776  1.00  0.00    -0.452 OA
ENDROOT
BRANCH   1  12
ATOM     12  C   UNL     1      22.917 -20.469 -10.741  1.00  0.00     0.021 A 
ATOM     13  C   UNL     1      24.286 -20.503 -10.429  1.00  0.00     0.016 A 
ATOM     14  C   UNL     1      24.886 -19.434  -9.758  1.00  0.00     0.047 A 
ATOM     15  C   UNL     1      24.131 -18.311  -9.404  1.00  0.00     0.115 A 
ATOM     16  C   UNL     1      22.167 -19.329 -10.401  1.00  0.00     0.016 A 
ATOM     17  C   UNL     1      22.769 -18.260  -9.731  1.00  0.00     0.047 A 
BRANCH  15  18
ATOM     18  O   UNL     1      24.742 -17.253  -8.736  1.00  0.00    -0.508 OA
ATOM     19  H   UNL     1      24.197 -16.536  -8.272  1.00  0.00     0.293 HD
ENDBRANCH  15  18
ENDBRANCH   1  12
BRANCH   2  20
ATOM     20  O   UNL     1      22.411 -20.422 -13.594  1.00  0.00    -0.502 OA
ATOM     21  H   UNL     1      23.365 -20.122 -13.757  1.00  0.00     0.293 HD
ENDBRANCH   2  20
BRANCH   6  22
ATOM     22  O   UNL     1      20.547 -25.300 -14.640  1.00  0.00    -0.507 OA
ATOM     23  H   UNL     1      20.610 -26.213 -15.063  1.00  0.00     0.293 HD
ENDBRANCH   6  22
BRANCH   8  24
ATOM     24  O   UNL     1      20.028 -26.978 -10.171  1.00  0.00    -0.508 OA
ATOM     25  H   UNL     1      19.247 -26.867  -9.535  1.00  0.00     0.293 HD
ENDBRANCH   8  24
TORSDOF 5
ENDMDL
MODEL 6
REMARK VINA RESULT:    -6.086      2.076      7.348
REMARK INTER + INTRA:          -7.446
REMARK INTER:                  -7.157
REMARK INTRA:                  -0.289
REMARK UNBOUND:                -0.292
REMARK SMILES O=c1c(O)c(-c2ccc(O)cc2)oc2cc(O)cc(O)c12
REMARK SMILES IDX 5 1 3 2 2 3 1 4 21 5 19 6 18 7 16 8 15 9 14 10 13 11 6 12
REMARK SMILES IDX 7 13 8 14 9 15 12 16 11 17 10 18 4 20 20 22 17 24
REMARK H PARENT 10 19 4 21 20 23 17 25
REMARK Flexibility Score: inf
ROOT
ATOM      1  C   UNL     1      22.620 -20.144 -11.455  1.00  0.00     0.180 A 
ATOM      2  C   UNL     1      22.853 -20.131 -12.841  1.00  0.00     0.208 A 
ATOM      3  C   UNL     1      22.637 -21.306 -13.580  1.00  0.00     0.238 A 
ATOM      4  O   UNL     1      22.795 -21.273 -14.828  1.00  0.00    -0.285 OA
ATOM      5  C   UNL     1      22.205 -22.482 -12.920  1.00  0.00     0.111 A 
ATOM      6  C   UNL     1      21.992 -23.739 -13.563  1.00  0.00     0.134 A 
ATOM      7  C   UNL     1      21.440 -24.801 -12.836  1.00  0.00     0.093 A 
ATOM      8  C   UNL     1      21.153 -24.671 -11.476  1.00  0.00     0.123 A 
ATOM      9  C   UNL     1      21.413 -23.467 -10.826  1.00  0.00     0.094 A 
ATOM     10  C   UNL     1      21.929 -22.377 -11.532  1.00  0.00     0.146 A 
ATOM     11  O   UNL     1      22.152 -21.244 -10.877  1.00  0.00    -0.452 OA
ENDROOT
BRANCH   1  12
ATOM     12  C   UNL     1      22.849 -18.952 -10.605  1.00  0.00     0.021 A 
ATOM     13  C   UNL     1      24.125 -18.723 -10.066  1.00  0.00     0.016 A 
ATOM     14  C   UNL     1      24.369 -17.593  -9.280  1.00  0.00     0.047 A 
ATOM     15  C   UNL     1      23.346 -16.670  -9.036  1.00  0.00     0.115 A 
ATOM     16  C   UNL     1      21.830 -18.011 -10.374  1.00  0.00     0.016 A 
ATOM     17  C   UNL     1      22.075 -16.881  -9.588  1.00  0.00     0.047 A 
BRANCH  15  18
ATOM     18  O   UNL     1      23.602 -15.550  -8.251  1.00  0.00    -0.508 OA
ATOM     19  H   UNL     1      22.863 -14.913  -7.980  1.00  0.00     0.293 HD
ENDBRANCH  15  18
ENDBRANCH   1  12
BRANCH   2  20
ATOM     20  O   UNL     1      23.258 -18.953 -13.475  1.00  0.00    -0.502 OA
ATOM     21  H   UNL     1      22.713 -18.100 -13.440  1.00  0.00     0.293 HD
ENDBRANCH   2  20
BRANCH   6  22
ATOM     22  O   UNL     1      22.331 -24.002 -14.894  1.00  0.00    -0.507 OA
ATOM     23  H   UNL     1      23.081 -23.553 -15.396  1.00  0.00     0.293 HD
ENDBRANCH   6  22
BRANCH   8  24
ATOM     24  O   UNL     1      20.618 -25.737 -10.757  1.00  0.00    -0.508 OA
ATOM     25  H   UNL     1      19.991 -26.407 -11.189  1.00  0.00     0.293 HD
ENDBRANCH   8  24
TORSDOF 5
ENDMDL
MODEL 7
REMARK VINA RESULT:    -6.084     10.040     12.916
REMARK INTER + INTRA:          -7.443
REMARK INTER:                  -7.157
REMARK INTRA:                  -0.286
REMARK UNBOUND:                -0.292
REMARK SMILES O=c1c(O)c(-c2ccc(O)cc2)oc2cc(O)cc(O)c12
REMARK SMILES IDX 5 1 3 2 2 3 1 4 21 5 19 6 18 7 16 8 15 9 14 10 13 11 6 12
REMARK SMILES IDX 7 13 8 14 9 15 12 16 11 17 10 18 4 20 20 22 17 24
REMARK H PARENT 10 19 4 21 20 23 17 25
REMARK Flexibility Score: inf
ROOT
ATOM      1  C   UNL     1      22.982 -29.876 -11.677  1.00  0.00     0.180 A 
ATOM      2  C   UNL     1      22.587 -31.028 -12.377  1.00  0.00     0.208 A 
ATOM      3  C   UNL     1      21.540 -31.812 -11.864  1.00  0.00     0.238 A 
ATOM      4  O   UNL     1      21.155 -32.813 -12.523  1.00  0.00    -0.285 OA
ATOM      5  C   UNL     1      20.915 -31.442 -10.649  1.00  0.00     0.111 A 
ATOM      6  C   UNL     1      19.872 -32.183 -10.016  1.00  0.00     0.134 A 
ATOM      7  C   UNL     1      19.237 -31.655  -8.885  1.00  0.00     0.093 A 
ATOM      8  C   UNL     1      19.651 -30.443  -8.327  1.00  0.00     0.123 A 
ATOM      9  C   UNL     1      20.706 -29.742  -8.903  1.00  0.00     0.094 A 
ATOM     10  C   UNL     1      21.336 -30.225 -10.053  1.00  0.00     0.146 A 
ATOM     11  O   UNL     1      22.332 -29.519 -10.576  1.00  0.00    -0.452 OA
ENDROOT
BRANCH   1  12
ATOM     12  C   UNL     1      24.093 -29.013 -12.142  1.00  0.00     0.021 A 
ATOM     13  C   UNL     1      25.401 -29.269 -11.699  1.00  0.00     0.016 A 
ATOM     14  C   UNL     1      26.466 -28.481 -12.143  1.00  0.00     0.047 A 
ATOM     15  C   UNL     1      26.242 -27.437 -13.047  1.00  0.00     0.115 A 
ATOM     16  C   UNL     1      23.876 -27.975 -13.067  1.00  0.00     0.016 A 
ATOM     17  C   UNL     1      24.943 -27.188 -13.510  1.00  0.00     0.047 A 
BRANCH  15  18
ATOM     18  O   UNL     1      27.312 -26.660 -13.480  1.00  0.00    -0.508 OA
ATOM     19  H   UNL     1      27.770 -26.000 -12.863  1.00  0.00     0.293 HD
ENDBRANCH  15  18
ENDBRANCH   1  12
BRANCH   2  20
ATOM     20  O   UNL     1      23.204 -31.364 -13.586  1.00  0.00    -0.502 OA
ATOM     21  H   UNL     1      24.112 -31.810 -13.628  1.00  0.00     0.293 HD
ENDBRANCH   2  20
BRANCH   6  22
ATOM     22  O   UNL     1      19.446 -33.447 -10.438  1.00  0.00    -0.507 OA
ATOM     23  H   UNL     1      18.494 -33.684 -10.671  1.00  0.00     0.293 HD
ENDBRANCH   6  22
BRANCH   8  24
ATOM     24  O   UNL     1      19.023 -29.932  -7.193  1.00  0.00    -0.508 OA
ATOM     25  H   UNL     1      18.166 -30.336  -6.834  1.00  0.00     0.293 HD
ENDBRANCH   8  24
TORSDOF 5
ENDMDL
MODEL 8
REMARK VINA RESULT:    -6.075      2.085      3.693
REMARK INTER + INTRA:          -7.432
REMARK INTER:                  -7.145
REMARK INTRA:                  -0.287
REMARK UNBOUND:                -0.292
REMARK SMILES O=c1c(O)c(-c2ccc(O)cc2)oc2cc(O)cc(O)c12
REMARK SMILES IDX 5 1 3 2 2 3 1 4 21 5 19 6 18 7 16 8 15 9 14 10 13 11 6 12
REMARK SMILES IDX 7 13 8 14 9 15 12 16 11 17 10 18 4 20 20 22 17 24
REMARK H PARENT 10 19 4 21 20 23 17 25
REMARK Flexibility Score: inf
ROOT
ATOM      1  C   UNL     1      21.859 -19.721 -12.702  1.00  0.00     0.180 A 
ATOM      2  C   UNL     1      21.299 -18.567 -13.274  1.00  0.00     0.208 A 
ATOM      3  C   UNL     1      21.388 -17.349 -12.580  1.00  0.00     0.238 A 
ATOM      4  O   UNL     1      20.932 -16.309 -13.123  1.00  0.00    -0.285 OA
ATOM      5  C   UNL     1      22.023 -17.305 -11.315  1.00  0.00     0.111 A 
ATOM      6  C   UNL     1      22.136 -16.134 -10.507  1.00  0.00     0.134 A 
ATOM      7  C   UNL     1      22.899 -16.177  -9.333  1.00  0.00     0.093 A 
ATOM      8  C   UNL     1      23.498 -17.364  -8.906  1.00  0.00     0.123 A 
ATOM      9  C   UNL     1      23.344 -18.526  -9.658  1.00  0.00     0.094 A 
ATOM     10  C   UNL     1      22.620 -18.507 -10.853  1.00  0.00     0.146 A 
ATOM     11  O   UNL     1      22.506 -19.634 -11.545  1.00  0.00    -0.452 OA
ENDROOT
BRANCH   1  12
ATOM     12  C   UNL     1      21.784 -21.045 -13.361  1.00  0.00     0.021 A 
ATOM     13  C   UNL     1      20.650 -21.852 -13.166  1.00  0.00     0.016 A 
ATOM     14  C   UNL     1      20.549 -23.095 -13.796  1.00  0.00     0.047 A 
ATOM     15  C   UNL     1      21.570 -23.542 -14.642  1.00  0.00     0.115 A 
ATOM     16  C   UNL     1      22.798 -21.490 -14.228  1.00  0.00     0.016 A 
ATOM     17  C   UNL     1      22.694 -22.734 -14.859  1.00  0.00     0.047 A 
BRANCH  15  18
ATOM     18  O   UNL     1      21.455 -24.782 -15.263  1.00  0.00    -0.508 OA
ATOM     19  H   UNL     1      22.229 -25.436 -15.286  1.00  0.00     0.293 HD
ENDBRANCH  15  18
ENDBRANCH   1  12
BRANCH   2  20
ATOM     20  O   UNL     1      20.696 -18.628 -14.534  1.00  0.00    -0.502 OA
ATOM     21  H   UNL     1      19.842 -18.129 -14.754  1.00  0.00     0.293 HD
ENDBRANCH   2  20
BRANCH   6  22
ATOM     22  O   UNL     1      21.500 -14.922 -10.794  1.00  0.00    -0.507 OA
ATOM     23  H   UNL     1      20.866 -14.445 -10.172  1.00  0.00     0.293 HD
ENDBRANCH   6  22
BRANCH   8  24
ATOM     24  O   UNL     1      24.243 -17.402  -7.730  1.00  0.00    -0.508 OA
ATOM     25  H   UNL     1      23.911 -17.892  -6.907  1.00  0.00     0.293 HD
ENDBRANCH   8  24
TORSDOF 5
ENDMDL
MODEL 9
REMARK VINA RESULT:    -6.042      3.185      8.876
REMARK INTER + INTRA:          -7.394
REMARK INTER:                  -7.102
REMARK INTRA:                  -0.292
REMARK UNBOUND:                -0.292
REMARK SMILES O=c1c(O)c(-c2ccc(O)cc2)oc2cc(O)cc(O)c12
REMARK SMILES IDX 5 1 3 2 2 3 1 4 21 5 19 6 18 7 16 8 15 9 14 10 13 11 6 12
REMARK SMILES IDX 7 13 8 14 9 15 12 16 11 17 10 18 4 20 20 22 17 24
REMARK H PARENT 10 19 4 21 20 23 17 25
REMARK Flexibility Score: inf
ROOT
ATOM      1  C   UNL     1      23.726 -23.004 -12.826  1.00  0.00     0.180 A 
ATOM      2  C   UNL     1      22.689 -23.827 -12.358  1.00  0.00     0.208 A 
ATOM      3  C   UNL     1      22.762 -25.212 -12.586  1.00  0.00     0.238 A 
ATOM      4  O   UNL     1      21.857 -25.950 -12.117  1.00  0.00    -0.285 OA
ATOM      5  C   UNL     1      23.863 -25.751 -13.292  1.00  0.00     0.111 A 
ATOM      6  C   UNL     1      24.021 -27.133 -13.614  1.00  0.00     0.134 A 
ATOM      7  C   UNL     1      25.213 -27.573 -14.202  1.00  0.00     0.093 A 
ATOM      8  C   UNL     1      26.227 -26.673 -14.538  1.00  0.00     0.123 A 
ATOM      9  C   UNL     1      26.058 -25.315 -14.281  1.00  0.00     0.094 A 
ATOM     10  C   UNL     1      24.895 -24.849 -13.663  1.00  0.00     0.146 A 
ATOM     11  O   UNL     1      24.778 -23.548 -13.427  1.00  0.00    -0.452 OA
ENDROOT
BRANCH   1  12
ATOM     12  C   UNL     1      23.709 -21.533 -12.646  1.00  0.00     0.021 A 
ATOM     13  C   UNL     1      24.441 -20.955 -11.597  1.00  0.00     0.016 A 
ATOM     14  C   UNL     1      24.456 -19.569 -11.423  1.00  0.00     0.047 A 
ATOM     15  C   UNL     1      23.753 -18.741 -12.304  1.00  0.00     0.115 A 
ATOM     16  C   UNL     1      23.019 -20.695 -13.541  1.00  0.00     0.016 A 
ATOM     17  C   UNL     1      23.036 -19.308 -13.366  1.00  0.00     0.047 A 
BRANCH  15  18
ATOM     18  O   UNL     1      23.776 -17.361 -12.118  1.00  0.00    -0.508 OA
ATOM     19  H   UNL     1      24.589 -16.808 -12.360  1.00  0.00     0.293 HD
ENDBRANCH  15  18
ENDBRANCH   1  12
BRANCH   2  20
ATOM     20  O   UNL     1      21.621 -23.277 -11.644  1.00  0.00    -0.502 OA
ATOM     21  H   UNL     1      20.826 -23.826 -11.342  1.00  0.00     0.293 HD
ENDBRANCH   2  20
BRANCH   6  22
ATOM     22  O   UNL     1      23.033 -28.101 -13.405  1.00  0.00    -0.507 OA
ATOM     23  H   UNL     1      22.574 -28.620 -14.138  1.00  0.00     0.293 HD
ENDBRANCH   6  22
BRANCH   8  24
ATOM     24  O   UNL     1      27.404 -27.118 -15.135  1.00  0.00    -0.508 OA
ATOM     25  H   UNL     1      28.299 -27.039 -14.668  1.00  0.00     0.293 HD
ENDBRANCH   8  24
TORSDOF 5
ENDMDL
