MODEL 1
REMARK VINA RESULT:    -4.576      0.000      0.000
REMARK INTER + INTRA:          -4.710
REMARK INTER:                  -4.710
REMARK INTRA:                   0.000
REMARK UNBOUND:                 0.000
REMARK SMILES O=c1ccc2ccc(O)cc2o1
REMARK SMILES IDX 6 1 7 2 8 3 10 4 11 5 5 6 4 7 3 8 2 9 1 10 12 11 9 12
REMARK H PARENT 9 13
REMARK Flexibility Score: inf
ROOT
ATOM      1  C   UNL     1      17.199 128.622  56.614  1.00  0.00     0.016 A 
ATOM      2  C   UNL     1      18.011 129.580  57.229  1.00  0.00     0.047 A 
ATOM      3  C   UNL     1      18.774 130.465  56.453  1.00  0.00     0.119 A 
ATOM      4  C   UNL     1      18.724 130.390  55.056  1.00  0.00     0.094 A 
ATOM      5  C   UNL     1      17.915 129.435  54.431  1.00  0.00     0.142 A 
ATOM      6  C   UNL     1      17.146 128.545  55.215  1.00  0.00     0.018 A 
ATOM      7  C   UNL     1      16.347 127.602  54.562  1.00  0.00     0.019 A 
ATOM      8  C   UNL     1      16.330 127.566  53.168  1.00  0.00     0.094 A 
ATOM      9  C   UNL     1      17.117 128.479  52.457  1.00  0.00     0.336 A 
ATOM     10  O   UNL     1      17.116 128.463  51.199  1.00  0.00    -0.246 OA
ATOM     11  O   UNL     1      17.869 129.367  53.103  1.00  0.00    -0.423 OA
ENDROOT
BRANCH   3  12
ATOM     12  O   UNL     1      19.585 131.421  57.061  1.00  0.00    -0.508 OA
ATOM     13  H   UNL     1      19.612 132.378  56.732  1.00  0.00     0.293 HD
ENDBRANCH   3  12
TORSDOF 1
ENDMDL
MODEL 2
REMARK VINA RESULT:    -4.534      1.383      4.238
REMARK INTER + INTRA:          -4.667
REMARK INTER:                  -4.667
REMARK INTRA:                   0.000
REMARK UNBOUND:                 0.000
REMARK SMILES O=c1ccc2ccc(O)cc2o1
REMARK SMILES IDX 6 1 7 2 8 3 10 4 11 5 5 6 4 7 3 8 2 9 1 10 12 11 9 12
REMARK H PARENT 9 13
REMARK Flexibility Score: inf
ROOT
ATOM      1  C   UNL     1      15.632 127.880  54.125  1.00  0.00     0.016 A 
ATOM      2  C   UNL     1      16.280 128.017  52.894  1.00  0.00     0.047 A 
ATOM      3  C   UNL     1      17.537 128.635  52.821  1.00  0.00     0.119 A 
ATOM      4  C   UNL     1      18.147 129.118  53.986  1.00  0.00     0.094 A 
ATOM      5  C   UNL     1      17.505 128.986  55.222  1.00  0.00     0.142 A 
ATOM      6  C   UNL     1      16.239 128.363  55.293  1.00  0.00     0.018 A 
ATOM      7  C   UNL     1      15.624 128.246  56.543  1.00  0.00     0.019 A 
ATOM      8  C   UNL     1      16.271 128.742  57.674  1.00  0.00     0.094 A 
ATOM      9  C   UNL     1      17.524 129.347  57.527  1.00  0.00     0.336 A 
ATOM     10  O   UNL     1      18.124 129.801  58.536  1.00  0.00    -0.246 OA
ATOM     11  O   UNL     1      18.088 129.446  56.327  1.00  0.00    -0.423 OA
ENDROOT
BRANCH   3  12
ATOM     12  O   UNL     1      18.188 128.774  51.597  1.00  0.00    -0.508 OA
ATOM     13  H   UNL     1      17.815 129.362  50.862  1.00  0.00     0.293 HD
ENDBRANCH   3  12
TORSDOF 1
ENDMDL
MODEL 3
REMARK VINA RESULT:    -4.502      2.740      4.900
REMARK INTER + INTRA:          -4.634
REMARK INTER:                  -4.634
REMARK INTRA:                   0.000
REMARK UNBOUND:                 0.000
REMARK SMILES O=c1ccc2ccc(O)cc2o1
REMARK SMILES IDX 6 1 7 2 8 3 10 4 11 5 5 6 4 7 3 8 2 9 1 10 12 11 9 12
REMARK H PARENT 9 13
REMARK Flexibility Score: inf
ROOT
ATOM      1  C   UNL     1      18.618 129.381  56.055  1.00  0.00     0.016 A 
ATOM      2  C   UNL     1      18.525 128.788  54.793  1.00  0.00     0.047 A 
ATOM      3  C   UNL     1      17.416 127.992  54.465  1.00  0.00     0.119 A 
ATOM      4  C   UNL     1      16.398 127.791  55.405  1.00  0.00     0.094 A 
ATOM      5  C   UNL     1      16.484 128.380  56.671  1.00  0.00     0.142 A 
ATOM      6  C   UNL     1      17.600 129.182  56.999  1.00  0.00     0.018 A 
ATOM      7  C   UNL     1      17.657 129.758  58.272  1.00  0.00     0.019 A 
ATOM      8  C   UNL     1      16.618 129.528  59.174  1.00  0.00     0.094 A 
ATOM      9  C   UNL     1      15.543 128.724  58.779  1.00  0.00     0.336 A 
ATOM     10  O   UNL     1      14.596 128.504  59.579  1.00  0.00    -0.246 OA
ATOM     11  O   UNL     1      15.514 128.187  57.562  1.00  0.00    -0.423 OA
ENDROOT
BRANCH   3  12
ATOM     12  O   UNL     1      17.318 127.398  53.209  1.00  0.00    -0.508 OA
ATOM     13  H   UNL     1      16.733 127.791  52.482  1.00  0.00     0.293 HD
ENDBRANCH   3  12
TORSDOF 1
ENDMDL
MODEL 4
REMARK VINA RESULT:    -4.460      2.054      4.490
REMARK INTER + INTRA:          -4.591
REMARK INTER:                  -4.591
REMARK INTRA:                   0.000
REMARK UNBOUND:                 0.000
REMARK SMILES O=c1ccc2ccc(O)cc2o1
REMARK SMILES IDX 6 1 7 2 8 3 10 4 11 5 5 6 4 7 3 8 2 9 1 10 12 11 9 12
REMARK H PARENT 9 13
REMARK Flexibility Score: inf
ROOT
ATOM      1  C   UNL     1      15.805 127.887  55.009  1.00  0.00     0.016 A 
ATOM      2  C   UNL     1      16.768 128.078  54.014  1.00  0.00     0.047 A 
ATOM      3  C   UNL     1      17.967 128.746  54.308  1.00  0.00     0.119 A 
ATOM      4  C   UNL     1      18.201 129.223  55.604  1.00  0.00     0.094 A 
ATOM      5  C   UNL     1      17.242 129.037  56.605  1.00  0.00     0.142 A 
ATOM      6  C   UNL     1      16.036 128.364  56.306  1.00  0.00     0.018 A 
ATOM      7  C   UNL     1      15.098 128.193  57.329  1.00  0.00     0.019 A 
ATOM      8  C   UNL     1      15.377 128.686  58.603  1.00  0.00     0.094 A 
ATOM      9  C   UNL     1      16.593 129.341  58.826  1.00  0.00     0.336 A 
ATOM     10  O   UNL     1      16.862 129.794  59.969  1.00  0.00    -0.246 OA
ATOM     11  O   UNL     1      17.469 129.491  57.836  1.00  0.00    -0.423 OA
ENDROOT
BRANCH   3  12
ATOM     12  O   UNL     1      18.931 128.939  53.321  1.00  0.00    -0.508 OA
ATOM     13  H   UNL     1      19.861 128.548  53.405  1.00  0.00     0.293 HD
ENDBRANCH   3  12
TORSDOF 1
ENDMDL
MODEL 5
REMARK VINA RESULT:    -4.458      1.258      4.134
REMARK INTER + INTRA:          -4.588
REMARK INTER:                  -4.588
REMARK INTRA:                   0.000
REMARK UNBOUND:                 0.000
REMARK SMILES O=c1ccc2ccc(O)cc2o1
REMARK SMILES IDX 6 1 7 2 8 3 10 4 11 5 5 6 4 7 3 8 2 9 1 10 12 11 9 12
REMARK H PARENT 9 13
REMARK Flexibility Score: inf
ROOT
ATOM      1  C   UNL     1      16.787 128.139  56.052  1.00  0.00     0.016 A 
ATOM      2  C   UNL     1      16.286 127.498  54.914  1.00  0.00     0.047 A 
ATOM      3  C   UNL     1      16.753 127.852  53.640  1.00  0.00     0.119 A 
ATOM      4  C   UNL     1      17.724 128.851  53.504  1.00  0.00     0.094 A 
ATOM      5  C   UNL     1      18.230 129.499  54.636  1.00  0.00     0.142 A 
ATOM      6  C   UNL     1      17.759 129.140  55.919  1.00  0.00     0.018 A 
ATOM      7  C   UNL     1      18.284 129.806  57.031  1.00  0.00     0.019 A 
ATOM      8  C   UNL     1      19.249 130.794  56.845  1.00  0.00     0.094 A 
ATOM      9  C   UNL     1      19.669 131.096  55.544  1.00  0.00     0.336 A 
ATOM     10  O   UNL     1      20.539 131.986  55.356  1.00  0.00    -0.246 OA
ATOM     11  O   UNL     1      19.153 130.449  54.503  1.00  0.00    -0.423 OA
ENDROOT
BRANCH   3  12
ATOM     12  O   UNL     1      16.259 127.216  52.502  1.00  0.00    -0.508 OA
ATOM     13  H   UNL     1      15.481 126.570  52.553  1.00  0.00     0.293 HD
ENDBRANCH   3  12
TORSDOF 1
ENDMDL
MODEL 6
REMARK VINA RESULT:    -4.354      2.867      3.648
REMARK INTER + INTRA:          -4.481
REMARK INTER:                  -4.481
REMARK INTRA:                   0.000
REMARK UNBOUND:                 0.000
REMARK SMILES O=c1ccc2ccc(O)cc2o1
REMARK SMILES IDX 6 1 7 2 8 3 10 4 11 5 5 6 4 7 3 8 2 9 1 10 12 11 9 12
REMARK H PARENT 9 13
REMARK Flexibility Score: inf
ROOT
ATOM      1  C   UNL     1      15.095 129.964  53.704  1.00  0.00     0.016 A 
ATOM      2  C   UNL     1      15.141 129.090  54.794  1.00  0.00     0.047 A 
ATOM      3  C   UNL     1      15.905 127.915  54.726  1.00  0.00     0.119 A 
ATOM      4  C   UNL     1      16.625 127.616  53.563  1.00  0.00     0.094 A 
ATOM      5  C   UNL     1      16.584 128.485  52.468  1.00  0.00     0.142 A 
ATOM      6  C   UNL     1      15.815 129.668  52.538  1.00  0.00     0.018 A 
ATOM      7  C   UNL     1      15.794 130.516  51.427  1.00  0.00     0.019 A 
ATOM      8  C   UNL     1      16.528 130.175  50.291  1.00  0.00     0.094 A 
ATOM      9  C   UNL     1      17.268 128.987  50.294  1.00  0.00     0.336 A 
ATOM     10  O   UNL     1      17.936 128.662  49.278  1.00  0.00    -0.246 OA
ATOM     11  O   UNL     1      17.271 128.197  51.364  1.00  0.00    -0.423 OA
ENDROOT
BRANCH   3  12
ATOM     12  O   UNL     1      15.956 127.040  55.809  1.00  0.00    -0.508 OA
ATOM     13  H   UNL     1      15.504 126.134  55.779  1.00  0.00     0.293 HD
ENDBRANCH   3  12
TORSDOF 1
ENDMDL
MODEL 7
REMARK VINA RESULT:    -4.311      8.552     10.252
REMARK INTER + INTRA:          -4.437
REMARK INTER:                  -4.437
REMARK INTRA:                   0.000
REMARK UNBOUND:                 0.000
REMARK SMILES O=c1ccc2ccc(O)cc2o1
REMARK SMILES IDX 6 1 7 2 8 3 10 4 11 5 5 6 4 7 3 8 2 9 1 10 12 11 9 12
REMARK H PARENT 9 13
REMARK Flexibility Score: inf
ROOT
ATOM      1  C   UNL     1      15.435 127.062  65.519  1.00  0.00     0.016 A 
ATOM      2  C   UNL     1      14.756 125.875  65.232  1.00  0.00     0.047 A 
ATOM      3  C   UNL     1      15.130 125.095  64.127  1.00  0.00     0.119 A 
ATOM      4  C   UNL     1      16.187 125.506  63.307  1.00  0.00     0.094 A 
ATOM      5  C   UNL     1      16.872 126.694  63.586  1.00  0.00     0.142 A 
ATOM      6  C   UNL     1      16.494 127.477  64.700  1.00  0.00     0.018 A 
ATOM      7  C   UNL     1      17.198 128.659  64.952  1.00  0.00     0.019 A 
ATOM      8  C   UNL     1      18.244 129.027  64.106  1.00  0.00     0.094 A 
ATOM      9  C   UNL     1      18.562 128.201  63.023  1.00  0.00     0.336 A 
ATOM     10  O   UNL     1      19.502 128.516  62.247  1.00  0.00    -0.246 OA
ATOM     11  O   UNL     1      17.877 127.082  62.804  1.00  0.00    -0.423 OA
ENDROOT
BRANCH   3  12
ATOM     12  O   UNL     1      14.457 123.910  63.837  1.00  0.00    -0.508 OA
ATOM     13  H   UNL     1      13.731 123.872  63.132  1.00  0.00     0.293 HD
ENDBRANCH   3  12
TORSDOF 1
ENDMDL
MODEL 8
REMARK VINA RESULT:    -4.281      1.900      2.304
REMARK INTER + INTRA:          -4.407
REMARK INTER:                  -4.407
REMARK INTRA:                   0.000
REMARK UNBOUND:                 0.000
REMARK SMILES O=c1ccc2ccc(O)cc2o1
REMARK SMILES IDX 6 1 7 2 8 3 10 4 11 5 5 6 4 7 3 8 2 9 1 10 12 11 9 12
REMARK H PARENT 9 13
REMARK Flexibility Score: inf
ROOT
ATOM      1  C   UNL     1      18.092 129.719  57.265  1.00  0.00     0.016 A 
ATOM      2  C   UNL     1      19.452 129.622  56.959  1.00  0.00     0.047 A 
ATOM      3  C   UNL     1      19.863 129.190  55.689  1.00  0.00     0.119 A 
ATOM      4  C   UNL     1      18.907 128.854  54.722  1.00  0.00     0.094 A 
ATOM      5  C   UNL     1      17.543 128.947  55.021  1.00  0.00     0.142 A 
ATOM      6  C   UNL     1      17.132 129.383  56.300  1.00  0.00     0.018 A 
ATOM      7  C   UNL     1      15.762 129.466  56.568  1.00  0.00     0.019 A 
ATOM      8  C   UNL     1      14.848 129.120  55.573  1.00  0.00     0.094 A 
ATOM      9  C   UNL     1      15.328 128.698  54.328  1.00  0.00     0.336 A 
ATOM     10  O   UNL     1      14.519 128.381  53.418  1.00  0.00    -0.246 OA
ATOM     11  O   UNL     1      16.637 128.627  54.099  1.00  0.00    -0.423 OA
ENDROOT
BRANCH   3  12
ATOM     12  O   UNL     1      21.217 129.092  55.377  1.00  0.00    -0.508 OA
ATOM     13  H   UNL     1      21.645 129.688  54.679  1.00  0.00     0.293 HD
ENDBRANCH   3  12
TORSDOF 1
ENDMDL
MODEL 9
REMARK VINA RESULT:    -4.279      1.832      2.546
REMARK INTER + INTRA:          -4.404
REMARK INTER:                  -4.404
REMARK INTRA:                   0.000
REMARK UNBOUND:                 0.000
REMARK SMILES O=c1ccc2ccc(O)cc2o1
REMARK SMILES IDX 6 1 7 2 8 3 10 4 11 5 5 6 4 7 3 8 2 9 1 10 12 11 9 12
REMARK H PARENT 9 13
REMARK Flexibility Score: inf
ROOT
ATOM      1  C   UNL     1      16.339 129.365  58.898  1.00  0.00     0.016 A 
ATOM      2  C   UNL     1      17.362 130.041  59.569  1.00  0.00     0.047 A 
ATOM      3  C   UNL     1      18.583 130.295  58.925  1.00  0.00     0.119 A 
ATOM      4  C   UNL     1      18.778 129.870  57.606  1.00  0.00     0.094 A 
ATOM      5  C   UNL     1      17.760 129.192  56.927  1.00  0.00     0.142 A 
ATOM      6  C   UNL     1      16.532 128.938  57.577  1.00  0.00     0.018 A 
ATOM      7  C   UNL     1      15.533 128.258  56.872  1.00  0.00     0.019 A 
ATOM      8  C   UNL     1      15.776 127.855  55.559  1.00  0.00     0.094 A 
ATOM      9  C   UNL     1      17.017 128.142  54.980  1.00  0.00     0.336 A 
ATOM     10  O   UNL     1      17.255 127.785  53.797  1.00  0.00    -0.246 OA
ATOM     11  O   UNL     1      17.950 128.790  55.673  1.00  0.00    -0.423 OA
ENDROOT
BRANCH   3  12
ATOM     12  O   UNL     1      19.606 130.969  59.589  1.00  0.00    -0.508 OA
ATOM     13  H   UNL     1      19.416 131.582  60.372  1.00  0.00     0.293 HD
ENDBRANCH   3  12
TORSDOF 1
ENDMDL
