MODEL 1
REMARK VINA RESULT:    -4.584      0.000      0.000
REMARK INTER + INTRA:         -15.866
REMARK INTER:                 -11.551
REMARK INTRA:                  -4.314
REMARK UNBOUND:                -4.314
REMARK SMILES CCCCCCCCCCCCCCCCCCCCCCCCCCCC(=O)[O-]
REMARK SMILES IDX 15 1 16 2 17 3 18 4 19 5 20 6 21 7 22 8 23 9 24 10 25 11
REMARK SMILES IDX 26 12 27 13 28 14 29 15 30 16 14 17 13 18 12 19 11 20 10 21
REMARK SMILES IDX 9 22 8 23 7 24 6 25 5 26 4 27 3 28 2 29 1 30
REMARK H PARENT
REMARK Flexibility Score: inf
ROOT
ATOM      1  C   UNL     1      89.174 315.560 202.284  1.00  0.00     0.000 C 
ENDROOT
BRANCH   1   2
ATOM      2  C   UNL     1      90.076 314.542 201.555  1.00  0.00     0.000 C 
BRANCH   2   3
ATOM      3  C   UNL     1      89.339 313.681 200.512  1.00  0.00     0.000 C 
BRANCH   3   4
ATOM      4  C   UNL     1      88.437 314.459 199.536  1.00  0.00     0.000 C 
BRANCH   4   5
ATOM      5  C   UNL     1      88.795 314.297 198.048  1.00  0.00     0.000 C 
BRANCH   5   6
ATOM      6  C   UNL     1      90.269 314.624 197.746  1.00  0.00     0.000 C 
BRANCH   6   7
ATOM      7  C   UNL     1      90.488 316.104 197.402  1.00  0.00     0.000 C 
BRANCH   7   8
ATOM      8  C   UNL     1      91.676 316.723 198.164  1.00  0.00     0.000 C 
BRANCH   8   9
ATOM      9  C   UNL     1      91.270 317.295 199.532  1.00  0.00     0.000 C 
BRANCH   9  10
ATOM     10  C   UNL     1      92.422 317.271 200.552  1.00  0.00     0.000 C 
BRANCH  10  11
ATOM     11  C   UNL     1      92.098 318.096 201.815  1.00  0.00     0.000 C 
BRANCH  11  12
ATOM     12  C   UNL     1      93.218 319.069 202.222  1.00  0.00     0.006 C 
BRANCH  12  13
ATOM     13  C   UNL     1      92.686 320.386 202.798  1.00  0.00     0.053 C 
BRANCH  13  14
ATOM     14  C   UNL     1      93.571 320.878 203.899  1.00  0.00     0.041 C 
ATOM     15  O   UNL     1      94.547 321.629 203.638  1.00  0.00    -0.550 OA
ATOM     16  O   UNL     1      93.297 320.537 205.217  1.00  0.00    -0.550 OA
ENDBRANCH  13  14
ENDBRANCH  12  13
ENDBRANCH  11  12
ENDBRANCH  10  11
ENDBRANCH   9  10
ENDBRANCH   8   9
ENDBRANCH   7   8
ENDBRANCH   6   7
ENDBRANCH   5   6
ENDBRANCH   4   5
ENDBRANCH   3   4
ENDBRANCH   2   3
ENDBRANCH   1   2
BRANCH   1  17
ATOM     17  C   UNL     1      88.679 315.054 203.651  1.00  0.00     0.000 C 
BRANCH  17  18
ATOM     18  C   UNL     1      88.883 316.081 204.779  1.00  0.00     0.000 C 
BRANCH  18  19
ATOM     19  C   UNL     1      88.604 315.523 206.189  1.00  0.00     0.000 C 
BRANCH  19  20
ATOM     20  C   UNL     1      87.267 314.767 206.257  1.00  0.00     0.000 C 
BRANCH  20  21
ATOM     21  C   UNL     1      86.111 315.646 206.757  1.00  0.00     0.000 C 
BRANCH  21  22
ATOM     22  C   UNL     1      85.131 316.032 205.634  1.00  0.00    -0.000 C 
BRANCH  22  23
ATOM     23  C   UNL     1      84.854 317.551 205.596  1.00  0.00    -0.000 C 
BRANCH  23  24
ATOM     24  C   UNL     1      85.696 318.307 204.548  1.00  0.00    -0.000 C 
BRANCH  24  25
ATOM     25  C   UNL     1      85.891 317.567 203.213  1.00  0.00    -0.000 C 
BRANCH  25  26
ATOM     26  C   UNL     1      84.632 317.593 202.330  1.00  0.00    -0.000 C 
BRANCH  26  27
ATOM     27  C   UNL     1      84.261 316.202 201.787  1.00  0.00    -0.000 C 
BRANCH  27  28
ATOM     28  C   UNL     1      85.469 315.249 201.650  1.00  0.00    -0.000 C 
BRANCH  28  29
ATOM     29  C   UNL     1      85.365 314.008 202.556  1.00  0.00    -0.003 C 
ATOM     30  C   UNL     1      86.105 312.802 201.976  1.00  0.00     0.004 C 
ENDBRANCH  28  29
ENDBRANCH  27  28
ENDBRANCH  26  27
ENDBRANCH  25  26
ENDBRANCH  24  25
ENDBRANCH  23  24
ENDBRANCH  22  23
ENDBRANCH  21  22
ENDBRANCH  20  21
ENDBRANCH  19  20
ENDBRANCH  18  19
ENDBRANCH  17  18
ENDBRANCH   1  17
TORSDOF 26
ENDMDL
MODEL 2
REMARK VINA RESULT:    -4.465      4.658      5.997
REMARK INTER + INTRA:         -15.565
REMARK INTER:                 -12.236
REMARK INTRA:                  -3.329
REMARK UNBOUND:                -4.314
REMARK SMILES CCCCCCCCCCCCCCCCCCCCCCCCCCCC(=O)[O-]
REMARK SMILES IDX 15 1 16 2 17 3 18 4 19 5 20 6 21 7 22 8 23 9 24 10 25 11
REMARK SMILES IDX 26 12 27 13 28 14 29 15 30 16 14 17 13 18 12 19 11 20 10 21
REMARK SMILES IDX 9 22 8 23 7 24 6 25 5 26 4 27 3 28 2 29 1 30
REMARK H PARENT
REMARK Flexibility Score: inf
ROOT
ATOM      1  C   UNL     1      89.540 316.011 202.348  1.00  0.00     0.000 C 
ENDROOT
BRANCH   1   2
ATOM      2  C   UNL     1      90.526 315.134 201.549  1.00  0.00     0.000 C 
BRANCH   2   3
ATOM      3  C   UNL     1      90.265 315.117 200.031  1.00  0.00     0.000 C 
BRANCH   3   4
ATOM      4  C   UNL     1      90.677 316.396 199.279  1.00  0.00     0.000 C 
BRANCH   4   5
ATOM      5  C   UNL     1      91.859 317.164 199.897  1.00  0.00     0.000 C 
BRANCH   5   6
ATOM      6  C   UNL     1      92.729 317.874 198.845  1.00  0.00     0.000 C 
BRANCH   6   7
ATOM      7  C   UNL     1      93.333 316.901 197.822  1.00  0.00     0.000 C 
BRANCH   7   8
ATOM      8  C   UNL     1      93.490 317.528 196.424  1.00  0.00     0.000 C 
BRANCH   8   9
ATOM      9  C   UNL     1      93.644 316.475 195.315  1.00  0.00     0.000 C 
BRANCH   9  10
ATOM     10  C   UNL     1      94.059 317.088 193.966  1.00  0.00     0.000 C 
BRANCH  10  11
ATOM     11  C   UNL     1      93.777 318.604 193.904  1.00  0.00     0.000 C 
BRANCH  11  12
ATOM     12  C   UNL     1      93.566 319.136 192.476  1.00  0.00     0.006 C 
BRANCH  12  13
ATOM     13  C   UNL     1      94.108 318.189 191.400  1.00  0.00     0.053 C 
BRANCH  13  14
ATOM     14  C   UNL     1      93.002 317.697 190.522  1.00  0.00     0.041 C 
ATOM     15  O   UNL     1      92.151 318.505 190.063  1.00  0.00    -0.550 OA
ATOM     16  O   UNL     1      92.931 316.353 190.179  1.00  0.00    -0.550 OA
ENDBRANCH  13  14
ENDBRANCH  12  13
ENDBRANCH  11  12
ENDBRANCH  10  11
ENDBRANCH   9  10
ENDBRANCH   8   9
ENDBRANCH   7   8
ENDBRANCH   6   7
ENDBRANCH   5   6
ENDBRANCH   4   5
ENDBRANCH   3   4
ENDBRANCH   2   3
ENDBRANCH   1   2
BRANCH   1  17
ATOM     17  C   UNL     1      88.876 315.259 203.515  1.00  0.00     0.000 C 
BRANCH  17  18
ATOM     18  C   UNL     1      88.922 316.045 204.838  1.00  0.00     0.000 C 
BRANCH  18  19
ATOM     19  C   UNL     1      88.032 315.450 205.949  1.00  0.00     0.000 C 
BRANCH  19  20
ATOM     20  C   UNL     1      86.853 314.647 205.377  1.00  0.00     0.000 C 
BRANCH  20  21
ATOM     21  C   UNL     1      85.509 315.030 206.013  1.00  0.00     0.000 C 
BRANCH  21  22
ATOM     22  C   UNL     1      85.476 316.492 206.496  1.00  0.00    -0.000 C 
BRANCH  22  23
ATOM     23  C   UNL     1      84.762 317.423 205.493  1.00  0.00    -0.000 C 
BRANCH  23  24
ATOM     24  C   UNL     1      85.730 318.232 204.604  1.00  0.00    -0.000 C 
BRANCH  24  25
ATOM     25  C   UNL     1      85.875 317.714 203.163  1.00  0.00    -0.000 C 
BRANCH  25  26
ATOM     26  C   UNL     1      84.522 317.400 202.504  1.00  0.00    -0.000 C 
BRANCH  26  27
ATOM     27  C   UNL     1      84.568 316.136 201.629  1.00  0.00    -0.000 C 
BRANCH  27  28
ATOM     28  C   UNL     1      84.693 314.827 202.440  1.00  0.00    -0.000 C 
BRANCH  28  29
ATOM     29  C   UNL     1      85.814 313.903 201.927  1.00  0.00    -0.003 C 
ATOM     30  C   UNL     1      86.517 314.473 200.695  1.00  0.00     0.004 C 
ENDBRANCH  28  29
ENDBRANCH  27  28
ENDBRANCH  26  27
ENDBRANCH  25  26
ENDBRANCH  24  25
ENDBRANCH  23  24
ENDBRANCH  22  23
ENDBRANCH  21  22
ENDBRANCH  20  21
ENDBRANCH  19  20
ENDBRANCH  18  19
ENDBRANCH  17  18
ENDBRANCH   1  17
TORSDOF 26
ENDMDL
MODEL 3
REMARK VINA RESULT:    -4.381      4.923      6.971
REMARK INTER + INTRA:         -15.356
REMARK INTER:                 -12.681
REMARK INTRA:                  -2.675
REMARK UNBOUND:                -4.314
REMARK SMILES CCCCCCCCCCCCCCCCCCCCCCCCCCCC(=O)[O-]
REMARK SMILES IDX 15 1 16 2 17 3 18 4 19 5 20 6 21 7 22 8 23 9 24 10 25 11
REMARK SMILES IDX 26 12 27 13 28 14 29 15 30 16 14 17 13 18 12 19 11 20 10 21
REMARK SMILES IDX 9 22 8 23 7 24 6 25 5 26 4 27 3 28 2 29 1 30
REMARK H PARENT
REMARK Flexibility Score: inf
ROOT
ATOM      1  C   UNL     1      87.594 314.099 200.317  1.00  0.00     0.000 C 
ENDROOT
BRANCH   1   2
ATOM      2  C   UNL     1      88.350 314.553 199.052  1.00  0.00     0.000 C 
BRANCH   2   3
ATOM      3  C   UNL     1      89.872 314.691 199.243  1.00  0.00     0.000 C 
BRANCH   3   4
ATOM      4  C   UNL     1      90.559 315.719 198.324  1.00  0.00     0.000 C 
BRANCH   4   5
ATOM      5  C   UNL     1      91.995 315.358 197.902  1.00  0.00     0.000 C 
BRANCH   5   6
ATOM      6  C   UNL     1      92.568 316.318 196.844  1.00  0.00     0.000 C 
BRANCH   6   7
ATOM      7  C   UNL     1      93.061 317.641 197.450  1.00  0.00     0.000 C 
BRANCH   7   8
ATOM      8  C   UNL     1      94.159 318.311 196.603  1.00  0.00     0.000 C 
BRANCH   8   9
ATOM      9  C   UNL     1      93.590 319.115 195.423  1.00  0.00     0.000 C 
BRANCH   9  10
ATOM     10  C   UNL     1      94.384 318.904 194.122  1.00  0.00     0.000 C 
BRANCH  10  11
ATOM     11  C   UNL     1      93.566 319.291 192.871  1.00  0.00     0.000 C 
BRANCH  11  12
ATOM     12  C   UNL     1      93.971 318.518 191.604  1.00  0.00     0.006 C 
BRANCH  12  13
ATOM     13  C   UNL     1      92.794 318.275 190.653  1.00  0.00     0.053 C 
BRANCH  13  14
ATOM     14  C   UNL     1      92.789 316.859 190.170  1.00  0.00     0.041 C 
ATOM     15  O   UNL     1      93.766 316.104 190.414  1.00  0.00    -0.550 OA
ATOM     16  O   UNL     1      91.688 316.363 189.482  1.00  0.00    -0.550 OA
ENDBRANCH  13  14
ENDBRANCH  12  13
ENDBRANCH  11  12
ENDBRANCH  10  11
ENDBRANCH   9  10
ENDBRANCH   8   9
ENDBRANCH   7   8
ENDBRANCH   6   7
ENDBRANCH   5   6
ENDBRANCH   4   5
ENDBRANCH   3   4
ENDBRANCH   2   3
ENDBRANCH   1   2
BRANCH   1  17
ATOM     17  C   UNL     1      86.118 314.536 200.327  1.00  0.00     0.000 C 
BRANCH  17  18
ATOM     18  C   UNL     1      85.730 315.302 201.604  1.00  0.00     0.000 C 
BRANCH  18  19
ATOM     19  C   UNL     1      84.379 316.040 201.502  1.00  0.00     0.000 C 
BRANCH  19  20
ATOM     20  C   UNL     1      84.376 317.354 202.301  1.00  0.00     0.000 C 
BRANCH  20  21
ATOM     21  C   UNL     1      85.701 317.606 203.035  1.00  0.00     0.000 C 
BRANCH  21  22
ATOM     22  C   UNL     1      85.496 318.187 204.447  1.00  0.00    -0.000 C 
BRANCH  22  23
ATOM     23  C   UNL     1      84.859 317.166 205.413  1.00  0.00    -0.000 C 
BRANCH  23  24
ATOM     24  C   UNL     1      85.525 315.776 205.371  1.00  0.00    -0.000 C 
BRANCH  24  25
ATOM     25  C   UNL     1      86.649 315.562 206.399  1.00  0.00    -0.000 C 
BRANCH  25  26
ATOM     26  C   UNL     1      88.051 315.755 205.797  1.00  0.00    -0.000 C 
BRANCH  26  27
ATOM     27  C   UNL     1      88.181 315.145 204.391  1.00  0.00    -0.000 C 
BRANCH  27  28
ATOM     28  C   UNL     1      88.881 316.075 203.375  1.00  0.00    -0.000 C 
BRANCH  28  29
ATOM     29  C   UNL     1      90.325 315.646 203.058  1.00  0.00    -0.003 C 
ATOM     30  C   UNL     1      91.034 316.635 202.133  1.00  0.00     0.004 C 
ENDBRANCH  28  29
ENDBRANCH  27  28
ENDBRANCH  26  27
ENDBRANCH  25  26
ENDBRANCH  24  25
ENDBRANCH  23  24
ENDBRANCH  22  23
ENDBRANCH  21  22
ENDBRANCH  20  21
ENDBRANCH  19  20
ENDBRANCH  18  19
ENDBRANCH  17  18
ENDBRANCH   1  17
TORSDOF 26
ENDMDL
MODEL 4
REMARK VINA RESULT:    -4.310     12.253     17.073
REMARK INTER + INTRA:         -15.176
REMARK INTER:                 -10.859
REMARK INTRA:                  -4.317
REMARK UNBOUND:                -4.314
REMARK SMILES CCCCCCCCCCCCCCCCCCCCCCCCCCCC(=O)[O-]
REMARK SMILES IDX 15 1 16 2 17 3 18 4 19 5 20 6 21 7 22 8 23 9 24 10 25 11
REMARK SMILES IDX 26 12 27 13 28 14 29 15 30 16 14 17 13 18 12 19 11 20 10 21
REMARK SMILES IDX 9 22 8 23 7 24 6 25 5 26 4 27 3 28 2 29 1 30
REMARK H PARENT
REMARK Flexibility Score: inf
ROOT
ATOM      1  C   UNL     1     100.134 315.134 188.401  1.00  0.00     0.000 C 
ENDROOT
BRANCH   1   2
ATOM      2  C   UNL     1     101.182 314.057 188.049  1.00  0.00     0.000 C 
BRANCH   2   3
ATOM      3  C   UNL     1     102.503 314.622 187.493  1.00  0.00     0.000 C 
BRANCH   3   4
ATOM      4  C   UNL     1     103.776 314.159 188.227  1.00  0.00     0.000 C 
BRANCH   4   5
ATOM      5  C   UNL     1     103.719 312.727 188.790  1.00  0.00     0.000 C 
BRANCH   5   6
ATOM      6  C   UNL     1     103.851 312.681 190.323  1.00  0.00     0.000 C 
BRANCH   6   7
ATOM      7  C   UNL     1     103.395 313.984 190.996  1.00  0.00     0.000 C 
BRANCH   7   8
ATOM      8  C   UNL     1     102.038 313.843 191.711  1.00  0.00     0.000 C 
BRANCH   8   9
ATOM      9  C   UNL     1     101.440 312.433 191.576  1.00  0.00     0.000 C 
BRANCH   9  10
ATOM     10  C   UNL     1      99.997 312.347 192.102  1.00  0.00     0.000 C 
BRANCH  10  11
ATOM     11  C   UNL     1      99.002 313.107 191.199  1.00  0.00     0.000 C 
BRANCH  11  12
ATOM     12  C   UNL     1      97.984 312.193 190.495  1.00  0.00     0.006 C 
BRANCH  12  13
ATOM     13  C   UNL     1      98.388 311.846 189.057  1.00  0.00     0.053 C 
BRANCH  13  14
ATOM     14  C   UNL     1      97.481 310.800 188.491  1.00  0.00     0.041 C 
ATOM     15  O   UNL     1      96.577 310.293 189.205  1.00  0.00    -0.550 OA
ATOM     16  O   UNL     1      97.610 310.412 187.163  1.00  0.00    -0.550 OA
ENDBRANCH  13  14
ENDBRANCH  12  13
ENDBRANCH  11  12
ENDBRANCH  10  11
ENDBRANCH   9  10
ENDBRANCH   8   9
ENDBRANCH   7   8
ENDBRANCH   6   7
ENDBRANCH   5   6
ENDBRANCH   4   5
ENDBRANCH   3   4
ENDBRANCH   2   3
ENDBRANCH   1   2
BRANCH   1  17
ATOM     17  C   UNL     1     100.736 316.336 189.151  1.00  0.00     0.000 C 
BRANCH  17  18
ATOM     18  C   UNL     1     100.406 317.683 188.484  1.00  0.00     0.000 C 
BRANCH  18  19
ATOM     19  C   UNL     1      98.990 318.206 188.801  1.00  0.00     0.000 C 
BRANCH  19  20
ATOM     20  C   UNL     1      97.998 317.914 187.663  1.00  0.00     0.000 C 
BRANCH  20  21
ATOM     21  C   UNL     1      96.804 317.064 188.119  1.00  0.00     0.000 C 
BRANCH  21  22
ATOM     22  C   UNL     1      96.454 317.279 189.604  1.00  0.00    -0.000 C 
BRANCH  22  23
ATOM     23  C   UNL     1      96.691 316.011 190.450  1.00  0.00    -0.000 C 
BRANCH  23  24
ATOM     24  C   UNL     1      95.409 315.454 191.104  1.00  0.00    -0.000 C 
BRANCH  24  25
ATOM     25  C   UNL     1      95.366 315.552 192.638  1.00  0.00    -0.000 C 
BRANCH  25  26
ATOM     26  C   UNL     1      96.372 316.570 193.199  1.00  0.00    -0.000 C 
BRANCH  26  27
ATOM     27  C   UNL     1      95.729 317.935 193.499  1.00  0.00    -0.000 C 
BRANCH  27  28
ATOM     28  C   UNL     1      94.185 317.904 193.503  1.00  0.00    -0.000 C 
BRANCH  28  29
ATOM     29  C   UNL     1      93.554 319.050 192.691  1.00  0.00    -0.003 C 
ATOM     30  C   UNL     1      93.245 318.640 191.251  1.00  0.00     0.004 C 
ENDBRANCH  28  29
ENDBRANCH  27  28
ENDBRANCH  26  27
ENDBRANCH  25  26
ENDBRANCH  24  25
ENDBRANCH  23  24
ENDBRANCH  22  23
ENDBRANCH  21  22
ENDBRANCH  20  21
ENDBRANCH  19  20
ENDBRANCH  18  19
ENDBRANCH  17  18
ENDBRANCH   1  17
TORSDOF 26
ENDMDL
MODEL 5
REMARK VINA RESULT:    -4.299     10.570     14.966
REMARK INTER + INTRA:         -15.148
REMARK INTER:                 -10.672
REMARK INTRA:                  -4.477
REMARK UNBOUND:                -4.314
REMARK SMILES CCCCCCCCCCCCCCCCCCCCCCCCCCCC(=O)[O-]
REMARK SMILES IDX 15 1 16 2 17 3 18 4 19 5 20 6 21 7 22 8 23 9 24 10 25 11
REMARK SMILES IDX 26 12 27 13 28 14 29 15 30 16 14 17 13 18 12 19 11 20 10 21
REMARK SMILES IDX 9 22 8 23 7 24 6 25 5 26 4 27 3 28 2 29 1 30
REMARK H PARENT
REMARK Flexibility Score: inf
ROOT
ATOM      1  C   UNL     1      87.953 307.667 189.977  1.00  0.00     0.000 C 
ENDROOT
BRANCH   1   2
ATOM      2  C   UNL     1      87.111 308.716 189.222  1.00  0.00     0.000 C 
BRANCH   2   3
ATOM      3  C   UNL     1      87.929 309.896 188.663  1.00  0.00     0.000 C 
BRANCH   3   4
ATOM      4  C   UNL     1      87.229 310.719 187.565  1.00  0.00     0.000 C 
BRANCH   4   5
ATOM      5  C   UNL     1      86.346 311.870 188.078  1.00  0.00     0.000 C 
BRANCH   5   6
ATOM      6  C   UNL     1      84.883 311.757 187.611  1.00  0.00     0.000 C 
BRANCH   6   7
ATOM      7  C   UNL     1      83.879 312.019 188.743  1.00  0.00     0.000 C 
BRANCH   7   8
ATOM      8  C   UNL     1      84.560 312.443 190.058  1.00  0.00     0.000 C 
BRANCH   8   9
ATOM      9  C   UNL     1      84.038 311.662 191.275  1.00  0.00     0.000 C 
BRANCH   9  10
ATOM     10  C   UNL     1      85.094 311.517 192.386  1.00  0.00     0.000 C 
BRANCH  10  11
ATOM     11  C   UNL     1      86.489 311.174 191.822  1.00  0.00     0.000 C 
BRANCH  11  12
ATOM     12  C   UNL     1      87.271 310.164 192.678  1.00  0.00     0.006 C 
BRANCH  12  13
ATOM     13  C   UNL     1      87.516 310.657 194.109  1.00  0.00     0.053 C 
BRANCH  13  14
ATOM     14  C   UNL     1      88.479 311.801 194.116  1.00  0.00     0.041 C 
ATOM     15  O   UNL     1      89.714 311.588 194.227  1.00  0.00    -0.550 OA
ATOM     16  O   UNL     1      88.014 313.102 193.961  1.00  0.00    -0.550 OA
ENDBRANCH  13  14
ENDBRANCH  12  13
ENDBRANCH  11  12
ENDBRANCH  10  11
ENDBRANCH   9  10
ENDBRANCH   8   9
ENDBRANCH   7   8
ENDBRANCH   6   7
ENDBRANCH   5   6
ENDBRANCH   4   5
ENDBRANCH   3   4
ENDBRANCH   2   3
ENDBRANCH   1   2
BRANCH   1  17
ATOM     17  C   UNL     1      89.233 307.267 189.223  1.00  0.00     0.000 C 
BRANCH  17  18
ATOM     18  C   UNL     1      90.517 307.724 189.939  1.00  0.00     0.000 C 
BRANCH  18  19
ATOM     19  C   UNL     1      90.293 308.161 191.402  1.00  0.00     0.000 C 
BRANCH  19  20
ATOM     20  C   UNL     1      91.060 309.450 191.743  1.00  0.00     0.000 C 
BRANCH  20  21
ATOM     21  C   UNL     1      91.749 310.073 190.521  1.00  0.00     0.000 C 
BRANCH  21  22
ATOM     22  C   UNL     1      92.988 310.906 190.899  1.00  0.00    -0.000 C 
BRANCH  22  23
ATOM     23  C   UNL     1      94.286 310.071 190.864  1.00  0.00    -0.000 C 
BRANCH  23  24
ATOM     24  C   UNL     1      94.313 309.017 189.738  1.00  0.00    -0.000 C 
BRANCH  24  25
ATOM     25  C   UNL     1      94.742 307.606 190.177  1.00  0.00    -0.000 C 
BRANCH  25  26
ATOM     26  C   UNL     1      93.868 307.044 191.310  1.00  0.00    -0.000 C 
BRANCH  26  27
ATOM     27  C   UNL     1      94.680 306.247 192.345  1.00  0.00    -0.000 C 
BRANCH  27  28
ATOM     28  C   UNL     1      94.383 306.649 193.807  1.00  0.00    -0.000 C 
BRANCH  28  29
ATOM     29  C   UNL     1      93.529 307.924 193.922  1.00  0.00    -0.003 C 
ATOM     30  C   UNL     1      94.344 309.128 194.394  1.00  0.00     0.004 C 
ENDBRANCH  28  29
ENDBRANCH  27  28
ENDBRANCH  26  27
ENDBRANCH  25  26
ENDBRANCH  24  25
ENDBRANCH  23  24
ENDBRANCH  22  23
ENDBRANCH  21  22
ENDBRANCH  20  21
ENDBRANCH  19  20
ENDBRANCH  18  19
ENDBRANCH  17  18
ENDBRANCH   1  17
TORSDOF 26
ENDMDL
MODEL 6
REMARK VINA RESULT:    -4.292      1.072      3.394
REMARK INTER + INTRA:         -15.131
REMARK INTER:                 -10.846
REMARK INTRA:                  -4.284
REMARK UNBOUND:                -4.314
REMARK SMILES CCCCCCCCCCCCCCCCCCCCCCCCCCCC(=O)[O-]
REMARK SMILES IDX 15 1 16 2 17 3 18 4 19 5 20 6 21 7 22 8 23 9 24 10 25 11
REMARK SMILES IDX 26 12 27 13 28 14 29 15 30 16 14 17 13 18 12 19 11 20 10 21
REMARK SMILES IDX 9 22 8 23 7 24 6 25 5 26 4 27 3 28 2 29 1 30
REMARK H PARENT
REMARK Flexibility Score: inf
ROOT
ATOM      1  C   UNL     1      86.701 314.676 200.574  1.00  0.00     0.000 C 
ENDROOT
BRANCH   1   2
ATOM      2  C   UNL     1      88.162 314.390 200.977  1.00  0.00     0.000 C 
BRANCH   2   3
ATOM      3  C   UNL     1      89.075 313.998 199.799  1.00  0.00     0.000 C 
BRANCH   3   4
ATOM      4  C   UNL     1      88.572 314.425 198.407  1.00  0.00     0.000 C 
BRANCH   4   5
ATOM      5  C   UNL     1      89.648 314.455 197.307  1.00  0.00     0.000 C 
BRANCH   5   6
ATOM      6  C   UNL     1      90.986 315.039 197.793  1.00  0.00     0.000 C 
BRANCH   6   7
ATOM      7  C   UNL     1      90.973 316.574 197.859  1.00  0.00     0.000 C 
BRANCH   7   8
ATOM      8  C   UNL     1      91.002 317.108 199.304  1.00  0.00     0.000 C 
BRANCH   8   9
ATOM      9  C   UNL     1      92.129 316.487 200.144  1.00  0.00     0.000 C 
BRANCH   9  10
ATOM     10  C   UNL     1      91.647 316.008 201.524  1.00  0.00     0.000 C 
BRANCH  10  11
ATOM     11  C   UNL     1      91.268 317.184 202.449  1.00  0.00     0.000 C 
BRANCH  11  12
ATOM     12  C   UNL     1      92.479 317.982 202.962  1.00  0.00     0.006 C 
BRANCH  12  13
ATOM     13  C   UNL     1      92.697 319.293 202.198  1.00  0.00     0.053 C 
BRANCH  13  14
ATOM     14  C   UNL     1      93.144 320.378 203.125  1.00  0.00     0.041 C 
ATOM     15  O   UNL     1      93.062 320.219 204.371  1.00  0.00    -0.550 OA
ATOM     16  O   UNL     1      93.688 321.550 202.614  1.00  0.00    -0.550 OA
ENDBRANCH  13  14
ENDBRANCH  12  13
ENDBRANCH  11  12
ENDBRANCH  10  11
ENDBRANCH   9  10
ENDBRANCH   8   9
ENDBRANCH   7   8
ENDBRANCH   6   7
ENDBRANCH   5   6
ENDBRANCH   4   5
ENDBRANCH   3   4
ENDBRANCH   2   3
ENDBRANCH   1   2
BRANCH   1  17
ATOM     17  C   UNL     1      85.777 314.905 201.784  1.00  0.00     0.000 C 
BRANCH  17  18
ATOM     18  C   UNL     1      84.599 315.844 201.468  1.00  0.00     0.000 C 
BRANCH  18  19
ATOM     19  C   UNL     1      84.561 317.114 202.343  1.00  0.00     0.000 C 
BRANCH  19  20
ATOM     20  C   UNL     1      85.898 317.360 203.063  1.00  0.00     0.000 C 
BRANCH  20  21
ATOM     21  C   UNL     1      85.747 318.238 204.313  1.00  0.00     0.000 C 
BRANCH  21  22
ATOM     22  C   UNL     1      84.719 317.676 205.313  1.00  0.00    -0.000 C 
BRANCH  22  23
ATOM     23  C   UNL     1      85.370 316.741 206.356  1.00  0.00    -0.000 C 
BRANCH  23  24
ATOM     24  C   UNL     1      85.257 315.244 206.000  1.00  0.00    -0.000 C 
BRANCH  24  25
ATOM     25  C   UNL     1      86.553 314.435 206.176  1.00  0.00    -0.000 C 
BRANCH  25  26
ATOM     26  C   UNL     1      87.162 313.987 204.837  1.00  0.00    -0.000 C 
BRANCH  26  27
ATOM     27  C   UNL     1      88.586 314.527 204.623  1.00  0.00    -0.000 C 
BRANCH  27  28
ATOM     28  C   UNL     1      88.726 316.037 204.916  1.00  0.00    -0.000 C 
BRANCH  28  29
ATOM     29  C   UNL     1      89.890 316.363 205.870  1.00  0.00    -0.003 C 
ATOM     30  C   UNL     1      91.007 315.322 205.800  1.00  0.00     0.004 C 
ENDBRANCH  28  29
ENDBRANCH  27  28
ENDBRANCH  26  27
ENDBRANCH  25  26
ENDBRANCH  24  25
ENDBRANCH  23  24
ENDBRANCH  22  23
ENDBRANCH  21  22
ENDBRANCH  20  21
ENDBRANCH  19  20
ENDBRANCH  18  19
ENDBRANCH  17  18
ENDBRANCH   1  17
TORSDOF 26
ENDMDL
MODEL 7
REMARK VINA RESULT:    -4.291      2.872      8.795
REMARK INTER + INTRA:         -15.127
REMARK INTER:                 -12.160
REMARK INTRA:                  -2.966
REMARK UNBOUND:                -4.314
REMARK SMILES CCCCCCCCCCCCCCCCCCCCCCCCCCCC(=O)[O-]
REMARK SMILES IDX 15 1 16 2 17 3 18 4 19 5 20 6 21 7 22 8 23 9 24 10 25 11
REMARK SMILES IDX 26 12 27 13 28 14 29 15 30 16 14 17 13 18 12 19 11 20 10 21
REMARK SMILES IDX 9 22 8 23 7 24 6 25 5 26 4 27 3 28 2 29 1 30
REMARK H PARENT
REMARK Flexibility Score: inf
ROOT
ATOM      1  C   UNL     1      85.918 314.113 201.984  1.00  0.00     0.000 C 
ENDROOT
BRANCH   1   2
ATOM      2  C   UNL     1      84.653 314.918 202.350  1.00  0.00     0.000 C 
BRANCH   2   3
ATOM      3  C   UNL     1      84.468 316.208 201.529  1.00  0.00     0.000 C 
BRANCH   3   4
ATOM      4  C   UNL     1      84.585 317.519 202.329  1.00  0.00     0.000 C 
BRANCH   4   5
ATOM      5  C   UNL     1      85.574 317.477 203.508  1.00  0.00     0.000 C 
BRANCH   5   6
ATOM      6  C   UNL     1      85.072 318.253 204.739  1.00  0.00     0.000 C 
BRANCH   6   7
ATOM      7  C   UNL     1      85.022 317.385 206.005  1.00  0.00     0.000 C 
BRANCH   7   8
ATOM      8  C   UNL     1      85.473 315.934 205.751  1.00  0.00     0.000 C 
BRANCH   8   9
ATOM      9  C   UNL     1      86.359 315.381 206.877  1.00  0.00     0.000 C 
BRANCH   9  10
ATOM     10  C   UNL     1      87.752 314.951 206.382  1.00  0.00     0.000 C 
BRANCH  10  11
ATOM     11  C   UNL     1      88.287 315.880 205.272  1.00  0.00     0.000 C 
BRANCH  11  12
ATOM     12  C   UNL     1      88.703 315.136 203.991  1.00  0.00     0.006 C 
BRANCH  12  13
ATOM     13  C   UNL     1      89.206 316.077 202.891  1.00  0.00     0.053 C 
BRANCH  13  14
ATOM     14  C   UNL     1      90.694 315.992 202.763  1.00  0.00     0.041 C 
ATOM     15  O   UNL     1      91.238 314.916 202.399  1.00  0.00    -0.550 OA
ATOM     16  O   UNL     1      91.478 317.113 203.008  1.00  0.00    -0.550 OA
ENDBRANCH  13  14
ENDBRANCH  12  13
ENDBRANCH  11  12
ENDBRANCH  10  11
ENDBRANCH   9  10
ENDBRANCH   8   9
ENDBRANCH   7   8
ENDBRANCH   6   7
ENDBRANCH   5   6
ENDBRANCH   4   5
ENDBRANCH   3   4
ENDBRANCH   2   3
ENDBRANCH   1   2
BRANCH   1  17
ATOM     17  C   UNL     1      86.490 314.487 200.605  1.00  0.00     0.000 C 
BRANCH  17  18
ATOM     18  C   UNL     1      87.802 313.749 200.283  1.00  0.00     0.000 C 
BRANCH  18  19
ATOM     19  C   UNL     1      88.410 314.126 198.916  1.00  0.00     0.000 C 
BRANCH  19  20
ATOM     20  C   UNL     1      89.708 314.937 199.064  1.00  0.00     0.000 C 
BRANCH  20  21
ATOM     21  C   UNL     1      90.190 315.535 197.735  1.00  0.00     0.000 C 
BRANCH  21  22
ATOM     22  C   UNL     1      90.904 316.888 197.917  1.00  0.00    -0.000 C 
BRANCH  22  23
ATOM     23  C   UNL     1      92.351 316.862 197.381  1.00  0.00    -0.000 C 
BRANCH  23  24
ATOM     24  C   UNL     1      93.274 317.906 198.043  1.00  0.00    -0.000 C 
BRANCH  24  25
ATOM     25  C   UNL     1      94.013 318.834 197.064  1.00  0.00    -0.000 C 
BRANCH  25  26
ATOM     26  C   UNL     1      95.288 318.197 196.488  1.00  0.00    -0.000 C 
BRANCH  26  27
ATOM     27  C   UNL     1      95.393 318.359 194.961  1.00  0.00    -0.000 C 
BRANCH  27  28
ATOM     28  C   UNL     1      94.076 318.055 194.215  1.00  0.00    -0.000 C 
BRANCH  28  29
ATOM     29  C   UNL     1      94.242 318.019 192.684  1.00  0.00    -0.003 C 
ATOM     30  C   UNL     1      93.312 319.003 191.976  1.00  0.00     0.004 C 
ENDBRANCH  28  29
ENDBRANCH  27  28
ENDBRANCH  26  27
ENDBRANCH  25  26
ENDBRANCH  24  25
ENDBRANCH  23  24
ENDBRANCH  22  23
ENDBRANCH  21  22
ENDBRANCH  20  21
ENDBRANCH  19  20
ENDBRANCH  18  19
ENDBRANCH  17  18
ENDBRANCH   1  17
TORSDOF 26
ENDMDL
MODEL 8
REMARK VINA RESULT:    -4.260      9.508     14.800
REMARK INTER + INTRA:         -15.051
REMARK INTER:                 -11.513
REMARK INTRA:                  -3.538
REMARK UNBOUND:                -4.314
REMARK SMILES CCCCCCCCCCCCCCCCCCCCCCCCCCCC(=O)[O-]
REMARK SMILES IDX 15 1 16 2 17 3 18 4 19 5 20 6 21 7 22 8 23 9 24 10 25 11
REMARK SMILES IDX 26 12 27 13 28 14 29 15 30 16 14 17 13 18 12 19 11 20 10 21
REMARK SMILES IDX 9 22 8 23 7 24 6 25 5 26 4 27 3 28 2 29 1 30
REMARK H PARENT
REMARK Flexibility Score: inf
ROOT
ATOM      1  C   UNL     1     100.729 316.380 189.061  1.00  0.00     0.000 C 
ENDROOT
BRANCH   1   2
ATOM      2  C   UNL     1     100.129 317.587 188.309  1.00  0.00     0.000 C 
BRANCH   2   3
ATOM      3  C   UNL     1      98.961 317.227 187.372  1.00  0.00     0.000 C 
BRANCH   3   4
ATOM      4  C   UNL     1      97.579 317.739 187.817  1.00  0.00     0.000 C 
BRANCH   4   5
ATOM      5  C   UNL     1      97.552 318.428 189.193  1.00  0.00     0.000 C 
BRANCH   5   6
ATOM      6  C   UNL     1      96.465 317.863 190.126  1.00  0.00     0.000 C 
BRANCH   6   7
ATOM      7  C   UNL     1      95.734 316.656 189.520  1.00  0.00     0.000 C 
BRANCH   7   8
ATOM      8  C   UNL     1      94.246 316.601 189.914  1.00  0.00     0.000 C 
BRANCH   8   9
ATOM      9  C   UNL     1      93.777 317.872 190.640  1.00  0.00     0.000 C 
BRANCH   9  10
ATOM     10  C   UNL     1      93.587 317.657 192.152  1.00  0.00     0.000 C 
BRANCH  10  11
ATOM     11  C   UNL     1      93.617 318.986 192.937  1.00  0.00     0.000 C 
BRANCH  11  12
ATOM     12  C   UNL     1      94.487 318.936 194.204  1.00  0.00     0.006 C 
BRANCH  12  13
ATOM     13  C   UNL     1      93.708 319.288 195.477  1.00  0.00     0.053 C 
BRANCH  13  14
ATOM     14  C   UNL     1      94.300 318.599 196.666  1.00  0.00     0.041 C 
ATOM     15  O   UNL     1      95.161 317.695 196.509  1.00  0.00    -0.550 OA
ATOM     16  O   UNL     1      93.927 318.982 197.948  1.00  0.00    -0.550 OA
ENDBRANCH  13  14
ENDBRANCH  12  13
ENDBRANCH  11  12
ENDBRANCH  10  11
ENDBRANCH   9  10
ENDBRANCH   8   9
ENDBRANCH   7   8
ENDBRANCH   6   7
ENDBRANCH   5   6
ENDBRANCH   4   5
ENDBRANCH   3   4
ENDBRANCH   2   3
ENDBRANCH   1   2
BRANCH   1  17
ATOM     17  C   UNL     1      99.660 315.405 189.585  1.00  0.00     0.000 C 
BRANCH  17  18
ATOM     18  C   UNL     1      99.320 315.632 191.069  1.00  0.00     0.000 C 
BRANCH  18  19
ATOM     19  C   UNL     1     100.555 315.870 191.962  1.00  0.00     0.000 C 
BRANCH  19  20
ATOM     20  C   UNL     1     100.321 316.993 192.986  1.00  0.00     0.000 C 
BRANCH  20  21
ATOM     21  C   UNL     1      99.249 317.995 192.534  1.00  0.00     0.000 C 
BRANCH  21  22
ATOM     22  C   UNL     1      97.949 317.883 193.353  1.00  0.00    -0.000 C 
BRANCH  22  23
ATOM     23  C   UNL     1      98.179 318.155 194.854  1.00  0.00    -0.000 C 
BRANCH  23  24
ATOM     24  C   UNL     1      97.980 319.632 195.253  1.00  0.00    -0.000 C 
BRANCH  24  25
ATOM     25  C   UNL     1      98.707 320.063 196.538  1.00  0.00    -0.000 C 
BRANCH  25  26
ATOM     26  C   UNL     1      99.660 321.248 196.314  1.00  0.00    -0.000 C 
BRANCH  26  27
ATOM     27  C   UNL     1      99.186 322.186 195.191  1.00  0.00    -0.000 C 
BRANCH  27  28
ATOM     28  C   UNL     1     100.339 322.781 194.353  1.00  0.00    -0.000 C 
BRANCH  28  29
ATOM     29  C   UNL     1     101.701 322.717 195.067  1.00  0.00    -0.003 C 
ATOM     30  C   UNL     1     102.696 321.813 194.339  1.00  0.00     0.004 C 
ENDBRANCH  28  29
ENDBRANCH  27  28
ENDBRANCH  26  27
ENDBRANCH  25  26
ENDBRANCH  24  25
ENDBRANCH  23  24
ENDBRANCH  22  23
ENDBRANCH  21  22
ENDBRANCH  20  21
ENDBRANCH  19  20
ENDBRANCH  18  19
ENDBRANCH  17  18
ENDBRANCH   1  17
TORSDOF 26
ENDMDL
MODEL 9
REMARK VINA RESULT:    -4.255      8.761     13.062
REMARK INTER + INTRA:         -15.037
REMARK INTER:                 -11.569
REMARK INTRA:                  -3.468
REMARK UNBOUND:                -4.314
REMARK SMILES CCCCCCCCCCCCCCCCCCCCCCCCCCCC(=O)[O-]
REMARK SMILES IDX 15 1 16 2 17 3 18 4 19 5 20 6 21 7 22 8 23 9 24 10 25 11
REMARK SMILES IDX 26 12 27 13 28 14 29 15 30 16 14 17 13 18 12 19 11 20 10 21
REMARK SMILES IDX 9 22 8 23 7 24 6 25 5 26 4 27 3 28 2 29 1 30
REMARK H PARENT
REMARK Flexibility Score: inf
ROOT
ATOM      1  C   UNL     1      97.997 319.821 195.265  1.00  0.00     0.000 C 
ENDROOT
BRANCH   1   2
ATOM      2  C   UNL     1      99.204 320.713 195.623  1.00  0.00     0.000 C 
BRANCH   2   3
ATOM      3  C   UNL     1      99.059 322.179 195.174  1.00  0.00     0.000 C 
BRANCH   3   4
ATOM      4  C   UNL     1     100.246 322.740 194.369  1.00  0.00     0.000 C 
BRANCH   4   5
ATOM      5  C   UNL     1     101.112 321.683 193.662  1.00  0.00     0.000 C 
BRANCH   5   6
ATOM      6  C   UNL     1     102.592 321.744 194.078  1.00  0.00     0.000 C 
BRANCH   6   7
ATOM      7  C   UNL     1     102.853 321.080 195.439  1.00  0.00     0.000 C 
BRANCH   7   8
ATOM      8  C   UNL     1     103.140 322.103 196.555  1.00  0.00     0.000 C 
BRANCH   8   9
ATOM      9  C   UNL     1     102.487 321.721 197.892  1.00  0.00     0.000 C 
BRANCH   9  10
ATOM     10  C   UNL     1     101.144 322.435 198.124  1.00  0.00     0.000 C 
BRANCH  10  11
ATOM     11  C   UNL     1     100.266 321.702 199.161  1.00  0.00     0.000 C 
BRANCH  11  12
ATOM     12  C   UNL     1      98.763 321.997 199.016  1.00  0.00     0.006 C 
BRANCH  12  13
ATOM     13  C   UNL     1      97.908 321.265 200.057  1.00  0.00     0.053 C 
BRANCH  13  14
ATOM     14  C   UNL     1      97.987 321.952 201.383  1.00  0.00     0.041 C 
ATOM     15  O   UNL     1      97.541 323.121 201.518  1.00  0.00    -0.550 OA
ATOM     16  O   UNL     1      98.519 321.286 202.480  1.00  0.00    -0.550 OA
ENDBRANCH  13  14
ENDBRANCH  12  13
ENDBRANCH  11  12
ENDBRANCH  10  11
ENDBRANCH   9  10
ENDBRANCH   8   9
ENDBRANCH   7   8
ENDBRANCH   6   7
ENDBRANCH   5   6
ENDBRANCH   4   5
ENDBRANCH   3   4
ENDBRANCH   2   3
ENDBRANCH   1   2
BRANCH   1  17
ATOM     17  C   UNL     1      98.377 318.627 194.370  1.00  0.00     0.000 C 
BRANCH  17  18
ATOM     18  C   UNL     1      97.225 317.621 194.195  1.00  0.00     0.000 C 
BRANCH  18  19
ATOM     19  C   UNL     1      97.364 316.725 192.947  1.00  0.00     0.000 C 
BRANCH  19  20
ATOM     20  C   UNL     1      97.870 317.509 191.725  1.00  0.00     0.000 C 
BRANCH  20  21
ATOM     21  C   UNL     1      96.801 317.665 190.634  1.00  0.00     0.000 C 
BRANCH  21  22
ATOM     22  C   UNL     1      95.512 316.883 190.951  1.00  0.00    -0.000 C 
BRANCH  22  23
ATOM     23  C   UNL     1      94.259 317.551 190.344  1.00  0.00    -0.000 C 
BRANCH  23  24
ATOM     24  C   UNL     1      93.209 317.967 191.394  1.00  0.00    -0.000 C 
BRANCH  24  25
ATOM     25  C   UNL     1      93.702 318.981 192.441  1.00  0.00    -0.000 C 
BRANCH  25  26
ATOM     26  C   UNL     1      94.012 318.331 193.799  1.00  0.00    -0.000 C 
BRANCH  26  27
ATOM     27  C   UNL     1      93.800 319.294 194.979  1.00  0.00    -0.000 C 
BRANCH  27  28
ATOM     28  C   UNL     1      93.739 318.588 196.352  1.00  0.00    -0.000 C 
BRANCH  28  29
ATOM     29  C   UNL     1      95.044 318.720 197.158  1.00  0.00    -0.003 C 
ATOM     30  C   UNL     1      94.925 319.738 198.292  1.00  0.00     0.004 C 
ENDBRANCH  28  29
ENDBRANCH  27  28
ENDBRANCH  26  27
ENDBRANCH  25  26
ENDBRANCH  24  25
ENDBRANCH  23  24
ENDBRANCH  22  23
ENDBRANCH  21  22
ENDBRANCH  20  21
ENDBRANCH  19  20
ENDBRANCH  18  19
ENDBRANCH  17  18
ENDBRANCH   1  17
TORSDOF 26
ENDMDL
