MODEL 1
REMARK VINA RESULT:    15.958      0.000      0.000
REMARK INTER + INTRA:          29.991
REMARK INTER:                  30.885
REMARK INTRA:                  -0.894
REMARK UNBOUND:                -0.894
REMARK SMILES CCCCCCCCCCCCCCCCCC(=O)[O-]
REMARK SMILES IDX 10 1 11 2 12 3 13 4 14 5 15 6 16 7 17 8 18 9 19 10 20 11
REMARK SMILES IDX 9 12 8 13 7 14 6 15 5 16 4 17 3 18 2 19 1 20
REMARK H PARENT
REMARK Flexibility Score: inf
ROOT
ATOM      1  C   UNL     1      -5.784 -10.557  23.927  1.00  0.00     0.000 C 
ENDROOT
BRANCH   1   2
ATOM      2  C   UNL     1      -6.461 -11.936  23.853  1.00  0.00     0.000 C 
BRANCH   2   3
ATOM      3  C   UNL     1      -6.428 -12.689  25.194  1.00  0.00     0.000 C 
BRANCH   3   4
ATOM      4  C   UNL     1      -5.454 -13.877  25.184  1.00  0.00     0.000 C 
BRANCH   4   5
ATOM      5  C   UNL     1      -5.112 -14.372  26.600  1.00  0.00     0.000 C 
BRANCH   5   6
ATOM      6  C   UNL     1      -5.287 -15.892  26.753  1.00  0.00     0.000 C 
BRANCH   6   7
ATOM      7  C   UNL     1      -4.487 -16.687  25.705  1.00  0.00     0.006 C 
BRANCH   7   8
ATOM      8  C   UNL     1      -5.090 -18.074  25.449  1.00  0.00     0.053 C 
BRANCH   8   9
ATOM      9  C   UNL     1      -5.459 -18.265  24.010  1.00  0.00     0.041 C 
ATOM     10  O   UNL     1      -4.698 -17.846  23.099  1.00  0.00    -0.550 OA
ATOM     11  O   UNL     1      -6.660 -18.876  23.676  1.00  0.00    -0.550 OA
ENDBRANCH   8   9
ENDBRANCH   7   8
ENDBRANCH   6   7
ENDBRANCH   5   6
ENDBRANCH   4   5
ENDBRANCH   3   4
ENDBRANCH   2   3
ENDBRANCH   1   2
BRANCH   1  12
ATOM     12  C   UNL     1      -6.144  -9.760  25.200  1.00  0.00     0.000 C 
BRANCH  12  13
ATOM     13  C   UNL     1      -4.988  -8.864  25.671  1.00  0.00    -0.000 C 
BRANCH  13  14
ATOM     14  C   UNL     1      -4.077  -8.477  24.498  1.00  0.00    -0.000 C 
BRANCH  14  15
ATOM     15  C   UNL     1      -2.654  -9.046  24.631  1.00  0.00    -0.000 C 
BRANCH  15  16
ATOM     16  C   UNL     1      -1.600  -8.272  23.810  1.00  0.00    -0.000 C 
BRANCH  16  17
ATOM     17  C   UNL     1      -2.237  -7.173  22.940  1.00  0.00    -0.000 C 
BRANCH  17  18
ATOM     18  C   UNL     1      -2.254  -7.534  21.447  1.00  0.00    -0.000 C 
BRANCH  18  19
ATOM     19  C   UNL     1      -3.515  -7.030  20.730  1.00  0.00    -0.003 C 
ATOM     20  C   UNL     1      -3.397  -7.208  19.220  1.00  0.00     0.004 C 
ENDBRANCH  18  19
ENDBRANCH  17  18
ENDBRANCH  16  17
ENDBRANCH  15  16
ENDBRANCH  14  15
ENDBRANCH  13  14
ENDBRANCH  12  13
ENDBRANCH   1  12
TORSDOF 16
ENDMDL
MODEL 2
REMARK VINA RESULT:    15.976      4.116      8.793
REMARK INTER + INTRA:          30.025
REMARK INTER:                  30.145
REMARK INTRA:                  -0.120
REMARK UNBOUND:                -0.894
REMARK SMILES CCCCCCCCCCCCCCCCCC(=O)[O-]
REMARK SMILES IDX 10 1 11 2 12 3 13 4 14 5 15 6 16 7 17 8 18 9 19 10 20 11
REMARK SMILES IDX 9 12 8 13 7 14 6 15 5 16 4 17 3 18 2 19 1 20
REMARK H PARENT
REMARK Flexibility Score: inf
ROOT
ATOM      1  C   UNL     1      -6.644 -12.367  23.865  1.00  0.00     0.000 C 
ENDROOT
BRANCH   1   2
ATOM      2  C   UNL     1      -5.950 -11.022  23.588  1.00  0.00     0.000 C 
BRANCH   2   3
ATOM      3  C   UNL     1      -5.909 -10.106  24.822  1.00  0.00     0.000 C 
BRANCH   3   4
ATOM      4  C   UNL     1      -5.262  -8.743  24.529  1.00  0.00     0.000 C 
BRANCH   4   5
ATOM      5  C   UNL     1      -3.830  -8.639  25.080  1.00  0.00     0.000 C 
BRANCH   5   6
ATOM      6  C   UNL     1      -2.785  -8.427  23.972  1.00  0.00     0.000 C 
BRANCH   6   7
ATOM      7  C   UNL     1      -1.369  -8.847  24.406  1.00  0.00     0.006 C 
BRANCH   7   8
ATOM      8  C   UNL     1      -1.198  -8.812  25.930  1.00  0.00     0.053 C 
BRANCH   8   9
ATOM      9  C   UNL     1       0.169  -8.343  26.326  1.00  0.00     0.041 C 
ATOM     10  O   UNL     1       0.520  -7.154  26.107  1.00  0.00    -0.550 OA
ATOM     11  O   UNL     1       1.066  -9.229  26.908  1.00  0.00    -0.550 OA
ENDBRANCH   8   9
ENDBRANCH   7   8
ENDBRANCH   6   7
ENDBRANCH   5   6
ENDBRANCH   4   5
ENDBRANCH   3   4
ENDBRANCH   2   3
ENDBRANCH   1   2
BRANCH   1  12
ATOM     12  C   UNL     1      -6.317 -12.955  25.255  1.00  0.00     0.000 C 
BRANCH  12  13
ATOM     13  C   UNL     1      -5.320 -14.121  25.174  1.00  0.00    -0.000 C 
BRANCH  13  14
ATOM     14  C   UNL     1      -5.004 -14.674  26.570  1.00  0.00    -0.000 C 
BRANCH  14  15
ATOM     15  C   UNL     1      -5.375 -16.159  26.726  1.00  0.00    -0.000 C 
BRANCH  15  16
ATOM     16  C   UNL     1      -4.614 -17.090  25.758  1.00  0.00    -0.000 C 
BRANCH  16  17
ATOM     17  C   UNL     1      -5.251 -18.489  25.679  1.00  0.00    -0.000 C 
BRANCH  17  18
ATOM     18  C   UNL     1      -6.101 -18.683  24.415  1.00  0.00    -0.000 C 
BRANCH  18  19
ATOM     19  C   UNL     1      -5.726 -17.704  23.294  1.00  0.00    -0.003 C 
ATOM     20  C   UNL     1      -4.214 -17.638  23.105  1.00  0.00     0.004 C 
ENDBRANCH  18  19
ENDBRANCH  17  18
ENDBRANCH  16  17
ENDBRANCH  15  16
ENDBRANCH  14  15
ENDBRANCH  13  14
ENDBRANCH  12  13
ENDBRANCH   1  12
TORSDOF 16
ENDMDL
MODEL 3
REMARK VINA RESULT:    17.119      3.759      8.885
REMARK INTER + INTRA:          32.238
REMARK INTER:                  33.210
REMARK INTRA:                  -0.972
REMARK UNBOUND:                -0.894
REMARK SMILES CCCCCCCCCCCCCCCCCC(=O)[O-]
REMARK SMILES IDX 10 1 11 2 12 3 13 4 14 5 15 6 16 7 17 8 18 9 19 10 20 11
REMARK SMILES IDX 9 12 8 13 7 14 6 15 5 16 4 17 3 18 2 19 1 20
REMARK H PARENT
REMARK Flexibility Score: inf
ROOT
ATOM      1  C   UNL     1      -5.968 -10.922  23.758  1.00  0.00     0.000 C 
ENDROOT
BRANCH   1   2
ATOM      2  C   UNL     1      -6.269  -9.924  24.890  1.00  0.00     0.000 C 
BRANCH   2   3
ATOM      3  C   UNL     1      -4.997  -9.383  25.562  1.00  0.00     0.000 C 
BRANCH   3   4
ATOM      4  C   UNL     1      -4.144  -8.523  24.616  1.00  0.00     0.000 C 
BRANCH   4   5
ATOM      5  C   UNL     1      -2.662  -8.935  24.619  1.00  0.00     0.000 C 
BRANCH   5   6
ATOM      6  C   UNL     1      -1.805  -8.061  23.689  1.00  0.00     0.000 C 
BRANCH   6   7
ATOM      7  C   UNL     1      -2.648  -7.295  22.653  1.00  0.00     0.006 C 
BRANCH   7   8
ATOM      8  C   UNL     1      -2.041  -7.367  21.246  1.00  0.00     0.053 C 
BRANCH   8   9
ATOM      9  C   UNL     1      -3.093  -7.293  20.182  1.00  0.00     0.041 C 
ATOM     10  O   UNL     1      -4.293  -7.074  20.490  1.00  0.00    -0.550 OA
ATOM     11  O   UNL     1      -2.750  -7.497  18.851  1.00  0.00    -0.550 OA
ENDBRANCH   8   9
ENDBRANCH   7   8
ENDBRANCH   6   7
ENDBRANCH   5   6
ENDBRANCH   4   5
ENDBRANCH   3   4
ENDBRANCH   2   3
ENDBRANCH   1   2
BRANCH   1  12
ATOM     12  C   UNL     1      -6.598 -12.314  23.979  1.00  0.00     0.000 C 
BRANCH  12  13
ATOM     13  C   UNL     1      -6.251 -12.899  25.356  1.00  0.00    -0.000 C 
BRANCH  13  14
ATOM     14  C   UNL     1      -5.258 -14.061  25.227  1.00  0.00    -0.000 C 
BRANCH  14  15
ATOM     15  C   UNL     1      -4.991 -14.774  26.564  1.00  0.00    -0.000 C 
BRANCH  15  16
ATOM     16  C   UNL     1      -5.607 -16.187  26.644  1.00  0.00    -0.000 C 
BRANCH  16  17
ATOM     17  C   UNL     1      -4.717 -17.246  25.969  1.00  0.00    -0.000 C 
BRANCH  17  18
ATOM     18  C   UNL     1      -5.482 -18.533  25.625  1.00  0.00    -0.000 C 
BRANCH  18  19
ATOM     19  C   UNL     1      -5.775 -18.663  24.124  1.00  0.00    -0.003 C 
ATOM     20  C   UNL     1      -5.036 -17.595  23.324  1.00  0.00     0.004 C 
ENDBRANCH  18  19
ENDBRANCH  17  18
ENDBRANCH  16  17
ENDBRANCH  15  16
ENDBRANCH  14  15
ENDBRANCH  13  14
ENDBRANCH  12  13
ENDBRANCH   1  12
TORSDOF 16
ENDMDL
MODEL 4
REMARK VINA RESULT:    17.248      5.550      9.261
REMARK INTER + INTRA:          32.487
REMARK INTER:                  33.249
REMARK INTRA:                  -0.762
REMARK UNBOUND:                -0.894
REMARK SMILES CCCCCCCCCCCCCCCCCC(=O)[O-]
REMARK SMILES IDX 10 1 11 2 12 3 13 4 14 5 15 6 16 7 17 8 18 9 19 10 20 11
REMARK SMILES IDX 9 12 8 13 7 14 6 15 5 16 4 17 3 18 2 19 1 20
REMARK H PARENT
REMARK Flexibility Score: inf
ROOT
ATOM      1  C   UNL     1      -6.585 -12.341  23.452  1.00  0.00     0.000 C 
ENDROOT
BRANCH   1   2
ATOM      2  C   UNL     1      -5.597 -11.181  23.666  1.00  0.00     0.000 C 
BRANCH   2   3
ATOM      3  C   UNL     1      -6.016 -10.244  24.812  1.00  0.00     0.000 C 
BRANCH   3   4
ATOM      4  C   UNL     1      -5.380  -8.850  24.702  1.00  0.00     0.000 C 
BRANCH   4   5
ATOM      5  C   UNL     1      -3.866  -8.869  24.977  1.00  0.00     0.000 C 
BRANCH   5   6
ATOM      6  C   UNL     1      -3.066  -8.085  23.924  1.00  0.00     0.000 C 
BRANCH   6   7
ATOM      7  C   UNL     1      -1.562  -8.411  23.961  1.00  0.00     0.006 C 
BRANCH   7   8
ATOM      8  C   UNL     1      -1.169  -9.182  25.228  1.00  0.00     0.053 C 
BRANCH   8   9
ATOM      9  C   UNL     1      -0.123  -8.457  26.019  1.00  0.00     0.041 C 
ATOM     10  O   UNL     1       0.253  -7.308  25.670  1.00  0.00    -0.550 OA
ATOM     11  O   UNL     1       0.459  -9.066  27.123  1.00  0.00    -0.550 OA
ENDBRANCH   8   9
ENDBRANCH   7   8
ENDBRANCH   6   7
ENDBRANCH   5   6
ENDBRANCH   4   5
ENDBRANCH   3   4
ENDBRANCH   2   3
ENDBRANCH   1   2
BRANCH   1  12
ATOM     12  C   UNL     1      -7.583 -12.097  22.299  1.00  0.00     0.000 C 
BRANCH  12  13
ATOM     13  C   UNL     1      -8.298 -13.386  21.867  1.00  0.00    -0.000 C 
BRANCH  13  14
ATOM     14  C   UNL     1      -8.826 -13.268  20.431  1.00  0.00    -0.000 C 
BRANCH  14  15
ATOM     15  C   UNL     1      -8.522 -14.511  19.576  1.00  0.00    -0.000 C 
BRANCH  15  16
ATOM     16  C   UNL     1      -8.812 -14.312  18.073  1.00  0.00    -0.000 C 
BRANCH  16  17
ATOM     17  C   UNL     1      -9.433 -15.566  17.432  1.00  0.00    -0.000 C 
BRANCH  17  18
ATOM     18  C   UNL     1      -9.951 -16.570  18.474  1.00  0.00    -0.000 C 
BRANCH  18  19
ATOM     19  C   UNL     1     -10.021 -18.004  17.930  1.00  0.00    -0.003 C 
ATOM     20  C   UNL     1      -8.797 -18.329  17.080  1.00  0.00     0.004 C 
ENDBRANCH  18  19
ENDBRANCH  17  18
ENDBRANCH  16  17
ENDBRANCH  15  16
ENDBRANCH  14  15
ENDBRANCH  13  14
ENDBRANCH  12  13
ENDBRANCH   1  12
TORSDOF 16
ENDMDL
MODEL 5
REMARK VINA RESULT:    17.305      4.333      7.231
REMARK INTER + INTRA:          32.598
REMARK INTER:                  33.406
REMARK INTRA:                  -0.808
REMARK UNBOUND:                -0.894
REMARK SMILES CCCCCCCCCCCCCCCCCC(=O)[O-]
REMARK SMILES IDX 10 1 11 2 12 3 13 4 14 5 15 6 16 7 17 8 18 9 19 10 20 11
REMARK SMILES IDX 9 12 8 13 7 14 6 15 5 16 4 17 3 18 2 19 1 20
REMARK H PARENT
REMARK Flexibility Score: inf
ROOT
ATOM      1  C   UNL     1      -6.745 -12.591  22.959  1.00  0.00     0.000 C 
ENDROOT
BRANCH   1   2
ATOM      2  C   UNL     1      -6.870 -11.777  24.258  1.00  0.00     0.000 C 
BRANCH   2   3
ATOM      3  C   UNL     1      -6.463 -12.579  25.506  1.00  0.00     0.000 C 
BRANCH   3   4
ATOM      4  C   UNL     1      -5.596 -13.802  25.169  1.00  0.00     0.000 C 
BRANCH   4   5
ATOM      5  C   UNL     1      -4.919 -14.406  26.412  1.00  0.00     0.000 C 
BRANCH   5   6
ATOM      6  C   UNL     1      -5.370 -15.850  26.686  1.00  0.00     0.000 C 
BRANCH   6   7
ATOM      7  C   UNL     1      -4.523 -16.888  25.927  1.00  0.00     0.006 C 
BRANCH   7   8
ATOM      8  C   UNL     1      -5.325 -18.150  25.587  1.00  0.00     0.053 C 
BRANCH   8   9
ATOM      9  C   UNL     1      -5.492 -18.322  24.108  1.00  0.00     0.041 C 
ATOM     10  O   UNL     1      -6.420 -19.041  23.653  1.00  0.00    -0.550 OA
ATOM     11  O   UNL     1      -4.601 -17.714  23.233  1.00  0.00    -0.550 OA
ENDBRANCH   8   9
ENDBRANCH   7   8
ENDBRANCH   6   7
ENDBRANCH   5   6
ENDBRANCH   4   5
ENDBRANCH   3   4
ENDBRANCH   2   3
ENDBRANCH   1   2
BRANCH   1  12
ATOM     12  C   UNL     1      -7.914 -12.367  21.975  1.00  0.00     0.000 C 
BRANCH  12  13
ATOM     13  C   UNL     1      -8.373 -13.673  21.309  1.00  0.00    -0.000 C 
BRANCH  13  14
ATOM     14  C   UNL     1      -9.148 -13.390  20.016  1.00  0.00    -0.000 C 
BRANCH  14  15
ATOM     15  C   UNL     1      -8.517 -14.054  18.780  1.00  0.00    -0.000 C 
BRANCH  15  16
ATOM     16  C   UNL     1      -9.503 -14.240  17.607  1.00  0.00    -0.000 C 
BRANCH  16  17
ATOM     17  C   UNL     1      -9.561 -15.701  17.125  1.00  0.00    -0.000 C 
BRANCH  17  18
ATOM     18  C   UNL     1      -9.643 -16.705  18.285  1.00  0.00    -0.000 C 
BRANCH  18  19
ATOM     19  C   UNL     1     -10.108 -18.097  17.830  1.00  0.00    -0.003 C 
ATOM     20  C   UNL     1      -8.992 -18.838  17.101  1.00  0.00     0.004 C 
ENDBRANCH  18  19
ENDBRANCH  17  18
ENDBRANCH  16  17
ENDBRANCH  15  16
ENDBRANCH  14  15
ENDBRANCH  13  14
ENDBRANCH  12  13
ENDBRANCH   1  12
TORSDOF 16
ENDMDL
MODEL 6
REMARK VINA RESULT:    17.326      4.068      8.779
REMARK INTER + INTRA:          32.638
REMARK INTER:                  32.329
REMARK INTRA:                   0.310
REMARK UNBOUND:                -0.894
REMARK SMILES CCCCCCCCCCCCCCCCCC(=O)[O-]
REMARK SMILES IDX 10 1 11 2 12 3 13 4 14 5 15 6 16 7 17 8 18 9 19 10 20 11
REMARK SMILES IDX 9 12 8 13 7 14 6 15 5 16 4 17 3 18 2 19 1 20
REMARK H PARENT
REMARK Flexibility Score: inf
ROOT
ATOM      1  C   UNL     1      -6.074 -10.277  25.154  1.00  0.00     0.000 C 
ENDROOT
BRANCH   1   2
ATOM      2  C   UNL     1      -5.794  -8.764  25.117  1.00  0.00     0.000 C 
BRANCH   2   3
ATOM      3  C   UNL     1      -4.374  -8.432  24.630  1.00  0.00     0.000 C 
BRANCH   3   4
ATOM      4  C   UNL     1      -4.352  -7.299  23.592  1.00  0.00     0.000 C 
BRANCH   4   5
ATOM      5  C   UNL     1      -2.924  -6.923  23.160  1.00  0.00     0.000 C 
BRANCH   5   6
ATOM      6  C   UNL     1      -1.900  -8.024  23.482  1.00  0.00     0.000 C 
BRANCH   6   7
ATOM      7  C   UNL     1      -1.887  -8.401  24.974  1.00  0.00     0.006 C 
BRANCH   7   8
ATOM      8  C   UNL     1      -0.649  -9.226  25.351  1.00  0.00     0.053 C 
BRANCH   8   9
ATOM      9  C   UNL     1       0.365  -8.404  26.086  1.00  0.00     0.041 C 
ATOM     10  O   UNL     1       0.581  -7.211  25.748  1.00  0.00    -0.550 OA
ATOM     11  O   UNL     1       1.095  -8.967  27.125  1.00  0.00    -0.550 OA
ENDBRANCH   8   9
ENDBRANCH   7   8
ENDBRANCH   6   7
ENDBRANCH   5   6
ENDBRANCH   4   5
ENDBRANCH   3   4
ENDBRANCH   2   3
ENDBRANCH   1   2
BRANCH   1  12
ATOM     12  C   UNL     1      -6.065 -10.941  23.761  1.00  0.00     0.000 C 
BRANCH  12  13
ATOM     13  C   UNL     1      -6.468 -12.423  23.820  1.00  0.00    -0.000 C 
BRANCH  13  14
ATOM     14  C   UNL     1      -6.260 -12.994  25.229  1.00  0.00    -0.000 C 
BRANCH  14  15
ATOM     15  C   UNL     1      -5.133 -14.039  25.293  1.00  0.00    -0.000 C 
BRANCH  15  16
ATOM     16  C   UNL     1      -5.056 -14.784  26.643  1.00  0.00    -0.000 C 
BRANCH  16  17
ATOM     17  C   UNL     1      -5.034 -16.312  26.461  1.00  0.00    -0.000 C 
BRANCH  17  18
ATOM     18  C   UNL     1      -4.574 -16.736  25.059  1.00  0.00    -0.000 C 
BRANCH  18  19
ATOM     19  C   UNL     1      -5.055 -18.144  24.678  1.00  0.00    -0.003 C 
ATOM     20  C   UNL     1      -5.769 -18.815  25.847  1.00  0.00     0.004 C 
ENDBRANCH  18  19
ENDBRANCH  17  18
ENDBRANCH  16  17
ENDBRANCH  15  16
ENDBRANCH  14  15
ENDBRANCH  13  14
ENDBRANCH  12  13
ENDBRANCH   1  12
TORSDOF 16
ENDMDL
MODEL 7
REMARK VINA RESULT:    18.115      4.559      8.081
REMARK INTER + INTRA:          34.165
REMARK INTER:                  34.573
REMARK INTRA:                  -0.408
REMARK UNBOUND:                -0.894
REMARK SMILES CCCCCCCCCCCCCCCCCC(=O)[O-]
REMARK SMILES IDX 10 1 11 2 12 3 13 4 14 5 15 6 16 7 17 8 18 9 19 10 20 11
REMARK SMILES IDX 9 12 8 13 7 14 6 15 5 16 4 17 3 18 2 19 1 20
REMARK H PARENT
REMARK Flexibility Score: inf
ROOT
ATOM      1  C   UNL     1      -7.502 -11.986  22.971  1.00  0.00     0.000 C 
ENDROOT
BRANCH   1   2
ATOM      2  C   UNL     1      -7.587 -13.193  22.021  1.00  0.00     0.000 C 
BRANCH   2   3
ATOM      3  C   UNL     1      -8.815 -13.139  21.096  1.00  0.00     0.000 C 
BRANCH   3   4
ATOM      4  C   UNL     1      -8.812 -14.256  20.041  1.00  0.00     0.000 C 
BRANCH   4   5
ATOM      5  C   UNL     1      -8.633 -13.717  18.611  1.00  0.00     0.000 C 
BRANCH   5   6
ATOM      6  C   UNL     1      -9.758 -14.167  17.665  1.00  0.00     0.000 C 
BRANCH   6   7
ATOM      7  C   UNL     1      -9.533 -15.586  17.111  1.00  0.00     0.006 C 
BRANCH   7   8
ATOM      8  C   UNL     1      -9.500 -16.642  18.224  1.00  0.00     0.053 C 
BRANCH   8   9
ATOM      9  C   UNL     1      -9.612 -18.031  17.677  1.00  0.00     0.041 C 
ATOM     10  O   UNL     1     -10.706 -18.651  17.739  1.00  0.00    -0.550 OA
ATOM     11  O   UNL     1      -8.499 -18.654  17.126  1.00  0.00    -0.550 OA
ENDBRANCH   8   9
ENDBRANCH   7   8
ENDBRANCH   6   7
ENDBRANCH   5   6
ENDBRANCH   4   5
ENDBRANCH   3   4
ENDBRANCH   2   3
ENDBRANCH   1   2
BRANCH   1  12
ATOM     12  C   UNL     1      -6.244 -11.992  23.865  1.00  0.00     0.000 C 
BRANCH  12  13
ATOM     13  C   UNL     1      -6.417 -12.881  25.106  1.00  0.00    -0.000 C 
BRANCH  13  14
ATOM     14  C   UNL     1      -5.512 -14.118  25.028  1.00  0.00    -0.000 C 
BRANCH  14  15
ATOM     15  C   UNL     1      -4.906 -14.506  26.388  1.00  0.00    -0.000 C 
BRANCH  15  16
ATOM     16  C   UNL     1      -5.095 -15.996  26.746  1.00  0.00    -0.000 C 
BRANCH  16  17
ATOM     17  C   UNL     1      -4.630 -16.927  25.612  1.00  0.00    -0.000 C 
BRANCH  17  18
ATOM     18  C   UNL     1      -5.425 -18.240  25.559  1.00  0.00    -0.000 C 
BRANCH  18  19
ATOM     19  C   UNL     1      -5.773 -18.664  24.125  1.00  0.00    -0.003 C 
ATOM     20  C   UNL     1      -5.185 -17.693  23.107  1.00  0.00     0.004 C 
ENDBRANCH  18  19
ENDBRANCH  17  18
ENDBRANCH  16  17
ENDBRANCH  15  16
ENDBRANCH  14  15
ENDBRANCH  13  14
ENDBRANCH  12  13
ENDBRANCH   1  12
TORSDOF 16
ENDMDL
