MODEL 1
REMARK VINA RESULT:    -5.276      0.000      0.000
REMARK INTER + INTRA:         -11.321
REMARK INTER:                  -9.903
REMARK INTRA:                  -1.417
REMARK UNBOUND:                -1.417
REMARK SMILES CCCCCCCCC=CCCCCCCCC(=O)[O-]
REMARK SMILES IDX 10 1 9 2 11 3 12 4 13 5 14 6 15 7 16 8 17 9 18 10 19 11
REMARK SMILES IDX 20 12 8 13 7 14 6 15 5 16 4 17 3 18 2 19 1 20
REMARK H PARENT
REMARK Flexibility Score: inf
ROOT
ATOM      1  C   UNL     1     -19.227   6.659 -17.692  1.00  0.00    -0.031 C 
ATOM      2  C   UNL     1     -18.933   5.465 -18.240  1.00  0.00    -0.031 C 
ENDROOT
BRANCH   1   3
ATOM      3  C   UNL     1     -20.455   6.945 -16.863  1.00  0.00     0.027 C 
BRANCH   3   4
ATOM      4  C   UNL     1     -20.250   6.588 -15.380  1.00  0.00     0.004 C 
BRANCH   4   5
ATOM      5  C   UNL     1     -19.933   7.796 -14.480  1.00  0.00     0.000 C 
BRANCH   5   6
ATOM      6  C   UNL     1     -18.960   7.451 -13.340  1.00  0.00     0.000 C 
BRANCH   6   7
ATOM      7  C   UNL     1     -17.903   6.415 -13.775  1.00  0.00     0.000 C 
BRANCH   7   8
ATOM      8  C   UNL     1     -16.645   6.396 -12.885  1.00  0.00     0.006 C 
BRANCH   8   9
ATOM      9  C   UNL     1     -15.906   5.045 -12.869  1.00  0.00     0.053 C 
BRANCH   9  10
ATOM     10  C   UNL     1     -14.674   5.062 -12.014  1.00  0.00     0.041 C 
ATOM     11  O   UNL     1     -13.614   4.507 -12.409  1.00  0.00    -0.550 OA
ATOM     12  O   UNL     1     -14.673   5.754 -10.808  1.00  0.00    -0.550 OA
ENDBRANCH   9  10
ENDBRANCH   8   9
ENDBRANCH   7   8
ENDBRANCH   6   7
ENDBRANCH   5   6
ENDBRANCH   4   5
ENDBRANCH   3   4
ENDBRANCH   1   3
BRANCH   2  13
ATOM     13  C   UNL     1     -19.736   4.207 -18.030  1.00  0.00     0.027 C 
BRANCH  13  14
ATOM     14  C   UNL     1     -19.115   3.346 -16.920  1.00  0.00     0.004 C 
BRANCH  14  15
ATOM     15  C   UNL     1     -17.815   3.945 -16.358  1.00  0.00     0.000 C 
BRANCH  15  16
ATOM     16  C   UNL     1     -16.733   2.913 -15.979  1.00  0.00     0.000 C 
BRANCH  16  17
ATOM     17  C   UNL     1     -15.859   2.428 -17.149  1.00  0.00    -0.000 C 
BRANCH  17  18
ATOM     18  C   UNL     1     -14.443   2.021 -16.705  1.00  0.00    -0.000 C 
BRANCH  18  19
ATOM     19  C   UNL     1     -13.918   0.794 -17.466  1.00  0.00    -0.003 C 
ATOM     20  C   UNL     1     -14.568   0.630 -18.840  1.00  0.00     0.004 C 
ENDBRANCH  18  19
ENDBRANCH  17  18
ENDBRANCH  16  17
ENDBRANCH  15  16
ENDBRANCH  14  15
ENDBRANCH  13  14
ENDBRANCH   2  13
TORSDOF 15
ENDMDL
MODEL 2
REMARK VINA RESULT:    -5.253      1.570      2.404
REMARK INTER + INTRA:         -11.277
REMARK INTER:                  -9.330
REMARK INTRA:                  -1.947
REMARK UNBOUND:                -1.417
REMARK SMILES CCCCCCCCC=CCCCCCCCC(=O)[O-]
REMARK SMILES IDX 10 1 9 2 11 3 12 4 13 5 14 6 15 7 16 8 17 9 18 10 19 11
REMARK SMILES IDX 20 12 8 13 7 14 6 15 5 16 4 17 3 18 2 19 1 20
REMARK H PARENT
REMARK Flexibility Score: inf
ROOT
ATOM      1  C   UNL     1     -19.236   6.441 -17.947  1.00  0.00    -0.031 C 
ATOM      2  C   UNL     1     -20.105   5.684 -18.643  1.00  0.00    -0.031 C 
ENDROOT
BRANCH   1   3
ATOM      3  C   UNL     1     -19.628   7.466 -16.910  1.00  0.00     0.027 C 
BRANCH   3   4
ATOM      4  C   UNL     1     -19.616   6.884 -15.486  1.00  0.00     0.004 C 
BRANCH   4   5
ATOM      5  C   UNL     1     -19.543   7.945 -14.374  1.00  0.00     0.000 C 
BRANCH   5   6
ATOM      6  C   UNL     1     -18.881   7.419 -13.088  1.00  0.00     0.000 C 
BRANCH   6   7
ATOM      7  C   UNL     1     -17.752   6.412 -13.391  1.00  0.00     0.000 C 
BRANCH   7   8
ATOM      8  C   UNL     1     -16.424   6.733 -12.678  1.00  0.00     0.006 C 
BRANCH   8   9
ATOM      9  C   UNL     1     -15.875   5.577 -11.820  1.00  0.00     0.053 C 
BRANCH   9  10
ATOM     10  C   UNL     1     -15.090   4.578 -12.616  1.00  0.00     0.041 C 
ATOM     11  O   UNL     1     -13.847   4.462 -12.449  1.00  0.00    -0.550 OA
ATOM     12  O   UNL     1     -15.743   3.721 -13.494  1.00  0.00    -0.550 OA
ENDBRANCH   9  10
ENDBRANCH   8   9
ENDBRANCH   7   8
ENDBRANCH   6   7
ENDBRANCH   5   6
ENDBRANCH   4   5
ENDBRANCH   3   4
ENDBRANCH   1   3
BRANCH   2  13
ATOM     13  C   UNL     1     -21.596   5.676 -18.426  1.00  0.00     0.027 C 
BRANCH  13  14
ATOM     14  C   UNL     1     -21.970   4.744 -17.265  1.00  0.00     0.004 C 
BRANCH  14  15
ATOM     15  C   UNL     1     -21.427   3.317 -17.447  1.00  0.00     0.000 C 
BRANCH  15  16
ATOM     16  C   UNL     1     -20.404   2.869 -16.384  1.00  0.00     0.000 C 
BRANCH  16  17
ATOM     17  C   UNL     1     -19.002   2.540 -16.928  1.00  0.00    -0.000 C 
BRANCH  17  18
ATOM     18  C   UNL     1     -17.905   3.439 -16.332  1.00  0.00    -0.000 C 
BRANCH  18  19
ATOM     19  C   UNL     1     -16.546   3.242 -17.019  1.00  0.00    -0.003 C 
ATOM     20  C   UNL     1     -16.391   4.096 -18.277  1.00  0.00     0.004 C 
ENDBRANCH  18  19
ENDBRANCH  17  18
ENDBRANCH  16  17
ENDBRANCH  15  16
ENDBRANCH  14  15
ENDBRANCH  13  14
ENDBRANCH   2  13
TORSDOF 15
ENDMDL
MODEL 3
REMARK VINA RESULT:    -5.208      3.187      6.835
REMARK INTER + INTRA:         -11.193
REMARK INTER:                  -9.970
REMARK INTRA:                  -1.223
REMARK UNBOUND:                -1.417
REMARK SMILES CCCCCCCCC=CCCCCCCCC(=O)[O-]
REMARK SMILES IDX 10 1 9 2 11 3 12 4 13 5 14 6 15 7 16 8 17 9 18 10 19 11
REMARK SMILES IDX 20 12 8 13 7 14 6 15 5 16 4 17 3 18 2 19 1 20
REMARK H PARENT
REMARK Flexibility Score: inf
ROOT
ATOM      1  C   UNL     1     -18.068   4.325 -17.269  1.00  0.00    -0.031 C 
ATOM      2  C   UNL     1     -19.067   5.225 -17.209  1.00  0.00    -0.031 C 
ENDROOT
BRANCH   1   3
ATOM      3  C   UNL     1     -17.590   3.492 -16.105  1.00  0.00     0.027 C 
BRANCH   3   4
ATOM      4  C   UNL     1     -16.474   2.513 -16.511  1.00  0.00     0.004 C 
BRANCH   4   5
ATOM      5  C   UNL     1     -15.698   2.931 -17.772  1.00  0.00     0.000 C 
BRANCH   5   6
ATOM      6  C   UNL     1     -14.780   1.817 -18.305  1.00  0.00     0.000 C 
BRANCH   6   7
ATOM      7  C   UNL     1     -14.304   0.874 -17.181  1.00  0.00     0.000 C 
BRANCH   7   8
ATOM      8  C   UNL     1     -13.363  -0.246 -17.664  1.00  0.00     0.006 C 
BRANCH   8   9
ATOM      9  C   UNL     1     -12.187   0.248 -18.527  1.00  0.00     0.053 C 
BRANCH   9  10
ATOM     10  C   UNL     1     -11.086  -0.763 -18.652  1.00  0.00     0.041 C 
ATOM     11  O   UNL     1     -10.048  -0.668 -17.945  1.00  0.00    -0.550 OA
ATOM     12  O   UNL     1     -11.236  -1.854 -19.501  1.00  0.00    -0.550 OA
ENDBRANCH   9  10
ENDBRANCH   8   9
ENDBRANCH   7   8
ENDBRANCH   6   7
ENDBRANCH   5   6
ENDBRANCH   4   5
ENDBRANCH   3   4
ENDBRANCH   1   3
BRANCH   2  13
ATOM     13  C   UNL     1     -19.925   5.470 -15.994  1.00  0.00     0.027 C 
BRANCH  13  14
ATOM     14  C   UNL     1     -19.709   6.891 -15.455  1.00  0.00     0.004 C 
BRANCH  14  15
ATOM     15  C   UNL     1     -19.826   6.971 -13.924  1.00  0.00     0.000 C 
BRANCH  15  16
ATOM     16  C   UNL     1     -18.509   7.287 -13.186  1.00  0.00     0.000 C 
BRANCH  16  17
ATOM     17  C   UNL     1     -17.360   6.298 -13.453  1.00  0.00    -0.000 C 
BRANCH  17  18
ATOM     18  C   UNL     1     -16.150   6.526 -12.530  1.00  0.00    -0.000 C 
BRANCH  18  19
ATOM     19  C   UNL     1     -15.525   5.210 -12.044  1.00  0.00    -0.003 C 
ATOM     20  C   UNL     1     -15.556   4.113 -13.109  1.00  0.00     0.004 C 
ENDBRANCH  18  19
ENDBRANCH  17  18
ENDBRANCH  16  17
ENDBRANCH  15  16
ENDBRANCH  14  15
ENDBRANCH  13  14
ENDBRANCH   2  13
TORSDOF 15
ENDMDL
MODEL 4
REMARK VINA RESULT:    -5.146      2.302      5.201
REMARK INTER + INTRA:         -11.076
REMARK INTER:                  -9.345
REMARK INTRA:                  -1.731
REMARK UNBOUND:                -1.417
REMARK SMILES CCCCCCCCC=CCCCCCCCC(=O)[O-]
REMARK SMILES IDX 10 1 9 2 11 3 12 4 13 5 14 6 15 7 16 8 17 9 18 10 19 11
REMARK SMILES IDX 20 12 8 13 7 14 6 15 5 16 4 17 3 18 2 19 1 20
REMARK H PARENT
REMARK Flexibility Score: inf
ROOT
ATOM      1  C   UNL     1     -19.925   7.221 -17.812  1.00  0.00    -0.031 C 
ATOM      2  C   UNL     1     -19.822   7.359 -16.477  1.00  0.00    -0.031 C 
ENDROOT
BRANCH   1   3
ATOM      3  C   UNL     1     -19.590   5.962 -18.574  1.00  0.00     0.027 C 
BRANCH   3   4
ATOM      4  C   UNL     1     -20.843   5.282 -19.151  1.00  0.00     0.004 C 
BRANCH   4   5
ATOM      5  C   UNL     1     -20.936   3.775 -18.853  1.00  0.00     0.000 C 
BRANCH   5   6
ATOM      6  C   UNL     1     -20.811   3.453 -17.353  1.00  0.00     0.000 C 
BRANCH   6   7
ATOM      7  C   UNL     1     -19.709   2.409 -17.076  1.00  0.00     0.000 C 
BRANCH   7   8
ATOM      8  C   UNL     1     -18.359   3.023 -16.659  1.00  0.00     0.006 C 
BRANCH   8   9
ATOM      9  C   UNL     1     -17.175   2.039 -16.715  1.00  0.00     0.053 C 
BRANCH   9  10
ATOM     10  C   UNL     1     -15.897   2.684 -17.162  1.00  0.00     0.041 C 
ATOM     11  O   UNL     1     -14.787   2.253 -16.754  1.00  0.00    -0.550 OA
ATOM     12  O   UNL     1     -15.929   3.720 -18.090  1.00  0.00    -0.550 OA
ENDBRANCH   9  10
ENDBRANCH   8   9
ENDBRANCH   7   8
ENDBRANCH   6   7
ENDBRANCH   5   6
ENDBRANCH   4   5
ENDBRANCH   3   4
ENDBRANCH   1   3
BRANCH   2  13
ATOM     13  C   UNL     1     -19.449   6.249 -15.528  1.00  0.00     0.027 C 
BRANCH  13  14
ATOM     14  C   UNL     1     -19.898   6.582 -14.099  1.00  0.00     0.004 C 
BRANCH  14  15
ATOM     15  C   UNL     1     -19.038   7.676 -13.444  1.00  0.00     0.000 C 
BRANCH  15  16
ATOM     16  C   UNL     1     -17.977   7.163 -12.449  1.00  0.00     0.000 C 
BRANCH  16  17
ATOM     17  C   UNL     1     -16.808   6.390 -13.085  1.00  0.00    -0.000 C 
BRANCH  17  18
ATOM     18  C   UNL     1     -15.774   5.916 -12.050  1.00  0.00    -0.000 C 
BRANCH  18  19
ATOM     19  C   UNL     1     -15.077   4.612 -12.470  1.00  0.00    -0.003 C 
ATOM     20  C   UNL     1     -15.847   3.854 -13.551  1.00  0.00     0.004 C 
ENDBRANCH  18  19
ENDBRANCH  17  18
ENDBRANCH  16  17
ENDBRANCH  15  16
ENDBRANCH  14  15
ENDBRANCH  13  14
ENDBRANCH   2  13
TORSDOF 15
ENDMDL
MODEL 5
REMARK VINA RESULT:    -5.136      2.544      5.457
REMARK INTER + INTRA:         -11.058
REMARK INTER:                  -9.506
REMARK INTRA:                  -1.552
REMARK UNBOUND:                -1.417
REMARK SMILES CCCCCCCCC=CCCCCCCCC(=O)[O-]
REMARK SMILES IDX 10 1 9 2 11 3 12 4 13 5 14 6 15 7 16 8 17 9 18 10 19 11
REMARK SMILES IDX 20 12 8 13 7 14 6 15 5 16 4 17 3 18 2 19 1 20
REMARK H PARENT
REMARK Flexibility Score: inf
ROOT
ATOM      1  C   UNL     1     -20.794   4.395 -15.954  1.00  0.00    -0.031 C 
ATOM      2  C   UNL     1     -20.690   5.579 -15.322  1.00  0.00    -0.031 C 
ENDROOT
BRANCH   1   3
ATOM      3  C   UNL     1     -20.599   4.193 -17.437  1.00  0.00     0.027 C 
BRANCH   3   4
ATOM      4  C   UNL     1     -19.755   2.945 -17.747  1.00  0.00     0.004 C 
BRANCH   4   5
ATOM      5  C   UNL     1     -18.645   2.665 -16.719  1.00  0.00     0.000 C 
BRANCH   5   6
ATOM      6  C   UNL     1     -17.602   3.794 -16.642  1.00  0.00     0.000 C 
BRANCH   6   7
ATOM      7  C   UNL     1     -16.832   3.960 -17.969  1.00  0.00     0.000 C 
BRANCH   7   8
ATOM      8  C   UNL     1     -15.840   2.818 -18.261  1.00  0.00     0.006 C 
BRANCH   8   9
ATOM      9  C   UNL     1     -15.037   2.352 -17.032  1.00  0.00     0.053 C 
BRANCH   9  10
ATOM     10  C   UNL     1     -14.007   1.313 -17.364  1.00  0.00     0.041 C 
ATOM     11  O   UNL     1     -14.069   0.164 -16.850  1.00  0.00    -0.550 OA
ATOM     12  O   UNL     1     -13.017   1.590 -18.299  1.00  0.00    -0.550 OA
ENDBRANCH   9  10
ENDBRANCH   8   9
ENDBRANCH   7   8
ENDBRANCH   6   7
ENDBRANCH   5   6
ENDBRANCH   4   5
ENDBRANCH   3   4
ENDBRANCH   1   3
BRANCH   2  13
ATOM     13  C   UNL     1     -20.268   6.867 -15.981  1.00  0.00     0.027 C 
BRANCH  13  14
ATOM     14  C   UNL     1     -19.500   7.756 -14.993  1.00  0.00     0.004 C 
BRANCH  14  15
ATOM     15  C   UNL     1     -19.563   7.235 -13.548  1.00  0.00     0.000 C 
BRANCH  15  16
ATOM     16  C   UNL     1     -18.210   7.199 -12.809  1.00  0.00     0.000 C 
BRANCH  16  17
ATOM     17  C   UNL     1     -17.195   6.182 -13.360  1.00  0.00    -0.000 C 
BRANCH  17  18
ATOM     18  C   UNL     1     -15.914   6.100 -12.511  1.00  0.00    -0.000 C 
BRANCH  18  19
ATOM     19  C   UNL     1     -15.413   4.657 -12.343  1.00  0.00    -0.003 C 
ATOM     20  C   UNL     1     -15.759   3.769 -13.538  1.00  0.00     0.004 C 
ENDBRANCH  18  19
ENDBRANCH  17  18
ENDBRANCH  16  17
ENDBRANCH  15  16
ENDBRANCH  14  15
ENDBRANCH  13  14
ENDBRANCH   2  13
TORSDOF 15
ENDMDL
MODEL 6
REMARK VINA RESULT:    -5.110      3.697      7.127
REMARK INTER + INTRA:         -11.009
REMARK INTER:                  -8.972
REMARK INTRA:                  -2.037
REMARK UNBOUND:                -1.417
REMARK SMILES CCCCCCCCC=CCCCCCCCC(=O)[O-]
REMARK SMILES IDX 10 1 9 2 11 3 12 4 13 5 14 6 15 7 16 8 17 9 18 10 19 11
REMARK SMILES IDX 20 12 8 13 7 14 6 15 5 16 4 17 3 18 2 19 1 20
REMARK H PARENT
REMARK Flexibility Score: inf
ROOT
ATOM      1  C   UNL     1     -17.836   3.223 -16.496  1.00  0.00    -0.031 C 
ATOM      2  C   UNL     1     -19.023   2.606 -16.643  1.00  0.00    -0.031 C 
ENDROOT
BRANCH   1   3
ATOM      3  C   UNL     1     -17.157   4.045 -17.563  1.00  0.00     0.027 C 
BRANCH   3   4
ATOM      4  C   UNL     1     -15.978   3.298 -18.210  1.00  0.00     0.004 C 
BRANCH   4   5
ATOM      5  C   UNL     1     -15.174   2.423 -17.232  1.00  0.00     0.000 C 
BRANCH   5   6
ATOM      6  C   UNL     1     -15.133   0.943 -17.649  1.00  0.00     0.000 C 
BRANCH   6   7
ATOM      7  C   UNL     1     -14.734   0.771 -19.129  1.00  0.00     0.000 C 
BRANCH   7   8
ATOM      8  C   UNL     1     -13.258   0.382 -19.335  1.00  0.00     0.006 C 
BRANCH   8   9
ATOM      9  C   UNL     1     -12.602  -0.277 -18.107  1.00  0.00     0.053 C 
BRANCH   9  10
ATOM     10  C   UNL     1     -11.349  -1.029 -18.443  1.00  0.00     0.041 C 
ATOM     11  O   UNL     1     -11.343  -1.877 -19.374  1.00  0.00    -0.550 OA
ATOM     12  O   UNL     1     -10.165  -0.741 -17.774  1.00  0.00    -0.550 OA
ENDBRANCH   9  10
ENDBRANCH   8   9
ENDBRANCH   7   8
ENDBRANCH   6   7
ENDBRANCH   5   6
ENDBRANCH   4   5
ENDBRANCH   3   4
ENDBRANCH   1   3
BRANCH   2  13
ATOM     13  C   UNL     1     -19.901   2.721 -17.863  1.00  0.00     0.027 C 
BRANCH  13  14
ATOM     14  C   UNL     1     -21.080   3.667 -17.596  1.00  0.00     0.004 C 
BRANCH  14  15
ATOM     15  C   UNL     1     -21.395   3.819 -16.098  1.00  0.00     0.000 C 
BRANCH  15  16
ATOM     16  C   UNL     1     -21.707   5.259 -15.641  1.00  0.00     0.000 C 
BRANCH  16  17
ATOM     17  C   UNL     1     -20.656   5.889 -14.710  1.00  0.00    -0.000 C 
BRANCH  17  18
ATOM     18  C   UNL     1     -19.420   6.403 -15.469  1.00  0.00    -0.000 C 
BRANCH  18  19
ATOM     19  C   UNL     1     -19.789   7.364 -16.610  1.00  0.00    -0.003 C 
ATOM     20  C   UNL     1     -19.313   6.868 -17.976  1.00  0.00     0.004 C 
ENDBRANCH  18  19
ENDBRANCH  17  18
ENDBRANCH  16  17
ENDBRANCH  15  16
ENDBRANCH  14  15
ENDBRANCH  13  14
ENDBRANCH   2  13
TORSDOF 15
ENDMDL
MODEL 7
REMARK VINA RESULT:    -5.092      3.564      5.896
REMARK INTER + INTRA:         -10.974
REMARK INTER:                  -9.689
REMARK INTRA:                  -1.285
REMARK UNBOUND:                -1.417
REMARK SMILES CCCCCCCCC=CCCCCCCCC(=O)[O-]
REMARK SMILES IDX 10 1 9 2 11 3 12 4 13 5 14 6 15 7 16 8 17 9 18 10 19 11
REMARK SMILES IDX 20 12 8 13 7 14 6 15 5 16 4 17 3 18 2 19 1 20
REMARK H PARENT
REMARK Flexibility Score: inf
ROOT
ATOM      1  C   UNL     1     -16.166   3.489 -17.840  1.00  0.00    -0.031 C 
ATOM      2  C   UNL     1     -15.008   2.807 -17.904  1.00  0.00    -0.031 C 
ENDROOT
BRANCH   1   3
ATOM      3  C   UNL     1     -17.101   3.486 -16.655  1.00  0.00     0.027 C 
BRANCH   3   4
ATOM      4  C   UNL     1     -18.167   2.382 -16.759  1.00  0.00     0.004 C 
BRANCH   4   5
ATOM      5  C   UNL     1     -19.484   2.838 -17.411  1.00  0.00     0.000 C 
BRANCH   5   6
ATOM      6  C   UNL     1     -20.607   3.076 -16.387  1.00  0.00     0.000 C 
BRANCH   6   7
ATOM      7  C   UNL     1     -21.260   4.463 -16.557  1.00  0.00     0.000 C 
BRANCH   7   8
ATOM      8  C   UNL     1     -20.810   5.497 -15.507  1.00  0.00     0.006 C 
BRANCH   8   9
ATOM      9  C   UNL     1     -19.477   6.193 -15.841  1.00  0.00     0.053 C 
BRANCH   9  10
ATOM     10  C   UNL     1     -19.467   6.816 -17.206  1.00  0.00     0.041 C 
ATOM     11  O   UNL     1     -18.731   6.350 -18.115  1.00  0.00    -0.550 OA
ATOM     12  O   UNL     1     -20.325   7.871 -17.495  1.00  0.00    -0.550 OA
ENDBRANCH   9  10
ENDBRANCH   8   9
ENDBRANCH   7   8
ENDBRANCH   6   7
ENDBRANCH   5   6
ENDBRANCH   4   5
ENDBRANCH   3   4
ENDBRANCH   1   3
BRANCH   2  13
ATOM     13  C   UNL     1     -14.419   2.013 -16.767  1.00  0.00     0.027 C 
BRANCH  13  14
ATOM     14  C   UNL     1     -14.216   0.547 -17.176  1.00  0.00     0.004 C 
BRANCH  14  15
ATOM     15  C   UNL     1     -13.046   0.358 -18.157  1.00  0.00     0.000 C 
BRANCH  15  16
ATOM     16  C   UNL     1     -12.313  -0.994 -18.043  1.00  0.00     0.000 C 
BRANCH  16  17
ATOM     17  C   UNL     1     -11.188  -1.212 -19.071  1.00  0.00    -0.000 C 
BRANCH  17  18
ATOM     18  C   UNL     1     -10.277   0.018 -19.227  1.00  0.00    -0.000 C 
BRANCH  18  19
ATOM     19  C   UNL     1      -9.113   0.018 -18.225  1.00  0.00    -0.003 C 
ATOM     20  C   UNL     1      -8.393   1.365 -18.156  1.00  0.00     0.004 C 
ENDBRANCH  18  19
ENDBRANCH  17  18
ENDBRANCH  16  17
ENDBRANCH  15  16
ENDBRANCH  14  15
ENDBRANCH  13  14
ENDBRANCH   2  13
TORSDOF 15
ENDMDL
MODEL 8
REMARK VINA RESULT:    -5.070      3.544      7.315
REMARK INTER + INTRA:         -10.933
REMARK INTER:                  -9.042
REMARK INTRA:                  -1.891
REMARK UNBOUND:                -1.417
REMARK SMILES CCCCCCCCC=CCCCCCCCC(=O)[O-]
REMARK SMILES IDX 10 1 9 2 11 3 12 4 13 5 14 6 15 7 16 8 17 9 18 10 19 11
REMARK SMILES IDX 20 12 8 13 7 14 6 15 5 16 4 17 3 18 2 19 1 20
REMARK H PARENT
REMARK Flexibility Score: inf
ROOT
ATOM      1  C   UNL     1     -17.288   2.635 -16.451  1.00  0.00    -0.031 C 
ATOM      2  C   UNL     1     -18.563   2.205 -16.422  1.00  0.00    -0.031 C 
ENDROOT
BRANCH   1   3
ATOM      3  C   UNL     1     -16.692   3.481 -17.549  1.00  0.00     0.027 C 
BRANCH   3   4
ATOM      4  C   UNL     1     -15.245   3.074 -17.876  1.00  0.00     0.004 C 
BRANCH   4   5
ATOM      5  C   UNL     1     -14.650   2.034 -16.910  1.00  0.00     0.000 C 
BRANCH   5   6
ATOM      6  C   UNL     1     -14.451   0.656 -17.564  1.00  0.00     0.000 C 
BRANCH   6   7
ATOM      7  C   UNL     1     -14.533   0.729 -19.103  1.00  0.00     0.000 C 
BRANCH   7   8
ATOM      8  C   UNL     1     -13.216   0.365 -19.816  1.00  0.00     0.006 C 
BRANCH   8   9
ATOM      9  C   UNL     1     -11.950   0.670 -18.993  1.00  0.00     0.053 C 
BRANCH   9  10
ATOM     10  C   UNL     1     -11.175  -0.562 -18.632  1.00  0.00     0.041 C 
ATOM     11  O   UNL     1     -10.110  -0.474 -17.964  1.00  0.00    -0.550 OA
ATOM     12  O   UNL     1     -11.666  -1.817 -18.971  1.00  0.00    -0.550 OA
ENDBRANCH   9  10
ENDBRANCH   8   9
ENDBRANCH   7   8
ENDBRANCH   6   7
ENDBRANCH   5   6
ENDBRANCH   4   5
ENDBRANCH   3   4
ENDBRANCH   1   3
BRANCH   2  13
ATOM     13  C   UNL     1     -19.617   2.582 -17.431  1.00  0.00     0.027 C 
BRANCH  13  14
ATOM     14  C   UNL     1     -20.975   2.790 -16.746  1.00  0.00     0.004 C 
BRANCH  14  15
ATOM     15  C   UNL     1     -21.182   4.234 -16.260  1.00  0.00     0.000 C 
BRANCH  15  16
ATOM     16  C   UNL     1     -20.645   5.325 -17.209  1.00  0.00     0.000 C 
BRANCH  16  17
ATOM     17  C   UNL     1     -19.561   6.236 -16.605  1.00  0.00    -0.000 C 
BRANCH  17  18
ATOM     18  C   UNL     1     -19.044   5.727 -15.248  1.00  0.00    -0.000 C 
BRANCH  18  19
ATOM     19  C   UNL     1     -19.161   6.785 -14.141  1.00  0.00    -0.003 C 
ATOM     20  C   UNL     1     -20.574   6.881 -13.564  1.00  0.00     0.004 C 
ENDBRANCH  18  19
ENDBRANCH  17  18
ENDBRANCH  16  17
ENDBRANCH  15  16
ENDBRANCH  14  15
ENDBRANCH  13  14
ENDBRANCH   2  13
TORSDOF 15
ENDMDL
MODEL 9
REMARK VINA RESULT:    -5.059      3.060      5.725
REMARK INTER + INTRA:         -10.914
REMARK INTER:                  -9.806
REMARK INTRA:                  -1.108
REMARK UNBOUND:                -1.417
REMARK SMILES CCCCCCCCC=CCCCCCCCC(=O)[O-]
REMARK SMILES IDX 10 1 9 2 11 3 12 4 13 5 14 6 15 7 16 8 17 9 18 10 19 11
REMARK SMILES IDX 20 12 8 13 7 14 6 15 5 16 4 17 3 18 2 19 1 20
REMARK H PARENT
REMARK Flexibility Score: inf
ROOT
ATOM      1  C   UNL     1     -15.507   2.202 -17.206  1.00  0.00    -0.031 C 
ATOM      2  C   UNL     1     -14.979   1.051 -17.662  1.00  0.00    -0.031 C 
ENDROOT
BRANCH   1   3
ATOM      3  C   UNL     1     -15.778   3.419 -18.056  1.00  0.00     0.027 C 
BRANCH   3   4
ATOM      4  C   UNL     1     -17.229   3.911 -17.920  1.00  0.00     0.004 C 
BRANCH   4   5
ATOM      5  C   UNL     1     -17.905   3.520 -16.594  1.00  0.00     0.000 C 
BRANCH   5   6
ATOM      6  C   UNL     1     -19.178   4.336 -16.309  1.00  0.00     0.000 C 
BRANCH   6   7
ATOM      7  C   UNL     1     -19.162   5.702 -17.026  1.00  0.00     0.000 C 
BRANCH   7   8
ATOM      8  C   UNL     1     -19.757   6.851 -16.191  1.00  0.00     0.006 C 
BRANCH   8   9
ATOM      9  C   UNL     1     -20.072   6.472 -14.732  1.00  0.00     0.053 C 
BRANCH   9  10
ATOM     10  C   UNL     1     -19.298   7.282 -13.734  1.00  0.00     0.041 C 
ATOM     11  O   UNL     1     -18.140   6.930 -13.387  1.00  0.00    -0.550 OA
ATOM     12  O   UNL     1     -19.829   8.468 -13.241  1.00  0.00    -0.550 OA
ENDBRANCH   9  10
ENDBRANCH   8   9
ENDBRANCH   7   8
ENDBRANCH   6   7
ENDBRANCH   5   6
ENDBRANCH   4   5
ENDBRANCH   3   4
ENDBRANCH   1   3
BRANCH   2  13
ATOM     13  C   UNL     1     -14.665   0.768 -19.109  1.00  0.00     0.027 C 
BRANCH  13  14
ATOM     14  C   UNL     1     -13.295   0.090 -19.245  1.00  0.00     0.004 C 
BRANCH  14  15
ATOM     15  C   UNL     1     -12.759  -0.445 -17.907  1.00  0.00     0.000 C 
BRANCH  15  16
ATOM     16  C   UNL     1     -11.291  -0.918 -17.935  1.00  0.00     0.000 C 
BRANCH  16  17
ATOM     17  C   UNL     1     -10.512  -0.545 -19.210  1.00  0.00    -0.000 C 
BRANCH  17  18
ATOM     18  C   UNL     1      -9.000  -0.398 -18.962  1.00  0.00    -0.000 C 
BRANCH  18  19
ATOM     19  C   UNL     1      -8.670   0.764 -18.014  1.00  0.00    -0.003 C 
ATOM     20  C   UNL     1      -8.822   2.131 -18.681  1.00  0.00     0.004 C 
ENDBRANCH  18  19
ENDBRANCH  17  18
ENDBRANCH  16  17
ENDBRANCH  15  16
ENDBRANCH  14  15
ENDBRANCH  13  14
ENDBRANCH   2  13
TORSDOF 15
ENDMDL
