MODEL 1
REMARK VINA RESULT:    -6.642      0.000      0.000
REMARK INTER + INTRA:         -13.638
REMARK INTER:                 -10.914
REMARK INTRA:                  -2.724
REMARK UNBOUND:                -2.724
REMARK SMILES C[C@H]1O[C@H](OC[C@H]2O[C@H](Oc3c(-c4ccc(O)c(O)c4)oc4cc(O)cc(O)c4c3=O)[C@@H](O)[C@@H](O)[C@H]2O)[C@@H](O)[C@@H](O)[C@@H]1O
REMARK SMILES IDX 7 1 36 2 34 3 32 4 9 5 8 6 6 7 5 8 4 9 1 10 2 11 42 12 3 13
REMARK SMILES IDX 40 14 38 15 43 16 41 18 39 20 37 22 35 24 10 26 11 27 12 28
REMARK SMILES IDX 30 29 21 30 29 31 31 32 22 33 27 34 23 35 26 36 24 37 13 38
REMARK SMILES IDX 20 39 14 40 18 41 15 42 16 43 19 44 17 46 28 48 25 50 33 52
REMARK H PARENT 43 17 41 19 39 21 37 23 35 25 19 45 17 47 28 49 25 51 33 53
REMARK Flexibility Score: inf
ROOT
ATOM      1  C   UNL     1      70.629  46.685   7.950  1.00  0.00     0.180 C 
ATOM      2  C   UNL     1      70.789  48.016   7.180  1.00  0.00     0.177 C 
ATOM      3  C   UNL     1      69.414  48.485   6.675  1.00  0.00     0.180 C 
ATOM      4  C   UNL     1      68.389  48.501   7.828  1.00  0.00     0.214 C 
ATOM      5  C   UNL     1      68.407  47.149   8.562  1.00  0.00     0.339 C 
ATOM      6  O   UNL     1      69.711  46.828   9.025  1.00  0.00    -0.332 OA
ENDROOT
BRANCH   1   7
ATOM      7  C   UNL     1      71.970  46.204   8.518  1.00  0.00     0.198 C 
BRANCH   7   8
ATOM      8  O   UNL     1      72.441  45.106   7.760  1.00  0.00    -0.347 OA
BRANCH   8   9
ATOM      9  C   UNL     1      73.599  45.454   7.014  1.00  0.00     0.281 C 
ATOM     10  C   UNL     1      75.125  42.108   6.777  1.00  0.00     0.041 C 
ATOM     11  C   UNL     1      74.062  43.190   6.565  1.00  0.00     0.150 C 
ATOM     12  C   UNL     1      73.721  43.330   5.060  1.00  0.00     0.174 C 
ATOM     13  O   UNL     1      74.562  44.411   7.089  1.00  0.00    -0.344 OA
ATOM     14  C   UNL     1      72.723  44.484   4.850  1.00  0.00     0.179 C 
ATOM     15  C   UNL     1      73.238  45.757   5.543  1.00  0.00     0.202 C 
BRANCH  12  16
ATOM     16  O   UNL     1      73.204  42.128   4.541  1.00  0.00    -0.388 OA
ATOM     17  H   UNL     1      73.518  41.391   5.128  1.00  0.00     0.211 HD
ENDBRANCH  12  16
BRANCH  14  18
ATOM     18  O   UNL     1      72.544  44.731   3.478  1.00  0.00    -0.387 OA
ATOM     19  H   UNL     1      72.850  45.660   3.309  1.00  0.00     0.211 HD
ENDBRANCH  14  18
BRANCH  15  20
ATOM     20  O   UNL     1      74.378  46.246   4.885  1.00  0.00    -0.385 OA
ATOM     21  H   UNL     1      74.776  45.483   4.389  1.00  0.00     0.211 HD
ENDBRANCH  15  20
ENDBRANCH   8   9
ENDBRANCH   7   8
ENDBRANCH   1   7
BRANCH   2  22
ATOM     22  O   UNL     1      71.359  48.992   8.020  1.00  0.00    -0.387 OA
ATOM     23  H   UNL     1      70.705  49.169   8.746  1.00  0.00     0.211 HD
ENDBRANCH   2  22
BRANCH   3  24
ATOM     24  O   UNL     1      69.525  49.756   6.088  1.00  0.00    -0.387 OA
ATOM     25  H   UNL     1      69.625  50.405   6.830  1.00  0.00     0.211 HD
ENDBRANCH   3  24
BRANCH   5  26
ATOM     26  O   UNL     1      67.883  46.131   7.707  1.00  0.00    -0.454 OA
BRANCH  26  27
ATOM     27  C   UNL     1      66.775  45.333   8.024  1.00  0.00     0.214 A 
ATOM     28  C   UNL     1      66.982  44.024   8.490  1.00  0.00     0.180 A 
ATOM     29  C   UNL     1      65.460  45.802   7.872  1.00  0.00     0.239 A 
ATOM     30  O   UNL     1      65.939  43.240   8.736  1.00  0.00    -0.452 OA
ATOM     31  C   UNL     1      64.370  44.960   8.200  1.00  0.00     0.111 A 
ATOM     32  O   UNL     1      65.278  46.965   7.432  1.00  0.00    -0.285 OA
ATOM     33  C   UNL     1      64.680  43.635   8.606  1.00  0.00     0.146 A 
ATOM     34  C   UNL     1      62.995  45.340   8.116  1.00  0.00     0.134 A 
ATOM     35  C   UNL     1      63.662  42.715   8.869  1.00  0.00     0.094 A 
ATOM     36  C   UNL     1      61.999  44.382   8.348  1.00  0.00     0.093 A 
ATOM     37  C   UNL     1      62.326  43.078   8.726  1.00  0.00     0.123 A 
BRANCH  28  38
ATOM     38  C   UNL     1      68.340  43.458   8.656  1.00  0.00     0.025 A 
ATOM     39  C   UNL     1      68.967  42.843   7.561  1.00  0.00     0.062 A 
ATOM     40  C   UNL     1      69.013  43.507   9.890  1.00  0.00     0.016 A 
ATOM     41  C   UNL     1      70.263  42.318   7.681  1.00  0.00     0.158 A 
ATOM     42  C   UNL     1      70.303  42.986  10.012  1.00  0.00     0.051 A 
ATOM     43  C   UNL     1      70.936  42.397   8.912  1.00  0.00     0.157 A 
BRANCH  41  44
ATOM     44  O   UNL     1      70.881  41.722   6.583  1.00  0.00    -0.504 OA
ATOM     45  H   UNL     1      70.386  41.068   5.988  1.00  0.00     0.293 HD
ENDBRANCH  41  44
BRANCH  43  46
ATOM     46  O   UNL     1      72.229  41.895   9.062  1.00  0.00    -0.504 OA
ATOM     47  H   UNL     1      72.561  41.098   8.532  1.00  0.00     0.293 HD
ENDBRANCH  43  46
ENDBRANCH  28  38
BRANCH  34  48
ATOM     48  O   UNL     1      62.559  46.638   7.837  1.00  0.00    -0.507 OA
ATOM     49  H   UNL     1      61.761  46.868   7.265  1.00  0.00     0.293 HD
ENDBRANCH  34  48
BRANCH  37  50
ATOM     50  O   UNL     1      61.327  42.137   8.970  1.00  0.00    -0.508 OA
ATOM     51  H   UNL     1      60.392  42.414   9.244  1.00  0.00     0.293 HD
ENDBRANCH  37  50
ENDBRANCH  26  27
ENDBRANCH   5  26
BRANCH   4  52
ATOM     52  O   UNL     1      68.684  49.527   8.743  1.00  0.00    -0.384 OA
ATOM     53  H   UNL     1      69.158  50.240   8.238  1.00  0.00     0.211 HD
ENDBRANCH   4  52
TORSDOF 16
ENDMDL
MODEL 2
REMARK VINA RESULT:    -6.626      2.175      5.542
REMARK INTER + INTRA:         -13.610
REMARK INTER:                 -11.391
REMARK INTRA:                  -2.220
REMARK UNBOUND:                -2.724
REMARK SMILES C[C@H]1O[C@H](OC[C@H]2O[C@H](Oc3c(-c4ccc(O)c(O)c4)oc4cc(O)cc(O)c4c3=O)[C@@H](O)[C@@H](O)[C@H]2O)[C@@H](O)[C@@H](O)[C@@H]1O
REMARK SMILES IDX 7 1 36 2 34 3 32 4 9 5 8 6 6 7 5 8 4 9 1 10 2 11 42 12 3 13
REMARK SMILES IDX 40 14 38 15 43 16 41 18 39 20 37 22 35 24 10 26 11 27 12 28
REMARK SMILES IDX 30 29 21 30 29 31 31 32 22 33 27 34 23 35 26 36 24 37 13 38
REMARK SMILES IDX 20 39 14 40 18 41 15 42 16 43 19 44 17 46 28 48 25 50 33 52
REMARK H PARENT 43 17 41 19 39 21 37 23 35 25 19 45 17 47 28 49 25 51 33 53
REMARK Flexibility Score: inf
ROOT
ATOM      1  C   UNL     1      73.153  44.569   7.216  1.00  0.00     0.180 C 
ATOM      2  C   UNL     1      74.369  43.647   6.965  1.00  0.00     0.177 C 
ATOM      3  C   UNL     1      73.899  42.183   6.903  1.00  0.00     0.180 C 
ATOM      4  C   UNL     1      72.731  42.032   5.908  1.00  0.00     0.214 C 
ATOM      5  C   UNL     1      71.640  43.072   6.217  1.00  0.00     0.339 C 
ATOM      6  O   UNL     1      72.166  44.391   6.210  1.00  0.00    -0.332 OA
ENDROOT
BRANCH   1   7
ATOM      7  C   UNL     1      73.566  46.046   7.236  1.00  0.00     0.198 C 
BRANCH   7   8
ATOM      8  O   UNL     1      72.457  46.855   6.898  1.00  0.00    -0.347 OA
BRANCH   8   9
ATOM      9  C   UNL     1      72.749  48.234   7.083  1.00  0.00     0.281 C 
ATOM     10  C   UNL     1      69.890  49.653   5.242  1.00  0.00     0.041 C 
ATOM     11  C   UNL     1      70.604  48.849   6.332  1.00  0.00     0.150 C 
ATOM     12  C   UNL     1      70.154  49.318   7.738  1.00  0.00     0.174 C 
ATOM     13  O   UNL     1      72.004  49.020   6.164  1.00  0.00    -0.344 OA
ATOM     14  C   UNL     1      70.948  48.570   8.825  1.00  0.00     0.179 C 
ATOM     15  C   UNL     1      72.455  48.668   8.536  1.00  0.00     0.202 C 
BRANCH  12  16
ATOM     16  O   UNL     1      68.770  49.130   7.918  1.00  0.00    -0.388 OA
ATOM     17  H   UNL     1      68.628  48.850   8.861  1.00  0.00     0.211 HD
ENDBRANCH  12  16
BRANCH  14  18
ATOM     18  O   UNL     1      70.671  49.112  10.092  1.00  0.00    -0.387 OA
ATOM     19  H   UNL     1      69.741  48.852  10.320  1.00  0.00     0.211 HD
ENDBRANCH  14  18
BRANCH  15  20
ATOM     20  O   UNL     1      72.903  49.988   8.716  1.00  0.00    -0.385 OA
ATOM     21  H   UNL     1      73.782  49.935   9.175  1.00  0.00     0.211 HD
ENDBRANCH  15  20
ENDBRANCH   8   9
ENDBRANCH   7   8
ENDBRANCH   1   7
BRANCH   2  22
ATOM     22  O   UNL     1      75.005  44.007   5.762  1.00  0.00    -0.387 OA
ATOM     23  H   UNL     1      74.313  43.992   5.051  1.00  0.00     0.211 HD
ENDBRANCH   2  22
BRANCH   3  24
ATOM     24  O   UNL     1      74.971  41.349   6.547  1.00  0.00    -0.387 OA
ATOM     25  H   UNL     1      75.213  41.579   5.613  1.00  0.00     0.211 HD
ENDBRANCH   3  24
BRANCH   5  26
ATOM     26  O   UNL     1      71.017  42.757   7.464  1.00  0.00    -0.454 OA
BRANCH  26  27
ATOM     27  C   UNL     1      69.691  43.082   7.783  1.00  0.00     0.214 A 
ATOM     28  C   UNL     1      68.670  42.161   7.495  1.00  0.00     0.180 A 
ATOM     29  C   UNL     1      69.353  44.312   8.370  1.00  0.00     0.239 A 
ATOM     30  O   UNL     1      67.405  42.483   7.739  1.00  0.00    -0.452 OA
ATOM     31  C   UNL     1      68.000  44.600   8.671  1.00  0.00     0.111 A 
ATOM     32  O   UNL     1      70.266  45.143   8.604  1.00  0.00    -0.285 OA
ATOM     33  C   UNL     1      67.035  43.631   8.288  1.00  0.00     0.146 A 
ATOM     34  C   UNL     1      67.543  45.801   9.296  1.00  0.00     0.134 A 
ATOM     35  C   UNL     1      65.672  43.872   8.474  1.00  0.00     0.094 A 
ATOM     36  C   UNL     1      66.168  46.030   9.432  1.00  0.00     0.093 A 
ATOM     37  C   UNL     1      65.234  45.072   9.029  1.00  0.00     0.123 A 
BRANCH  28  38
ATOM     38  C   UNL     1      68.952  40.853   6.860  1.00  0.00     0.025 A 
ATOM     39  C   UNL     1      69.249  40.804   5.489  1.00  0.00     0.062 A 
ATOM     40  C   UNL     1      68.914  39.654   7.594  1.00  0.00     0.016 A 
ATOM     41  C   UNL     1      69.543  39.583   4.864  1.00  0.00     0.158 A 
ATOM     42  C   UNL     1      69.208  38.437   6.975  1.00  0.00     0.051 A 
ATOM     43  C   UNL     1      69.529  38.395   5.614  1.00  0.00     0.157 A 
BRANCH  41  44
ATOM     44  O   UNL     1      69.850  39.549   3.504  1.00  0.00    -0.504 OA
ATOM     45  H   UNL     1      69.236  39.963   2.813  1.00  0.00     0.293 HD
ENDBRANCH  41  44
BRANCH  43  46
ATOM     46  O   UNL     1      69.827  37.166   5.025  1.00  0.00    -0.504 OA
ATOM     47  H   UNL     1      69.128  36.443   4.903  1.00  0.00     0.293 HD
ENDBRANCH  43  46
ENDBRANCH  28  38
BRANCH  34  48
ATOM     48  O   UNL     1      68.393  46.781   9.817  1.00  0.00    -0.507 OA
ATOM     49  H   UNL     1      69.179  46.601  10.422  1.00  0.00     0.293 HD
ENDBRANCH  34  48
BRANCH  37  50
ATOM     50  O   UNL     1      63.868  45.301   9.183  1.00  0.00    -0.508 OA
ATOM     51  H   UNL     1      63.391  46.031   8.669  1.00  0.00     0.293 HD
ENDBRANCH  37  50
ENDBRANCH  26  27
ENDBRANCH   5  26
BRANCH   4  52
ATOM     52  O   UNL     1      73.175  42.209   4.585  1.00  0.00    -0.384 OA
ATOM     53  H   UNL     1      73.274  41.303   4.188  1.00  0.00     0.211 HD
ENDBRANCH   4  52
TORSDOF 16
ENDMDL
MODEL 3
REMARK VINA RESULT:    -6.543      1.992      5.211
REMARK INTER + INTRA:         -13.474
REMARK INTER:                 -10.922
REMARK INTRA:                  -2.552
REMARK UNBOUND:                -2.724
REMARK SMILES C[C@H]1O[C@H](OC[C@H]2O[C@H](Oc3c(-c4ccc(O)c(O)c4)oc4cc(O)cc(O)c4c3=O)[C@@H](O)[C@@H](O)[C@H]2O)[C@@H](O)[C@@H](O)[C@@H]1O
REMARK SMILES IDX 7 1 36 2 34 3 32 4 9 5 8 6 6 7 5 8 4 9 1 10 2 11 42 12 3 13
REMARK SMILES IDX 40 14 38 15 43 16 41 18 39 20 37 22 35 24 10 26 11 27 12 28
REMARK SMILES IDX 30 29 21 30 29 31 31 32 22 33 27 34 23 35 26 36 24 37 13 38
REMARK SMILES IDX 20 39 14 40 18 41 15 42 16 43 19 44 17 46 28 48 25 50 33 52
REMARK H PARENT 43 17 41 19 39 21 37 23 35 25 19 45 17 47 28 49 25 51 33 53
REMARK Flexibility Score: inf
ROOT
ATOM      1  C   UNL     1      69.831  47.410   7.341  1.00  0.00     0.180 C 
ATOM      2  C   UNL     1      68.692  48.404   7.669  1.00  0.00     0.177 C 
ATOM      3  C   UNL     1      67.369  47.633   7.823  1.00  0.00     0.180 C 
ATOM      4  C   UNL     1      67.536  46.461   8.811  1.00  0.00     0.214 C 
ATOM      5  C   UNL     1      68.760  45.616   8.419  1.00  0.00     0.339 C 
ATOM      6  O   UNL     1      69.936  46.410   8.344  1.00  0.00    -0.332 OA
ENDROOT
BRANCH   1   7
ATOM      7  C   UNL     1      71.182  48.128   7.228  1.00  0.00     0.198 C 
BRANCH   7   8
ATOM      8  O   UNL     1      72.225  47.175   7.188  1.00  0.00    -0.347 OA
BRANCH   8   9
ATOM      9  C   UNL     1      73.266  47.585   6.310  1.00  0.00     0.281 C 
ATOM     10  C   UNL     1      74.826  44.298   5.732  1.00  0.00     0.041 C 
ATOM     11  C   UNL     1      73.719  45.355   5.709  1.00  0.00     0.150 C 
ATOM     12  C   UNL     1      73.177  45.544   4.269  1.00  0.00     0.174 C 
ATOM     13  O   UNL     1      74.254  46.570   6.213  1.00  0.00    -0.344 OA
ATOM     14  C   UNL     1      72.132  46.676   4.242  1.00  0.00     0.179 C 
ATOM     15  C   UNL     1      72.704  47.935   4.914  1.00  0.00     0.202 C 
BRANCH  12  16
ATOM     16  O   UNL     1      72.624  44.349   3.772  1.00  0.00    -0.388 OA
ATOM     17  H   UNL     1      73.164  43.598   4.134  1.00  0.00     0.211 HD
ENDBRANCH  12  16
BRANCH  14  18
ATOM     18  O   UNL     1      71.765  46.970   2.918  1.00  0.00    -0.387 OA
ATOM     19  H   UNL     1      71.735  46.108   2.428  1.00  0.00     0.211 HD
ENDBRANCH  14  18
BRANCH  15  20
ATOM     20  O   UNL     1      73.734  48.482   4.133  1.00  0.00    -0.385 OA
ATOM     21  H   UNL     1      73.622  48.125   3.214  1.00  0.00     0.211 HD
ENDBRANCH  15  20
ENDBRANCH   8   9
ENDBRANCH   7   8
ENDBRANCH   1   7
BRANCH   2  22
ATOM     22  O   UNL     1      68.990  49.103   8.853  1.00  0.00    -0.387 OA
ATOM     23  H   UNL     1      69.924  49.430   8.772  1.00  0.00     0.211 HD
ENDBRANCH   2  22
BRANCH   3  24
ATOM     24  O   UNL     1      66.352  48.503   8.248  1.00  0.00    -0.387 OA
ATOM     25  H   UNL     1      65.853  48.778   7.436  1.00  0.00     0.211 HD
ENDBRANCH   3  24
BRANCH   5  26
ATOM     26  O   UNL     1      68.501  44.937   7.187  1.00  0.00    -0.454 OA
BRANCH  26  27
ATOM     27  C   UNL     1      68.699  43.565   6.991  1.00  0.00     0.214 A 
ATOM     28  C   UNL     1      67.726  42.658   7.442  1.00  0.00     0.180 A 
ATOM     29  C   UNL     1      69.856  43.067   6.367  1.00  0.00     0.239 A 
ATOM     30  O   UNL     1      67.931  41.352   7.313  1.00  0.00    -0.452 OA
ATOM     31  C   UNL     1      70.017  41.671   6.194  1.00  0.00     0.111 A 
ATOM     32  O   UNL     1      70.736  43.880   5.987  1.00  0.00    -0.285 OA
ATOM     33  C   UNL     1      69.006  40.834   6.736  1.00  0.00     0.146 A 
ATOM     34  C   UNL     1      71.133  41.056   5.547  1.00  0.00     0.134 A 
ATOM     35  C   UNL     1      69.128  39.444   6.680  1.00  0.00     0.094 A 
ATOM     36  C   UNL     1      71.244  39.659   5.542  1.00  0.00     0.093 A 
ATOM     37  C   UNL     1      70.249  38.854   6.101  1.00  0.00     0.123 A 
BRANCH  28  38
ATOM     38  C   UNL     1      66.491  43.110   8.123  1.00  0.00     0.025 A 
ATOM     39  C   UNL     1      65.468  43.705   7.367  1.00  0.00     0.062 A 
ATOM     40  C   UNL     1      66.323  42.973   9.512  1.00  0.00     0.016 A 
ATOM     41  C   UNL     1      64.276  44.122   7.980  1.00  0.00     0.158 A 
ATOM     42  C   UNL     1      65.138  43.387  10.124  1.00  0.00     0.051 A 
ATOM     43  C   UNL     1      64.109  43.955   9.365  1.00  0.00     0.157 A 
BRANCH  41  44
ATOM     44  O   UNL     1      63.262  44.698   7.217  1.00  0.00    -0.504 OA
ATOM     45  H   UNL     1      63.183  44.522   6.222  1.00  0.00     0.293 HD
ENDBRANCH  41  44
BRANCH  43  46
ATOM     46  O   UNL     1      62.933  44.350  10.003  1.00  0.00    -0.504 OA
ATOM     47  H   UNL     1      62.730  44.097  10.962  1.00  0.00     0.293 HD
ENDBRANCH  43  46
ENDBRANCH  28  38
BRANCH  34  48
ATOM     48  O   UNL     1      72.136  41.764   4.879  1.00  0.00    -0.507 OA
ATOM     49  H   UNL     1      72.982  42.107   5.307  1.00  0.00     0.293 HD
ENDBRANCH  34  48
BRANCH  37  50
ATOM     50  O   UNL     1      70.361  37.465   6.077  1.00  0.00    -0.508 OA
ATOM     51  H   UNL     1      70.987  36.995   5.435  1.00  0.00     0.293 HD
ENDBRANCH  37  50
ENDBRANCH  26  27
ENDBRANCH   5  26
BRANCH   4  52
ATOM     52  O   UNL     1      67.705  46.935  10.125  1.00  0.00    -0.384 OA
ATOM     53  H   UNL     1      66.931  46.606  10.654  1.00  0.00     0.211 HD
ENDBRANCH   4  52
TORSDOF 16
ENDMDL
MODEL 4
REMARK VINA RESULT:    -6.423      2.095      7.096
REMARK INTER + INTRA:         -13.277
REMARK INTER:                 -10.977
REMARK INTRA:                  -2.300
REMARK UNBOUND:                -2.724
REMARK SMILES C[C@H]1O[C@H](OC[C@H]2O[C@H](Oc3c(-c4ccc(O)c(O)c4)oc4cc(O)cc(O)c4c3=O)[C@@H](O)[C@@H](O)[C@H]2O)[C@@H](O)[C@@H](O)[C@@H]1O
REMARK SMILES IDX 7 1 36 2 34 3 32 4 9 5 8 6 6 7 5 8 4 9 1 10 2 11 42 12 3 13
REMARK SMILES IDX 40 14 38 15 43 16 41 18 39 20 37 22 35 24 10 26 11 27 12 28
REMARK SMILES IDX 30 29 21 30 29 31 31 32 22 33 27 34 23 35 26 36 24 37 13 38
REMARK SMILES IDX 20 39 14 40 18 41 15 42 16 43 19 44 17 46 28 48 25 50 33 52
REMARK H PARENT 43 17 41 19 39 21 37 23 35 25 19 45 17 47 28 49 25 51 33 53
REMARK Flexibility Score: inf
ROOT
ATOM      1  C   UNL     1      68.416  47.264   9.403  1.00  0.00     0.180 C 
ATOM      2  C   UNL     1      69.167  48.597   9.631  1.00  0.00     0.177 C 
ATOM      3  C   UNL     1      70.509  48.564   8.880  1.00  0.00     0.180 C 
ATOM      4  C   UNL     1      70.296  48.162   7.406  1.00  0.00     0.214 C 
ATOM      5  C   UNL     1      69.455  46.876   7.331  1.00  0.00     0.339 C 
ATOM      6  O   UNL     1      68.220  47.023   8.017  1.00  0.00    -0.332 OA
ENDROOT
BRANCH   1   7
ATOM      7  C   UNL     1      67.046  47.271  10.093  1.00  0.00     0.198 C 
BRANCH   7   8
ATOM      8  O   UNL     1      66.097  46.621   9.271  1.00  0.00    -0.347 OA
BRANCH   8   9
ATOM      9  C   UNL     1      65.518  45.505   9.934  1.00  0.00     0.281 C 
ATOM     10  C   UNL     1      62.118  45.736   8.534  1.00  0.00     0.041 C 
ATOM     11  C   UNL     1      63.639  45.562   8.518  1.00  0.00     0.150 C 
ATOM     12  C   UNL     1      64.028  44.242   7.807  1.00  0.00     0.174 C 
ATOM     13  O   UNL     1      64.101  45.571   9.860  1.00  0.00    -0.344 OA
ATOM     14  C   UNL     1      65.553  44.032   7.881  1.00  0.00     0.179 C 
ATOM     15  C   UNL     1      66.034  44.179   9.334  1.00  0.00     0.202 C 
BRANCH  12  16
ATOM     16  O   UNL     1      63.593  44.236   6.468  1.00  0.00    -0.388 OA
ATOM     17  H   UNL     1      63.065  43.406   6.330  1.00  0.00     0.211 HD
ENDBRANCH  12  16
BRANCH  14  18
ATOM     18  O   UNL     1      65.895  42.758   7.395  1.00  0.00    -0.387 OA
ATOM     19  H   UNL     1      66.360  42.895   6.529  1.00  0.00     0.211 HD
ENDBRANCH  14  18
BRANCH  15  20
ATOM     20  O   UNL     1      65.563  43.111  10.116  1.00  0.00    -0.385 OA
ATOM     21  H   UNL     1      66.321  42.481  10.232  1.00  0.00     0.211 HD
ENDBRANCH  15  20
ENDBRANCH   8   9
ENDBRANCH   7   8
ENDBRANCH   1   7
BRANCH   2  22
ATOM     22  O   UNL     1      68.382  49.675   9.180  1.00  0.00    -0.387 OA
ATOM     23  H   UNL     1      67.522  49.295   8.860  1.00  0.00     0.211 HD
ENDBRANCH   2  22
BRANCH   3  24
ATOM     24  O   UNL     1      71.142  49.814   8.970  1.00  0.00    -0.387 OA
ATOM     25  H   UNL     1      70.938  50.173   9.872  1.00  0.00     0.211 HD
ENDBRANCH   3  24
BRANCH   5  26
ATOM     26  O   UNL     1      70.214  45.775   7.836  1.00  0.00    -0.454 OA
BRANCH  26  27
ATOM     27  C   UNL     1      70.335  44.540   7.186  1.00  0.00     0.214 A 
ATOM     28  C   UNL     1      71.271  44.398   6.148  1.00  0.00     0.180 A 
ATOM     29  C   UNL     1      69.531  43.441   7.534  1.00  0.00     0.239 A 
ATOM     30  O   UNL     1      71.352  43.249   5.487  1.00  0.00    -0.452 OA
ATOM     31  C   UNL     1      69.684  42.213   6.847  1.00  0.00     0.111 A 
ATOM     32  O   UNL     1      68.678  43.579   8.446  1.00  0.00    -0.285 OA
ATOM     33  C   UNL     1      70.614  42.186   5.775  1.00  0.00     0.146 A 
ATOM     34  C   UNL     1      68.947  41.023   7.135  1.00  0.00     0.134 A 
ATOM     35  C   UNL     1      70.767  41.038   4.993  1.00  0.00     0.094 A 
ATOM     36  C   UNL     1      69.094  39.902   6.308  1.00  0.00     0.093 A 
ATOM     37  C   UNL     1      69.999  39.904   5.245  1.00  0.00     0.123 A 
BRANCH  28  38
ATOM     38  C   UNL     1      72.138  45.518   5.717  1.00  0.00     0.025 A 
ATOM     39  C   UNL     1      71.774  46.275   4.593  1.00  0.00     0.062 A 
ATOM     40  C   UNL     1      73.327  45.835   6.398  1.00  0.00     0.016 A 
ATOM     41  C   UNL     1      72.561  47.358   4.173  1.00  0.00     0.158 A 
ATOM     42  C   UNL     1      74.112  46.913   5.984  1.00  0.00     0.051 A 
ATOM     43  C   UNL     1      73.734  47.681   4.878  1.00  0.00     0.157 A 
BRANCH  41  44
ATOM     44  O   UNL     1      72.183  48.111   3.063  1.00  0.00    -0.504 OA
ATOM     45  H   UNL     1      71.213  48.350   2.892  1.00  0.00     0.293 HD
ENDBRANCH  41  44
BRANCH  43  46
ATOM     46  O   UNL     1      74.533  48.758   4.494  1.00  0.00    -0.504 OA
ATOM     47  H   UNL     1      74.269  49.383   3.742  1.00  0.00     0.293 HD
ENDBRANCH  43  46
ENDBRANCH  28  38
BRANCH  34  48
ATOM     48  O   UNL     1      68.084  40.884   8.227  1.00  0.00    -0.507 OA
ATOM     49  H   UNL     1      67.113  41.152   8.232  1.00  0.00     0.293 HD
ENDBRANCH  34  48
BRANCH  37  50
ATOM     50  O   UNL     1      70.151  38.778   4.438  1.00  0.00    -0.508 OA
ATOM     51  H   UNL     1      69.587  37.947   4.575  1.00  0.00     0.293 HD
ENDBRANCH  37  50
ENDBRANCH  26  27
ENDBRANCH   5  26
BRANCH   4  52
ATOM     52  O   UNL     1      69.638  49.185   6.700  1.00  0.00    -0.384 OA
ATOM     53  H   UNL     1      69.595  49.973   7.304  1.00  0.00     0.211 HD
ENDBRANCH   4  52
TORSDOF 16
ENDMDL
MODEL 5
REMARK VINA RESULT:    -6.386      2.141      5.275
REMARK INTER + INTRA:         -13.217
REMARK INTER:                 -11.192
REMARK INTRA:                  -2.025
REMARK UNBOUND:                -2.724
REMARK SMILES C[C@H]1O[C@H](OC[C@H]2O[C@H](Oc3c(-c4ccc(O)c(O)c4)oc4cc(O)cc(O)c4c3=O)[C@@H](O)[C@@H](O)[C@H]2O)[C@@H](O)[C@@H](O)[C@@H]1O
REMARK SMILES IDX 7 1 36 2 34 3 32 4 9 5 8 6 6 7 5 8 4 9 1 10 2 11 42 12 3 13
REMARK SMILES IDX 40 14 38 15 43 16 41 18 39 20 37 22 35 24 10 26 11 27 12 28
REMARK SMILES IDX 30 29 21 30 29 31 31 32 22 33 27 34 23 35 26 36 24 37 13 38
REMARK SMILES IDX 20 39 14 40 18 41 15 42 16 43 19 44 17 46 28 48 25 50 33 52
REMARK H PARENT 43 17 41 19 39 21 37 23 35 25 19 45 17 47 28 49 25 51 33 53
REMARK Flexibility Score: inf
ROOT
ATOM      1  C   UNL     1      72.526  44.117   5.515  1.00  0.00     0.180 C 
ATOM      2  C   UNL     1      73.857  43.419   5.878  1.00  0.00     0.177 C 
ATOM      3  C   UNL     1      73.663  42.576   7.151  1.00  0.00     0.180 C 
ATOM      4  C   UNL     1      72.441  41.646   7.003  1.00  0.00     0.214 C 
ATOM      5  C   UNL     1      71.217  42.459   6.546  1.00  0.00     0.339 C 
ATOM      6  O   UNL     1      71.485  43.166   5.343  1.00  0.00    -0.332 OA
ENDROOT
BRANCH   1   7
ATOM      7  C   UNL     1      72.658  44.931   4.222  1.00  0.00     0.198 C 
BRANCH   7   8
ATOM      8  O   UNL     1      71.794  46.050   4.273  1.00  0.00    -0.347 OA
BRANCH   8   9
ATOM      9  C   UNL     1      72.493  47.254   3.985  1.00  0.00     0.281 C 
ATOM     10  C   UNL     1      69.964  49.655   5.177  1.00  0.00     0.041 C 
ATOM     11  C   UNL     1      70.977  48.512   5.276  1.00  0.00     0.150 C 
ATOM     12  C   UNL     1      72.029  48.810   6.374  1.00  0.00     0.174 C 
ATOM     13  O   UNL     1      71.598  48.357   4.008  1.00  0.00    -0.344 OA
ATOM     14  C   UNL     1      73.097  47.700   6.399  1.00  0.00     0.179 C 
ATOM     15  C   UNL     1      73.652  47.472   4.983  1.00  0.00     0.202 C 
BRANCH  12  16
ATOM     16  O   UNL     1      71.423  48.941   7.637  1.00  0.00    -0.388 OA
ATOM     17  H   UNL     1      72.098  48.683   8.319  1.00  0.00     0.211 HD
ENDBRANCH  12  16
BRANCH  14  18
ATOM     18  O   UNL     1      74.145  48.049   7.268  1.00  0.00    -0.387 OA
ATOM     19  H   UNL     1      74.188  49.040   7.284  1.00  0.00     0.211 HD
ENDBRANCH  14  18
BRANCH  15  20
ATOM     20  O   UNL     1      74.407  48.582   4.568  1.00  0.00    -0.385 OA
ATOM     21  H   UNL     1      74.186  49.328   5.185  1.00  0.00     0.211 HD
ENDBRANCH  15  20
ENDBRANCH   8   9
ENDBRANCH   7   8
ENDBRANCH   1   7
BRANCH   2  22
ATOM     22  O   UNL     1      74.279  42.604   4.812  1.00  0.00    -0.387 OA
ATOM     23  H   UNL     1      75.237  42.392   4.968  1.00  0.00     0.211 HD
ENDBRANCH   2  22
BRANCH   3  24
ATOM     24  O   UNL     1      74.825  41.835   7.419  1.00  0.00    -0.387 OA
ATOM     25  H   UNL     1      75.589  42.375   7.090  1.00  0.00     0.211 HD
ENDBRANCH   3  24
BRANCH   5  26
ATOM     26  O   UNL     1      70.803  43.336   7.595  1.00  0.00    -0.454 OA
BRANCH  26  27
ATOM     27  C   UNL     1      69.515  43.876   7.705  1.00  0.00     0.214 A 
ATOM     28  C   UNL     1      68.412  43.011   7.789  1.00  0.00     0.180 A 
ATOM     29  C   UNL     1      69.294  45.264   7.717  1.00  0.00     0.239 A 
ATOM     30  O   UNL     1      67.183  43.512   7.834  1.00  0.00    -0.452 OA
ATOM     31  C   UNL     1      67.975  45.766   7.824  1.00  0.00     0.111 A 
ATOM     32  O   UNL     1      70.282  46.035   7.617  1.00  0.00    -0.285 OA
ATOM     33  C   UNL     1      66.923  44.812   7.844  1.00  0.00     0.146 A 
ATOM     34  C   UNL     1      67.634  47.152   7.878  1.00  0.00     0.134 A 
ATOM     35  C   UNL     1      65.589  45.225   7.867  1.00  0.00     0.094 A 
ATOM     36  C   UNL     1      66.287  47.534   7.861  1.00  0.00     0.093 A 
ATOM     37  C   UNL     1      65.267  46.579   7.858  1.00  0.00     0.123 A 
BRANCH  28  38
ATOM     38  C   UNL     1      68.568  41.538   7.765  1.00  0.00     0.025 A 
ATOM     39  C   UNL     1      68.643  40.876   6.529  1.00  0.00     0.062 A 
ATOM     40  C   UNL     1      68.629  40.783   8.949  1.00  0.00     0.016 A 
ATOM     41  C   UNL     1      68.815  39.484   6.472  1.00  0.00     0.158 A 
ATOM     42  C   UNL     1      68.802  39.399   8.896  1.00  0.00     0.051 A 
ATOM     43  C   UNL     1      68.902  38.744   7.664  1.00  0.00     0.157 A 
BRANCH  41  44
ATOM     44  O   UNL     1      68.901  38.840   5.240  1.00  0.00    -0.504 OA
ATOM     45  H   UNL     1      69.741  38.888   4.675  1.00  0.00     0.293 HD
ENDBRANCH  41  44
BRANCH  43  46
ATOM     46  O   UNL     1      69.083  37.361   7.642  1.00  0.00    -0.504 OA
ATOM     47  H   UNL     1      69.791  36.920   7.068  1.00  0.00     0.293 HD
ENDBRANCH  43  46
ENDBRANCH  28  38
BRANCH  34  48
ATOM     48  O   UNL     1      68.573  48.183   7.975  1.00  0.00    -0.507 OA
ATOM     49  H   UNL     1      69.258  48.408   7.271  1.00  0.00     0.293 HD
ENDBRANCH  34  48
BRANCH  37  50
ATOM     50  O   UNL     1      63.929  46.969   7.857  1.00  0.00    -0.508 OA
ATOM     51  H   UNL     1      63.655  47.926   7.670  1.00  0.00     0.293 HD
ENDBRANCH  37  50
ENDBRANCH  26  27
ENDBRANCH   5  26
BRANCH   4  52
ATOM     52  O   UNL     1      72.697  40.630   6.065  1.00  0.00    -0.384 OA
ATOM     53  H   UNL     1      72.441  39.770   6.492  1.00  0.00     0.211 HD
ENDBRANCH   4  52
TORSDOF 16
ENDMDL
MODEL 6
REMARK VINA RESULT:    -6.223      2.574      7.451
REMARK INTER + INTRA:         -12.949
REMARK INTER:                 -10.844
REMARK INTRA:                  -2.105
REMARK UNBOUND:                -2.724
REMARK SMILES C[C@H]1O[C@H](OC[C@H]2O[C@H](Oc3c(-c4ccc(O)c(O)c4)oc4cc(O)cc(O)c4c3=O)[C@@H](O)[C@@H](O)[C@H]2O)[C@@H](O)[C@@H](O)[C@@H]1O
REMARK SMILES IDX 7 1 36 2 34 3 32 4 9 5 8 6 6 7 5 8 4 9 1 10 2 11 42 12 3 13
REMARK SMILES IDX 40 14 38 15 43 16 41 18 39 20 37 22 35 24 10 26 11 27 12 28
REMARK SMILES IDX 30 29 21 30 29 31 31 32 22 33 27 34 23 35 26 36 24 37 13 38
REMARK SMILES IDX 20 39 14 40 18 41 15 42 16 43 19 44 17 46 28 48 25 50 33 52
REMARK H PARENT 43 17 41 19 39 21 37 23 35 25 19 45 17 47 28 49 25 51 33 53
REMARK Flexibility Score: inf
ROOT
ATOM      1  C   UNL     1      69.421  45.262   9.011  1.00  0.00     0.180 C 
ATOM      2  C   UNL     1      67.883  45.327   8.862  1.00  0.00     0.177 C 
ATOM      3  C   UNL     1      67.432  44.339   7.772  1.00  0.00     0.180 C 
ATOM      4  C   UNL     1      68.019  42.937   8.035  1.00  0.00     0.214 C 
ATOM      5  C   UNL     1      69.537  43.038   8.259  1.00  0.00     0.339 C 
ATOM      6  O   UNL     1      69.847  43.941   9.312  1.00  0.00    -0.332 OA
ENDROOT
BRANCH   1   7
ATOM      7  C   UNL     1      69.912  46.195  10.125  1.00  0.00     0.198 C 
BRANCH   7   8
ATOM      8  O   UNL     1      70.581  47.304   9.556  1.00  0.00    -0.347 OA
BRANCH   8   9
ATOM      9  C   UNL     1      69.777  48.475   9.611  1.00  0.00     0.281 C 
ATOM     10  C   UNL     1      72.089  50.808   7.941  1.00  0.00     0.041 C 
ATOM     11  C   UNL     1      71.181  49.584   8.081  1.00  0.00     0.150 C 
ATOM     12  C   UNL     1      70.113  49.567   6.959  1.00  0.00     0.174 C 
ATOM     13  O   UNL     1      70.571  49.627   9.362  1.00  0.00    -0.344 OA
ATOM     14  C   UNL     1      69.148  48.384   7.165  1.00  0.00     0.179 C 
ATOM     15  C   UNL     1      68.608  48.390   8.605  1.00  0.00     0.202 C 
BRANCH  12  16
ATOM     16  O   UNL     1      70.711  49.501   5.687  1.00  0.00    -0.388 OA
ATOM     17  H   UNL     1      70.858  48.541   5.476  1.00  0.00     0.211 HD
ENDBRANCH  12  16
BRANCH  14  18
ATOM     18  O   UNL     1      68.077  48.463   6.258  1.00  0.00    -0.387 OA
ATOM     19  H   UNL     1      67.357  48.979   6.705  1.00  0.00     0.211 HD
ENDBRANCH  14  18
BRANCH  15  20
ATOM     20  O   UNL     1      67.756  49.489   8.804  1.00  0.00    -0.385 OA
ATOM     21  H   UNL     1      68.330  50.298   8.839  1.00  0.00     0.211 HD
ENDBRANCH  15  20
ENDBRANCH   8   9
ENDBRANCH   7   8
ENDBRANCH   1   7
BRANCH   2  22
ATOM     22  O   UNL     1      67.267  45.014  10.088  1.00  0.00    -0.387 OA
ATOM     23  H   UNL     1      67.343  45.818  10.666  1.00  0.00     0.211 HD
ENDBRANCH   2  22
BRANCH   3  24
ATOM     24  O   UNL     1      66.030  44.291   7.716  1.00  0.00    -0.387 OA
ATOM     25  H   UNL     1      65.698  45.078   8.220  1.00  0.00     0.211 HD
ENDBRANCH   3  24
BRANCH   5  26
ATOM     26  O   UNL     1      70.180  43.409   7.037  1.00  0.00    -0.454 OA
BRANCH  26  27
ATOM     27  C   UNL     1      71.134  42.620   6.381  1.00  0.00     0.214 A 
ATOM     28  C   UNL     1      72.471  43.047   6.344  1.00  0.00     0.180 A 
ATOM     29  C   UNL     1      70.785  41.418   5.743  1.00  0.00     0.239 A 
ATOM     30  O   UNL     1      73.372  42.337   5.674  1.00  0.00    -0.452 OA
ATOM     31  C   UNL     1      71.781  40.655   5.087  1.00  0.00     0.111 A 
ATOM     32  O   UNL     1      69.583  41.051   5.757  1.00  0.00    -0.285 OA
ATOM     33  C   UNL     1      73.092  41.200   5.054  1.00  0.00     0.146 A 
ATOM     34  C   UNL     1      71.549  39.405   4.434  1.00  0.00     0.134 A 
ATOM     35  C   UNL     1      74.115  40.551   4.358  1.00  0.00     0.094 A 
ATOM     36  C   UNL     1      72.586  38.800   3.712  1.00  0.00     0.093 A 
ATOM     37  C   UNL     1      73.863  39.364   3.674  1.00  0.00     0.123 A 
BRANCH  28  38
ATOM     38  C   UNL     1      72.907  44.312   6.979  1.00  0.00     0.025 A 
ATOM     39  C   UNL     1      72.921  45.493   6.220  1.00  0.00     0.062 A 
ATOM     40  C   UNL     1      73.322  44.359   8.322  1.00  0.00     0.016 A 
ATOM     41  C   UNL     1      73.306  46.712   6.799  1.00  0.00     0.158 A 
ATOM     42  C   UNL     1      73.704  45.570   8.902  1.00  0.00     0.051 A 
ATOM     43  C   UNL     1      73.693  46.750   8.150  1.00  0.00     0.157 A 
BRANCH  41  44
ATOM     44  O   UNL     1      73.303  47.880   6.039  1.00  0.00    -0.504 OA
ATOM     45  H   UNL     1      74.163  48.280   5.680  1.00  0.00     0.293 HD
ENDBRANCH  41  44
BRANCH  43  46
ATOM     46  O   UNL     1      74.071  47.947   8.759  1.00  0.00    -0.504 OA
ATOM     47  H   UNL     1      74.067  48.064   9.765  1.00  0.00     0.293 HD
ENDBRANCH  43  46
ENDBRANCH  28  38
BRANCH  34  48
ATOM     48  O   UNL     1      70.337  38.711   4.486  1.00  0.00    -0.507 OA
ATOM     49  H   UNL     1      69.432  39.115   4.302  1.00  0.00     0.293 HD
ENDBRANCH  34  48
BRANCH  37  50
ATOM     50  O   UNL     1      74.893  38.746   2.967  1.00  0.00    -0.508 OA
ATOM     51  H   UNL     1      75.420  37.977   3.361  1.00  0.00     0.293 HD
ENDBRANCH  37  50
ENDBRANCH  26  27
ENDBRANCH   5  26
BRANCH   4  52
ATOM     52  O   UNL     1      67.423  42.351   9.166  1.00  0.00    -0.384 OA
ATOM     53  H   UNL     1      68.161  42.053   9.762  1.00  0.00     0.211 HD
ENDBRANCH   4  52
TORSDOF 16
ENDMDL
MODEL 7
REMARK VINA RESULT:    -6.161      2.807      6.423
REMARK INTER + INTRA:         -12.847
REMARK INTER:                 -11.535
REMARK INTRA:                  -1.311
REMARK UNBOUND:                -2.724
REMARK SMILES C[C@H]1O[C@H](OC[C@H]2O[C@H](Oc3c(-c4ccc(O)c(O)c4)oc4cc(O)cc(O)c4c3=O)[C@@H](O)[C@@H](O)[C@H]2O)[C@@H](O)[C@@H](O)[C@@H]1O
REMARK SMILES IDX 7 1 36 2 34 3 32 4 9 5 8 6 6 7 5 8 4 9 1 10 2 11 42 12 3 13
REMARK SMILES IDX 40 14 38 15 43 16 41 18 39 20 37 22 35 24 10 26 11 27 12 28
REMARK SMILES IDX 30 29 21 30 29 31 31 32 22 33 27 34 23 35 26 36 24 37 13 38
REMARK SMILES IDX 20 39 14 40 18 41 15 42 16 43 19 44 17 46 28 48 25 50 33 52
REMARK H PARENT 43 17 41 19 39 21 37 23 35 25 19 45 17 47 28 49 25 51 33 53
REMARK Flexibility Score: inf
ROOT
ATOM      1  C   UNL     1      73.111  47.040   6.291  1.00  0.00     0.180 C 
ATOM      2  C   UNL     1      73.045  47.782   7.646  1.00  0.00     0.177 C 
ATOM      3  C   UNL     1      72.230  46.946   8.649  1.00  0.00     0.180 C 
ATOM      4  C   UNL     1      72.760  45.499   8.706  1.00  0.00     0.214 C 
ATOM      5  C   UNL     1      72.864  44.923   7.283  1.00  0.00     0.339 C 
ATOM      6  O   UNL     1      73.670  45.743   6.449  1.00  0.00    -0.332 OA
ENDROOT
BRANCH   1   7
ATOM      7  C   UNL     1      73.958  47.813   5.273  1.00  0.00     0.198 C 
BRANCH   7   8
ATOM      8  O   UNL     1      73.110  48.507   4.379  1.00  0.00    -0.347 OA
BRANCH   8   9
ATOM      9  C   UNL     1      71.975  47.726   4.031  1.00  0.00     0.281 C 
ATOM     10  C   UNL     1      69.470  49.434   6.125  1.00  0.00     0.041 C 
ATOM     11  C   UNL     1      70.521  49.290   5.021  1.00  0.00     0.150 C 
ATOM     12  C   UNL     1      69.942  49.743   3.657  1.00  0.00     0.174 C 
ATOM     13  O   UNL     1      70.931  47.932   4.973  1.00  0.00    -0.344 OA
ATOM     14  C   UNL     1      70.976  49.504   2.539  1.00  0.00     0.179 C 
ATOM     15  C   UNL     1      71.493  48.058   2.602  1.00  0.00     0.202 C 
BRANCH  12  16
ATOM     16  O   UNL     1      69.555  51.095   3.691  1.00  0.00    -0.388 OA
ATOM     17  H   UNL     1      70.232  51.612   3.180  1.00  0.00     0.211 HD
ENDBRANCH  12  16
BRANCH  14  18
ATOM     18  O   UNL     1      70.399  49.747   1.280  1.00  0.00    -0.387 OA
ATOM     19  H   UNL     1      70.945  49.256   0.613  1.00  0.00     0.211 HD
ENDBRANCH  14  18
BRANCH  15  20
ATOM     20  O   UNL     1      70.476  47.158   2.244  1.00  0.00    -0.385 OA
ATOM     21  H   UNL     1      69.629  47.511   2.623  1.00  0.00     0.211 HD
ENDBRANCH  15  20
ENDBRANCH   8   9
ENDBRANCH   7   8
ENDBRANCH   1   7
BRANCH   2  22
ATOM     22  O   UNL     1      74.345  48.002   8.138  1.00  0.00    -0.387 OA
ATOM     23  H   UNL     1      74.851  48.471   7.424  1.00  0.00     0.211 HD
ENDBRANCH   2  22
BRANCH   3  24
ATOM     24  O   UNL     1      72.271  47.544   9.919  1.00  0.00    -0.387 OA
ATOM     25  H   UNL     1      71.345  47.831  10.129  1.00  0.00     0.211 HD
ENDBRANCH   3  24
BRANCH   5  26
ATOM     26  O   UNL     1      71.554  44.742   6.741  1.00  0.00    -0.454 OA
BRANCH  26  27
ATOM     27  C   UNL     1      70.975  43.492   6.486  1.00  0.00     0.214 A 
ATOM     28  C   UNL     1      69.677  43.227   6.953  1.00  0.00     0.180 A 
ATOM     29  C   UNL     1      71.666  42.487   5.789  1.00  0.00     0.239 A 
ATOM     30  O   UNL     1      69.142  42.026   6.768  1.00  0.00    -0.452 OA
ATOM     31  C   UNL     1      71.044  41.236   5.558  1.00  0.00     0.111 A 
ATOM     32  O   UNL     1      72.836  42.719   5.394  1.00  0.00    -0.285 OA
ATOM     33  C   UNL     1      69.754  41.045   6.120  1.00  0.00     0.146 A 
ATOM     34  C   UNL     1      71.636  40.155   4.835  1.00  0.00     0.134 A 
ATOM     35  C   UNL     1      69.105  39.813   6.008  1.00  0.00     0.094 A 
ATOM     36  C   UNL     1      70.977  38.921   4.775  1.00  0.00     0.093 A 
ATOM     37  C   UNL     1      69.717  38.747   5.354  1.00  0.00     0.123 A 
BRANCH  28  38
ATOM     38  C   UNL     1      68.897  44.233   7.711  1.00  0.00     0.025 A 
ATOM     39  C   UNL     1      67.877  44.944   7.060  1.00  0.00     0.062 A 
ATOM     40  C   UNL     1      69.163  44.505   9.064  1.00  0.00     0.016 A 
ATOM     41  C   UNL     1      67.105  45.887   7.756  1.00  0.00     0.158 A 
ATOM     42  C   UNL     1      68.396  45.441   9.761  1.00  0.00     0.051 A 
ATOM     43  C   UNL     1      67.363  46.130   9.116  1.00  0.00     0.157 A 
BRANCH  41  44
ATOM     44  O   UNL     1      66.086  46.577   7.103  1.00  0.00    -0.504 OA
ATOM     45  H   UNL     1      65.840  47.526   7.360  1.00  0.00     0.293 HD
ENDBRANCH  41  44
BRANCH  43  46
ATOM     46  O   UNL     1      66.607  47.053   9.840  1.00  0.00    -0.504 OA
ATOM     47  H   UNL     1      66.575  48.035   9.593  1.00  0.00     0.293 HD
ENDBRANCH  43  46
ENDBRANCH  28  38
BRANCH  34  48
ATOM     48  O   UNL     1      72.847  40.249   4.143  1.00  0.00    -0.507 OA
ATOM     49  H   UNL     1      73.368  39.465   3.783  1.00  0.00     0.293 HD
ENDBRANCH  34  48
BRANCH  37  50
ATOM     50  O   UNL     1      69.061  37.520   5.275  1.00  0.00    -0.508 OA
ATOM     51  H   UNL     1      68.203  37.344   5.782  1.00  0.00     0.293 HD
ENDBRANCH  37  50
ENDBRANCH  26  27
ENDBRANCH   5  26
BRANCH   4  52
ATOM     52  O   UNL     1      74.028  45.456   9.315  1.00  0.00    -0.384 OA
ATOM     53  H   UNL     1      74.633  46.022   8.766  1.00  0.00     0.211 HD
ENDBRANCH   4  52
TORSDOF 16
ENDMDL
MODEL 8
REMARK VINA RESULT:    -5.885      2.131      5.380
REMARK INTER + INTRA:         -12.393
REMARK INTER:                 -11.198
REMARK INTRA:                  -1.195
REMARK UNBOUND:                -2.724
REMARK SMILES C[C@H]1O[C@H](OC[C@H]2O[C@H](Oc3c(-c4ccc(O)c(O)c4)oc4cc(O)cc(O)c4c3=O)[C@@H](O)[C@@H](O)[C@H]2O)[C@@H](O)[C@@H](O)[C@@H]1O
REMARK SMILES IDX 7 1 36 2 34 3 32 4 9 5 8 6 6 7 5 8 4 9 1 10 2 11 42 12 3 13
REMARK SMILES IDX 40 14 38 15 43 16 41 18 39 20 37 22 35 24 10 26 11 27 12 28
REMARK SMILES IDX 30 29 21 30 29 31 31 32 22 33 27 34 23 35 26 36 24 37 13 38
REMARK SMILES IDX 20 39 14 40 18 41 15 42 16 43 19 44 17 46 28 48 25 50 33 52
REMARK H PARENT 43 17 41 19 39 21 37 23 35 25 19 45 17 47 28 49 25 51 33 53
REMARK Flexibility Score: inf
ROOT
ATOM      1  C   UNL     1      71.997  43.884   5.795  1.00  0.00     0.180 C 
ATOM      2  C   UNL     1      72.919  42.659   5.996  1.00  0.00     0.177 C 
ATOM      3  C   UNL     1      72.432  41.844   7.206  1.00  0.00     0.180 C 
ATOM      4  C   UNL     1      70.927  41.532   7.079  1.00  0.00     0.214 C 
ATOM      5  C   UNL     1      70.147  42.825   6.785  1.00  0.00     0.339 C 
ATOM      6  O   UNL     1      70.646  43.480   5.627  1.00  0.00    -0.332 OA
ENDROOT
BRANCH   1   7
ATOM      7  C   UNL     1      72.416  44.701   4.566  1.00  0.00     0.198 C 
BRANCH   7   8
ATOM      8  O   UNL     1      71.696  45.918   4.537  1.00  0.00    -0.347 OA
BRANCH   8   9
ATOM      9  C   UNL     1      72.505  46.984   4.054  1.00  0.00     0.281 C 
ATOM     10  C   UNL     1      70.087  49.734   4.457  1.00  0.00     0.041 C 
ATOM     11  C   UNL     1      70.999  48.586   4.895  1.00  0.00     0.150 C 
ATOM     12  C   UNL     1      71.986  49.063   5.990  1.00  0.00     0.174 C 
ATOM     13  O   UNL     1      71.698  48.114   3.753  1.00  0.00    -0.344 OA
ATOM     14  C   UNL     1      72.961  47.926   6.355  1.00  0.00     0.179 C 
ATOM     15  C   UNL     1      73.600  47.353   5.079  1.00  0.00     0.202 C 
BRANCH  12  16
ATOM     16  O   UNL     1      71.300  49.511   7.135  1.00  0.00    -0.388 OA
ATOM     17  H   UNL     1      71.317  50.504   7.122  1.00  0.00     0.211 HD
ENDBRANCH  12  16
BRANCH  14  18
ATOM     18  O   UNL     1      73.965  48.401   7.216  1.00  0.00    -0.387 OA
ATOM     19  H   UNL     1      73.828  49.380   7.306  1.00  0.00     0.211 HD
ENDBRANCH  14  18
BRANCH  15  20
ATOM     20  O   UNL     1      74.466  48.294   4.500  1.00  0.00    -0.385 OA
ATOM     21  H   UNL     1      74.789  47.903   3.646  1.00  0.00     0.211 HD
ENDBRANCH  15  20
ENDBRANCH   8   9
ENDBRANCH   7   8
ENDBRANCH   1   7
BRANCH   2  22
ATOM     22  O   UNL     1      72.918  41.860   4.837  1.00  0.00    -0.387 OA
ATOM     23  H   UNL     1      73.163  40.940   5.117  1.00  0.00     0.211 HD
ENDBRANCH   2  22
BRANCH   3  24
ATOM     24  O   UNL     1      73.179  40.661   7.322  1.00  0.00    -0.387 OA
ATOM     25  H   UNL     1      73.873  40.691   6.614  1.00  0.00     0.211 HD
ENDBRANCH   3  24
BRANCH   5  26
ATOM     26  O   UNL     1      70.182  43.678   7.932  1.00  0.00    -0.454 OA
BRANCH  26  27
ATOM     27  C   UNL     1      69.241  44.683   8.192  1.00  0.00     0.214 A 
ATOM     28  C   UNL     1      69.663  45.881   8.791  1.00  0.00     0.180 A 
ATOM     29  C   UNL     1      67.880  44.519   7.883  1.00  0.00     0.239 A 
ATOM     30  O   UNL     1      68.770  46.816   9.095  1.00  0.00    -0.452 OA
ATOM     31  C   UNL     1      66.963  45.559   8.168  1.00  0.00     0.111 A 
ATOM     32  O   UNL     1      67.502  43.436   7.370  1.00  0.00    -0.285 OA
ATOM     33  C   UNL     1      67.477  46.707   8.828  1.00  0.00     0.146 A 
ATOM     34  C   UNL     1      65.567  45.516   7.870  1.00  0.00     0.134 A 
ATOM     35  C   UNL     1      66.626  47.744   9.218  1.00  0.00     0.094 A 
ATOM     36  C   UNL     1      64.734  46.554   8.309  1.00  0.00     0.093 A 
ATOM     37  C   UNL     1      65.257  47.665   8.976  1.00  0.00     0.123 A 
BRANCH  28  38
ATOM     38  C   UNL     1      71.078  46.116   9.160  1.00  0.00     0.025 A 
ATOM     39  C   UNL     1      72.036  45.133   8.867  1.00  0.00     0.062 A 
ATOM     40  C   UNL     1      71.485  47.294   9.810  1.00  0.00     0.016 A 
ATOM     41  C   UNL     1      73.389  45.335   9.182  1.00  0.00     0.158 A 
ATOM     42  C   UNL     1      72.831  47.499  10.124  1.00  0.00     0.051 A 
ATOM     43  C   UNL     1      73.787  46.529   9.808  1.00  0.00     0.157 A 
BRANCH  41  44
ATOM     44  O   UNL     1      74.333  44.357   8.874  1.00  0.00    -0.504 OA
ATOM     45  H   UNL     1      75.114  44.164   9.489  1.00  0.00     0.293 HD
ENDBRANCH  41  44
BRANCH  43  46
ATOM     46  O   UNL     1      75.125  46.765  10.125  1.00  0.00    -0.504 OA
ATOM     47  H   UNL     1      75.865  46.677   9.439  1.00  0.00     0.293 HD
ENDBRANCH  43  46
ENDBRANCH  28  38
BRANCH  34  48
ATOM     48  O   UNL     1      64.957  44.499   7.130  1.00  0.00    -0.507 OA
ATOM     49  H   UNL     1      63.976  44.271   7.162  1.00  0.00     0.293 HD
ENDBRANCH  34  48
BRANCH  37  50
ATOM     50  O   UNL     1      64.423  48.700   9.395  1.00  0.00    -0.508 OA
ATOM     51  H   UNL     1      64.663  49.289  10.183  1.00  0.00     0.293 HD
ENDBRANCH  37  50
ENDBRANCH  26  27
ENDBRANCH   5  26
BRANCH   4  52
ATOM     52  O   UNL     1      70.694  40.608   6.044  1.00  0.00    -0.384 OA
ATOM     53  H   UNL     1      70.087  39.911   6.408  1.00  0.00     0.211 HD
ENDBRANCH   4  52
TORSDOF 16
ENDMDL
MODEL 9
REMARK VINA RESULT:    -5.823      2.445      5.313
REMARK INTER + INTRA:         -12.292
REMARK INTER:                 -10.440
REMARK INTRA:                  -1.851
REMARK UNBOUND:                -2.724
REMARK SMILES C[C@H]1O[C@H](OC[C@H]2O[C@H](Oc3c(-c4ccc(O)c(O)c4)oc4cc(O)cc(O)c4c3=O)[C@@H](O)[C@@H](O)[C@H]2O)[C@@H](O)[C@@H](O)[C@@H]1O
REMARK SMILES IDX 7 1 36 2 34 3 32 4 9 5 8 6 6 7 5 8 4 9 1 10 2 11 42 12 3 13
REMARK SMILES IDX 40 14 38 15 43 16 41 18 39 20 37 22 35 24 10 26 11 27 12 28
REMARK SMILES IDX 30 29 21 30 29 31 31 32 22 33 27 34 23 35 26 36 24 37 13 38
REMARK SMILES IDX 20 39 14 40 18 41 15 42 16 43 19 44 17 46 28 48 25 50 33 52
REMARK H PARENT 43 17 41 19 39 21 37 23 35 25 19 45 17 47 28 49 25 51 33 53
REMARK Flexibility Score: inf
ROOT
ATOM      1  C   UNL     1      70.873  42.582   7.704  1.00  0.00     0.180 C 
ATOM      2  C   UNL     1      72.367  42.966   7.601  1.00  0.00     0.177 C 
ATOM      3  C   UNL     1      72.504  44.499   7.611  1.00  0.00     0.180 C 
ATOM      4  C   UNL     1      71.741  45.103   8.807  1.00  0.00     0.214 C 
ATOM      5  C   UNL     1      70.302  44.559   8.840  1.00  0.00     0.339 C 
ATOM      6  O   UNL     1      70.285  43.139   8.871  1.00  0.00    -0.332 OA
ENDROOT
BRANCH   1   7
ATOM      7  C   UNL     1      70.691  41.059   7.749  1.00  0.00     0.198 C 
BRANCH   7   8
ATOM      8  O   UNL     1      71.590  40.446   6.845  1.00  0.00    -0.347 OA
BRANCH   8   9
ATOM      9  C   UNL     1      71.101  40.503   5.512  1.00  0.00     0.281 C 
ATOM     10  C   UNL     1      74.170  39.467   3.756  1.00  0.00     0.041 C 
ATOM     11  C   UNL     1      72.980  39.334   4.710  1.00  0.00     0.150 C 
ATOM     12  C   UNL     1      72.155  38.066   4.376  1.00  0.00     0.174 C 
ATOM     13  O   UNL     1      72.184  40.504   4.592  1.00  0.00    -0.344 OA
ATOM     14  C   UNL     1      70.908  37.994   5.279  1.00  0.00     0.179 C 
ATOM     15  C   UNL     1      70.143  39.326   5.225  1.00  0.00     0.202 C 
BRANCH  12  16
ATOM     16  O   UNL     1      72.932  36.901   4.513  1.00  0.00    -0.388 OA
ATOM     17  H   UNL     1      73.579  36.884   3.760  1.00  0.00     0.211 HD
ENDBRANCH  12  16
BRANCH  14  18
ATOM     18  O   UNL     1      70.066  36.946   4.866  1.00  0.00    -0.387 OA
ATOM     19  H   UNL     1      69.171  37.343   4.703  1.00  0.00     0.211 HD
ENDBRANCH  14  18
BRANCH  15  20
ATOM     20  O   UNL     1      69.564  39.509   3.958  1.00  0.00    -0.385 OA
ATOM     21  H   UNL     1      69.629  38.639   3.483  1.00  0.00     0.211 HD
ENDBRANCH  15  20
ENDBRANCH   8   9
ENDBRANCH   7   8
ENDBRANCH   1   7
BRANCH   2  22
ATOM     22  O   UNL     1      73.084  42.406   8.674  1.00  0.00    -0.387 OA
ATOM     23  H   UNL     1      72.931  41.425   8.646  1.00  0.00     0.211 HD
ENDBRANCH   2  22
BRANCH   3  24
ATOM     24  O   UNL     1      73.860  44.861   7.649  1.00  0.00    -0.387 OA
ATOM     25  H   UNL     1      74.372  44.082   7.312  1.00  0.00     0.211 HD
ENDBRANCH   3  24
BRANCH   5  26
ATOM     26  O   UNL     1      69.569  45.073   7.725  1.00  0.00    -0.454 OA
BRANCH  26  27
ATOM     27  C   UNL     1      68.228  45.473   7.784  1.00  0.00     0.214 A 
ATOM     28  C   UNL     1      67.922  46.838   7.911  1.00  0.00     0.180 A 
ATOM     29  C   UNL     1      67.177  44.542   7.736  1.00  0.00     0.239 A 
ATOM     30  O   UNL     1      66.657  47.223   8.027  1.00  0.00    -0.452 OA
ATOM     31  C   UNL     1      65.835  44.991   7.804  1.00  0.00     0.111 A 
ATOM     32  O   UNL     1      67.454  43.319   7.648  1.00  0.00    -0.285 OA
ATOM     33  C   UNL     1      65.631  46.383   7.991  1.00  0.00     0.146 A 
ATOM     34  C   UNL     1      64.689  44.140   7.733  1.00  0.00     0.134 A 
ATOM     35  C   UNL     1      64.343  46.899   8.150  1.00  0.00     0.094 A 
ATOM     36  C   UNL     1      63.413  44.683   7.935  1.00  0.00     0.093 A 
ATOM     37  C   UNL     1      63.236  46.053   8.139  1.00  0.00     0.123 A 
BRANCH  28  38
ATOM     38  C   UNL     1      68.980  47.873   7.985  1.00  0.00     0.025 A 
ATOM     39  C   UNL     1      69.321  48.590   6.828  1.00  0.00     0.062 A 
ATOM     40  C   UNL     1      69.662  48.145   9.184  1.00  0.00     0.016 A 
ATOM     41  C   UNL     1      70.302  49.593   6.871  1.00  0.00     0.158 A 
ATOM     42  C   UNL     1      70.638  49.143   9.231  1.00  0.00     0.051 A 
ATOM     43  C   UNL     1      70.958  49.874   8.082  1.00  0.00     0.157 A 
BRANCH  41  44
ATOM     44  O   UNL     1      70.623  50.308   5.719  1.00  0.00    -0.504 OA
ATOM     45  H   UNL     1      71.576  50.362   5.378  1.00  0.00     0.293 HD
ENDBRANCH  41  44
BRANCH  43  46
ATOM     46  O   UNL     1      71.930  50.872   8.161  1.00  0.00    -0.504 OA
ATOM     47  H   UNL     1      72.766  50.766   8.723  1.00  0.00     0.293 HD
ENDBRANCH  43  46
ENDBRANCH  28  38
BRANCH  34  48
ATOM     48  O   UNL     1      64.748  42.774   7.444  1.00  0.00    -0.507 OA
ATOM     49  H   UNL     1      63.969  42.137   7.509  1.00  0.00     0.293 HD
ENDBRANCH  34  48
BRANCH  37  50
ATOM     50  O   UNL     1      61.962  46.586   8.323  1.00  0.00    -0.508 OA
ATOM     51  H   UNL     1      61.134  46.108   7.989  1.00  0.00     0.293 HD
ENDBRANCH  37  50
ENDBRANCH  26  27
ENDBRANCH   5  26
BRANCH   4  52
ATOM     52  O   UNL     1      72.381  44.786  10.019  1.00  0.00    -0.384 OA
ATOM     53  H   UNL     1      72.348  43.797  10.115  1.00  0.00     0.211 HD
ENDBRANCH   4  52
TORSDOF 16
ENDMDL
