MODEL 1
REMARK VINA RESULT:    -7.046      0.000      0.000
REMARK INTER + INTRA:          -8.544
REMARK INTER:                  -8.281
REMARK INTRA:                  -0.262
REMARK UNBOUND:                -0.262
REMARK SMILES O=c1cc(-c2ccc(O)c(O)c2)oc2cc(O)cc(O)c12
REMARK SMILES IDX 4 1 3 2 2 3 1 4 21 5 19 6 18 7 16 8 15 9 14 10 13 11 5 12
REMARK SMILES IDX 6 13 7 14 8 15 12 16 10 17 9 18 11 20 20 22 17 24
REMARK H PARENT 9 19 11 21 20 23 17 25
REMARK Flexibility Score: inf
ROOT
ATOM      1  C   UNL     1       9.841  11.463 -16.058  1.00  0.00     0.138 A 
ATOM      2  C   UNL     1      10.536  10.303 -16.430  1.00  0.00     0.100 A 
ATOM      3  C   UNL     1      10.236   9.090 -15.808  1.00  0.00     0.197 A 
ATOM      4  O   UNL     1      10.918   8.079 -16.118  1.00  0.00    -0.289 OA
ATOM      5  C   UNL     1       9.214   9.034 -14.831  1.00  0.00     0.107 A 
ATOM      6  C   UNL     1       8.795   7.846 -14.161  1.00  0.00     0.134 A 
ATOM      7  C   UNL     1       7.853   7.932 -13.128  1.00  0.00     0.093 A 
ATOM      8  C   UNL     1       7.271   9.154 -12.783  1.00  0.00     0.123 A 
ATOM      9  C   UNL     1       7.633  10.312 -13.469  1.00  0.00     0.094 A 
ATOM     10  C   UNL     1       8.596  10.264 -14.481  1.00  0.00     0.146 A 
ATOM     11  O   UNL     1       8.924  11.393 -15.099  1.00  0.00    -0.456 OA
ENDROOT
BRANCH   1  12
ATOM     12  C   UNL     1      10.119  12.779 -16.687  1.00  0.00     0.021 A 
ATOM     13  C   UNL     1      11.008  13.704 -16.106  1.00  0.00     0.016 A 
ATOM     14  C   UNL     1      11.259  14.931 -16.725  1.00  0.00     0.051 A 
ATOM     15  C   UNL     1      10.634  15.252 -17.936  1.00  0.00     0.157 A 
ATOM     16  C   UNL     1       9.507  13.105 -17.910  1.00  0.00     0.062 A 
ATOM     17  C   UNL     1       9.758  14.336 -18.531  1.00  0.00     0.158 A 
BRANCH  15  18
ATOM     18  O   UNL     1      10.881  16.475 -18.556  1.00  0.00    -0.504 OA
ATOM     19  H   UNL     1      11.203  17.281 -18.030  1.00  0.00     0.293 HD
ENDBRANCH  15  18
BRANCH  17  20
ATOM     20  O   UNL     1       9.141  14.658 -19.740  1.00  0.00    -0.504 OA
ATOM     21  H   UNL     1       8.485  14.026 -20.184  1.00  0.00     0.293 HD
ENDBRANCH  17  20
ENDBRANCH   1  12
BRANCH   6  22
ATOM     22  O   UNL     1       9.250   6.565 -14.484  1.00  0.00    -0.507 OA
ATOM     23  H   UNL     1       9.522   5.863 -13.812  1.00  0.00     0.293 HD
ENDBRANCH   6  22
BRANCH   8  24
ATOM     24  O   UNL     1       6.323   9.228 -11.765  1.00  0.00    -0.508 OA
ATOM     25  H   UNL     1       5.401   9.616 -11.926  1.00  0.00     0.293 HD
ENDBRANCH   8  24
TORSDOF 5
ENDMDL
MODEL 2
REMARK VINA RESULT:    -6.860      1.777      7.444
REMARK INTER + INTRA:          -8.326
REMARK INTER:                  -8.062
REMARK INTRA:                  -0.264
REMARK UNBOUND:                -0.262
REMARK SMILES O=c1cc(-c2ccc(O)c(O)c2)oc2cc(O)cc(O)c12
REMARK SMILES IDX 4 1 3 2 2 3 1 4 21 5 19 6 18 7 16 8 15 9 14 10 13 11 5 12
REMARK SMILES IDX 6 13 7 14 8 15 12 16 10 17 9 18 11 20 20 22 17 24
REMARK H PARENT 9 19 11 21 20 23 17 25
REMARK Flexibility Score: inf
ROOT
ATOM      1  C   UNL     1       9.929  12.436 -17.069  1.00  0.00     0.138 A 
ATOM      2  C   UNL     1      10.678  13.516 -16.579  1.00  0.00     0.100 A 
ATOM      3  C   UNL     1      10.704  14.717 -17.290  1.00  0.00     0.197 A 
ATOM      4  O   UNL     1      11.435  15.646 -16.858  1.00  0.00    -0.289 OA
ATOM      5  C   UNL     1       9.951  14.846 -18.481  1.00  0.00     0.107 A 
ATOM      6  C   UNL     1       9.870  16.035 -19.265  1.00  0.00     0.134 A 
ATOM      7  C   UNL     1       9.185  16.010 -20.487  1.00  0.00     0.093 A 
ATOM      8  C   UNL     1       8.529  14.856 -20.922  1.00  0.00     0.123 A 
ATOM      9  C   UNL     1       8.557  13.706 -20.137  1.00  0.00     0.094 A 
ATOM     10  C   UNL     1       9.260  13.689 -18.929  1.00  0.00     0.146 A 
ATOM     11  O   UNL     1       9.274  12.567 -18.218  1.00  0.00    -0.456 OA
ENDROOT
BRANCH   1  12
ATOM     12  C   UNL     1       9.865  11.137 -16.353  1.00  0.00     0.021 A 
ATOM     13  C   UNL     1       8.923  10.900 -15.334  1.00  0.00     0.016 A 
ATOM     14  C   UNL     1       8.879   9.663 -14.684  1.00  0.00     0.051 A 
ATOM     15  C   UNL     1       9.766   8.643 -15.045  1.00  0.00     0.157 A 
ATOM     16  C   UNL     1      10.743  10.102 -16.719  1.00  0.00     0.062 A 
ATOM     17  C   UNL     1      10.699   8.862 -16.066  1.00  0.00     0.158 A 
BRANCH  15  18
ATOM     18  O   UNL     1       9.726   7.409 -14.398  1.00  0.00    -0.504 OA
ATOM     19  H   UNL     1      10.467   6.727 -14.512  1.00  0.00     0.293 HD
ENDBRANCH  15  18
BRANCH  17  20
ATOM     20  O   UNL     1      11.579   7.841 -16.426  1.00  0.00    -0.504 OA
ATOM     21  H   UNL     1      12.055   7.844 -17.320  1.00  0.00     0.293 HD
ENDBRANCH  17  20
ENDBRANCH   1  12
BRANCH   6  22
ATOM     22  O   UNL     1      10.417  17.263 -18.882  1.00  0.00    -0.507 OA
ATOM     23  H   UNL     1      10.991  17.409 -18.066  1.00  0.00     0.293 HD
ENDBRANCH   6  22
BRANCH   8  24
ATOM     24  O   UNL     1       7.838  14.845 -22.131  1.00  0.00    -0.508 OA
ATOM     25  H   UNL     1       8.287  14.569 -22.997  1.00  0.00     0.293 HD
ENDBRANCH   8  24
TORSDOF 5
ENDMDL
MODEL 3
REMARK VINA RESULT:    -6.822      1.540      7.370
REMARK INTER + INTRA:          -8.281
REMARK INTER:                  -8.018
REMARK INTRA:                  -0.263
REMARK UNBOUND:                -0.262
REMARK SMILES O=c1cc(-c2ccc(O)c(O)c2)oc2cc(O)cc(O)c12
REMARK SMILES IDX 4 1 3 2 2 3 1 4 21 5 19 6 18 7 16 8 15 9 14 10 13 11 5 12
REMARK SMILES IDX 6 13 7 14 8 15 12 16 10 17 9 18 11 20 20 22 17 24
REMARK H PARENT 9 19 11 21 20 23 17 25
REMARK Flexibility Score: inf
ROOT
ATOM      1  C   UNL     1       9.951  12.197 -16.919  1.00  0.00     0.138 A 
ATOM      2  C   UNL     1      10.747  13.248 -16.441  1.00  0.00     0.100 A 
ATOM      3  C   UNL     1      10.794  14.453 -17.144  1.00  0.00     0.197 A 
ATOM      4  O   UNL     1      11.565  15.355 -16.725  1.00  0.00    -0.289 OA
ATOM      5  C   UNL     1      10.016  14.615 -18.315  1.00  0.00     0.107 A 
ATOM      6  C   UNL     1       9.953  15.812 -19.089  1.00  0.00     0.134 A 
ATOM      7  C   UNL     1       9.237  15.819 -20.293  1.00  0.00     0.093 A 
ATOM      8  C   UNL     1       8.533  14.690 -20.719  1.00  0.00     0.123 A 
ATOM      9  C   UNL     1       8.544  13.533 -19.942  1.00  0.00     0.094 A 
ATOM     10  C   UNL     1       9.276  13.484 -18.753  1.00  0.00     0.146 A 
ATOM     11  O   UNL     1       9.272  12.357 -18.050  1.00  0.00    -0.456 OA
ENDROOT
BRANCH   1  12
ATOM     12  C   UNL     1       9.863  10.895 -16.211  1.00  0.00     0.021 A 
ATOM     13  C   UNL     1      10.731   9.828 -16.515  1.00  0.00     0.016 A 
ATOM     14  C   UNL     1      10.633   8.617 -15.825  1.00  0.00     0.051 A 
ATOM     15  C   UNL     1       9.675   8.453 -14.817  1.00  0.00     0.157 A 
ATOM     16  C   UNL     1       8.913  10.725 -15.188  1.00  0.00     0.062 A 
ATOM     17  C   UNL     1       8.815   9.510 -14.497  1.00  0.00     0.158 A 
BRANCH  15  18
ATOM     18  O   UNL     1       9.574   7.246 -14.129  1.00  0.00    -0.504 OA
ATOM     19  H   UNL     1       9.608   7.209 -13.116  1.00  0.00     0.293 HD
ENDBRANCH  15  18
BRANCH  17  20
ATOM     20  O   UNL     1       7.864   9.344 -13.490  1.00  0.00    -0.504 OA
ATOM     21  H   UNL     1       7.831   8.503 -12.926  1.00  0.00     0.293 HD
ENDBRANCH  17  20
ENDBRANCH   1  12
BRANCH   6  22
ATOM     22  O   UNL     1      10.549  17.019 -18.712  1.00  0.00    -0.507 OA
ATOM     23  H   UNL     1      10.747  17.291 -17.761  1.00  0.00     0.293 HD
ENDBRANCH   6  22
BRANCH   8  24
ATOM     24  O   UNL     1       7.812  14.710 -21.910  1.00  0.00    -0.508 OA
ATOM     25  H   UNL     1       8.183  15.143 -22.748  1.00  0.00     0.293 HD
ENDBRANCH   8  24
TORSDOF 5
ENDMDL
MODEL 4
REMARK VINA RESULT:    -6.722      2.666      7.873
REMARK INTER + INTRA:          -8.163
REMARK INTER:                  -7.898
REMARK INTRA:                  -0.266
REMARK UNBOUND:                -0.262
REMARK SMILES O=c1cc(-c2ccc(O)c(O)c2)oc2cc(O)cc(O)c12
REMARK SMILES IDX 4 1 3 2 2 3 1 4 21 5 19 6 18 7 16 8 15 9 14 10 13 11 5 12
REMARK SMILES IDX 6 13 7 14 8 15 12 16 10 17 9 18 11 20 20 22 17 24
REMARK H PARENT 9 19 11 21 20 23 17 25
REMARK Flexibility Score: inf
ROOT
ATOM      1  C   UNL     1       9.406  12.319 -18.236  1.00  0.00     0.138 A 
ATOM      2  C   UNL     1      10.002  13.325 -17.462  1.00  0.00     0.100 A 
ATOM      3  C   UNL     1      10.103  14.620 -17.972  1.00  0.00     0.197 A 
ATOM      4  O   UNL     1      10.698  15.487 -17.281  1.00  0.00    -0.289 OA
ATOM      5  C   UNL     1       9.577  14.915 -19.253  1.00  0.00     0.107 A 
ATOM      6  C   UNL     1       9.587  16.207 -19.858  1.00  0.00     0.134 A 
ATOM      7  C   UNL     1       9.141  16.355 -21.177  1.00  0.00     0.093 A 
ATOM      8  C   UNL     1       8.630  15.268 -21.891  1.00  0.00     0.123 A 
ATOM      9  C   UNL     1       8.566  14.013 -21.290  1.00  0.00     0.094 A 
ATOM     10  C   UNL     1       9.035  13.826 -19.987  1.00  0.00     0.146 A 
ATOM     11  O   UNL     1       8.969  12.610 -19.457  1.00  0.00    -0.456 OA
ENDROOT
BRANCH   1  12
ATOM     12  C   UNL     1       9.271  10.925 -17.742  1.00  0.00     0.021 A 
ATOM     13  C   UNL     1       8.011  10.326 -17.556  1.00  0.00     0.016 A 
ATOM     14  C   UNL     1       7.914   9.008 -17.100  1.00  0.00     0.051 A 
ATOM     15  C   UNL     1       9.070   8.267 -16.829  1.00  0.00     0.157 A 
ATOM     16  C   UNL     1      10.427  10.169 -17.480  1.00  0.00     0.062 A 
ATOM     17  C   UNL     1      10.329   8.848 -17.021  1.00  0.00     0.158 A 
BRANCH  15  18
ATOM     18  O   UNL     1       8.977   6.954 -16.372  1.00  0.00    -0.504 OA
ATOM     19  H   UNL     1       8.383   6.706 -15.588  1.00  0.00     0.293 HD
ENDBRANCH  15  18
BRANCH  17  20
ATOM     20  O   UNL     1      11.479   8.105 -16.754  1.00  0.00    -0.504 OA
ATOM     21  H   UNL     1      12.315   8.202 -17.318  1.00  0.00     0.293 HD
ENDBRANCH  17  20
ENDBRANCH   1  12
BRANCH   6  22
ATOM     22  O   UNL     1       9.997  17.373 -19.204  1.00  0.00    -0.507 OA
ATOM     23  H   UNL     1       9.380  18.116 -18.910  1.00  0.00     0.293 HD
ENDBRANCH   6  22
BRANCH   8  24
ATOM     24  O   UNL     1       8.175  15.428 -23.198  1.00  0.00    -0.508 OA
ATOM     25  H   UNL     1       7.381  16.019 -23.415  1.00  0.00     0.293 HD
ENDBRANCH   8  24
TORSDOF 5
ENDMDL
MODEL 5
REMARK VINA RESULT:    -6.640      2.506      3.756
REMARK INTER + INTRA:          -8.067
REMARK INTER:                  -7.750
REMARK INTRA:                  -0.317
REMARK UNBOUND:                -0.262
REMARK SMILES O=c1cc(-c2ccc(O)c(O)c2)oc2cc(O)cc(O)c12
REMARK SMILES IDX 4 1 3 2 2 3 1 4 21 5 19 6 18 7 16 8 15 9 14 10 13 11 5 12
REMARK SMILES IDX 6 13 7 14 8 15 12 16 10 17 9 18 11 20 20 22 17 24
REMARK H PARENT 9 19 11 21 20 23 17 25
REMARK Flexibility Score: inf
ROOT
ATOM      1  C   UNL     1       8.931  13.302 -18.699  1.00  0.00     0.138 A 
ATOM      2  C   UNL     1       9.415  12.025 -19.017  1.00  0.00     0.100 A 
ATOM      3  C   UNL     1       9.561  11.071 -18.009  1.00  0.00     0.197 A 
ATOM      4  O   UNL     1      10.056   9.956 -18.314  1.00  0.00    -0.289 OA
ATOM      5  C   UNL     1       9.190  11.390 -16.680  1.00  0.00     0.107 A 
ATOM      6  C   UNL     1       9.257  10.485 -15.580  1.00  0.00     0.134 A 
ATOM      7  C   UNL     1       8.973  10.946 -14.288  1.00  0.00     0.093 A 
ATOM      8  C   UNL     1       8.567  12.265 -14.067  1.00  0.00     0.123 A 
ATOM      9  C   UNL     1       8.446  13.142 -15.143  1.00  0.00     0.094 A 
ATOM     10  C   UNL     1       8.756  12.720 -16.439  1.00  0.00     0.146 A 
ATOM     11  O   UNL     1       8.641  13.593 -17.435  1.00  0.00    -0.456 OA
ENDROOT
BRANCH   1  12
ATOM     12  C   UNL     1       8.756  14.354 -19.732  1.00  0.00     0.021 A 
ATOM     13  C   UNL     1       8.837  14.061 -21.107  1.00  0.00     0.016 A 
ATOM     14  C   UNL     1       8.657  15.069 -22.059  1.00  0.00     0.051 A 
ATOM     15  C   UNL     1       8.386  16.382 -21.655  1.00  0.00     0.157 A 
ATOM     16  C   UNL     1       8.470  15.673 -19.336  1.00  0.00     0.062 A 
ATOM     17  C   UNL     1       8.291  16.684 -20.291  1.00  0.00     0.158 A 
BRANCH  15  18
ATOM     18  O   UNL     1       8.208  17.389 -22.600  1.00  0.00    -0.504 OA
ATOM     19  H   UNL     1       8.536  17.285 -23.554  1.00  0.00     0.293 HD
ENDBRANCH  15  18
BRANCH  17  20
ATOM     20  O   UNL     1       8.017  17.992 -19.892  1.00  0.00    -0.504 OA
ATOM     21  H   UNL     1       8.320  18.787 -20.442  1.00  0.00     0.293 HD
ENDBRANCH  17  20
ENDBRANCH   1  12
BRANCH   6  22
ATOM     22  O   UNL     1       9.569   9.128 -15.701  1.00  0.00    -0.507 OA
ATOM     23  H   UNL     1      10.318   8.757 -16.266  1.00  0.00     0.293 HD
ENDBRANCH   6  22
BRANCH   8  24
ATOM     24  O   UNL     1       8.271  12.712 -12.781  1.00  0.00    -0.508 OA
ATOM     25  H   UNL     1       8.976  12.735 -12.053  1.00  0.00     0.293 HD
ENDBRANCH   8  24
TORSDOF 5
ENDMDL
MODEL 6
REMARK VINA RESULT:    -6.601      3.466      6.195
REMARK INTER + INTRA:          -8.020
REMARK INTER:                  -7.740
REMARK INTRA:                  -0.281
REMARK UNBOUND:                -0.262
REMARK SMILES O=c1cc(-c2ccc(O)c(O)c2)oc2cc(O)cc(O)c12
REMARK SMILES IDX 4 1 3 2 2 3 1 4 21 5 19 6 18 7 16 8 15 9 14 10 13 11 5 12
REMARK SMILES IDX 6 13 7 14 8 15 12 16 10 17 9 18 11 20 20 22 17 24
REMARK H PARENT 9 19 11 21 20 23 17 25
REMARK Flexibility Score: inf
ROOT
ATOM      1  C   UNL     1       8.575  16.083 -18.322  1.00  0.00     0.138 A 
ATOM      2  C   UNL     1       8.599  15.888 -19.711  1.00  0.00     0.100 A 
ATOM      3  C   UNL     1       8.884  14.622 -20.225  1.00  0.00     0.197 A 
ATOM      4  O   UNL     1       8.960  14.492 -21.474  1.00  0.00    -0.289 OA
ATOM      5  C   UNL     1       9.116  13.540 -19.343  1.00  0.00     0.107 A 
ATOM      6  C   UNL     1       9.375  12.199 -19.753  1.00  0.00     0.134 A 
ATOM      7  C   UNL     1       9.704  11.234 -18.792  1.00  0.00     0.093 A 
ATOM      8  C   UNL     1       9.723  11.550 -17.432  1.00  0.00     0.123 A 
ATOM      9  C   UNL     1       9.419  12.845 -17.017  1.00  0.00     0.094 A 
ATOM     10  C   UNL     1       9.120  13.837 -17.954  1.00  0.00     0.146 A 
ATOM     11  O   UNL     1       8.850  15.063 -17.517  1.00  0.00    -0.456 OA
ENDROOT
BRANCH   1  12
ATOM     12  C   UNL     1       8.277  17.408 -17.722  1.00  0.00     0.021 A 
ATOM     13  C   UNL     1       7.547  17.529 -16.523  1.00  0.00     0.016 A 
ATOM     14  C   UNL     1       7.290  18.788 -15.974  1.00  0.00     0.051 A 
ATOM     15  C   UNL     1       7.762  19.945 -16.607  1.00  0.00     0.157 A 
ATOM     16  C   UNL     1       8.759  18.574 -18.342  1.00  0.00     0.062 A 
ATOM     17  C   UNL     1       8.500  19.837 -17.792  1.00  0.00     0.158 A 
BRANCH  15  18
ATOM     18  O   UNL     1       7.506  21.202 -16.063  1.00  0.00    -0.504 OA
ATOM     19  H   UNL     1       7.100  21.307 -15.140  1.00  0.00     0.293 HD
ENDBRANCH  15  18
BRANCH  17  20
ATOM     20  O   UNL     1       8.973  20.991 -18.417  1.00  0.00    -0.504 OA
ATOM     21  H   UNL     1       9.358  20.966 -19.353  1.00  0.00     0.293 HD
ENDBRANCH  17  20
ENDBRANCH   1  12
BRANCH   6  22
ATOM     22  O   UNL     1       9.298  11.758 -21.077  1.00  0.00    -0.507 OA
ATOM     23  H   UNL     1       8.446  11.687 -21.613  1.00  0.00     0.293 HD
ENDBRANCH   6  22
BRANCH   8  24
ATOM     24  O   UNL     1      10.036  10.581 -16.481  1.00  0.00    -0.508 OA
ATOM     25  H   UNL     1      10.960  10.522 -16.069  1.00  0.00     0.293 HD
ENDBRANCH   8  24
TORSDOF 5
ENDMDL
MODEL 7
REMARK VINA RESULT:    -6.529      2.000      7.231
REMARK INTER + INTRA:          -7.936
REMARK INTER:                  -7.619
REMARK INTRA:                  -0.317
REMARK UNBOUND:                -0.262
REMARK SMILES O=c1cc(-c2ccc(O)c(O)c2)oc2cc(O)cc(O)c12
REMARK SMILES IDX 4 1 3 2 2 3 1 4 21 5 19 6 18 7 16 8 15 9 14 10 13 11 5 12
REMARK SMILES IDX 6 13 7 14 8 15 12 16 10 17 9 18 11 20 20 22 17 24
REMARK H PARENT 9 19 11 21 20 23 17 25
REMARK Flexibility Score: inf
ROOT
ATOM      1  C   UNL     1       8.167  10.908 -14.834  1.00  0.00     0.138 A 
ATOM      2  C   UNL     1       8.718  12.106 -14.357  1.00  0.00     0.100 A 
ATOM      3  C   UNL     1       9.238  13.035 -15.260  1.00  0.00     0.197 A 
ATOM      4  O   UNL     1       9.781  14.072 -14.798  1.00  0.00    -0.289 OA
ATOM      5  C   UNL     1       9.179  12.774 -16.650  1.00  0.00     0.107 A 
ATOM      6  C   UNL     1       9.640  13.666 -17.663  1.00  0.00     0.134 A 
ATOM      7  C   UNL     1       9.635  13.251 -19.001  1.00  0.00     0.093 A 
ATOM      8  C   UNL     1       9.129  12.001 -19.367  1.00  0.00     0.123 A 
ATOM      9  C   UNL     1       8.626  11.145 -18.389  1.00  0.00     0.094 A 
ATOM     10  C   UNL     1       8.649  11.516 -17.042  1.00  0.00     0.146 A 
ATOM     11  O   UNL     1       8.172  10.664 -16.141  1.00  0.00    -0.456 OA
ENDROOT
BRANCH   1  12
ATOM     12  C   UNL     1       7.599   9.887 -13.919  1.00  0.00     0.021 A 
ATOM     13  C   UNL     1       7.378  10.158 -12.555  1.00  0.00     0.016 A 
ATOM     14  C   UNL     1       6.832   9.181 -11.718  1.00  0.00     0.051 A 
ATOM     15  C   UNL     1       6.491   7.923 -12.229  1.00  0.00     0.157 A 
ATOM     16  C   UNL     1       7.241   8.625 -14.426  1.00  0.00     0.062 A 
ATOM     17  C   UNL     1       6.694   7.645 -13.586  1.00  0.00     0.158 A 
BRANCH  15  18
ATOM     18  O   UNL     1       5.948   6.946 -11.397  1.00  0.00    -0.504 OA
ATOM     19  H   UNL     1       5.970   7.037 -10.387  1.00  0.00     0.293 HD
ENDBRANCH  15  18
BRANCH  17  20
ATOM     20  O   UNL     1       6.349   6.392 -14.092  1.00  0.00    -0.504 OA
ATOM     21  H   UNL     1       7.054   5.741 -14.418  1.00  0.00     0.293 HD
ENDBRANCH  17  20
ENDBRANCH   1  12
BRANCH   6  22
ATOM     22  O   UNL     1      10.086  14.967 -17.416  1.00  0.00    -0.507 OA
ATOM     23  H   UNL     1      10.102  15.408 -16.509  1.00  0.00     0.293 HD
ENDBRANCH   6  22
BRANCH   8  24
ATOM     24  O   UNL     1       9.114  11.603 -20.701  1.00  0.00    -0.508 OA
ATOM     25  H   UNL     1       8.496  10.870 -21.029  1.00  0.00     0.293 HD
ENDBRANCH   8  24
TORSDOF 5
ENDMDL
MODEL 8
REMARK VINA RESULT:    -6.490      2.005      7.386
REMARK INTER + INTRA:          -7.890
REMARK INTER:                  -7.627
REMARK INTRA:                  -0.263
REMARK UNBOUND:                -0.262
REMARK SMILES O=c1cc(-c2ccc(O)c(O)c2)oc2cc(O)cc(O)c12
REMARK SMILES IDX 4 1 3 2 2 3 1 4 21 5 19 6 18 7 16 8 15 9 14 10 13 11 5 12
REMARK SMILES IDX 6 13 7 14 8 15 12 16 10 17 9 18 11 20 20 22 17 24
REMARK H PARENT 9 19 11 21 20 23 17 25
REMARK Flexibility Score: inf
ROOT
ATOM      1  C   UNL     1       8.990  11.797 -17.917  1.00  0.00     0.138 A 
ATOM      2  C   UNL     1       8.159  11.547 -19.018  1.00  0.00     0.100 A 
ATOM      3  C   UNL     1       7.932  12.556 -19.956  1.00  0.00     0.197 A 
ATOM      4  O   UNL     1       7.132  12.322 -20.899  1.00  0.00    -0.289 OA
ATOM      5  C   UNL     1       8.566  13.812 -19.805  1.00  0.00     0.107 A 
ATOM      6  C   UNL     1       8.441  14.900 -20.719  1.00  0.00     0.134 A 
ATOM      7  C   UNL     1       9.023  16.135 -20.406  1.00  0.00     0.093 A 
ATOM      8  C   UNL     1       9.776  16.302 -19.241  1.00  0.00     0.123 A 
ATOM      9  C   UNL     1       9.950  15.230 -18.368  1.00  0.00     0.094 A 
ATOM     10  C   UNL     1       9.353  13.995 -18.636  1.00  0.00     0.146 A 
ATOM     11  O   UNL     1       9.531  13.002 -17.771  1.00  0.00    -0.456 OA
ENDROOT
BRANCH   1  12
ATOM     12  C   UNL     1       9.267  10.760 -16.891  1.00  0.00     0.021 A 
ATOM     13  C   UNL     1       8.509  10.672 -15.707  1.00  0.00     0.016 A 
ATOM     14  C   UNL     1       8.784   9.678 -14.763  1.00  0.00     0.051 A 
ATOM     15  C   UNL     1       9.812   8.755 -14.988  1.00  0.00     0.157 A 
ATOM     16  C   UNL     1      10.288   9.820 -17.114  1.00  0.00     0.062 A 
ATOM     17  C   UNL     1      10.564   8.825 -16.166  1.00  0.00     0.158 A 
BRANCH  15  18
ATOM     18  O   UNL     1      10.090   7.765 -14.048  1.00  0.00    -0.504 OA
ATOM     19  H   UNL     1       9.455   6.990 -13.890  1.00  0.00     0.293 HD
ENDBRANCH  15  18
BRANCH  17  20
ATOM     20  O   UNL     1      11.585   7.901 -16.389  1.00  0.00    -0.504 OA
ATOM     21  H   UNL     1      12.424   8.151 -16.899  1.00  0.00     0.293 HD
ENDBRANCH  17  20
ENDBRANCH   1  12
BRANCH   6  22
ATOM     22  O   UNL     1       7.783  14.815 -21.949  1.00  0.00    -0.507 OA
ATOM     23  H   UNL     1       6.782  14.834 -22.070  1.00  0.00     0.293 HD
ENDBRANCH   6  22
BRANCH   8  24
ATOM     24  O   UNL     1      10.365  17.529 -18.945  1.00  0.00    -0.508 OA
ATOM     25  H   UNL     1      11.365  17.670 -19.023  1.00  0.00     0.293 HD
ENDBRANCH   8  24
TORSDOF 5
ENDMDL
MODEL 9
REMARK VINA RESULT:    -6.434      1.498      7.246
REMARK INTER + INTRA:          -7.824
REMARK INTER:                  -7.555
REMARK INTRA:                  -0.269
REMARK UNBOUND:                -0.262
REMARK SMILES O=c1cc(-c2ccc(O)c(O)c2)oc2cc(O)cc(O)c12
REMARK SMILES IDX 4 1 3 2 2 3 1 4 21 5 19 6 18 7 16 8 15 9 14 10 13 11 5 12
REMARK SMILES IDX 6 13 7 14 8 15 12 16 10 17 9 18 11 20 20 22 17 24
REMARK H PARENT 9 19 11 21 20 23 17 25
REMARK Flexibility Score: inf
ROOT
ATOM      1  C   UNL     1       9.416  12.265 -16.281  1.00  0.00     0.138 A 
ATOM      2  C   UNL     1      10.407  13.195 -15.937  1.00  0.00     0.100 A 
ATOM      3  C   UNL     1      10.650  14.286 -16.772  1.00  0.00     0.197 A 
ATOM      4  O   UNL     1      11.587  15.069 -16.469  1.00  0.00    -0.289 OA
ATOM      5  C   UNL     1       9.874  14.462 -17.942  1.00  0.00     0.107 A 
ATOM      6  C   UNL     1      10.005  15.558 -18.846  1.00  0.00     0.134 A 
ATOM      7  C   UNL     1       9.261  15.568 -20.033  1.00  0.00     0.093 A 
ATOM      8  C   UNL     1       8.347  14.550 -20.318  1.00  0.00     0.123 A 
ATOM      9  C   UNL     1       8.172  13.503 -19.415  1.00  0.00     0.094 A 
ATOM     10  C   UNL     1       8.925  13.448 -18.239  1.00  0.00     0.146 A 
ATOM     11  O   UNL     1       8.738  12.425 -17.413  1.00  0.00    -0.456 OA
ENDROOT
BRANCH   1  12
ATOM     12  C   UNL     1       9.116  11.087 -15.428  1.00  0.00     0.021 A 
ATOM     13  C   UNL     1       8.286  11.187 -14.295  1.00  0.00     0.016 A 
ATOM     14  C   UNL     1       8.011  10.059 -13.516  1.00  0.00     0.051 A 
ATOM     15  C   UNL     1       8.553   8.814 -13.859  1.00  0.00     0.157 A 
ATOM     16  C   UNL     1       9.644   9.830 -15.773  1.00  0.00     0.062 A 
ATOM     17  C   UNL     1       9.369   8.699 -14.990  1.00  0.00     0.158 A 
BRANCH  15  18
ATOM     18  O   UNL     1       8.283   7.688 -13.084  1.00  0.00    -0.504 OA
ATOM     19  H   UNL     1       8.522   6.756 -13.403  1.00  0.00     0.293 HD
ENDBRANCH  15  18
BRANCH  17  20
ATOM     20  O   UNL     1       9.904   7.457 -15.332  1.00  0.00    -0.504 OA
ATOM     21  H   UNL     1       9.326   6.626 -15.376  1.00  0.00     0.293 HD
ENDBRANCH  17  20
ENDBRANCH   1  12
BRANCH   6  22
ATOM     22  O   UNL     1      10.825  16.667 -18.617  1.00  0.00    -0.507 OA
ATOM     23  H   UNL     1      11.793  16.620 -18.337  1.00  0.00     0.293 HD
ENDBRANCH   6  22
BRANCH   8  24
ATOM     24  O   UNL     1       7.599  14.574 -21.493  1.00  0.00    -0.508 OA
ATOM     25  H   UNL     1       7.688  13.847 -22.193  1.00  0.00     0.293 HD
ENDBRANCH   8  24
TORSDOF 5
ENDMDL
