MODEL 1
REMARK VINA RESULT:    -6.686      0.000      0.000
REMARK INTER + INTRA:         -12.171
REMARK INTER:                 -11.377
REMARK INTRA:                  -0.794
REMARK UNBOUND:                -0.794
REMARK SMILES CCCCCCCCCCCCCC(=O)[O-]
REMARK SMILES IDX 8 1 9 2 10 3 11 4 12 5 13 6 14 7 15 8 16 9 7 10 6 11 5 12
REMARK SMILES IDX 4 13 3 14 2 15 1 16
REMARK H PARENT
REMARK Flexibility Score: inf
ROOT
ATOM      1  C   UNL     1     -22.279 -22.087  31.275  1.00  0.00     0.000 C 
ENDROOT
BRANCH   1   2
ATOM      2  C   UNL     1     -22.384 -20.906  30.290  1.00  0.00     0.000 C 
BRANCH   2   3
ATOM      3  C   UNL     1     -21.248 -19.881  30.460  1.00  0.00     0.000 C 
BRANCH   3   4
ATOM      4  C   UNL     1     -20.718 -19.361  29.114  1.00  0.00     0.000 C 
BRANCH   4   5
ATOM      5  C   UNL     1     -20.639 -17.826  29.062  1.00  0.00     0.006 C 
BRANCH   5   6
ATOM      6  C   UNL     1     -19.192 -17.324  28.961  1.00  0.00     0.053 C 
BRANCH   6   7
ATOM      7  C   UNL     1     -18.716 -16.726  30.249  1.00  0.00     0.041 C 
ATOM      8  O   UNL     1     -19.009 -17.270  31.346  1.00  0.00    -0.550 OA
ATOM      9  O   UNL     1     -17.976 -15.551  30.240  1.00  0.00    -0.550 OA
ENDBRANCH   6   7
ENDBRANCH   5   6
ENDBRANCH   4   5
ENDBRANCH   3   4
ENDBRANCH   2   3
ENDBRANCH   1   2
BRANCH   1  10
ATOM     10  C   UNL     1     -22.318 -23.487  30.634  1.00  0.00     0.000 C 
BRANCH  10  11
ATOM     11  C   UNL     1     -22.097 -23.457  29.113  1.00  0.00    -0.000 C 
BRANCH  11  12
ATOM     12  C   UNL     1     -22.778 -24.630  28.383  1.00  0.00    -0.000 C 
BRANCH  12  13
ATOM     13  C   UNL     1     -24.027 -25.201  29.080  1.00  0.00    -0.000 C 
BRANCH  13  14
ATOM     14  C   UNL     1     -23.990 -26.729  29.225  1.00  0.00    -0.000 C 
BRANCH  14  15
ATOM     15  C   UNL     1     -24.971 -27.203  30.303  1.00  0.00    -0.003 C 
ATOM     16  C   UNL     1     -25.210 -26.116  31.347  1.00  0.00     0.004 C 
ENDBRANCH  14  15
ENDBRANCH  13  14
ENDBRANCH  12  13
ENDBRANCH  11  12
ENDBRANCH  10  11
ENDBRANCH   1  10
TORSDOF 12
ENDMDL
MODEL 2
REMARK VINA RESULT:    -6.674      1.257      2.085
REMARK INTER + INTRA:         -12.150
REMARK INTER:                 -11.220
REMARK INTRA:                  -0.930
REMARK UNBOUND:                -0.794
REMARK SMILES CCCCCCCCCCCCCC(=O)[O-]
REMARK SMILES IDX 8 1 9 2 10 3 11 4 12 5 13 6 14 7 15 8 16 9 7 10 6 11 5 12
REMARK SMILES IDX 4 13 3 14 2 15 1 16
REMARK H PARENT
REMARK Flexibility Score: inf
ROOT
ATOM      1  C   UNL     1     -22.008 -22.201  28.367  1.00  0.00     0.000 C 
ENDROOT
BRANCH   1   2
ATOM      2  C   UNL     1     -22.391 -20.817  28.926  1.00  0.00     0.000 C 
BRANCH   2   3
ATOM      3  C   UNL     1     -21.219 -19.819  28.909  1.00  0.00     0.000 C 
BRANCH   3   4
ATOM      4  C   UNL     1     -20.809 -19.370  30.321  1.00  0.00     0.000 C 
BRANCH   4   5
ATOM      5  C   UNL     1     -20.153 -17.978  30.332  1.00  0.00     0.006 C 
BRANCH   5   6
ATOM      6  C   UNL     1     -19.886 -17.454  28.914  1.00  0.00     0.053 C 
BRANCH   6   7
ATOM      7  C   UNL     1     -18.580 -16.726  28.824  1.00  0.00     0.041 C 
ATOM      8  O   UNL     1     -17.866 -16.831  27.793  1.00  0.00    -0.550 OA
ATOM      9  O   UNL     1     -18.136 -15.956  29.892  1.00  0.00    -0.550 OA
ENDBRANCH   6   7
ENDBRANCH   5   6
ENDBRANCH   4   5
ENDBRANCH   3   4
ENDBRANCH   2   3
ENDBRANCH   1   2
BRANCH   1  10
ATOM     10  C   UNL     1     -22.047 -23.357  29.384  1.00  0.00     0.000 C 
BRANCH  10  11
ATOM     11  C   UNL     1     -22.283 -22.880  30.827  1.00  0.00    -0.000 C 
BRANCH  11  12
ATOM     12  C   UNL     1     -23.365 -23.697  31.560  1.00  0.00    -0.000 C 
BRANCH  12  13
ATOM     13  C   UNL     1     -23.523 -25.153  31.085  1.00  0.00    -0.000 C 
BRANCH  13  14
ATOM     14  C   UNL     1     -24.984 -25.548  30.829  1.00  0.00    -0.000 C 
BRANCH  14  15
ATOM     15  C   UNL     1     -25.181 -26.016  29.383  1.00  0.00    -0.003 C 
ATOM     16  C   UNL     1     -23.864 -26.484  28.770  1.00  0.00     0.004 C 
ENDBRANCH  14  15
ENDBRANCH  13  14
ENDBRANCH  12  13
ENDBRANCH  11  12
ENDBRANCH  10  11
ENDBRANCH   1  10
TORSDOF 12
ENDMDL
MODEL 3
REMARK VINA RESULT:    -6.653      4.443      8.829
REMARK INTER + INTRA:         -12.114
REMARK INTER:                 -11.507
REMARK INTRA:                  -0.607
REMARK UNBOUND:                -0.794
REMARK SMILES CCCCCCCCCCCCCC(=O)[O-]
REMARK SMILES IDX 8 1 9 2 10 3 11 4 12 5 13 6 14 7 15 8 16 9 7 10 6 11 5 12
REMARK SMILES IDX 4 13 3 14 2 15 1 16
REMARK H PARENT
REMARK Flexibility Score: inf
ROOT
ATOM      1  C   UNL     1     -22.739 -22.621  31.449  1.00  0.00     0.000 C 
ENDROOT
BRANCH   1   2
ATOM      2  C   UNL     1     -22.644 -23.963  30.698  1.00  0.00     0.000 C 
BRANCH   2   3
ATOM      3  C   UNL     1     -22.557 -23.791  29.171  1.00  0.00     0.000 C 
BRANCH   3   4
ATOM      4  C   UNL     1     -23.145 -24.989  28.409  1.00  0.00     0.000 C 
BRANCH   4   5
ATOM      5  C   UNL     1     -23.499 -26.165  29.336  1.00  0.00     0.006 C 
BRANCH   5   6
ATOM      6  C   UNL     1     -24.975 -26.570  29.218  1.00  0.00     0.053 C 
BRANCH   6   7
ATOM      7  C   UNL     1     -25.474 -27.234  30.465  1.00  0.00     0.041 C 
ATOM      8  O   UNL     1     -26.116 -28.315  30.393  1.00  0.00    -0.550 OA
ATOM      9  O   UNL     1     -25.257 -26.645  31.703  1.00  0.00    -0.550 OA
ENDBRANCH   6   7
ENDBRANCH   5   6
ENDBRANCH   4   5
ENDBRANCH   3   4
ENDBRANCH   2   3
ENDBRANCH   1   2
BRANCH   1  10
ATOM     10  C   UNL     1     -22.140 -21.408  30.713  1.00  0.00     0.000 C 
BRANCH  10  11
ATOM     11  C   UNL     1     -21.066 -20.678  31.535  1.00  0.00    -0.000 C 
BRANCH  11  12
ATOM     12  C   UNL     1     -20.663 -19.321  30.927  1.00  0.00    -0.000 C 
BRANCH  12  13
ATOM     13  C   UNL     1     -20.803 -19.219  29.397  1.00  0.00    -0.000 C 
BRANCH  13  14
ATOM     14  C   UNL     1     -20.337 -17.868  28.838  1.00  0.00    -0.000 C 
BRANCH  14  15
ATOM     15  C   UNL     1     -18.809 -17.750  28.888  1.00  0.00    -0.003 C 
ATOM     16  C   UNL     1     -18.332 -16.474  28.200  1.00  0.00     0.004 C 
ENDBRANCH  14  15
ENDBRANCH  13  14
ENDBRANCH  12  13
ENDBRANCH  11  12
ENDBRANCH  10  11
ENDBRANCH   1  10
TORSDOF 12
ENDMDL
MODEL 4
REMARK VINA RESULT:    -6.624      5.147      9.035
REMARK INTER + INTRA:         -12.065
REMARK INTER:                 -11.237
REMARK INTRA:                  -0.828
REMARK UNBOUND:                -0.794
REMARK SMILES CCCCCCCCCCCCCC(=O)[O-]
REMARK SMILES IDX 8 1 9 2 10 3 11 4 12 5 13 6 14 7 15 8 16 9 7 10 6 11 5 12
REMARK SMILES IDX 4 13 3 14 2 15 1 16
REMARK H PARENT
REMARK Flexibility Score: inf
ROOT
ATOM      1  C   UNL     1     -22.108 -22.210  28.373  1.00  0.00     0.000 C 
ENDROOT
BRANCH   1   2
ATOM      2  C   UNL     1     -21.909 -23.575  29.060  1.00  0.00     0.000 C 
BRANCH   2   3
ATOM      3  C   UNL     1     -23.018 -24.585  28.718  1.00  0.00     0.000 C 
BRANCH   3   4
ATOM      4  C   UNL     1     -23.645 -25.219  29.971  1.00  0.00     0.000 C 
BRANCH   4   5
ATOM      5  C   UNL     1     -25.066 -25.750  29.717  1.00  0.00     0.006 C 
BRANCH   5   6
ATOM      6  C   UNL     1     -25.086 -26.870  28.669  1.00  0.00     0.053 C 
BRANCH   6   7
ATOM      7  C   UNL     1     -26.046 -27.961  29.034  1.00  0.00     0.041 C 
ATOM      8  O   UNL     1     -26.171 -28.319  30.235  1.00  0.00    -0.550 OA
ATOM      9  O   UNL     1     -26.780 -28.603  28.045  1.00  0.00    -0.550 OA
ENDBRANCH   6   7
ENDBRANCH   5   6
ENDBRANCH   4   5
ENDBRANCH   3   4
ENDBRANCH   2   3
ENDBRANCH   1   2
BRANCH   1  10
ATOM     10  C   UNL     1     -22.229 -21.004  29.324  1.00  0.00     0.000 C 
BRANCH  10  11
ATOM     11  C   UNL     1     -22.080 -21.390  30.805  1.00  0.00    -0.000 C 
BRANCH  11  12
ATOM     12  C   UNL     1     -20.997 -20.571  31.533  1.00  0.00    -0.000 C 
BRANCH  12  13
ATOM     13  C   UNL     1     -20.851 -19.112  31.064  1.00  0.00    -0.000 C 
BRANCH  13  14
ATOM     14  C   UNL     1     -19.388 -18.677  30.896  1.00  0.00    -0.000 C 
BRANCH  14  15
ATOM     15  C   UNL     1     -19.148 -18.083  29.503  1.00  0.00    -0.003 C 
ATOM     16  C   UNL     1     -20.463 -17.871  28.759  1.00  0.00     0.004 C 
ENDBRANCH  14  15
ENDBRANCH  13  14
ENDBRANCH  12  13
ENDBRANCH  11  12
ENDBRANCH  10  11
ENDBRANCH   1  10
TORSDOF 12
ENDMDL
MODEL 5
REMARK VINA RESULT:    -6.623      4.631      8.454
REMARK INTER + INTRA:         -12.064
REMARK INTER:                 -11.079
REMARK INTRA:                  -0.985
REMARK UNBOUND:                -0.794
REMARK SMILES CCCCCCCCCCCCCC(=O)[O-]
REMARK SMILES IDX 8 1 9 2 10 3 11 4 12 5 13 6 14 7 15 8 16 9 7 10 6 11 5 12
REMARK SMILES IDX 4 13 3 14 2 15 1 16
REMARK H PARENT
REMARK Flexibility Score: inf
ROOT
ATOM      1  C   UNL     1     -21.648 -21.960  31.291  1.00  0.00     0.000 C 
ENDROOT
BRANCH   1   2
ATOM      2  C   UNL     1     -22.949 -22.734  31.578  1.00  0.00     0.000 C 
BRANCH   2   3
ATOM      3  C   UNL     1     -22.919 -24.176  31.041  1.00  0.00     0.000 C 
BRANCH   3   4
ATOM      4  C   UNL     1     -22.577 -24.241  29.544  1.00  0.00     0.000 C 
BRANCH   4   5
ATOM      5  C   UNL     1     -23.498 -25.197  28.767  1.00  0.00     0.006 C 
BRANCH   5   6
ATOM      6  C   UNL     1     -24.841 -25.411  29.478  1.00  0.00     0.053 C 
BRANCH   6   7
ATOM      7  C   UNL     1     -25.167 -26.866  29.630  1.00  0.00     0.041 C 
ATOM      8  O   UNL     1     -24.938 -27.456  30.719  1.00  0.00    -0.550 OA
ATOM      9  O   UNL     1     -25.694 -27.577  28.560  1.00  0.00    -0.550 OA
ENDBRANCH   6   7
ENDBRANCH   5   6
ENDBRANCH   4   5
ENDBRANCH   3   4
ENDBRANCH   2   3
ENDBRANCH   1   2
BRANCH   1  10
ATOM     10  C   UNL     1     -21.837 -20.537  30.732  1.00  0.00     0.000 C 
BRANCH  10  11
ATOM     11  C   UNL     1     -22.201 -20.522  29.239  1.00  0.00    -0.000 C 
BRANCH  11  12
ATOM     12  C   UNL     1     -21.311 -19.573  28.412  1.00  0.00    -0.000 C 
BRANCH  12  13
ATOM     13  C   UNL     1     -20.078 -19.021  29.150  1.00  0.00    -0.000 C 
BRANCH  13  14
ATOM     14  C   UNL     1     -20.092 -17.492  29.285  1.00  0.00    -0.000 C 
BRANCH  14  15
ATOM     15  C   UNL     1     -19.318 -17.043  30.529  1.00  0.00    -0.003 C 
ATOM     16  C   UNL     1     -18.834 -18.241  31.340  1.00  0.00     0.004 C 
ENDBRANCH  14  15
ENDBRANCH  13  14
ENDBRANCH  12  13
ENDBRANCH  11  12
ENDBRANCH  10  11
ENDBRANCH   1  10
TORSDOF 12
ENDMDL
MODEL 6
REMARK VINA RESULT:    -6.586      1.529      2.506
REMARK INTER + INTRA:         -12.001
REMARK INTER:                 -11.164
REMARK INTRA:                  -0.836
REMARK UNBOUND:                -0.794
REMARK SMILES CCCCCCCCCCCCCC(=O)[O-]
REMARK SMILES IDX 8 1 9 2 10 3 11 4 12 5 13 6 14 7 15 8 16 9 7 10 6 11 5 12
REMARK SMILES IDX 4 13 3 14 2 15 1 16
REMARK H PARENT
REMARK Flexibility Score: inf
ROOT
ATOM      1  C   UNL     1     -22.112 -23.279  30.535  1.00  0.00     0.000 C 
ENDROOT
BRANCH   1   2
ATOM      2  C   UNL     1     -22.235 -23.431  29.007  1.00  0.00     0.000 C 
BRANCH   2   3
ATOM      3  C   UNL     1     -22.042 -22.102  28.255  1.00  0.00     0.000 C 
BRANCH   3   4
ATOM      4  C   UNL     1     -22.280 -20.877  29.152  1.00  0.00     0.000 C 
BRANCH   4   5
ATOM      5  C   UNL     1     -21.203 -19.793  28.972  1.00  0.00     0.006 C 
BRANCH   5   6
ATOM      6  C   UNL     1     -20.708 -19.241  30.316  1.00  0.00     0.053 C 
BRANCH   6   7
ATOM      7  C   UNL     1     -19.357 -18.606  30.197  1.00  0.00     0.041 C 
ATOM      8  O   UNL     1     -18.708 -18.297  31.230  1.00  0.00    -0.550 OA
ATOM      9  O   UNL     1     -18.828 -18.325  28.943  1.00  0.00    -0.550 OA
ENDBRANCH   6   7
ENDBRANCH   5   6
ENDBRANCH   4   5
ENDBRANCH   3   4
ENDBRANCH   2   3
ENDBRANCH   1   2
BRANCH   1  10
ATOM     10  C   UNL     1     -23.342 -23.730  31.344  1.00  0.00     0.000 C 
BRANCH  10  11
ATOM     11  C   UNL     1     -23.518 -25.257  31.368  1.00  0.00    -0.000 C 
BRANCH  11  12
ATOM     12  C   UNL     1     -24.936 -25.705  30.965  1.00  0.00    -0.000 C 
BRANCH  12  13
ATOM     13  C   UNL     1     -25.230 -25.676  29.454  1.00  0.00    -0.000 C 
BRANCH  13  14
ATOM     14  C   UNL     1     -24.733 -26.929  28.720  1.00  0.00    -0.000 C 
BRANCH  14  15
ATOM     15  C   UNL     1     -25.877 -27.614  27.965  1.00  0.00    -0.003 C 
ATOM     16  C   UNL     1     -26.592 -28.630  28.850  1.00  0.00     0.004 C 
ENDBRANCH  14  15
ENDBRANCH  13  14
ENDBRANCH  12  13
ENDBRANCH  11  12
ENDBRANCH  10  11
ENDBRANCH   1  10
TORSDOF 12
ENDMDL
MODEL 7
REMARK VINA RESULT:    -6.577      1.452      2.272
REMARK INTER + INTRA:         -11.986
REMARK INTER:                 -11.385
REMARK INTRA:                  -0.600
REMARK UNBOUND:                -0.794
REMARK SMILES CCCCCCCCCCCCCC(=O)[O-]
REMARK SMILES IDX 8 1 9 2 10 3 11 4 12 5 13 6 14 7 15 8 16 9 7 10 6 11 5 12
REMARK SMILES IDX 4 13 3 14 2 15 1 16
REMARK H PARENT
REMARK Flexibility Score: inf
ROOT
ATOM      1  C   UNL     1     -21.953 -20.380  30.739  1.00  0.00     0.000 C 
ENDROOT
BRANCH   1   2
ATOM      2  C   UNL     1     -21.610 -20.225  29.245  1.00  0.00     0.000 C 
BRANCH   2   3
ATOM      3  C   UNL     1     -20.778 -18.965  28.948  1.00  0.00     0.000 C 
BRANCH   3   4
ATOM      4  C   UNL     1     -19.873 -18.566  30.126  1.00  0.00     0.000 C 
BRANCH   4   5
ATOM      5  C   UNL     1     -19.069 -17.285  29.846  1.00  0.00     0.006 C 
BRANCH   5   6
ATOM      6  C   UNL     1     -18.819 -17.076  28.346  1.00  0.00     0.053 C 
BRANCH   6   7
ATOM      7  C   UNL     1     -17.871 -15.945  28.089  1.00  0.00     0.041 C 
ATOM      8  O   UNL     1     -17.484 -15.214  29.039  1.00  0.00    -0.550 OA
ATOM      9  O   UNL     1     -17.439 -15.678  26.796  1.00  0.00    -0.550 OA
ENDBRANCH   6   7
ENDBRANCH   5   6
ENDBRANCH   4   5
ENDBRANCH   3   4
ENDBRANCH   2   3
ENDBRANCH   1   2
BRANCH   1  10
ATOM     10  C   UNL     1     -21.573 -21.733  31.368  1.00  0.00     0.000 C 
BRANCH  10  11
ATOM     11  C   UNL     1     -22.162 -22.934  30.608  1.00  0.00    -0.000 C 
BRANCH  11  12
ATOM     12  C   UNL     1     -23.299 -23.632  31.378  1.00  0.00    -0.000 C 
BRANCH  12  13
ATOM     13  C   UNL     1     -23.401 -25.153  31.162  1.00  0.00    -0.000 C 
BRANCH  13  14
ATOM     14  C   UNL     1     -24.844 -25.638  30.962  1.00  0.00    -0.000 C 
BRANCH  14  15
ATOM     15  C   UNL     1     -25.121 -25.942  29.485  1.00  0.00    -0.003 C 
ATOM     16  C   UNL     1     -23.856 -26.407  28.771  1.00  0.00     0.004 C 
ENDBRANCH  14  15
ENDBRANCH  13  14
ENDBRANCH  12  13
ENDBRANCH  11  12
ENDBRANCH  10  11
ENDBRANCH   1  10
TORSDOF 12
ENDMDL
MODEL 8
REMARK VINA RESULT:    -6.535      5.244      8.934
REMARK INTER + INTRA:         -11.914
REMARK INTER:                 -11.120
REMARK INTRA:                  -0.793
REMARK UNBOUND:                -0.794
REMARK SMILES CCCCCCCCCCCCCC(=O)[O-]
REMARK SMILES IDX 8 1 9 2 10 3 11 4 12 5 13 6 14 7 15 8 16 9 7 10 6 11 5 12
REMARK SMILES IDX 4 13 3 14 2 15 1 16
REMARK H PARENT
REMARK Flexibility Score: inf
ROOT
ATOM      1  C   UNL     1     -22.385 -23.064  30.768  1.00  0.00     0.000 C 
ENDROOT
BRANCH   1   2
ATOM      2  C   UNL     1     -23.487 -23.829  31.524  1.00  0.00     0.000 C 
BRANCH   2   3
ATOM      3  C   UNL     1     -23.432 -25.349  31.289  1.00  0.00     0.000 C 
BRANCH   3   4
ATOM      4  C   UNL     1     -24.813 -25.947  30.976  1.00  0.00     0.000 C 
BRANCH   4   5
ATOM      5  C   UNL     1     -25.234 -25.731  29.512  1.00  0.00     0.006 C 
BRANCH   5   6
ATOM      6  C   UNL     1     -24.849 -26.919  28.619  1.00  0.00     0.053 C 
BRANCH   6   7
ATOM      7  C   UNL     1     -26.005 -27.843  28.390  1.00  0.00     0.041 C 
ATOM      8  O   UNL     1     -26.520 -27.943  27.245  1.00  0.00    -0.550 OA
ATOM      9  O   UNL     1     -26.535 -28.571  29.447  1.00  0.00    -0.550 OA
ENDBRANCH   6   7
ENDBRANCH   5   6
ENDBRANCH   4   5
ENDBRANCH   3   4
ENDBRANCH   2   3
ENDBRANCH   1   2
BRANCH   1  10
ATOM     10  C   UNL     1     -22.222 -23.437  29.282  1.00  0.00     0.000 C 
BRANCH  10  11
ATOM     11  C   UNL     1     -22.023 -22.212  28.374  1.00  0.00    -0.000 C 
BRANCH  11  12
ATOM     12  C   UNL     1     -22.314 -20.879  29.091  1.00  0.00    -0.000 C 
BRANCH  12  13
ATOM     13  C   UNL     1     -21.281 -19.763  28.848  1.00  0.00    -0.000 C 
BRANCH  13  14
ATOM     14  C   UNL     1     -20.735 -19.156  30.148  1.00  0.00    -0.000 C 
BRANCH  14  15
ATOM     15  C   UNL     1     -19.387 -18.467  29.908  1.00  0.00    -0.003 C 
ATOM     16  C   UNL     1     -19.483 -17.445  28.779  1.00  0.00     0.004 C 
ENDBRANCH  14  15
ENDBRANCH  13  14
ENDBRANCH  12  13
ENDBRANCH  11  12
ENDBRANCH  10  11
ENDBRANCH   1  10
TORSDOF 12
ENDMDL
MODEL 9
REMARK VINA RESULT:    -6.518      4.606      9.105
REMARK INTER + INTRA:         -11.886
REMARK INTER:                 -11.395
REMARK INTRA:                  -0.491
REMARK UNBOUND:                -0.794
REMARK SMILES CCCCCCCCCCCCCC(=O)[O-]
REMARK SMILES IDX 8 1 9 2 10 3 11 4 12 5 13 6 14 7 15 8 16 9 7 10 6 11 5 12
REMARK SMILES IDX 4 13 3 14 2 15 1 16
REMARK H PARENT
REMARK Flexibility Score: inf
ROOT
ATOM      1  C   UNL     1     -22.024 -21.018  30.608  1.00  0.00     0.000 C 
ENDROOT
BRANCH   1   2
ATOM      2  C   UNL     1     -22.105 -22.374  31.334  1.00  0.00     0.000 C 
BRANCH   2   3
ATOM      3  C   UNL     1     -21.967 -23.574  30.380  1.00  0.00     0.000 C 
BRANCH   3   4
ATOM      4  C   UNL     1     -23.135 -24.566  30.509  1.00  0.00     0.000 C 
BRANCH   4   5
ATOM      5  C   UNL     1     -23.663 -25.039  29.144  1.00  0.00     0.006 C 
BRANCH   5   6
ATOM      6  C   UNL     1     -23.731 -26.570  29.050  1.00  0.00     0.053 C 
BRANCH   6   7
ATOM      7  C   UNL     1     -25.070 -27.096  29.467  1.00  0.00     0.041 C 
ATOM      8  O   UNL     1     -25.849 -27.594  28.613  1.00  0.00    -0.550 OA
ATOM      9  O   UNL     1     -25.471 -27.009  30.794  1.00  0.00    -0.550 OA
ENDBRANCH   6   7
ENDBRANCH   5   6
ENDBRANCH   4   5
ENDBRANCH   3   4
ENDBRANCH   2   3
ENDBRANCH   1   2
BRANCH   1  10
ATOM     10  C   UNL     1     -22.040 -21.090  29.069  1.00  0.00     0.000 C 
BRANCH  10  11
ATOM     11  C   UNL     1     -21.628 -19.768  28.402  1.00  0.00    -0.000 C 
BRANCH  11  12
ATOM     12  C   UNL     1     -20.628 -18.954  29.246  1.00  0.00    -0.000 C 
BRANCH  12  13
ATOM     13  C   UNL     1     -20.163 -17.628  28.618  1.00  0.00    -0.000 C 
BRANCH  13  14
ATOM     14  C   UNL     1     -18.654 -17.387  28.766  1.00  0.00    -0.000 C 
BRANCH  14  15
ATOM     15  C   UNL     1     -18.208 -16.175  27.941  1.00  0.00    -0.003 C 
ATOM     16  C   UNL     1     -17.489 -15.149  28.812  1.00  0.00     0.004 C 
ENDBRANCH  14  15
ENDBRANCH  13  14
ENDBRANCH  12  13
ENDBRANCH  11  12
ENDBRANCH  10  11
ENDBRANCH   1  10
TORSDOF 12
ENDMDL
