MODEL 1
REMARK VINA RESULT:    -7.297      0.000      0.000
REMARK INTER + INTRA:          -8.860
REMARK INTER:                  -8.577
REMARK INTRA:                  -0.283
REMARK UNBOUND:                -0.283
REMARK SMILES O=c1c(O)c(-c2ccc(O)cc2)oc2cc(O)cc(O)c12
REMARK SMILES IDX 5 1 3 2 2 3 1 4 21 5 19 6 18 7 16 8 15 9 14 10 13 11 6 12
REMARK SMILES IDX 7 13 8 14 9 15 12 16 11 17 10 18 4 20 20 22 17 24
REMARK H PARENT 10 19 4 21 20 23 17 25
REMARK Flexibility Score: inf
ROOT
ATOM      1  C   UNL     1      10.400 -27.359   9.041  1.00  0.00     0.180 A 
ATOM      2  C   UNL     1      10.233 -28.377  10.000  1.00  0.00     0.208 A 
ATOM      3  C   UNL     1      11.319 -29.217  10.293  1.00  0.00     0.238 A 
ATOM      4  O   UNL     1      11.184 -30.126  11.157  1.00  0.00    -0.285 OA
ATOM      5  C   UNL     1      12.541 -29.038   9.615  1.00  0.00     0.111 A 
ATOM      6  C   UNL     1      13.682 -29.844   9.849  1.00  0.00     0.134 A 
ATOM      7  C   UNL     1      14.860 -29.608   9.125  1.00  0.00     0.093 A 
ATOM      8  C   UNL     1      14.919 -28.586   8.172  1.00  0.00     0.123 A 
ATOM      9  C   UNL     1      13.797 -27.789   7.938  1.00  0.00     0.094 A 
ATOM     10  C   UNL     1      12.614 -28.006   8.650  1.00  0.00     0.146 A 
ATOM     11  O   UNL     1      11.564 -27.230   8.410  1.00  0.00    -0.452 OA
ENDROOT
BRANCH   1  12
ATOM     12  C   UNL     1       9.309 -26.421   8.691  1.00  0.00     0.021 A 
ATOM     13  C   UNL     1       8.379 -26.781   7.702  1.00  0.00     0.016 A 
ATOM     14  C   UNL     1       7.353 -25.902   7.340  1.00  0.00     0.047 A 
ATOM     15  C   UNL     1       7.254 -24.647   7.949  1.00  0.00     0.115 A 
ATOM     16  C   UNL     1       9.215 -25.149   9.287  1.00  0.00     0.016 A 
ATOM     17  C   UNL     1       8.190 -24.272   8.921  1.00  0.00     0.047 A 
BRANCH  15  18
ATOM     18  O   UNL     1       6.227 -23.783   7.578  1.00  0.00    -0.508 OA
ATOM     19  H   UNL     1       5.253 -24.043   7.683  1.00  0.00     0.293 HD
ENDBRANCH  15  18
ENDBRANCH   1  12
BRANCH   2  20
ATOM     20  O   UNL     1       8.996 -28.565  10.621  1.00  0.00    -0.502 OA
ATOM     21  H   UNL     1       8.119 -28.345  10.164  1.00  0.00     0.293 HD
ENDBRANCH   2  20
BRANCH   6  22
ATOM     22  O   UNL     1      13.653 -30.873  10.792  1.00  0.00    -0.507 OA
ATOM     23  H   UNL     1      12.862 -31.005  11.411  1.00  0.00     0.293 HD
ENDBRANCH   6  22
BRANCH   8  24
ATOM     24  O   UNL     1      16.088 -28.353   7.452  1.00  0.00    -0.508 OA
ATOM     25  H   UNL     1      16.280 -28.835   6.582  1.00  0.00     0.293 HD
ENDBRANCH   8  24
TORSDOF 5
ENDMDL
MODEL 2
REMARK VINA RESULT:    -7.265      2.335      3.372
REMARK INTER + INTRA:          -8.823
REMARK INTER:                  -8.550
REMARK INTRA:                  -0.273
REMARK UNBOUND:                -0.283
REMARK SMILES O=c1c(O)c(-c2ccc(O)cc2)oc2cc(O)cc(O)c12
REMARK SMILES IDX 5 1 3 2 2 3 1 4 21 5 19 6 18 7 16 8 15 9 14 10 13 11 6 12
REMARK SMILES IDX 7 13 8 14 9 15 12 16 11 17 10 18 4 20 20 22 17 24
REMARK H PARENT 10 19 4 21 20 23 17 25
REMARK Flexibility Score: inf
ROOT
ATOM      1  C   UNL     1      11.121 -26.421   6.973  1.00  0.00     0.180 A 
ATOM      2  C   UNL     1      11.398 -26.927   5.688  1.00  0.00     0.208 A 
ATOM      3  C   UNL     1      12.572 -27.671   5.491  1.00  0.00     0.238 A 
ATOM      4  O   UNL     1      12.825 -28.138   4.348  1.00  0.00    -0.285 OA
ATOM      5  C   UNL     1      13.454 -27.880   6.571  1.00  0.00     0.111 A 
ATOM      6  C   UNL     1      14.659 -28.615   6.455  1.00  0.00     0.134 A 
ATOM      7  C   UNL     1      15.489 -28.770   7.576  1.00  0.00     0.093 A 
ATOM      8  C   UNL     1      15.138 -28.205   8.807  1.00  0.00     0.123 A 
ATOM      9  C   UNL     1      13.951 -27.480   8.925  1.00  0.00     0.094 A 
ATOM     10  C   UNL     1      13.109 -27.315   7.821  1.00  0.00     0.146 A 
ATOM     11  O   UNL     1      11.984 -26.625   7.964  1.00  0.00    -0.452 OA
ENDROOT
BRANCH   1  12
ATOM     12  C   UNL     1       9.895 -25.643   7.265  1.00  0.00     0.021 A 
ATOM     13  C   UNL     1       8.769 -26.299   7.789  1.00  0.00     0.016 A 
ATOM     14  C   UNL     1       7.594 -25.589   8.053  1.00  0.00     0.047 A 
ATOM     15  C   UNL     1       7.524 -24.219   7.781  1.00  0.00     0.115 A 
ATOM     16  C   UNL     1       9.812 -24.268   6.975  1.00  0.00     0.016 A 
ATOM     17  C   UNL     1       8.635 -23.561   7.238  1.00  0.00     0.047 A 
BRANCH  15  18
ATOM     18  O   UNL     1       6.347 -23.525   8.049  1.00  0.00    -0.508 OA
ATOM     19  H   UNL     1       5.438 -23.917   7.828  1.00  0.00     0.293 HD
ENDBRANCH  15  18
ENDBRANCH   1  12
BRANCH   2  20
ATOM     20  O   UNL     1      10.533 -26.663   4.624  1.00  0.00    -0.502 OA
ATOM     21  H   UNL     1       9.636 -26.210   4.753  1.00  0.00     0.293 HD
ENDBRANCH   2  20
BRANCH   6  22
ATOM     22  O   UNL     1      15.036 -29.189   5.240  1.00  0.00    -0.507 OA
ATOM     23  H   UNL     1      15.390 -28.628   4.474  1.00  0.00     0.293 HD
ENDBRANCH   6  22
BRANCH   8  24
ATOM     24  O   UNL     1      15.962 -28.358   9.919  1.00  0.00    -0.508 OA
ATOM     25  H   UNL     1      16.930 -28.057   9.907  1.00  0.00     0.293 HD
ENDBRANCH   8  24
TORSDOF 5
ENDMDL
MODEL 3
REMARK VINA RESULT:    -7.234      2.554      6.585
REMARK INTER + INTRA:          -8.786
REMARK INTER:                  -8.489
REMARK INTRA:                  -0.297
REMARK UNBOUND:                -0.283
REMARK SMILES O=c1c(O)c(-c2ccc(O)cc2)oc2cc(O)cc(O)c12
REMARK SMILES IDX 5 1 3 2 2 3 1 4 21 5 19 6 18 7 16 8 15 9 14 10 13 11 6 12
REMARK SMILES IDX 7 13 8 14 9 15 12 16 11 17 10 18 4 20 20 22 17 24
REMARK H PARENT 10 19 4 21 20 23 17 25
REMARK Flexibility Score: inf
ROOT
ATOM      1  C   UNL     1      12.886 -25.946   8.525  1.00  0.00     0.180 A 
ATOM      2  C   UNL     1      12.496 -27.240   8.922  1.00  0.00     0.208 A 
ATOM      3  C   UNL     1      11.134 -27.578   8.889  1.00  0.00     0.238 A 
ATOM      4  O   UNL     1      10.774 -28.736   9.232  1.00  0.00    -0.285 OA
ATOM      5  C   UNL     1      10.187 -26.616   8.480  1.00  0.00     0.111 A 
ATOM      6  C   UNL     1       8.796 -26.875   8.422  1.00  0.00     0.134 A 
ATOM      7  C   UNL     1       7.917 -25.861   8.013  1.00  0.00     0.093 A 
ATOM      8  C   UNL     1       8.400 -24.596   7.662  1.00  0.00     0.123 A 
ATOM      9  C   UNL     1       9.771 -24.337   7.718  1.00  0.00     0.094 A 
ATOM     10  C   UNL     1      10.664 -25.334   8.121  1.00  0.00     0.146 A 
ATOM     11  O   UNL     1      11.963 -25.061   8.160  1.00  0.00    -0.452 OA
ENDROOT
BRANCH   1  12
ATOM     12  C   UNL     1      14.304 -25.520   8.514  1.00  0.00     0.021 A 
ATOM     13  C   UNL     1      14.831 -24.842   9.626  1.00  0.00     0.016 A 
ATOM     14  C   UNL     1      16.161 -24.412   9.628  1.00  0.00     0.047 A 
ATOM     15  C   UNL     1      16.976 -24.639   8.515  1.00  0.00     0.115 A 
ATOM     16  C   UNL     1      15.124 -25.728   7.389  1.00  0.00     0.016 A 
ATOM     17  C   UNL     1      16.453 -25.295   7.394  1.00  0.00     0.047 A 
BRANCH  15  18
ATOM     18  O   UNL     1      18.299 -24.205   8.532  1.00  0.00    -0.508 OA
ATOM     19  H   UNL     1      18.788 -23.962   7.678  1.00  0.00     0.293 HD
ENDBRANCH  15  18
ENDBRANCH   1  12
BRANCH   2  20
ATOM     20  O   UNL     1      13.449 -28.157   9.371  1.00  0.00    -0.502 OA
ATOM     21  H   UNL     1      14.357 -27.871   9.717  1.00  0.00     0.293 HD
ENDBRANCH   2  20
BRANCH   6  22
ATOM     22  O   UNL     1       8.284 -28.127   8.767  1.00  0.00    -0.507 OA
ATOM     23  H   UNL     1       7.876 -28.744   8.075  1.00  0.00     0.293 HD
ENDBRANCH   6  22
BRANCH   8  24
ATOM     24  O   UNL     1       7.527 -23.590   7.258  1.00  0.00    -0.508 OA
ATOM     25  H   UNL     1       7.513 -22.685   7.715  1.00  0.00     0.293 HD
ENDBRANCH   8  24
TORSDOF 5
ENDMDL
MODEL 4
REMARK VINA RESULT:    -7.157      1.247      1.403
REMARK INTER + INTRA:          -8.696
REMARK INTER:                  -8.431
REMARK INTRA:                  -0.265
REMARK UNBOUND:                -0.283
REMARK SMILES O=c1c(O)c(-c2ccc(O)cc2)oc2cc(O)cc(O)c12
REMARK SMILES IDX 5 1 3 2 2 3 1 4 21 5 19 6 18 7 16 8 15 9 14 10 13 11 6 12
REMARK SMILES IDX 7 13 8 14 9 15 12 16 11 17 10 18 4 20 20 22 17 24
REMARK H PARENT 10 19 4 21 20 23 17 25
REMARK Flexibility Score: inf
ROOT
ATOM      1  C   UNL     1      10.953 -26.660   8.791  1.00  0.00     0.180 A 
ATOM      2  C   UNL     1      10.940 -27.986   9.265  1.00  0.00     0.208 A 
ATOM      3  C   UNL     1      12.149 -28.695   9.331  1.00  0.00     0.238 A 
ATOM      4  O   UNL     1      12.151 -29.879   9.764  1.00  0.00    -0.285 OA
ATOM      5  C   UNL     1      13.343 -28.077   8.907  1.00  0.00     0.111 A 
ATOM      6  C   UNL     1      14.603 -28.723   8.937  1.00  0.00     0.134 A 
ATOM      7  C   UNL     1      15.744 -28.043   8.488  1.00  0.00     0.093 A 
ATOM      8  C   UNL     1      15.651 -26.732   8.009  1.00  0.00     0.123 A 
ATOM      9  C   UNL     1      14.411 -26.091   7.977  1.00  0.00     0.094 A 
ATOM     10  C   UNL     1      13.261 -26.751   8.422  1.00  0.00     0.146 A 
ATOM     11  O   UNL     1      12.096 -26.115   8.385  1.00  0.00    -0.452 OA
ENDROOT
BRANCH   1  12
ATOM     12  C   UNL     1       9.723 -25.840   8.710  1.00  0.00     0.021 A 
ATOM     13  C   UNL     1       8.868 -25.985   7.604  1.00  0.00     0.016 A 
ATOM     14  C   UNL     1       7.711 -25.206   7.496  1.00  0.00     0.047 A 
ATOM     15  C   UNL     1       7.403 -24.263   8.482  1.00  0.00     0.115 A 
ATOM     16  C   UNL     1       9.417 -24.876   9.688  1.00  0.00     0.016 A 
ATOM     17  C   UNL     1       8.261 -24.098   9.576  1.00  0.00     0.047 A 
BRANCH  15  18
ATOM     18  O   UNL     1       6.248 -23.495   8.361  1.00  0.00    -0.508 OA
ATOM     19  H   UNL     1       5.556 -23.688   7.645  1.00  0.00     0.293 HD
ENDBRANCH  15  18
ENDBRANCH   1  12
BRANCH   2  20
ATOM     20  O   UNL     1       9.735 -28.592   9.632  1.00  0.00    -0.502 OA
ATOM     21  H   UNL     1       8.985 -28.080  10.080  1.00  0.00     0.293 HD
ENDBRANCH   2  20
BRANCH   6  22
ATOM     22  O   UNL     1      14.727 -30.031   9.408  1.00  0.00    -0.507 OA
ATOM     23  H   UNL     1      14.902 -30.231  10.386  1.00  0.00     0.293 HD
ENDBRANCH   6  22
BRANCH   8  24
ATOM     24  O   UNL     1      16.784 -26.057   7.561  1.00  0.00    -0.508 OA
ATOM     25  H   UNL     1      17.149 -26.196   6.626  1.00  0.00     0.293 HD
ENDBRANCH   8  24
TORSDOF 5
ENDMDL
MODEL 5
REMARK VINA RESULT:    -7.140      2.304      3.385
REMARK INTER + INTRA:          -8.675
REMARK INTER:                  -8.379
REMARK INTRA:                  -0.297
REMARK UNBOUND:                -0.283
REMARK SMILES O=c1c(O)c(-c2ccc(O)cc2)oc2cc(O)cc(O)c12
REMARK SMILES IDX 5 1 3 2 2 3 1 4 21 5 19 6 18 7 16 8 15 9 14 10 13 11 6 12
REMARK SMILES IDX 7 13 8 14 9 15 12 16 11 17 10 18 4 20 20 22 17 24
REMARK H PARENT 10 19 4 21 20 23 17 25
REMARK Flexibility Score: inf
ROOT
ATOM      1  C   UNL     1      11.721 -25.380   8.741  1.00  0.00     0.180 A 
ATOM      2  C   UNL     1      12.713 -24.493   9.201  1.00  0.00     0.208 A 
ATOM      3  C   UNL     1      14.012 -24.981   9.415  1.00  0.00     0.238 A 
ATOM      4  O   UNL     1      14.911 -24.194   9.817  1.00  0.00    -0.285 OA
ATOM      5  C   UNL     1      14.292 -26.343   9.184  1.00  0.00     0.111 A 
ATOM      6  C   UNL     1      15.572 -26.915   9.379  1.00  0.00     0.134 A 
ATOM      7  C   UNL     1      15.767 -28.283   9.136  1.00  0.00     0.093 A 
ATOM      8  C   UNL     1      14.709 -29.088   8.705  1.00  0.00     0.123 A 
ATOM      9  C   UNL     1      13.444 -28.529   8.511  1.00  0.00     0.094 A 
ATOM     10  C   UNL     1      13.229 -27.168   8.746  1.00  0.00     0.146 A 
ATOM     11  O   UNL     1      12.017 -26.662   8.549  1.00  0.00    -0.452 OA
ENDROOT
BRANCH   1  12
ATOM     12  C   UNL     1      10.333 -24.938   8.473  1.00  0.00     0.021 A 
ATOM     13  C   UNL     1       9.372 -25.020   9.495  1.00  0.00     0.016 A 
ATOM     14  C   UNL     1       8.051 -24.628   9.259  1.00  0.00     0.047 A 
ATOM     15  C   UNL     1       7.669 -24.165   7.996  1.00  0.00     0.115 A 
ATOM     16  C   UNL     1       9.938 -24.489   7.199  1.00  0.00     0.016 A 
ATOM     17  C   UNL     1       8.616 -24.100   6.965  1.00  0.00     0.047 A 
BRANCH  15  18
ATOM     18  O   UNL     1       6.350 -23.779   7.775  1.00  0.00    -0.508 OA
ATOM     19  H   UNL     1       5.687 -24.395   7.318  1.00  0.00     0.293 HD
ENDBRANCH  15  18
ENDBRANCH   1  12
BRANCH   2  20
ATOM     20  O   UNL     1      12.398 -23.159   9.469  1.00  0.00    -0.502 OA
ATOM     21  H   UNL     1      12.766 -22.665  10.274  1.00  0.00     0.293 HD
ENDBRANCH   2  20
BRANCH   6  22
ATOM     22  O   UNL     1      16.648 -26.136   9.810  1.00  0.00    -0.507 OA
ATOM     23  H   UNL     1      16.624 -25.638  10.692  1.00  0.00     0.293 HD
ENDBRANCH   6  22
BRANCH   8  24
ATOM     24  O   UNL     1      14.902 -30.447   8.466  1.00  0.00    -0.508 OA
ATOM     25  H   UNL     1      14.185 -31.130   8.680  1.00  0.00     0.293 HD
ENDBRANCH   8  24
TORSDOF 5
ENDMDL
MODEL 6
REMARK VINA RESULT:    -7.049      1.404      3.228
REMARK INTER + INTRA:          -8.568
REMARK INTER:                  -8.396
REMARK INTRA:                  -0.172
REMARK UNBOUND:                -0.283
REMARK SMILES O=c1c(O)c(-c2ccc(O)cc2)oc2cc(O)cc(O)c12
REMARK SMILES IDX 5 1 3 2 2 3 1 4 21 5 19 6 18 7 16 8 15 9 14 10 13 11 6 12
REMARK SMILES IDX 7 13 8 14 9 15 12 16 11 17 10 18 4 20 20 22 17 24
REMARK H PARENT 10 19 4 21 20 23 17 25
REMARK Flexibility Score: inf
ROOT
ATOM      1  C   UNL     1      11.114 -26.782   7.681  1.00  0.00     0.180 A 
ATOM      2  C   UNL     1      12.008 -26.728   6.594  1.00  0.00     0.208 A 
ATOM      3  C   UNL     1      13.216 -27.439   6.674  1.00  0.00     0.238 A 
ATOM      4  O   UNL     1      14.019 -27.407   5.703  1.00  0.00    -0.285 OA
ATOM      5  C   UNL     1      13.517 -28.173   7.840  1.00  0.00     0.111 A 
ATOM      6  C   UNL     1      14.714 -28.912   8.002  1.00  0.00     0.134 A 
ATOM      7  C   UNL     1      14.944 -29.609   9.198  1.00  0.00     0.093 A 
ATOM      8  C   UNL     1      14.004 -29.579  10.232  1.00  0.00     0.123 A 
ATOM      9  C   UNL     1      12.823 -28.851  10.077  1.00  0.00     0.094 A 
ATOM     10  C   UNL     1      12.573 -28.151   8.893  1.00  0.00     0.146 A 
ATOM     11  O   UNL     1      11.439 -27.472   8.771  1.00  0.00    -0.452 OA
ENDROOT
BRANCH   1  12
ATOM     12  C   UNL     1       9.813 -26.076   7.666  1.00  0.00     0.021 A 
ATOM     13  C   UNL     1       9.786 -24.673   7.738  1.00  0.00     0.016 A 
ATOM     14  C   UNL     1       8.568 -23.987   7.746  1.00  0.00     0.047 A 
ATOM     15  C   UNL     1       7.362 -24.693   7.698  1.00  0.00     0.115 A 
ATOM     16  C   UNL     1       8.595 -26.782   7.638  1.00  0.00     0.016 A 
ATOM     17  C   UNL     1       7.379 -26.092   7.648  1.00  0.00     0.047 A 
BRANCH  15  18
ATOM     18  O   UNL     1       6.157 -23.996   7.707  1.00  0.00    -0.508 OA
ATOM     19  H   UNL     1       5.269 -24.471   7.584  1.00  0.00     0.293 HD
ENDBRANCH  15  18
ENDBRANCH   1  12
BRANCH   2  20
ATOM     20  O   UNL     1      11.708 -25.954   5.471  1.00  0.00    -0.502 OA
ATOM     21  H   UNL     1      11.456 -24.975   5.538  1.00  0.00     0.293 HD
ENDBRANCH   2  20
BRANCH   6  22
ATOM     22  O   UNL     1      15.672 -28.959   6.987  1.00  0.00    -0.507 OA
ATOM     23  H   UNL     1      15.431 -29.225   6.039  1.00  0.00     0.293 HD
ENDBRANCH   6  22
BRANCH   8  24
ATOM     24  O   UNL     1      14.233 -30.269  11.420  1.00  0.00    -0.508 OA
ATOM     25  H   UNL     1      14.633 -29.811  12.231  1.00  0.00     0.293 HD
ENDBRANCH   8  24
TORSDOF 5
ENDMDL
MODEL 7
REMARK VINA RESULT:    -6.709      2.941      3.524
REMARK INTER + INTRA:          -8.169
REMARK INTER:                  -7.903
REMARK INTRA:                  -0.267
REMARK UNBOUND:                -0.283
REMARK SMILES O=c1c(O)c(-c2ccc(O)cc2)oc2cc(O)cc(O)c12
REMARK SMILES IDX 5 1 3 2 2 3 1 4 21 5 19 6 18 7 16 8 15 9 14 10 13 11 6 12
REMARK SMILES IDX 7 13 8 14 9 15 12 16 11 17 10 18 4 20 20 22 17 24
REMARK H PARENT 10 19 4 21 20 23 17 25
REMARK Flexibility Score: inf
ROOT
ATOM      1  C   UNL     1      11.228 -25.307   7.819  1.00  0.00     0.180 A 
ATOM      2  C   UNL     1      11.660 -26.358   6.987  1.00  0.00     0.208 A 
ATOM      3  C   UNL     1      12.952 -26.878   7.165  1.00  0.00     0.238 A 
ATOM      4  O   UNL     1      13.345 -27.826   6.433  1.00  0.00    -0.285 OA
ATOM      5  C   UNL     1      13.793 -26.329   8.154  1.00  0.00     0.111 A 
ATOM      6  C   UNL     1      15.109 -26.792   8.396  1.00  0.00     0.134 A 
ATOM      7  C   UNL     1      15.888 -26.186   9.393  1.00  0.00     0.093 A 
ATOM      8  C   UNL     1      15.377 -25.127  10.151  1.00  0.00     0.123 A 
ATOM      9  C   UNL     1      14.080 -24.667   9.917  1.00  0.00     0.094 A 
ATOM     10  C   UNL     1      13.287 -25.259   8.929  1.00  0.00     0.146 A 
ATOM     11  O   UNL     1      12.055 -24.804   8.731  1.00  0.00    -0.452 OA
ENDROOT
BRANCH   1  12
ATOM     12  C   UNL     1       9.874 -24.719   7.706  1.00  0.00     0.021 A 
ATOM     13  C   UNL     1       9.627 -23.735   6.734  1.00  0.00     0.016 A 
ATOM     14  C   UNL     1       8.362 -23.151   6.623  1.00  0.00     0.047 A 
ATOM     15  C   UNL     1       7.333 -23.529   7.491  1.00  0.00     0.115 A 
ATOM     16  C   UNL     1       8.840 -25.082   8.589  1.00  0.00     0.016 A 
ATOM     17  C   UNL     1       7.577 -24.494   8.477  1.00  0.00     0.047 A 
BRANCH  15  18
ATOM     18  O   UNL     1       6.078 -22.939   7.369  1.00  0.00    -0.508 OA
ATOM     19  H   UNL     1       5.241 -23.399   7.709  1.00  0.00     0.293 HD
ENDBRANCH  15  18
ENDBRANCH   1  12
BRANCH   2  20
ATOM     20  O   UNL     1      10.824 -26.851   5.981  1.00  0.00    -0.502 OA
ATOM     21  H   UNL     1      11.037 -27.696   5.464  1.00  0.00     0.293 HD
ENDBRANCH   2  20
BRANCH   6  22
ATOM     22  O   UNL     1      15.647 -27.846   7.654  1.00  0.00    -0.507 OA
ATOM     23  H   UNL     1      15.125 -28.698   7.486  1.00  0.00     0.293 HD
ENDBRANCH   6  22
BRANCH   8  24
ATOM     24  O   UNL     1      16.151 -24.524  11.140  1.00  0.00    -0.508 OA
ATOM     25  H   UNL     1      15.956 -23.584  11.466  1.00  0.00     0.293 HD
ENDBRANCH   8  24
TORSDOF 5
ENDMDL
MODEL 8
REMARK VINA RESULT:    -6.530      2.766      3.873
REMARK INTER + INTRA:          -7.958
REMARK INTER:                  -7.694
REMARK INTRA:                  -0.265
REMARK UNBOUND:                -0.283
REMARK SMILES O=c1c(O)c(-c2ccc(O)cc2)oc2cc(O)cc(O)c12
REMARK SMILES IDX 5 1 3 2 2 3 1 4 21 5 19 6 18 7 16 8 15 9 14 10 13 11 6 12
REMARK SMILES IDX 7 13 8 14 9 15 12 16 11 17 10 18 4 20 20 22 17 24
REMARK H PARENT 10 19 4 21 20 23 17 25
REMARK Flexibility Score: inf
ROOT
ATOM      1  C   UNL     1      11.839 -26.661   7.904  1.00  0.00     0.180 A 
ATOM      2  C   UNL     1      12.976 -27.288   8.451  1.00  0.00     0.208 A 
ATOM      3  C   UNL     1      13.811 -28.034   7.604  1.00  0.00     0.238 A 
ATOM      4  O   UNL     1      14.837 -28.592   8.080  1.00  0.00    -0.285 OA
ATOM      5  C   UNL     1      13.489 -28.155   6.237  1.00  0.00     0.111 A 
ATOM      6  C   UNL     1      14.275 -28.892   5.318  1.00  0.00     0.134 A 
ATOM      7  C   UNL     1      13.880 -28.973   3.974  1.00  0.00     0.093 A 
ATOM      8  C   UNL     1      12.717 -28.334   3.533  1.00  0.00     0.123 A 
ATOM      9  C   UNL     1      11.939 -27.607   4.435  1.00  0.00     0.094 A 
ATOM     10  C   UNL     1      12.315 -27.513   5.779  1.00  0.00     0.146 A 
ATOM     11  O   UNL     1      11.558 -26.810   6.614  1.00  0.00    -0.452 OA
ENDROOT
BRANCH   1  12
ATOM     12  C   UNL     1      10.921 -25.841   8.728  1.00  0.00     0.021 A 
ATOM     13  C   UNL     1       9.670 -26.364   9.096  1.00  0.00     0.016 A 
ATOM     14  C   UNL     1       8.778 -25.600   9.855  1.00  0.00     0.047 A 
ATOM     15  C   UNL     1       9.117 -24.300  10.241  1.00  0.00     0.115 A 
ATOM     16  C   UNL     1      11.248 -24.525   9.103  1.00  0.00     0.016 A 
ATOM     17  C   UNL     1      10.354 -23.763   9.860  1.00  0.00     0.047 A 
BRANCH  15  18
ATOM     18  O   UNL     1       8.219 -23.551  10.997  1.00  0.00    -0.508 OA
ATOM     19  H   UNL     1       8.009 -22.586  10.767  1.00  0.00     0.293 HD
ENDBRANCH  15  18
ENDBRANCH   1  12
BRANCH   2  20
ATOM     20  O   UNL     1      13.246 -27.193   9.818  1.00  0.00    -0.502 OA
ATOM     21  H   UNL     1      14.171 -27.348  10.201  1.00  0.00     0.293 HD
ENDBRANCH   2  20
BRANCH   6  22
ATOM     22  O   UNL     1      15.440 -29.541   5.730  1.00  0.00    -0.507 OA
ATOM     23  H   UNL     1      15.551 -29.887   6.676  1.00  0.00     0.293 HD
ENDBRANCH   6  22
BRANCH   8  24
ATOM     24  O   UNL     1      12.325 -28.416   2.199  1.00  0.00    -0.508 OA
ATOM     25  H   UNL     1      12.444 -27.637   1.563  1.00  0.00     0.293 HD
ENDBRANCH   8  24
TORSDOF 5
ENDMDL
MODEL 9
REMARK VINA RESULT:    -6.458      2.652      6.074
REMARK INTER + INTRA:          -7.874
REMARK INTER:                  -7.577
REMARK INTRA:                  -0.297
REMARK UNBOUND:                -0.283
REMARK SMILES O=c1c(O)c(-c2ccc(O)cc2)oc2cc(O)cc(O)c12
REMARK SMILES IDX 5 1 3 2 2 3 1 4 21 5 19 6 18 7 16 8 15 9 14 10 13 11 6 12
REMARK SMILES IDX 7 13 8 14 9 15 12 16 11 17 10 18 4 20 20 22 17 24
REMARK H PARENT 10 19 4 21 20 23 17 25
REMARK Flexibility Score: inf
ROOT
ATOM      1  C   UNL     1      13.265 -26.335   8.923  1.00  0.00     0.180 A 
ATOM      2  C   UNL     1      12.059 -25.643   8.702  1.00  0.00     0.208 A 
ATOM      3  C   UNL     1      10.844 -26.319   8.897  1.00  0.00     0.238 A 
ATOM      4  O   UNL     1       9.757 -25.706   8.713  1.00  0.00    -0.285 OA
ATOM      5  C   UNL     1      10.855 -27.672   9.291  1.00  0.00     0.111 A 
ATOM      6  C   UNL     1       9.675 -28.426   9.505  1.00  0.00     0.134 A 
ATOM      7  C   UNL     1       9.770 -29.773   9.886  1.00  0.00     0.093 A 
ATOM      8  C   UNL     1      11.019 -30.380  10.056  1.00  0.00     0.123 A 
ATOM      9  C   UNL     1      12.185 -29.641   9.846  1.00  0.00     0.094 A 
ATOM     10  C   UNL     1      12.112 -28.297   9.467  1.00  0.00     0.146 A 
ATOM     11  O   UNL     1      13.237 -27.616   9.279  1.00  0.00    -0.452 OA
ENDROOT
BRANCH   1  12
ATOM     12  C   UNL     1      14.586 -25.688   8.757  1.00  0.00     0.021 A 
ATOM     13  C   UNL     1      15.289 -25.849   7.552  1.00  0.00     0.016 A 
ATOM     14  C   UNL     1      16.547 -25.264   7.381  1.00  0.00     0.047 A 
ATOM     15  C   UNL     1      17.126 -24.524   8.416  1.00  0.00     0.115 A 
ATOM     16  C   UNL     1      15.183 -24.958   9.803  1.00  0.00     0.016 A 
ATOM     17  C   UNL     1      16.442 -24.375   9.629  1.00  0.00     0.047 A 
BRANCH  15  18
ATOM     18  O   UNL     1      18.380 -23.947   8.232  1.00  0.00    -0.508 OA
ATOM     19  H   UNL     1      18.487 -23.048   7.776  1.00  0.00     0.293 HD
ENDBRANCH  15  18
ENDBRANCH   1  12
BRANCH   2  20
ATOM     20  O   UNL     1      12.076 -24.317   8.265  1.00  0.00    -0.502 OA
ATOM     21  H   UNL     1      12.619 -24.016   7.464  1.00  0.00     0.293 HD
ENDBRANCH   2  20
BRANCH   6  22
ATOM     22  O   UNL     1       8.415 -27.849   9.342  1.00  0.00    -0.507 OA
ATOM     23  H   UNL     1       8.161 -27.354   8.495  1.00  0.00     0.293 HD
ENDBRANCH   6  22
BRANCH   8  24
ATOM     24  O   UNL     1      11.113 -31.717  10.433  1.00  0.00    -0.508 OA
ATOM     25  H   UNL     1      10.531 -32.104  11.166  1.00  0.00     0.293 HD
ENDBRANCH   8  24
TORSDOF 5
ENDMDL
