MODEL 1
REMARK VINA RESULT:    -5.319      0.000      0.000
REMARK INTER + INTRA:          -5.630
REMARK INTER:                  -5.630
REMARK INTRA:                   0.000
REMARK UNBOUND:                 0.000
REMARK SMILES O=c1ccc2cc(O)c(O)cc2o1
REMARK SMILES IDX 4 1 3 2 2 3 1 4 13 5 12 6 11 7 9 8 7 9 6 10 5 11 8 12 10 14
REMARK H PARENT 8 13 10 15
REMARK Flexibility Score: inf
ROOT
ATOM      1  C   UNL     1     -57.924  18.027 -19.420  1.00  0.00     0.019 A 
ATOM      2  C   UNL     1     -57.142  18.829 -18.589  1.00  0.00     0.094 A 
ATOM      3  C   UNL     1     -57.593  19.106 -17.294  1.00  0.00     0.336 A 
ATOM      4  O   UNL     1     -56.901  19.827 -16.529  1.00  0.00    -0.246 OA
ATOM      5  O   UNL     1     -58.750  18.609 -16.862  1.00  0.00    -0.423 OA
ATOM      6  C   UNL     1     -59.525  17.840 -17.622  1.00  0.00     0.142 A 
ATOM      7  C   UNL     1     -60.732  17.347 -17.115  1.00  0.00     0.098 A 
ATOM      8  C   UNL     1     -61.554  16.537 -17.907  1.00  0.00     0.161 A 
ATOM      9  C   UNL     1     -61.167  16.216 -19.222  1.00  0.00     0.158 A 
ATOM     10  C   UNL     1     -59.958  16.708 -19.734  1.00  0.00     0.062 A 
ATOM     11  C   UNL     1     -59.135  17.519 -18.940  1.00  0.00     0.022 A 
ENDROOT
BRANCH   9  12
ATOM     12  O   UNL     1     -61.985  15.410 -20.012  1.00  0.00    -0.504 OA
ATOM     13  H   UNL     1     -61.631  14.573 -20.461  1.00  0.00     0.293 HD
ENDBRANCH   9  12
BRANCH   8  14
ATOM     14  O   UNL     1     -62.751  16.061 -17.373  1.00  0.00    -0.504 OA
ATOM     15  H   UNL     1     -63.351  16.640 -16.797  1.00  0.00     0.293 HD
ENDBRANCH   8  14
TORSDOF 2
ENDMDL
MODEL 2
REMARK VINA RESULT:    -5.299      1.277      2.314
REMARK INTER + INTRA:          -5.609
REMARK INTER:                  -5.609
REMARK INTRA:                   0.000
REMARK UNBOUND:                 0.000
REMARK SMILES O=c1ccc2cc(O)c(O)cc2o1
REMARK SMILES IDX 4 1 3 2 2 3 1 4 13 5 12 6 11 7 9 8 7 9 6 10 5 11 8 12 10 14
REMARK H PARENT 8 13 10 15
REMARK Flexibility Score: inf
ROOT
ATOM      1  C   UNL     1     -58.702  18.541 -17.069  1.00  0.00     0.019 A 
ATOM      2  C   UNL     1     -57.505  18.962 -17.649  1.00  0.00     0.094 A 
ATOM      3  C   UNL     1     -57.207  18.561 -18.956  1.00  0.00     0.336 A 
ATOM      4  O   UNL     1     -56.133  18.930 -19.497  1.00  0.00    -0.246 OA
ATOM      5  O   UNL     1     -58.055  17.790 -19.633  1.00  0.00    -0.423 OA
ATOM      6  C   UNL     1     -59.206  17.368 -19.117  1.00  0.00     0.142 A 
ATOM      7  C   UNL     1     -60.057  16.558 -19.877  1.00  0.00     0.098 A 
ATOM      8  C   UNL     1     -61.271  16.109 -19.342  1.00  0.00     0.161 A 
ATOM      9  C   UNL     1     -61.638  16.472 -18.033  1.00  0.00     0.158 A 
ATOM     10  C   UNL     1     -60.787  17.283 -17.267  1.00  0.00     0.062 A 
ATOM     11  C   UNL     1     -59.573  17.733 -17.804  1.00  0.00     0.022 A 
ENDROOT
BRANCH   9  12
ATOM     12  O   UNL     1     -62.846  16.025 -17.498  1.00  0.00    -0.504 OA
ATOM     13  H   UNL     1     -63.649  15.837 -18.086  1.00  0.00     0.293 HD
ENDBRANCH   9  12
BRANCH   8  14
ATOM     14  O   UNL     1     -62.097  15.304 -20.125  1.00  0.00    -0.504 OA
ATOM     15  H   UNL     1     -63.067  15.137 -19.887  1.00  0.00     0.293 HD
ENDBRANCH   8  14
TORSDOF 2
ENDMDL
MODEL 3
REMARK VINA RESULT:    -4.899      9.814     10.514
REMARK INTER + INTRA:          -5.186
REMARK INTER:                  -5.186
REMARK INTRA:                   0.000
REMARK UNBOUND:                 0.000
REMARK SMILES O=c1ccc2cc(O)c(O)cc2o1
REMARK SMILES IDX 4 1 3 2 2 3 1 4 13 5 12 6 11 7 9 8 7 9 6 10 5 11 8 12 10 14
REMARK H PARENT 8 13 10 15
REMARK Flexibility Score: inf
ROOT
ATOM      1  C   UNL     1     -57.901  25.341 -13.217  1.00  0.00     0.019 A 
ATOM      2  C   UNL     1     -58.953  25.335 -12.300  1.00  0.00     0.094 A 
ATOM      3  C   UNL     1     -60.102  26.081 -12.582  1.00  0.00     0.336 A 
ATOM      4  O   UNL     1     -61.062  26.089 -11.768  1.00  0.00    -0.246 OA
ATOM      5  O   UNL     1     -60.190  26.783 -13.710  1.00  0.00    -0.423 OA
ATOM      6  C   UNL     1     -59.211  26.814 -14.611  1.00  0.00     0.142 A 
ATOM      7  C   UNL     1     -59.359  27.572 -15.777  1.00  0.00     0.098 A 
ATOM      8  C   UNL     1     -58.334  27.610 -16.730  1.00  0.00     0.161 A 
ATOM      9  C   UNL     1     -57.147  26.886 -16.515  1.00  0.00     0.158 A 
ATOM     10  C   UNL     1     -56.994  26.125 -15.346  1.00  0.00     0.062 A 
ATOM     11  C   UNL     1     -58.021  26.087 -14.393  1.00  0.00     0.022 A 
ENDROOT
BRANCH   9  12
ATOM     12  O   UNL     1     -56.125  26.923 -17.462  1.00  0.00    -0.504 OA
ATOM     13  H   UNL     1     -55.184  27.210 -17.218  1.00  0.00     0.293 HD
ENDBRANCH   9  12
BRANCH   8  14
ATOM     14  O   UNL     1     -58.512  28.374 -17.884  1.00  0.00    -0.504 OA
ATOM     15  H   UNL     1     -58.127  28.095 -18.778  1.00  0.00     0.293 HD
ENDBRANCH   8  14
TORSDOF 2
ENDMDL
MODEL 4
REMARK VINA RESULT:    -4.890      9.672     10.491
REMARK INTER + INTRA:          -5.176
REMARK INTER:                  -5.176
REMARK INTRA:                   0.000
REMARK UNBOUND:                 0.000
REMARK SMILES O=c1ccc2cc(O)c(O)cc2o1
REMARK SMILES IDX 4 1 3 2 2 3 1 4 13 5 12 6 11 7 9 8 7 9 6 10 5 11 8 12 10 14
REMARK H PARENT 8 13 10 15
REMARK Flexibility Score: inf
ROOT
ATOM      1  C   UNL     1     -60.209  26.780 -13.602  1.00  0.00     0.019 A 
ATOM      2  C   UNL     1     -60.002  25.988 -12.472  1.00  0.00     0.094 A 
ATOM      3  C   UNL     1     -58.799  25.284 -12.350  1.00  0.00     0.336 A 
ATOM      4  O   UNL     1     -58.591  24.565 -11.338  1.00  0.00    -0.246 OA
ATOM      5  O   UNL     1     -57.868  25.371 -13.298  1.00  0.00    -0.423 OA
ATOM      6  C   UNL     1     -58.027  26.115 -14.390  1.00  0.00     0.142 A 
ATOM      7  C   UNL     1     -57.014  26.165 -15.354  1.00  0.00     0.098 A 
ATOM      8  C   UNL     1     -57.172  26.945 -16.505  1.00  0.00     0.161 A 
ATOM      9  C   UNL     1     -58.356  27.681 -16.698  1.00  0.00     0.158 A 
ATOM     10  C   UNL     1     -59.374  27.633 -15.735  1.00  0.00     0.062 A 
ATOM     11  C   UNL     1     -59.214  26.852 -14.581  1.00  0.00     0.022 A 
ENDROOT
BRANCH   9  12
ATOM     12  O   UNL     1     -58.516  28.458 -17.845  1.00  0.00    -0.504 OA
ATOM     13  H   UNL     1     -59.248  29.154 -17.917  1.00  0.00     0.293 HD
ENDBRANCH   9  12
BRANCH   8  14
ATOM     14  O   UNL     1     -56.144  26.976 -17.447  1.00  0.00    -0.504 OA
ATOM     15  H   UNL     1     -56.327  26.976 -18.443  1.00  0.00     0.293 HD
ENDBRANCH   8  14
TORSDOF 2
ENDMDL
MODEL 5
REMARK VINA RESULT:    -4.755      9.106      9.753
REMARK INTER + INTRA:          -5.033
REMARK INTER:                  -5.033
REMARK INTRA:                   0.000
REMARK UNBOUND:                 0.000
REMARK SMILES O=c1ccc2cc(O)c(O)cc2o1
REMARK SMILES IDX 4 1 3 2 2 3 1 4 13 5 12 6 11 7 9 8 7 9 6 10 5 11 8 12 10 14
REMARK H PARENT 8 13 10 15
REMARK Flexibility Score: inf
ROOT
ATOM      1  C   UNL     1     -56.217  24.252 -13.810  1.00  0.00     0.019 A 
ATOM      2  C   UNL     1     -57.000  23.888 -12.715  1.00  0.00     0.094 A 
ATOM      3  C   UNL     1     -58.277  24.444 -12.580  1.00  0.00     0.336 A 
ATOM      4  O   UNL     1     -59.000  24.128 -11.600  1.00  0.00    -0.246 OA
ATOM      5  O   UNL     1     -58.736  25.306 -13.485  1.00  0.00    -0.423 OA
ATOM      6  C   UNL     1     -58.021  25.680 -14.543  1.00  0.00     0.142 A 
ATOM      7  C   UNL     1     -58.555  26.591 -15.460  1.00  0.00     0.098 A 
ATOM      8  C   UNL     1     -57.810  26.989 -16.577  1.00  0.00     0.161 A 
ATOM      9  C   UNL     1     -56.517  26.473 -16.779  1.00  0.00     0.158 A 
ATOM     10  C   UNL     1     -55.977  25.559 -15.862  1.00  0.00     0.062 A 
ATOM     11  C   UNL     1     -56.724  25.160 -14.745  1.00  0.00     0.022 A 
ENDROOT
BRANCH   9  12
ATOM     12  O   UNL     1     -55.773  26.868 -17.890  1.00  0.00    -0.504 OA
ATOM     13  H   UNL     1     -56.190  27.399 -18.646  1.00  0.00     0.293 HD
ENDBRANCH   9  12
BRANCH   8  14
ATOM     14  O   UNL     1     -58.370  27.899 -17.474  1.00  0.00    -0.504 OA
ATOM     15  H   UNL     1     -58.538  28.866 -17.224  1.00  0.00     0.293 HD
ENDBRANCH   8  14
TORSDOF 2
ENDMDL
MODEL 6
REMARK VINA RESULT:    -4.720      9.346     10.498
REMARK INTER + INTRA:          -4.996
REMARK INTER:                  -4.996
REMARK INTRA:                   0.000
REMARK UNBOUND:                 0.000
REMARK SMILES O=c1ccc2cc(O)c(O)cc2o1
REMARK SMILES IDX 4 1 3 2 2 3 1 4 13 5 12 6 11 7 9 8 7 9 6 10 5 11 8 12 10 14
REMARK H PARENT 8 13 10 15
REMARK Flexibility Score: inf
ROOT
ATOM      1  C   UNL     1     -59.007  25.744 -13.384  1.00  0.00     0.019 A 
ATOM      2  C   UNL     1     -60.206  26.441 -13.233  1.00  0.00     0.094 A 
ATOM      3  C   UNL     1     -60.564  27.391 -14.195  1.00  0.00     0.336 A 
ATOM      4  O   UNL     1     -61.641  28.030 -14.077  1.00  0.00    -0.246 OA
ATOM      5  O   UNL     1     -59.771  27.624 -15.239  1.00  0.00    -0.423 OA
ATOM      6  C   UNL     1     -58.620  26.981 -15.421  1.00  0.00     0.142 A 
ATOM      7  C   UNL     1     -57.827  27.270 -16.537  1.00  0.00     0.098 A 
ATOM      8  C   UNL     1     -56.615  26.598 -16.736  1.00  0.00     0.161 A 
ATOM      9  C   UNL     1     -56.189  25.629 -15.809  1.00  0.00     0.158 A 
ATOM     10  C   UNL     1     -56.981  25.337 -14.689  1.00  0.00     0.062 A 
ATOM     11  C   UNL     1     -58.195  26.009 -14.491  1.00  0.00     0.022 A 
ENDROOT
BRANCH   9  12
ATOM     12  O   UNL     1     -54.982  24.959 -16.006  1.00  0.00    -0.504 OA
ATOM     13  H   UNL     1     -54.337  24.793 -15.242  1.00  0.00     0.293 HD
ENDBRANCH   9  12
BRANCH   8  14
ATOM     14  O   UNL     1     -55.848  26.907 -17.858  1.00  0.00    -0.504 OA
ATOM     15  H   UNL     1     -55.844  26.322 -18.685  1.00  0.00     0.293 HD
ENDBRANCH   8  14
TORSDOF 2
ENDMDL
MODEL 7
REMARK VINA RESULT:    -4.452      1.991      2.850
REMARK INTER + INTRA:          -4.712
REMARK INTER:                  -4.712
REMARK INTRA:                   0.000
REMARK UNBOUND:                 0.000
REMARK SMILES O=c1ccc2cc(O)c(O)cc2o1
REMARK SMILES IDX 4 1 3 2 2 3 1 4 13 5 12 6 11 7 9 8 7 9 6 10 5 11 8 12 10 14
REMARK H PARENT 8 13 10 15
REMARK Flexibility Score: inf
ROOT
ATOM      1  C   UNL     1     -57.132  19.141 -17.553  1.00  0.00     0.019 A 
ATOM      2  C   UNL     1     -56.087  18.631 -18.324  1.00  0.00     0.094 A 
ATOM      3  C   UNL     1     -56.297  17.460 -19.061  1.00  0.00     0.336 A 
ATOM      4  O   UNL     1     -55.367  16.984 -19.762  1.00  0.00    -0.246 OA
ATOM      5  O   UNL     1     -57.477  16.845 -19.026  1.00  0.00    -0.423 OA
ATOM      6  C   UNL     1     -58.499  17.298 -18.305  1.00  0.00     0.142 A 
ATOM      7  C   UNL     1     -59.715  16.608 -18.306  1.00  0.00     0.098 A 
ATOM      8  C   UNL     1     -60.796  17.078 -17.550  1.00  0.00     0.161 A 
ATOM      9  C   UNL     1     -60.660  18.250 -16.783  1.00  0.00     0.158 A 
ATOM     10  C   UNL     1     -59.441  18.945 -16.778  1.00  0.00     0.062 A 
ATOM     11  C   UNL     1     -58.360  18.474 -17.536  1.00  0.00     0.022 A 
ENDROOT
BRANCH   9  12
ATOM     12  O   UNL     1     -61.735  18.719 -16.029  1.00  0.00    -0.504 OA
ATOM     13  H   UNL     1     -62.389  18.085 -15.587  1.00  0.00     0.293 HD
ENDBRANCH   9  12
BRANCH   8  14
ATOM     14  O   UNL     1     -61.996  16.368 -17.573  1.00  0.00    -0.504 OA
ATOM     15  H   UNL     1     -62.036  15.374 -17.386  1.00  0.00     0.293 HD
ENDBRANCH   8  14
TORSDOF 2
ENDMDL
MODEL 8
REMARK VINA RESULT:    -4.432      8.867      9.530
REMARK INTER + INTRA:          -4.691
REMARK INTER:                  -4.691
REMARK INTRA:                   0.000
REMARK UNBOUND:                 0.000
REMARK SMILES O=c1ccc2cc(O)c(O)cc2o1
REMARK SMILES IDX 4 1 3 2 2 3 1 4 13 5 12 6 11 7 9 8 7 9 6 10 5 11 8 12 10 14
REMARK H PARENT 8 13 10 15
REMARK Flexibility Score: inf
ROOT
ATOM      1  C   UNL     1     -55.215  25.082 -15.986  1.00  0.00     0.019 A 
ATOM      2  C   UNL     1     -54.857  24.130 -15.032  1.00  0.00     0.094 A 
ATOM      3  C   UNL     1     -55.732  23.871 -13.971  1.00  0.00     0.336 A 
ATOM      4  O   UNL     1     -55.427  23.016 -13.100  1.00  0.00    -0.246 OA
ATOM      5  O   UNL     1     -56.888  24.524 -13.877  1.00  0.00    -0.423 OA
ATOM      6  C   UNL     1     -57.268  25.438 -14.766  1.00  0.00     0.142 A 
ATOM      7  C   UNL     1     -58.494  26.093 -14.615  1.00  0.00     0.098 A 
ATOM      8  C   UNL     1     -58.902  27.056 -15.545  1.00  0.00     0.161 A 
ATOM      9  C   UNL     1     -58.073  27.371 -16.639  1.00  0.00     0.158 A 
ATOM     10  C   UNL     1     -56.842  26.717 -16.794  1.00  0.00     0.062 A 
ATOM     11  C   UNL     1     -56.436  25.752 -15.862  1.00  0.00     0.022 A 
ENDROOT
BRANCH   9  12
ATOM     12  O   UNL     1     -58.477  28.331 -17.566  1.00  0.00    -0.504 OA
ATOM     13  H   UNL     1     -59.203  28.139 -18.246  1.00  0.00     0.293 HD
ENDBRANCH   9  12
BRANCH   8  14
ATOM     14  O   UNL     1     -60.130  27.691 -15.367  1.00  0.00    -0.504 OA
ATOM     15  H   UNL     1     -60.948  27.196 -15.034  1.00  0.00     0.293 HD
ENDBRANCH   8  14
TORSDOF 2
ENDMDL
