MODEL 1
REMARK VINA RESULT:     7.697      0.000      0.000
REMARK INTER + INTRA:          13.234
REMARK INTER:                  14.447
REMARK INTRA:                  -1.213
REMARK UNBOUND:                -1.213
REMARK SMILES CCCCCCCCC=CCCCCCCCC(=O)[O-]
REMARK SMILES IDX 10 1 9 2 11 3 12 4 13 5 14 6 15 7 16 8 17 9 18 10 19 11
REMARK SMILES IDX 20 12 8 13 7 14 6 15 5 16 4 17 3 18 2 19 1 20
REMARK H PARENT
REMARK Flexibility Score: inf
ROOT
ATOM      1  C   UNL     1     -35.734  24.373   7.453  1.00  0.00    -0.031 C 
ATOM      2  C   UNL     1     -35.259  25.257   6.563  1.00  0.00    -0.031 C 
ENDROOT
BRANCH   1   3
ATOM      3  C   UNL     1     -36.499  23.152   7.020  1.00  0.00     0.027 C 
BRANCH   3   4
ATOM      4  C   UNL     1     -37.680  22.877   7.962  1.00  0.00     0.004 C 
BRANCH   4   5
ATOM      5  C   UNL     1     -38.717  21.923   7.345  1.00  0.00     0.000 C 
BRANCH   5   6
ATOM      6  C   UNL     1     -40.115  22.558   7.243  1.00  0.00     0.000 C 
BRANCH   6   7
ATOM      7  C   UNL     1     -40.096  24.072   7.501  1.00  0.00     0.000 C 
BRANCH   7   8
ATOM      8  C   UNL     1     -40.125  24.894   6.204  1.00  0.00     0.006 C 
BRANCH   8   9
ATOM      9  C   UNL     1     -40.060  23.981   4.976  1.00  0.00     0.053 C 
BRANCH   9  10
ATOM     10  C   UNL     1     -39.005  24.455   4.026  1.00  0.00     0.041 C 
ATOM     11  O   UNL     1     -39.252  25.390   3.220  1.00  0.00    -0.550 OA
ATOM     12  O   UNL     1     -37.765  23.830   3.997  1.00  0.00    -0.550 OA
ENDBRANCH   9  10
ENDBRANCH   8   9
ENDBRANCH   7   8
ENDBRANCH   6   7
ENDBRANCH   5   6
ENDBRANCH   4   5
ENDBRANCH   3   4
ENDBRANCH   1   3
BRANCH   2  13
ATOM     13  C   UNL     1     -34.495  26.477   6.997  1.00  0.00     0.027 C 
BRANCH  13  14
ATOM     14  C   UNL     1     -33.355  26.793   6.018  1.00  0.00     0.004 C 
BRANCH  14  15
ATOM     15  C   UNL     1     -32.325  25.655   5.909  1.00  0.00     0.000 C 
BRANCH  15  16
ATOM     16  C   UNL     1     -31.400  25.493   7.130  1.00  0.00     0.000 C 
BRANCH  16  17
ATOM     17  C   UNL     1     -30.380  24.354   6.963  1.00  0.00    -0.000 C 
BRANCH  17  18
ATOM     18  C   UNL     1     -28.957  24.773   7.369  1.00  0.00    -0.000 C 
BRANCH  18  19
ATOM     19  C   UNL     1     -28.774  26.297   7.398  1.00  0.00    -0.003 C 
ATOM     20  C   UNL     1     -27.816  26.756   6.303  1.00  0.00     0.004 C 
ENDBRANCH  18  19
ENDBRANCH  17  18
ENDBRANCH  16  17
ENDBRANCH  15  16
ENDBRANCH  14  15
ENDBRANCH  13  14
ENDBRANCH   2  13
TORSDOF 15
ENDMDL
MODEL 2
REMARK VINA RESULT:     8.722      2.432      3.756
REMARK INTER + INTRA:          15.157
REMARK INTER:                  12.459
REMARK INTRA:                   2.699
REMARK UNBOUND:                -1.213
REMARK SMILES CCCCCCCCC=CCCCCCCCC(=O)[O-]
REMARK SMILES IDX 10 1 9 2 11 3 12 4 13 5 14 6 15 7 16 8 17 9 18 10 19 11
REMARK SMILES IDX 20 12 8 13 7 14 6 15 5 16 4 17 3 18 2 19 1 20
REMARK H PARENT
REMARK Flexibility Score: inf
ROOT
ATOM      1  C   UNL     1     -38.526  23.213   8.124  1.00  0.00    -0.031 C 
ATOM      2  C   UNL     1     -37.474  23.574   7.374  1.00  0.00    -0.031 C 
ENDROOT
BRANCH   1   3
ATOM      3  C   UNL     1     -39.880  23.842   7.934  1.00  0.00     0.027 C 
BRANCH   3   4
ATOM      4  C   UNL     1     -40.028  24.418   6.519  1.00  0.00     0.004 C 
BRANCH   4   5
ATOM      5  C   UNL     1     -39.309  25.767   6.353  1.00  0.00     0.000 C 
BRANCH   5   6
ATOM      6  C   UNL     1     -39.786  26.541   5.112  1.00  0.00     0.000 C 
BRANCH   6   7
ATOM      7  C   UNL     1     -40.099  25.618   3.925  1.00  0.00     0.000 C 
BRANCH   7   8
ATOM      8  C   UNL     1     -38.836  24.999   3.308  1.00  0.00     0.006 C 
BRANCH   8   9
ATOM      9  C   UNL     1     -38.226  23.951   4.244  1.00  0.00     0.053 C 
BRANCH   9  10
ATOM     10  C   UNL     1     -39.164  22.800   4.425  1.00  0.00     0.041 C 
ATOM     11  O   UNL     1     -39.060  22.050   5.430  1.00  0.00    -0.550 OA
ATOM     12  O   UNL     1     -40.123  22.526   3.457  1.00  0.00    -0.550 OA
ENDBRANCH   9  10
ENDBRANCH   8   9
ENDBRANCH   7   8
ENDBRANCH   6   7
ENDBRANCH   5   6
ENDBRANCH   4   5
ENDBRANCH   3   4
ENDBRANCH   1   3
BRANCH   2  13
ATOM     13  C   UNL     1     -36.120  22.946   7.566  1.00  0.00     0.027 C 
BRANCH  13  14
ATOM     14  C   UNL     1     -35.009  24.006   7.531  1.00  0.00     0.004 C 
BRANCH  14  15
ATOM     15  C   UNL     1     -35.440  25.304   6.825  1.00  0.00     0.000 C 
BRANCH  15  16
ATOM     16  C   UNL     1     -34.877  26.599   7.439  1.00  0.00     0.000 C 
BRANCH  16  17
ATOM     17  C   UNL     1     -33.553  27.042   6.793  1.00  0.00    -0.000 C 
BRANCH  17  18
ATOM     18  C   UNL     1     -33.121  26.119   5.642  1.00  0.00    -0.000 C 
BRANCH  18  19
ATOM     19  C   UNL     1     -33.195  26.807   4.271  1.00  0.00    -0.003 C 
ATOM     20  C   UNL     1     -32.491  28.161   4.298  1.00  0.00     0.004 C 
ENDBRANCH  18  19
ENDBRANCH  17  18
ENDBRANCH  16  17
ENDBRANCH  15  16
ENDBRANCH  14  15
ENDBRANCH  13  14
ENDBRANCH   2  13
TORSDOF 15
ENDMDL
MODEL 3
REMARK VINA RESULT:     8.821      5.643      8.977
REMARK INTER + INTRA:          15.343
REMARK INTER:                  15.910
REMARK INTRA:                  -0.566
REMARK UNBOUND:                -1.213
REMARK SMILES CCCCCCCCC=CCCCCCCCC(=O)[O-]
REMARK SMILES IDX 10 1 9 2 11 3 12 4 13 5 14 6 15 7 16 8 17 9 18 10 19 11
REMARK SMILES IDX 20 12 8 13 7 14 6 15 5 16 4 17 3 18 2 19 1 20
REMARK H PARENT
REMARK Flexibility Score: inf
ROOT
ATOM      1  C   UNL     1     -38.707  25.432   2.765  1.00  0.00    -0.031 C 
ATOM      2  C   UNL     1     -39.726  25.517   3.633  1.00  0.00    -0.031 C 
ENDROOT
BRANCH   1   3
ATOM      3  C   UNL     1     -38.661  26.275   1.520  1.00  0.00     0.027 C 
BRANCH   3   4
ATOM      4  C   UNL     1     -37.514  25.836   0.597  1.00  0.00     0.004 C 
BRANCH   4   5
ATOM      5  C   UNL     1     -37.411  26.703  -0.668  1.00  0.00     0.000 C 
BRANCH   5   6
ATOM      6  C   UNL     1     -36.363  27.822  -0.532  1.00  0.00     0.000 C 
BRANCH   6   7
ATOM      7  C   UNL     1     -35.724  28.199  -1.877  1.00  0.00     0.000 C 
BRANCH   7   8
ATOM      8  C   UNL     1     -36.239  29.539  -2.422  1.00  0.00     0.006 C 
BRANCH   8   9
ATOM      9  C   UNL     1     -35.186  30.639  -2.260  1.00  0.00     0.053 C 
BRANCH   9  10
ATOM     10  C   UNL     1     -34.049  30.420  -3.207  1.00  0.00     0.041 C 
ATOM     11  O   UNL     1     -32.997  29.852  -2.814  1.00  0.00    -0.550 OA
ATOM     12  O   UNL     1     -34.133  30.887  -4.513  1.00  0.00    -0.550 OA
ENDBRANCH   9  10
ENDBRANCH   8   9
ENDBRANCH   7   8
ENDBRANCH   6   7
ENDBRANCH   5   6
ENDBRANCH   4   5
ENDBRANCH   3   4
ENDBRANCH   1   3
BRANCH   2  13
ATOM     13  C   UNL     1     -39.772  24.673   4.877  1.00  0.00     0.027 C 
BRANCH  13  14
ATOM     14  C   UNL     1     -40.094  23.209   4.541  1.00  0.00     0.004 C 
BRANCH  14  15
ATOM     15  C   UNL     1     -39.628  22.227   5.630  1.00  0.00     0.000 C 
BRANCH  15  16
ATOM     16  C   UNL     1     -40.057  22.590   7.063  1.00  0.00     0.000 C 
BRANCH  16  17
ATOM     17  C   UNL     1     -38.956  22.327   8.104  1.00  0.00    -0.000 C 
BRANCH  17  18
ATOM     18  C   UNL     1     -37.861  23.406   8.089  1.00  0.00    -0.000 C 
BRANCH  18  19
ATOM     19  C   UNL     1     -36.949  23.310   6.858  1.00  0.00    -0.003 C 
ATOM     20  C   UNL     1     -35.995  24.498   6.787  1.00  0.00     0.004 C 
ENDBRANCH  18  19
ENDBRANCH  17  18
ENDBRANCH  16  17
ENDBRANCH  15  16
ENDBRANCH  14  15
ENDBRANCH  13  14
ENDBRANCH   2  13
TORSDOF 15
ENDMDL
MODEL 4
REMARK VINA RESULT:     8.849      3.573      8.731
REMARK INTER + INTRA:          15.396
REMARK INTER:                  15.977
REMARK INTRA:                  -0.581
REMARK UNBOUND:                -1.213
REMARK SMILES CCCCCCCCC=CCCCCCCCC(=O)[O-]
REMARK SMILES IDX 10 1 9 2 11 3 12 4 13 5 14 6 15 7 16 8 17 9 18 10 19 11
REMARK SMILES IDX 20 12 8 13 7 14 6 15 5 16 4 17 3 18 2 19 1 20
REMARK H PARENT
REMARK Flexibility Score: inf
ROOT
ATOM      1  C   UNL     1     -36.424  23.707   7.067  1.00  0.00    -0.031 C 
ATOM      2  C   UNL     1     -37.306  23.403   8.031  1.00  0.00    -0.031 C 
ENDROOT
BRANCH   1   3
ATOM      3  C   UNL     1     -35.526  24.910   7.174  1.00  0.00     0.027 C 
BRANCH   3   4
ATOM      4  C   UNL     1     -34.649  25.057   5.922  1.00  0.00     0.004 C 
BRANCH   4   5
ATOM      5  C   UNL     1     -33.686  26.252   6.015  1.00  0.00     0.000 C 
BRANCH   5   6
ATOM      6  C   UNL     1     -32.560  26.024   7.039  1.00  0.00     0.000 C 
BRANCH   6   7
ATOM      7  C   UNL     1     -31.700  24.794   6.707  1.00  0.00     0.000 C 
BRANCH   7   8
ATOM      8  C   UNL     1     -30.571  24.571   7.723  1.00  0.00     0.006 C 
BRANCH   8   9
ATOM      9  C   UNL     1     -29.787  25.864   7.966  1.00  0.00     0.053 C 
BRANCH   9  10
ATOM     10  C   UNL     1     -28.633  25.963   7.019  1.00  0.00     0.041 C 
ATOM     11  O   UNL     1     -28.083  24.919   6.580  1.00  0.00    -0.550 OA
ATOM     12  O   UNL     1     -28.133  27.209   6.661  1.00  0.00    -0.550 OA
ENDBRANCH   9  10
ENDBRANCH   8   9
ENDBRANCH   7   8
ENDBRANCH   6   7
ENDBRANCH   5   6
ENDBRANCH   4   5
ENDBRANCH   3   4
ENDBRANCH   1   3
BRANCH   2  13
ATOM     13  C   UNL     1     -38.205  22.201   7.922  1.00  0.00     0.027 C 
BRANCH  13  14
ATOM     14  C   UNL     1     -39.626  22.609   7.505  1.00  0.00     0.004 C 
BRANCH  14  15
ATOM     15  C   UNL     1     -39.913  22.344   6.016  1.00  0.00     0.000 C 
BRANCH  15  16
ATOM     16  C   UNL     1     -38.872  22.920   5.038  1.00  0.00     0.000 C 
BRANCH  16  17
ATOM     17  C   UNL     1     -39.510  23.607   3.819  1.00  0.00    -0.000 C 
BRANCH  17  18
ATOM     18  C   UNL     1     -39.845  25.084   4.083  1.00  0.00    -0.000 C 
BRANCH  18  19
ATOM     19  C   UNL     1     -39.755  25.456   5.570  1.00  0.00    -0.003 C 
ATOM     20  C   UNL     1     -40.123  26.920   5.792  1.00  0.00     0.004 C 
ENDBRANCH  18  19
ENDBRANCH  17  18
ENDBRANCH  16  17
ENDBRANCH  15  16
ENDBRANCH  14  15
ENDBRANCH  13  14
ENDBRANCH   2  13
TORSDOF 15
ENDMDL
MODEL 5
REMARK VINA RESULT:     8.885      5.642      7.630
REMARK INTER + INTRA:          15.463
REMARK INTER:                  15.899
REMARK INTRA:                  -0.437
REMARK UNBOUND:                -1.213
REMARK SMILES CCCCCCCCC=CCCCCCCCC(=O)[O-]
REMARK SMILES IDX 10 1 9 2 11 3 12 4 13 5 14 6 15 7 16 8 17 9 18 10 19 11
REMARK SMILES IDX 20 12 8 13 7 14 6 15 5 16 4 17 3 18 2 19 1 20
REMARK H PARENT
REMARK Flexibility Score: inf
ROOT
ATOM      1  C   UNL     1     -38.816  25.683   2.069  1.00  0.00    -0.031 C 
ATOM      2  C   UNL     1     -38.409  26.548   1.128  1.00  0.00    -0.031 C 
ENDROOT
BRANCH   1   3
ATOM      3  C   UNL     1     -39.731  26.106   3.185  1.00  0.00     0.027 C 
BRANCH   3   4
ATOM      4  C   UNL     1     -39.564  25.197   4.412  1.00  0.00     0.004 C 
BRANCH   4   5
ATOM      5  C   UNL     1     -39.527  23.706   4.039  1.00  0.00     0.000 C 
BRANCH   5   6
ATOM      6  C   UNL     1     -39.640  22.788   5.269  1.00  0.00     0.000 C 
BRANCH   6   7
ATOM      7  C   UNL     1     -40.125  23.535   6.521  1.00  0.00     0.000 C 
BRANCH   7   8
ATOM      8  C   UNL     1     -39.057  23.599   7.622  1.00  0.00     0.006 C 
BRANCH   8   9
ATOM      9  C   UNL     1     -37.979  24.633   7.282  1.00  0.00     0.053 C 
BRANCH   9  10
ATOM     10  C   UNL     1     -36.646  23.971   7.132  1.00  0.00     0.041 C 
ATOM     11  O   UNL     1     -35.718  24.550   6.510  1.00  0.00    -0.550 OA
ATOM     12  O   UNL     1     -36.445  22.692   7.636  1.00  0.00    -0.550 OA
ENDBRANCH   9  10
ENDBRANCH   8   9
ENDBRANCH   7   8
ENDBRANCH   6   7
ENDBRANCH   5   6
ENDBRANCH   4   5
ENDBRANCH   3   4
ENDBRANCH   1   3
BRANCH   2  13
ATOM     13  C   UNL     1     -37.493  26.124   0.013  1.00  0.00     0.027 C 
BRANCH  13  14
ATOM     14  C   UNL     1     -36.363  27.145  -0.193  1.00  0.00     0.004 C 
BRANCH  14  15
ATOM     15  C   UNL     1     -36.502  27.936  -1.506  1.00  0.00     0.000 C 
BRANCH  15  16
ATOM     16  C   UNL     1     -35.230  28.676  -1.959  1.00  0.00     0.000 C 
BRANCH  16  17
ATOM     17  C   UNL     1     -35.427  30.199  -2.061  1.00  0.00    -0.000 C 
BRANCH  17  18
ATOM     18  C   UNL     1     -35.432  30.697  -3.515  1.00  0.00    -0.000 C 
BRANCH  18  19
ATOM     19  C   UNL     1     -34.017  30.899  -4.077  1.00  0.00    -0.003 C 
ATOM     20  C   UNL     1     -32.972  30.841  -2.967  1.00  0.00     0.004 C 
ENDBRANCH  18  19
ENDBRANCH  17  18
ENDBRANCH  16  17
ENDBRANCH  15  16
ENDBRANCH  14  15
ENDBRANCH  13  14
ENDBRANCH   2  13
TORSDOF 15
ENDMDL
MODEL 6
REMARK VINA RESULT:     8.947      1.306      2.003
REMARK INTER + INTRA:          15.579
REMARK INTER:                  15.739
REMARK INTRA:                  -0.160
REMARK UNBOUND:                -1.213
REMARK SMILES CCCCCCCCC=CCCCCCCCC(=O)[O-]
REMARK SMILES IDX 10 1 9 2 11 3 12 4 13 5 14 6 15 7 16 8 17 9 18 10 19 11
REMARK SMILES IDX 20 12 8 13 7 14 6 15 5 16 4 17 3 18 2 19 1 20
REMARK H PARENT
REMARK Flexibility Score: inf
ROOT
ATOM      1  C   UNL     1     -36.118  24.690   6.665  1.00  0.00    -0.031 C 
ATOM      2  C   UNL     1     -34.838  24.391   6.400  1.00  0.00    -0.031 C 
ENDROOT
BRANCH   1   3
ATOM      3  C   UNL     1     -36.974  23.798   7.523  1.00  0.00     0.027 C 
BRANCH   3   4
ATOM      4  C   UNL     1     -38.462  24.145   7.370  1.00  0.00     0.004 C 
BRANCH   4   5
ATOM      5  C   UNL     1     -38.682  25.567   6.827  1.00  0.00     0.000 C 
BRANCH   5   6
ATOM      6  C   UNL     1     -40.108  25.778   6.289  1.00  0.00     0.000 C 
BRANCH   6   7
ATOM      7  C   UNL     1     -40.124  26.438   4.901  1.00  0.00     0.000 C 
BRANCH   7   8
ATOM      8  C   UNL     1     -39.610  25.504   3.796  1.00  0.00     0.006 C 
BRANCH   8   9
ATOM      9  C   UNL     1     -40.125  24.076   4.001  1.00  0.00     0.053 C 
BRANCH   9  10
ATOM     10  C   UNL     1     -39.004  23.167   4.396  1.00  0.00     0.041 C 
ATOM     11  O   UNL     1     -39.226  22.174   5.138  1.00  0.00    -0.550 OA
ATOM     12  O   UNL     1     -37.707  23.443   3.984  1.00  0.00    -0.550 OA
ENDBRANCH   9  10
ENDBRANCH   8   9
ENDBRANCH   7   8
ENDBRANCH   6   7
ENDBRANCH   5   6
ENDBRANCH   4   5
ENDBRANCH   3   4
ENDBRANCH   1   3
BRANCH   2  13
ATOM     13  C   UNL     1     -33.984  25.283   5.541  1.00  0.00     0.027 C 
BRANCH  13  14
ATOM     14  C   UNL     1     -33.462  26.486   6.340  1.00  0.00     0.004 C 
BRANCH  14  15
ATOM     15  C   UNL     1     -33.089  26.127   7.790  1.00  0.00     0.000 C 
BRANCH  15  16
ATOM     16  C   UNL     1     -31.682  25.527   7.971  1.00  0.00     0.000 C 
BRANCH  16  17
ATOM     17  C   UNL     1     -30.985  25.218   6.635  1.00  0.00    -0.000 C 
BRANCH  17  18
ATOM     18  C   UNL     1     -29.750  24.320   6.808  1.00  0.00    -0.000 C 
BRANCH  18  19
ATOM     19  C   UNL     1     -28.470  25.119   7.088  1.00  0.00    -0.003 C 
ATOM     20  C   UNL     1     -28.728  26.620   6.994  1.00  0.00     0.004 C 
ENDBRANCH  18  19
ENDBRANCH  17  18
ENDBRANCH  16  17
ENDBRANCH  15  16
ENDBRANCH  14  15
ENDBRANCH  13  14
ENDBRANCH   2  13
TORSDOF 15
ENDMDL
MODEL 7
REMARK VINA RESULT:     9.802      2.260      3.398
REMARK INTER + INTRA:          17.184
REMARK INTER:                  15.762
REMARK INTRA:                   1.422
REMARK UNBOUND:                -1.213
REMARK SMILES CCCCCCCCC=CCCCCCCCC(=O)[O-]
REMARK SMILES IDX 10 1 9 2 11 3 12 4 13 5 14 6 15 7 16 8 17 9 18 10 19 11
REMARK SMILES IDX 20 12 8 13 7 14 6 15 5 16 4 17 3 18 2 19 1 20
REMARK H PARENT
REMARK Flexibility Score: inf
ROOT
ATOM      1  C   UNL     1     -37.397  22.431   8.124  1.00  0.00    -0.031 C 
ATOM      2  C   UNL     1     -36.984  23.477   7.393  1.00  0.00    -0.031 C 
ENDROOT
BRANCH   1   3
ATOM      3  C   UNL     1     -38.765  21.834   7.941  1.00  0.00     0.027 C 
BRANCH   3   4
ATOM      4  C   UNL     1     -39.507  22.499   6.772  1.00  0.00     0.004 C 
BRANCH   4   5
ATOM      5  C   UNL     1     -40.109  23.861   7.155  1.00  0.00     0.000 C 
BRANCH   5   6
ATOM      6  C   UNL     1     -39.204  25.039   6.753  1.00  0.00     0.000 C 
BRANCH   6   7
ATOM      7  C   UNL     1     -39.698  25.759   5.489  1.00  0.00     0.000 C 
BRANCH   7   8
ATOM      8  C   UNL     1     -40.013  24.789   4.340  1.00  0.00     0.006 C 
BRANCH   8   9
ATOM      9  C   UNL     1     -39.415  25.288   3.022  1.00  0.00     0.053 C 
BRANCH   9  10
ATOM     10  C   UNL     1     -39.555  26.773   2.912  1.00  0.00     0.041 C 
ATOM     11  O   UNL     1     -40.109  27.427   3.834  1.00  0.00    -0.550 OA
ATOM     12  O   UNL     1     -39.117  27.430   1.769  1.00  0.00    -0.550 OA
ENDBRANCH   9  10
ENDBRANCH   8   9
ENDBRANCH   7   8
ENDBRANCH   6   7
ENDBRANCH   5   6
ENDBRANCH   4   5
ENDBRANCH   3   4
ENDBRANCH   1   3
BRANCH   2  13
ATOM     13  C   UNL     1     -35.615  24.075   7.578  1.00  0.00     0.027 C 
BRANCH  13  14
ATOM     14  C   UNL     1     -35.158  24.811   6.310  1.00  0.00     0.004 C 
BRANCH  14  15
ATOM     15  C   UNL     1     -33.642  24.699   6.065  1.00  0.00     0.000 C 
BRANCH  15  16
ATOM     16  C   UNL     1     -32.801  25.852   6.643  1.00  0.00     0.000 C 
BRANCH  16  17
ATOM     17  C   UNL     1     -33.544  27.199   6.634  1.00  0.00    -0.000 C 
BRANCH  17  18
ATOM     18  C   UNL     1     -33.278  28.010   5.355  1.00  0.00    -0.000 C 
BRANCH  18  19
ATOM     19  C   UNL     1     -32.874  27.127   4.166  1.00  0.00    -0.003 C 
ATOM     20  C   UNL     1     -33.411  27.693   2.854  1.00  0.00     0.004 C 
ENDBRANCH  18  19
ENDBRANCH  17  18
ENDBRANCH  16  17
ENDBRANCH  15  16
ENDBRANCH  14  15
ENDBRANCH  13  14
ENDBRANCH   2  13
TORSDOF 15
ENDMDL
MODEL 8
REMARK VINA RESULT:    10.131      6.292      9.839
REMARK INTER + INTRA:          17.803
REMARK INTER:                  18.045
REMARK INTRA:                  -0.242
REMARK UNBOUND:                -1.213
REMARK SMILES CCCCCCCCC=CCCCCCCCC(=O)[O-]
REMARK SMILES IDX 10 1 9 2 11 3 12 4 13 5 14 6 15 7 16 8 17 9 18 10 19 11
REMARK SMILES IDX 20 12 8 13 7 14 6 15 5 16 4 17 3 18 2 19 1 20
REMARK H PARENT
REMARK Flexibility Score: inf
ROOT
ATOM      1  C   UNL     1     -38.272  25.868   1.750  1.00  0.00    -0.031 C 
ATOM      2  C   UNL     1     -39.544  25.975   2.161  1.00  0.00    -0.031 C 
ENDROOT
BRANCH   1   3
ATOM      3  C   UNL     1     -37.904  25.967   0.295  1.00  0.00     0.027 C 
BRANCH   3   4
ATOM      4  C   UNL     1     -36.907  27.110   0.053  1.00  0.00     0.004 C 
BRANCH   4   5
ATOM      5  C   UNL     1     -36.731  27.433  -1.440  1.00  0.00     0.000 C 
BRANCH   5   6
ATOM      6  C   UNL     1     -35.742  28.586  -1.681  1.00  0.00     0.000 C 
BRANCH   6   7
ATOM      7  C   UNL     1     -36.196  29.527  -2.808  1.00  0.00     0.000 C 
BRANCH   7   8
ATOM      8  C   UNL     1     -35.455  30.873  -2.788  1.00  0.00     0.006 C 
BRANCH   8   9
ATOM      9  C   UNL     1     -34.317  30.887  -3.812  1.00  0.00     0.053 C 
BRANCH   9  10
ATOM     10  C   UNL     1     -32.996  30.713  -3.131  1.00  0.00     0.041 C 
ATOM     11  O   UNL     1     -32.095  31.582  -3.266  1.00  0.00    -0.550 OA
ATOM     12  O   UNL     1     -32.744  29.568  -2.386  1.00  0.00    -0.550 OA
ENDBRANCH   9  10
ENDBRANCH   8   9
ENDBRANCH   7   8
ENDBRANCH   6   7
ENDBRANCH   5   6
ENDBRANCH   4   5
ENDBRANCH   3   4
ENDBRANCH   1   3
BRANCH   2  13
ATOM     13  C   UNL     1     -39.911  25.874   3.617  1.00  0.00     0.027 C 
BRANCH  13  14
ATOM     14  C   UNL     1     -38.886  25.029   4.388  1.00  0.00     0.004 C 
BRANCH  14  15
ATOM     15  C   UNL     1     -39.229  24.885   5.881  1.00  0.00     0.000 C 
BRANCH  15  16
ATOM     16  C   UNL     1     -38.017  24.717   6.816  1.00  0.00     0.000 C 
BRANCH  16  17
ATOM     17  C   UNL     1     -38.115  23.465   7.704  1.00  0.00    -0.000 C 
BRANCH  17  18
ATOM     18  C   UNL     1     -39.567  23.103   8.057  1.00  0.00    -0.000 C 
BRANCH  18  19
ATOM     19  C   UNL     1     -40.016  21.776   7.430  1.00  0.00    -0.003 C 
ATOM     20  C   UNL     1     -40.123  21.894   5.912  1.00  0.00     0.004 C 
ENDBRANCH  18  19
ENDBRANCH  17  18
ENDBRANCH  16  17
ENDBRANCH  15  16
ENDBRANCH  14  15
ENDBRANCH  13  14
ENDBRANCH   2  13
TORSDOF 15
ENDMDL
