MODEL 1
REMARK VINA RESULT:    -4.821      0.000      0.000
REMARK INTER + INTRA:         -12.455
REMARK INTER:                  -9.331
REMARK INTRA:                  -3.124
REMARK UNBOUND:                -3.124
REMARK SMILES CCCCCCCCCCCCCCCCCC(=O)[O-]
REMARK SMILES IDX 10 1 11 2 12 3 13 4 14 5 15 6 16 7 17 8 18 9 19 10 20 11
REMARK SMILES IDX 9 12 8 13 7 14 6 15 5 16 4 17 3 18 2 19 1 20
REMARK H PARENT
REMARK Flexibility Score: inf
ROOT
ATOM      1  C   UNL     1       0.705  53.763  19.912  1.00  0.00     0.000 C 
ENDROOT
BRANCH   1   2
ATOM      2  C   UNL     1       1.139  52.370  19.415  1.00  0.00     0.000 C 
BRANCH   2   3
ATOM      3  C   UNL     1       0.322  51.830  18.224  1.00  0.00     0.000 C 
BRANCH   3   4
ATOM      4  C   UNL     1      -0.417  52.924  17.421  1.00  0.00     0.000 C 
BRANCH   4   5
ATOM      5  C   UNL     1      -1.949  52.759  17.398  1.00  0.00     0.000 C 
BRANCH   5   6
ATOM      6  C   UNL     1      -2.705  53.783  18.271  1.00  0.00     0.000 C 
BRANCH   6   7
ATOM      7  C   UNL     1      -2.391  55.250  17.912  1.00  0.00     0.006 C 
BRANCH   7   8
ATOM      8  C   UNL     1      -2.853  56.257  18.978  1.00  0.00     0.053 C 
BRANCH   8   9
ATOM      9  C   UNL     1      -4.154  56.904  18.610  1.00  0.00     0.041 C 
ATOM     10  O   UNL     1      -5.236  56.463  19.080  1.00  0.00    -0.550 OA
ATOM     11  O   UNL     1      -4.173  57.971  17.718  1.00  0.00    -0.550 OA
ENDBRANCH   8   9
ENDBRANCH   7   8
ENDBRANCH   6   7
ENDBRANCH   5   6
ENDBRANCH   4   5
ENDBRANCH   3   4
ENDBRANCH   2   3
ENDBRANCH   1   2
BRANCH   1  12
ATOM     12  C   UNL     1       1.855  54.552  20.566  1.00  0.00     0.000 C 
BRANCH  12  13
ATOM     13  C   UNL     1       2.060  55.940  19.928  1.00  0.00    -0.000 C 
BRANCH  13  14
ATOM     14  C   UNL     1       0.871  56.465  19.097  1.00  0.00    -0.000 C 
BRANCH  14  15
ATOM     15  C   UNL     1       1.244  57.034  17.716  1.00  0.00    -0.000 C 
BRANCH  15  16
ATOM     16  C   UNL     1       1.199  55.969  16.606  1.00  0.00    -0.000 C 
BRANCH  16  17
ATOM     17  C   UNL     1       2.600  55.515  16.167  1.00  0.00    -0.000 C 
BRANCH  17  18
ATOM     18  C   UNL     1       2.902  54.062  16.566  1.00  0.00    -0.000 C 
BRANCH  18  19
ATOM     19  C   UNL     1       4.053  54.000  17.579  1.00  0.00    -0.003 C 
ATOM     20  C   UNL     1       4.856  55.298  17.584  1.00  0.00     0.004 C 
ENDBRANCH  18  19
ENDBRANCH  17  18
ENDBRANCH  16  17
ENDBRANCH  15  16
ENDBRANCH  14  15
ENDBRANCH  13  14
ENDBRANCH  12  13
ENDBRANCH   1  12
TORSDOF 16
ENDMDL
MODEL 2
REMARK VINA RESULT:    -4.783      3.403      6.167
REMARK INTER + INTRA:         -12.381
REMARK INTER:                  -9.413
REMARK INTRA:                  -2.968
REMARK UNBOUND:                -3.124
REMARK SMILES CCCCCCCCCCCCCCCCCC(=O)[O-]
REMARK SMILES IDX 10 1 11 2 12 3 13 4 14 5 15 6 16 7 17 8 18 9 19 10 20 11
REMARK SMILES IDX 9 12 8 13 7 14 6 15 5 16 4 17 3 18 2 19 1 20
REMARK H PARENT
REMARK Flexibility Score: inf
ROOT
ATOM      1  C   UNL     1       2.678  53.512  20.157  1.00  0.00     0.000 C 
ENDROOT
BRANCH   1   2
ATOM      2  C   UNL     1       1.656  54.595  20.556  1.00  0.00     0.000 C 
BRANCH   2   3
ATOM      3  C   UNL     1       1.705  55.873  19.694  1.00  0.00     0.000 C 
BRANCH   3   4
ATOM      4  C   UNL     1       0.361  56.230  19.021  1.00  0.00     0.000 C 
BRANCH   4   5
ATOM      5  C   UNL     1       0.398  56.180  17.481  1.00  0.00     0.000 C 
BRANCH   5   6
ATOM      6  C   UNL     1       1.817  56.297  16.882  1.00  0.00     0.000 C 
BRANCH   6   7
ATOM      7  C   UNL     1       2.265  55.041  16.108  1.00  0.00     0.006 C 
BRANCH   7   8
ATOM      8  C   UNL     1       3.725  55.101  15.630  1.00  0.00     0.053 C 
BRANCH   8   9
ATOM      9  C   UNL     1       4.652  55.555  16.717  1.00  0.00     0.041 C 
ATOM     10  O   UNL     1       4.835  54.836  17.735  1.00  0.00    -0.550 OA
ATOM     11  O   UNL     1       5.283  56.790  16.623  1.00  0.00    -0.550 OA
ENDBRANCH   8   9
ENDBRANCH   7   8
ENDBRANCH   6   7
ENDBRANCH   5   6
ENDBRANCH   4   5
ENDBRANCH   3   4
ENDBRANCH   2   3
ENDBRANCH   1   2
BRANCH   1  12
ATOM     12  C   UNL     1       2.235  52.691  18.932  1.00  0.00     0.000 C 
BRANCH  12  13
ATOM     13  C   UNL     1       0.741  52.316  18.976  1.00  0.00    -0.000 C 
BRANCH  13  14
ATOM     14  C   UNL     1      -0.028  52.516  17.653  1.00  0.00    -0.000 C 
BRANCH  14  15
ATOM     15  C   UNL     1      -1.561  52.438  17.774  1.00  0.00    -0.000 C 
BRANCH  15  16
ATOM     16  C   UNL     1      -2.192  53.783  18.172  1.00  0.00    -0.000 C 
BRANCH  16  17
ATOM     17  C   UNL     1      -2.876  53.731  19.547  1.00  0.00    -0.000 C 
BRANCH  17  18
ATOM     18  C   UNL     1      -1.886  53.907  20.708  1.00  0.00    -0.000 C 
BRANCH  18  19
ATOM     19  C   UNL     1      -2.177  52.905  21.833  1.00  0.00    -0.003 C 
ATOM     20  C   UNL     1      -2.082  51.466  21.332  1.00  0.00     0.004 C 
ENDBRANCH  18  19
ENDBRANCH  17  18
ENDBRANCH  16  17
ENDBRANCH  15  16
ENDBRANCH  14  15
ENDBRANCH  13  14
ENDBRANCH  12  13
ENDBRANCH   1  12
TORSDOF 16
ENDMDL
MODEL 3
REMARK VINA RESULT:    -4.767      2.999      4.404
REMARK INTER + INTRA:         -12.349
REMARK INTER:                  -9.249
REMARK INTRA:                  -3.100
REMARK UNBOUND:                -3.124
REMARK SMILES CCCCCCCCCCCCCCCCCC(=O)[O-]
REMARK SMILES IDX 10 1 11 2 12 3 13 4 14 5 15 6 16 7 17 8 18 9 19 10 20 11
REMARK SMILES IDX 9 12 8 13 7 14 6 15 5 16 4 17 3 18 2 19 1 20
REMARK H PARENT
REMARK Flexibility Score: inf
ROOT
ATOM      1  C   UNL     1       0.360  54.848  20.460  1.00  0.00     0.000 C 
ENDROOT
BRANCH   1   2
ATOM      2  C   UNL     1      -0.151  56.069  19.671  1.00  0.00     0.000 C 
BRANCH   2   3
ATOM      3  C   UNL     1      -1.495  55.850  18.948  1.00  0.00     0.000 C 
BRANCH   3   4
ATOM      4  C   UNL     1      -1.975  54.381  18.944  1.00  0.00     0.000 C 
BRANCH   4   5
ATOM      5  C   UNL     1      -2.367  53.852  17.550  1.00  0.00     0.000 C 
BRANCH   5   6
ATOM      6  C   UNL     1      -2.341  52.313  17.431  1.00  0.00     0.000 C 
BRANCH   6   7
ATOM      7  C   UNL     1      -1.631  51.616  18.610  1.00  0.00     0.006 C 
BRANCH   7   8
ATOM      8  C   UNL     1      -1.322  50.132  18.352  1.00  0.00     0.053 C 
BRANCH   8   9
ATOM      9  C   UNL     1      -2.282  49.228  19.065  1.00  0.00     0.041 C 
ATOM     10  O   UNL     1      -1.872  48.465  19.980  1.00  0.00    -0.550 OA
ATOM     11  O   UNL     1      -3.621  49.202  18.693  1.00  0.00    -0.550 OA
ENDBRANCH   8   9
ENDBRANCH   7   8
ENDBRANCH   6   7
ENDBRANCH   5   6
ENDBRANCH   4   5
ENDBRANCH   3   4
ENDBRANCH   2   3
ENDBRANCH   1   2
BRANCH   1  12
ATOM     12  C   UNL     1       1.871  54.910  20.751  1.00  0.00     0.000 C 
BRANCH  12  13
ATOM     13  C   UNL     1       2.633  53.691  20.197  1.00  0.00    -0.000 C 
BRANCH  13  14
ATOM     14  C   UNL     1       1.773  52.677  19.414  1.00  0.00    -0.000 C 
BRANCH  14  15
ATOM     15  C   UNL     1       2.112  52.555  17.918  1.00  0.00    -0.000 C 
BRANCH  15  16
ATOM     16  C   UNL     1       1.279  53.507  17.043  1.00  0.00    -0.000 C 
BRANCH  16  17
ATOM     17  C   UNL     1       2.144  54.539  16.304  1.00  0.00    -0.000 C 
BRANCH  17  18
ATOM     18  C   UNL     1       2.043  55.944  16.917  1.00  0.00    -0.000 C 
BRANCH  18  19
ATOM     19  C   UNL     1       3.376  56.361  17.554  1.00  0.00    -0.003 C 
ATOM     20  C   UNL     1       3.178  57.489  18.564  1.00  0.00     0.004 C 
ENDBRANCH  18  19
ENDBRANCH  17  18
ENDBRANCH  16  17
ENDBRANCH  15  16
ENDBRANCH  14  15
ENDBRANCH  13  14
ENDBRANCH  12  13
ENDBRANCH   1  12
TORSDOF 16
ENDMDL
MODEL 4
REMARK VINA RESULT:    -4.761      2.448      5.376
REMARK INTER + INTRA:         -12.339
REMARK INTER:                  -9.708
REMARK INTRA:                  -2.631
REMARK UNBOUND:                -3.124
REMARK SMILES CCCCCCCCCCCCCCCCCC(=O)[O-]
REMARK SMILES IDX 10 1 11 2 12 3 13 4 14 5 15 6 16 7 17 8 18 9 19 10 20 11
REMARK SMILES IDX 9 12 8 13 7 14 6 15 5 16 4 17 3 18 2 19 1 20
REMARK H PARENT
REMARK Flexibility Score: inf
ROOT
ATOM      1  C   UNL     1       2.060  54.889  20.651  1.00  0.00     0.000 C 
ENDROOT
BRANCH   1   2
ATOM      2  C   UNL     1       2.608  53.484  20.332  1.00  0.00     0.000 C 
BRANCH   2   3
ATOM      3  C   UNL     1       3.839  53.471  19.403  1.00  0.00     0.000 C 
BRANCH   3   4
ATOM      4  C   UNL     1       3.561  52.895  17.997  1.00  0.00     0.000 C 
BRANCH   4   5
ATOM      5  C   UNL     1       2.105  52.436  17.784  1.00  0.00     0.000 C 
BRANCH   5   6
ATOM      6  C   UNL     1       1.290  53.349  16.842  1.00  0.00     0.000 C 
BRANCH   6   7
ATOM      7  C   UNL     1       2.022  54.651  16.457  1.00  0.00     0.006 C 
BRANCH   7   8
ATOM      8  C   UNL     1       1.232  55.925  16.796  1.00  0.00     0.053 C 
BRANCH   8   9
ATOM      9  C   UNL     1       2.056  56.903  17.579  1.00  0.00     0.041 C 
ATOM     10  O   UNL     1       1.551  57.992  17.961  1.00  0.00    -0.550 OA
ATOM     11  O   UNL     1       3.391  56.627  17.851  1.00  0.00    -0.550 OA
ENDBRANCH   8   9
ENDBRANCH   7   8
ENDBRANCH   6   7
ENDBRANCH   5   6
ENDBRANCH   4   5
ENDBRANCH   3   4
ENDBRANCH   2   3
ENDBRANCH   1   2
BRANCH   1  12
ATOM     12  C   UNL     1       0.588  55.069  20.237  1.00  0.00     0.000 C 
BRANCH  12  13
ATOM     13  C   UNL     1      -0.354  54.080  20.950  1.00  0.00    -0.000 C 
BRANCH  13  14
ATOM     14  C   UNL     1      -0.897  52.936  20.068  1.00  0.00    -0.000 C 
BRANCH  14  15
ATOM     15  C   UNL     1      -2.251  53.222  19.392  1.00  0.00    -0.000 C 
BRANCH  15  16
ATOM     16  C   UNL     1      -2.097  53.696  17.937  1.00  0.00    -0.000 C 
BRANCH  16  17
ATOM     17  C   UNL     1      -2.730  55.074  17.694  1.00  0.00    -0.000 C 
BRANCH  17  18
ATOM     18  C   UNL     1      -3.115  55.788  18.999  1.00  0.00    -0.000 C 
BRANCH  18  19
ATOM     19  C   UNL     1      -4.188  56.854  18.746  1.00  0.00    -0.003 C 
ATOM     20  C   UNL     1      -3.819  57.739  17.558  1.00  0.00     0.004 C 
ENDBRANCH  18  19
ENDBRANCH  17  18
ENDBRANCH  16  17
ENDBRANCH  15  16
ENDBRANCH  14  15
ENDBRANCH  13  14
ENDBRANCH  12  13
ENDBRANCH   1  12
TORSDOF 16
ENDMDL
MODEL 5
REMARK VINA RESULT:    -4.679      3.255      6.180
REMARK INTER + INTRA:         -12.179
REMARK INTER:                  -9.555
REMARK INTRA:                  -2.625
REMARK UNBOUND:                -3.124
REMARK SMILES CCCCCCCCCCCCCCCCCC(=O)[O-]
REMARK SMILES IDX 10 1 11 2 12 3 13 4 14 5 15 6 16 7 17 8 18 9 19 10 20 11
REMARK SMILES IDX 9 12 8 13 7 14 6 15 5 16 4 17 3 18 2 19 1 20
REMARK H PARENT
REMARK Flexibility Score: inf
ROOT
ATOM      1  C   UNL     1       1.922  53.288  19.803  1.00  0.00     0.000 C 
ENDROOT
BRANCH   1   2
ATOM      2  C   UNL     1       0.802  54.052  20.536  1.00  0.00     0.000 C 
BRANCH   2   3
ATOM      3  C   UNL     1       0.729  55.557  20.204  1.00  0.00     0.000 C 
BRANCH   3   4
ATOM      4  C   UNL     1       1.665  55.994  19.055  1.00  0.00     0.000 C 
BRANCH   4   5
ATOM      5  C   UNL     1       0.963  56.807  17.950  1.00  0.00     0.000 C 
BRANCH   5   6
ATOM      6  C   UNL     1       1.160  56.237  16.529  1.00  0.00     0.000 C 
BRANCH   6   7
ATOM      7  C   UNL     1       2.019  54.956  16.492  1.00  0.00     0.006 C 
BRANCH   7   8
ATOM      8  C   UNL     1       3.364  55.137  15.772  1.00  0.00     0.053 C 
BRANCH   8   9
ATOM      9  C   UNL     1       4.472  55.460  16.729  1.00  0.00     0.041 C 
ATOM     10  O   UNL     1       4.698  54.707  17.713  1.00  0.00    -0.550 OA
ATOM     11  O   UNL     1       5.230  56.612  16.553  1.00  0.00    -0.550 OA
ENDBRANCH   8   9
ENDBRANCH   7   8
ENDBRANCH   6   7
ENDBRANCH   5   6
ENDBRANCH   4   5
ENDBRANCH   3   4
ENDBRANCH   2   3
ENDBRANCH   1   2
BRANCH   1  12
ATOM     12  C   UNL     1       1.385  52.272  18.778  1.00  0.00     0.000 C 
BRANCH  12  13
ATOM     13  C   UNL     1      -0.097  51.918  19.013  1.00  0.00    -0.000 C 
BRANCH  13  14
ATOM     14  C   UNL     1      -1.023  52.117  17.796  1.00  0.00    -0.000 C 
BRANCH  14  15
ATOM     15  C   UNL     1      -1.345  53.584  17.457  1.00  0.00    -0.000 C 
BRANCH  15  16
ATOM     16  C   UNL     1      -2.284  54.237  18.486  1.00  0.00    -0.000 C 
BRANCH  16  17
ATOM     17  C   UNL     1      -3.160  55.339  17.871  1.00  0.00    -0.000 C 
BRANCH  17  18
ATOM     18  C   UNL     1      -2.425  56.682  17.752  1.00  0.00    -0.000 C 
BRANCH  18  19
ATOM     19  C   UNL     1      -3.274  57.706  16.986  1.00  0.00    -0.003 C 
ATOM     20  C   UNL     1      -4.442  58.201  17.835  1.00  0.00     0.004 C 
ENDBRANCH  18  19
ENDBRANCH  17  18
ENDBRANCH  16  17
ENDBRANCH  15  16
ENDBRANCH  14  15
ENDBRANCH  13  14
ENDBRANCH  12  13
ENDBRANCH   1  12
TORSDOF 16
ENDMDL
MODEL 6
REMARK VINA RESULT:    -4.665      3.509      5.649
REMARK INTER + INTRA:         -12.153
REMARK INTER:                  -8.924
REMARK INTRA:                  -3.229
REMARK UNBOUND:                -3.124
REMARK SMILES CCCCCCCCCCCCCCCCCC(=O)[O-]
REMARK SMILES IDX 10 1 11 2 12 3 13 4 14 5 15 6 16 7 17 8 18 9 19 10 20 11
REMARK SMILES IDX 9 12 8 13 7 14 6 15 5 16 4 17 3 18 2 19 1 20
REMARK H PARENT
REMARK Flexibility Score: inf
ROOT
ATOM      1  C   UNL     1       1.882  55.200  20.514  1.00  0.00     0.000 C 
ENDROOT
BRANCH   1   2
ATOM      2  C   UNL     1       2.607  53.858  20.294  1.00  0.00     0.000 C 
BRANCH   2   3
ATOM      3  C   UNL     1       1.801  52.817  19.490  1.00  0.00     0.000 C 
BRANCH   3   4
ATOM      4  C   UNL     1       2.342  52.565  18.066  1.00  0.00     0.000 C 
BRANCH   4   5
ATOM      5  C   UNL     1       1.371  52.979  16.943  1.00  0.00     0.000 C 
BRANCH   5   6
ATOM      6  C   UNL     1       1.259  54.506  16.740  1.00  0.00     0.000 C 
BRANCH   6   7
ATOM      7  C   UNL     1       2.534  55.146  16.155  1.00  0.00     0.006 C 
BRANCH   7   8
ATOM      8  C   UNL     1       3.236  56.114  17.121  1.00  0.00     0.053 C 
BRANCH   8   9
ATOM      9  C   UNL     1       4.701  55.821  17.243  1.00  0.00     0.041 C 
ATOM     10  O   UNL     1       5.094  54.814  17.890  1.00  0.00    -0.550 OA
ATOM     11  O   UNL     1       5.632  56.682  16.673  1.00  0.00    -0.550 OA
ENDBRANCH   8   9
ENDBRANCH   7   8
ENDBRANCH   6   7
ENDBRANCH   5   6
ENDBRANCH   4   5
ENDBRANCH   3   4
ENDBRANCH   2   3
ENDBRANCH   1   2
BRANCH   1  12
ATOM     12  C   UNL     1       0.361  55.105  20.293  1.00  0.00     0.000 C 
BRANCH  12  13
ATOM     13  C   UNL     1      -0.194  56.282  19.468  1.00  0.00    -0.000 C 
BRANCH  13  14
ATOM     14  C   UNL     1      -1.373  55.935  18.535  1.00  0.00    -0.000 C 
BRANCH  14  15
ATOM     15  C   UNL     1      -2.195  54.703  18.957  1.00  0.00    -0.000 C 
BRANCH  15  16
ATOM     16  C   UNL     1      -2.380  53.694  17.812  1.00  0.00    -0.000 C 
BRANCH  16  17
ATOM     17  C   UNL     1      -1.904  52.282  18.185  1.00  0.00    -0.000 C 
BRANCH  17  18
ATOM     18  C   UNL     1      -1.852  52.057  19.704  1.00  0.00    -0.000 C 
BRANCH  18  19
ATOM     19  C   UNL     1      -1.263  50.679  20.034  1.00  0.00    -0.003 C 
ATOM     20  C   UNL     1      -0.608  50.049  18.808  1.00  0.00     0.004 C 
ENDBRANCH  18  19
ENDBRANCH  17  18
ENDBRANCH  16  17
ENDBRANCH  15  16
ENDBRANCH  14  15
ENDBRANCH  13  14
ENDBRANCH  12  13
ENDBRANCH   1  12
TORSDOF 16
ENDMDL
MODEL 7
REMARK VINA RESULT:    -4.658      2.402      3.952
REMARK INTER + INTRA:         -12.138
REMARK INTER:                  -8.936
REMARK INTRA:                  -3.202
REMARK UNBOUND:                -3.124
REMARK SMILES CCCCCCCCCCCCCCCCCC(=O)[O-]
REMARK SMILES IDX 10 1 11 2 12 3 13 4 14 5 15 6 16 7 17 8 18 9 19 10 20 11
REMARK SMILES IDX 9 12 8 13 7 14 6 15 5 16 4 17 3 18 2 19 1 20
REMARK H PARENT
REMARK Flexibility Score: inf
ROOT
ATOM      1  C   UNL     1       0.073  54.270  20.306  1.00  0.00     0.000 C 
ENDROOT
BRANCH   1   2
ATOM      2  C   UNL     1      -1.004  55.267  19.836  1.00  0.00     0.000 C 
BRANCH   2   3
ATOM      3  C   UNL     1      -1.750  54.850  18.552  1.00  0.00     0.000 C 
BRANCH   3   4
ATOM      4  C   UNL     1      -1.151  53.610  17.852  1.00  0.00     0.000 C 
BRANCH   4   5
ATOM      5  C   UNL     1      -2.206  52.631  17.299  1.00  0.00     0.000 C 
BRANCH   5   6
ATOM      6  C   UNL     1      -2.128  51.214  17.908  1.00  0.00     0.000 C 
BRANCH   6   7
ATOM      7  C   UNL     1      -1.009  51.054  18.958  1.00  0.00     0.006 C 
BRANCH   7   8
ATOM      8  C   UNL     1      -1.488  50.423  20.275  1.00  0.00     0.053 C 
BRANCH   8   9
ATOM      9  C   UNL     1      -2.720  51.095  20.803  1.00  0.00     0.041 C 
ATOM     10  O   UNL     1      -2.697  52.319  21.099  1.00  0.00    -0.550 OA
ATOM     11  O   UNL     1      -3.883  50.358  21.002  1.00  0.00    -0.550 OA
ENDBRANCH   8   9
ENDBRANCH   7   8
ENDBRANCH   6   7
ENDBRANCH   5   6
ENDBRANCH   4   5
ENDBRANCH   3   4
ENDBRANCH   2   3
ENDBRANCH   1   2
BRANCH   1  12
ATOM     12  C   UNL     1       1.413  54.948  20.645  1.00  0.00     0.000 C 
BRANCH  12  13
ATOM     13  C   UNL     1       2.630  54.111  20.205  1.00  0.00    -0.000 C 
BRANCH  13  14
ATOM     14  C   UNL     1       2.320  52.966  19.217  1.00  0.00    -0.000 C 
BRANCH  14  15
ATOM     15  C   UNL     1       2.630  53.279  17.742  1.00  0.00    -0.000 C 
BRANCH  15  16
ATOM     16  C   UNL     1       3.704  54.368  17.581  1.00  0.00    -0.000 C 
BRANCH  16  17
ATOM     17  C   UNL     1       3.178  55.613  16.850  1.00  0.00    -0.000 C 
BRANCH  17  18
ATOM     18  C   UNL     1       1.686  55.509  16.500  1.00  0.00    -0.000 C 
BRANCH  18  19
ATOM     19  C   UNL     1       0.918  56.738  17.002  1.00  0.00    -0.003 C 
ATOM     20  C   UNL     1       1.738  57.526  18.020  1.00  0.00     0.004 C 
ENDBRANCH  18  19
ENDBRANCH  17  18
ENDBRANCH  16  17
ENDBRANCH  15  16
ENDBRANCH  14  15
ENDBRANCH  13  14
ENDBRANCH  12  13
ENDBRANCH   1  12
TORSDOF 16
ENDMDL
MODEL 8
REMARK VINA RESULT:    -4.620      2.610      4.595
REMARK INTER + INTRA:         -12.065
REMARK INTER:                  -9.412
REMARK INTRA:                  -2.653
REMARK UNBOUND:                -3.124
REMARK SMILES CCCCCCCCCCCCCCCCCC(=O)[O-]
REMARK SMILES IDX 10 1 11 2 12 3 13 4 14 5 15 6 16 7 17 8 18 9 19 10 20 11
REMARK SMILES IDX 9 12 8 13 7 14 6 15 5 16 4 17 3 18 2 19 1 20
REMARK H PARENT
REMARK Flexibility Score: inf
ROOT
ATOM      1  C   UNL     1       0.405  57.011  17.198  1.00  0.00     0.000 C 
ENDROOT
BRANCH   1   2
ATOM      2  C   UNL     1      -0.685  56.404  18.102  1.00  0.00     0.000 C 
BRANCH   2   3
ATOM      3  C   UNL     1      -2.110  56.458  17.515  1.00  0.00     0.000 C 
BRANCH   3   4
ATOM      4  C   UNL     1      -3.072  55.399  18.097  1.00  0.00     0.000 C 
BRANCH   4   5
ATOM      5  C   UNL     1      -2.390  54.066  18.463  1.00  0.00     0.000 C 
BRANCH   5   6
ATOM      6  C   UNL     1      -2.253  53.084  17.279  1.00  0.00     0.000 C 
BRANCH   6   7
ATOM      7  C   UNL     1      -1.761  51.682  17.693  1.00  0.00     0.006 C 
BRANCH   7   8
ATOM      8  C   UNL     1      -2.896  50.723  18.085  1.00  0.00     0.053 C 
BRANCH   8   9
ATOM      9  C   UNL     1      -2.792  50.287  19.515  1.00  0.00     0.041 C 
ATOM     10  O   UNL     1      -3.098  51.081  20.444  1.00  0.00    -0.550 OA
ATOM     11  O   UNL     1      -2.320  49.016  19.822  1.00  0.00    -0.550 OA
ENDBRANCH   8   9
ENDBRANCH   7   8
ENDBRANCH   6   7
ENDBRANCH   5   6
ENDBRANCH   4   5
ENDBRANCH   3   4
ENDBRANCH   2   3
ENDBRANCH   1   2
BRANCH   1  12
ATOM     12  C   UNL     1       1.640  57.491  17.984  1.00  0.00     0.000 C 
BRANCH  12  13
ATOM     13  C   UNL     1       2.906  56.675  17.657  1.00  0.00    -0.000 C 
BRANCH  13  14
ATOM     14  C   UNL     1       2.728  55.587  16.578  1.00  0.00    -0.000 C 
BRANCH  14  15
ATOM     15  C   UNL     1       2.884  54.140  17.080  1.00  0.00    -0.000 C 
BRANCH  15  16
ATOM     16  C   UNL     1       1.536  53.482  17.418  1.00  0.00    -0.000 C 
BRANCH  16  17
ATOM     17  C   UNL     1       1.397  53.153  18.912  1.00  0.00    -0.000 C 
BRANCH  17  18
ATOM     18  C   UNL     1       2.511  53.781  19.764  1.00  0.00    -0.000 C 
BRANCH  18  19
ATOM     19  C   UNL     1       1.934  54.788  20.766  1.00  0.00    -0.003 C 
ATOM     20  C   UNL     1       0.422  54.629  20.903  1.00  0.00     0.004 C 
ENDBRANCH  18  19
ENDBRANCH  17  18
ENDBRANCH  16  17
ENDBRANCH  15  16
ENDBRANCH  14  15
ENDBRANCH  13  14
ENDBRANCH  12  13
ENDBRANCH   1  12
TORSDOF 16
ENDMDL
MODEL 9
REMARK VINA RESULT:    -4.602      2.923      3.944
REMARK INTER + INTRA:         -12.031
REMARK INTER:                  -9.054
REMARK INTRA:                  -2.977
REMARK UNBOUND:                -3.124
REMARK SMILES CCCCCCCCCCCCCCCCCC(=O)[O-]
REMARK SMILES IDX 10 1 11 2 12 3 13 4 14 5 15 6 16 7 17 8 18 9 19 10 20 11
REMARK SMILES IDX 9 12 8 13 7 14 6 15 5 16 4 17 3 18 2 19 1 20
REMARK H PARENT
REMARK Flexibility Score: inf
ROOT
ATOM      1  C   UNL     1       0.892  52.338  17.982  1.00  0.00     0.000 C 
ENDROOT
BRANCH   1   2
ATOM      2  C   UNL     1      -0.285  52.997  17.236  1.00  0.00     0.000 C 
BRANCH   2   3
ATOM      3  C   UNL     1      -1.649  52.864  17.944  1.00  0.00     0.000 C 
BRANCH   3   4
ATOM      4  C   UNL     1      -2.361  51.517  17.691  1.00  0.00     0.000 C 
BRANCH   4   5
ATOM      5  C   UNL     1      -2.238  50.514  18.854  1.00  0.00     0.000 C 
BRANCH   5   6
ATOM      6  C   UNL     1      -2.976  50.948  20.140  1.00  0.00     0.000 C 
BRANCH   6   7
ATOM      7  C   UNL     1      -2.035  51.198  21.336  1.00  0.00     0.006 C 
BRANCH   7   8
ATOM      8  C   UNL     1      -2.112  52.630  21.890  1.00  0.00     0.053 C 
BRANCH   8   9
ATOM      9  C   UNL     1      -2.640  52.660  23.293  1.00  0.00     0.041 C 
ATOM     10  O   UNL     1      -2.144  51.906  24.172  1.00  0.00    -0.550 OA
ATOM     11  O   UNL     1      -3.704  53.493  23.619  1.00  0.00    -0.550 OA
ENDBRANCH   8   9
ENDBRANCH   7   8
ENDBRANCH   6   7
ENDBRANCH   5   6
ENDBRANCH   4   5
ENDBRANCH   3   4
ENDBRANCH   2   3
ENDBRANCH   1   2
BRANCH   1  12
ATOM     12  C   UNL     1       0.886  52.634  19.493  1.00  0.00     0.000 C 
BRANCH  12  13
ATOM     13  C   UNL     1       2.031  53.574  19.918  1.00  0.00    -0.000 C 
BRANCH  13  14
ATOM     14  C   UNL     1       1.593  54.989  20.354  1.00  0.00    -0.000 C 
BRANCH  14  15
ATOM     15  C   UNL     1       0.081  55.260  20.257  1.00  0.00    -0.000 C 
BRANCH  15  16
ATOM     16  C   UNL     1      -0.277  56.219  19.109  1.00  0.00    -0.000 C 
BRANCH  16  17
ATOM     17  C   UNL     1       0.961  56.715  18.346  1.00  0.00    -0.000 C 
BRANCH  17  18
ATOM     18  C   UNL     1       0.885  56.421  16.840  1.00  0.00    -0.000 C 
BRANCH  18  19
ATOM     19  C   UNL     1       2.076  55.567  16.387  1.00  0.00    -0.003 C 
ATOM     20  C   UNL     1       3.328  55.885  17.202  1.00  0.00     0.004 C 
ENDBRANCH  18  19
ENDBRANCH  17  18
ENDBRANCH  16  17
ENDBRANCH  15  16
ENDBRANCH  14  15
ENDBRANCH  13  14
ENDBRANCH  12  13
ENDBRANCH   1  12
TORSDOF 16
ENDMDL
