MODEL 1
REMARK VINA RESULT:    -3.474      0.000      0.000
REMARK INTER + INTRA:          -3.576
REMARK INTER:                  -3.576
REMARK INTRA:                   0.000
REMARK UNBOUND:                 0.000
REMARK SMILES CC1(C)[C@H]2CC[C@](C)(C2)[C@H]1O
REMARK SMILES IDX 1 1 2 2 4 3 5 4 6 5 7 6 9 7 10 8 8 9 3 10 11 11
REMARK H PARENT 11 12
REMARK Flexibility Score: inf
ROOT
ATOM      1  C   UNL     1      -1.131   5.652  -5.822  1.00  0.00     0.014 C 
ATOM      2  C   UNL     1      -1.427   4.345  -5.041  1.00  0.00    -0.006 C 
ATOM      3  C   UNL     1      -1.601   3.094  -5.969  1.00  0.00    -0.002 C 
ATOM      4  C   UNL     1      -0.442   2.984  -6.982  1.00  0.00     0.005 C 
ATOM      5  C   UNL     1       0.762   2.647  -6.089  1.00  0.00     0.010 C 
ATOM      6  C   UNL     1       0.117   2.498  -4.690  1.00  0.00    -0.006 C 
ATOM      7  C   UNL     1      -1.245   1.943  -5.043  1.00  0.00     0.013 C 
ATOM      8  C   UNL     1      -0.251   3.891  -4.113  1.00  0.00     0.126 C 
ATOM      9  C   UNL     1       0.918   1.611  -3.730  1.00  0.00     0.014 C 
ATOM     10  C   UNL     1      -2.720   4.583  -4.222  1.00  0.00     0.014 C 
ENDROOT
BRANCH   8  11
ATOM     11  O   UNL     1       0.840   4.779  -4.138  1.00  0.00    -0.392 OA
ATOM     12  H   UNL     1       1.479   4.425  -4.810  1.00  0.00     0.211 HD
ENDBRANCH   8  11
TORSDOF 1
ENDMDL
MODEL 2
REMARK VINA RESULT:    -3.472      1.555      3.321
REMARK INTER + INTRA:          -3.574
REMARK INTER:                  -3.574
REMARK INTRA:                   0.000
REMARK UNBOUND:                 0.000
REMARK SMILES CC1(C)[C@H]2CC[C@](C)(C2)[C@H]1O
REMARK SMILES IDX 1 1 2 2 4 3 5 4 6 5 7 6 9 7 10 8 8 9 3 10 11 11
REMARK H PARENT 11 12
REMARK Flexibility Score: inf
ROOT
ATOM      1  C   UNL     1       1.987   3.098  -5.697  1.00  0.00     0.014 C 
ATOM      2  C   UNL     1       0.668   2.843  -4.923  1.00  0.00    -0.006 C 
ATOM      3  C   UNL     1       0.059   4.141  -4.289  1.00  0.00    -0.002 C 
ATOM      4  C   UNL     1      -0.018   5.284  -5.323  1.00  0.00     0.005 C 
ATOM      5  C   UNL     1      -1.090   4.786  -6.304  1.00  0.00     0.010 C 
ATOM      6  C   UNL     1      -1.570   3.470  -5.645  1.00  0.00    -0.006 C 
ATOM      7  C   UNL     1      -1.415   3.794  -4.176  1.00  0.00     0.013 C 
ATOM      8  C   UNL     1      -0.508   2.353  -5.833  1.00  0.00     0.126 C 
ATOM      9  C   UNL     1      -2.992   3.060  -6.044  1.00  0.00     0.014 C 
ATOM     10  C   UNL     1       0.980   1.807  -3.814  1.00  0.00     0.014 C 
ENDROOT
BRANCH   8  11
ATOM     11  O   UNL     1      -0.131   2.204  -7.180  1.00  0.00    -0.392 OA
ATOM     12  H   UNL     1      -0.177   3.106  -7.590  1.00  0.00     0.211 HD
ENDBRANCH   8  11
TORSDOF 1
ENDMDL
MODEL 3
REMARK VINA RESULT:    -3.422      1.462      3.131
REMARK INTER + INTRA:          -3.523
REMARK INTER:                  -3.523
REMARK INTRA:                   0.000
REMARK UNBOUND:                 0.000
REMARK SMILES CC1(C)[C@H]2CC[C@](C)(C2)[C@H]1O
REMARK SMILES IDX 1 1 2 2 4 3 5 4 6 5 7 6 9 7 10 8 8 9 3 10 11 11
REMARK H PARENT 11 12
REMARK Flexibility Score: inf
ROOT
ATOM      1  C   UNL     1       0.769   2.595  -5.787  1.00  0.00     0.014 C 
ATOM      2  C   UNL     1       0.025   3.953  -5.702  1.00  0.00    -0.006 C 
ATOM      3  C   UNL     1      -0.984   4.182  -6.879  1.00  0.00    -0.002 C 
ATOM      4  C   UNL     1      -1.906   2.960  -7.072  1.00  0.00     0.005 C 
ATOM      5  C   UNL     1      -2.772   2.981  -5.802  1.00  0.00     0.010 C 
ATOM      6  C   UNL     1      -2.309   4.279  -5.097  1.00  0.00    -0.006 C 
ATOM      7  C   UNL     1      -1.976   5.163  -6.279  1.00  0.00     0.013 C 
ATOM      8  C   UNL     1      -0.911   4.076  -4.454  1.00  0.00     0.126 C 
ATOM      9  C   UNL     1      -3.356   4.878  -4.150  1.00  0.00     0.014 C 
ATOM     10  C   UNL     1       1.102   5.066  -5.701  1.00  0.00     0.014 C 
ENDROOT
BRANCH   8  11
ATOM     11  O   UNL     1      -0.870   2.940  -3.625  1.00  0.00    -0.392 OA
ATOM     12  H   UNL     1      -0.808   2.153  -4.225  1.00  0.00     0.211 HD
ENDBRANCH   8  11
TORSDOF 1
ENDMDL
MODEL 4
REMARK VINA RESULT:    -3.419      1.488      2.100
REMARK INTER + INTRA:          -3.519
REMARK INTER:                  -3.519
REMARK INTRA:                   0.000
REMARK UNBOUND:                 0.000
REMARK SMILES CC1(C)[C@H]2CC[C@](C)(C2)[C@H]1O
REMARK SMILES IDX 1 1 2 2 4 3 5 4 6 5 7 6 9 7 10 8 8 9 3 10 11 11
REMARK H PARENT 11 12
REMARK Flexibility Score: inf
ROOT
ATOM      1  C   UNL     1      -2.913   4.867  -6.049  1.00  0.00     0.014 C 
ATOM      2  C   UNL     1      -2.114   3.551  -6.234  1.00  0.00    -0.006 C 
ATOM      3  C   UNL     1      -0.725   3.761  -6.929  1.00  0.00    -0.002 C 
ATOM      4  C   UNL     1       0.069   4.902  -6.257  1.00  0.00     0.005 C 
ATOM      5  C   UNL     1       0.405   4.317  -4.876  1.00  0.00     0.010 C 
ATOM      6  C   UNL     1      -0.145   2.873  -4.975  1.00  0.00    -0.006 C 
ATOM      7  C   UNL     1       0.074   2.566  -6.439  1.00  0.00     0.013 C 
ATOM      8  C   UNL     1      -1.695   2.878  -4.884  1.00  0.00     0.126 C 
ATOM      9  C   UNL     1       0.537   1.883  -4.024  1.00  0.00     0.014 C 
ATOM     10  C   UNL     1      -2.993   2.597  -7.081  1.00  0.00     0.014 C 
ENDROOT
BRANCH   8  11
ATOM     11  O   UNL     1      -2.157   3.581  -3.757  1.00  0.00    -0.392 OA
ATOM     12  H   UNL     1      -3.034   3.972  -4.004  1.00  0.00     0.211 HD
ENDBRANCH   8  11
TORSDOF 1
ENDMDL
MODEL 5
REMARK VINA RESULT:    -3.353      1.193      3.322
REMARK INTER + INTRA:          -3.451
REMARK INTER:                  -3.451
REMARK INTRA:                   0.000
REMARK UNBOUND:                 0.000
REMARK SMILES CC1(C)[C@H]2CC[C@](C)(C2)[C@H]1O
REMARK SMILES IDX 1 1 2 2 4 3 5 4 6 5 7 6 9 7 10 8 8 9 3 10 11 11
REMARK H PARENT 11 12
REMARK Flexibility Score: inf
ROOT
ATOM      1  C   UNL     1       2.307   2.653  -4.501  1.00  0.00     0.014 C 
ATOM      2  C   UNL     1       1.433   3.353  -5.574  1.00  0.00    -0.006 C 
ATOM      3  C   UNL     1       0.138   2.550  -5.941  1.00  0.00    -0.002 C 
ATOM      4  C   UNL     1      -0.630   2.119  -4.673  1.00  0.00     0.005 C 
ATOM      5  C   UNL     1      -1.142   3.455  -4.113  1.00  0.00     0.010 C 
ATOM      6  C   UNL     1      -0.695   4.470  -5.193  1.00  0.00    -0.006 C 
ATOM      7  C   UNL     1      -0.793   3.636  -6.451  1.00  0.00     0.013 C 
ATOM      8  C   UNL     1       0.835   4.719  -5.100  1.00  0.00     0.126 C 
ATOM      9  C   UNL     1      -1.540   5.749  -5.229  1.00  0.00     0.014 C 
ATOM     10  C   UNL     1       2.316   3.540  -6.833  1.00  0.00     0.014 C 
ENDROOT
BRANCH   8  11
ATOM     11  O   UNL     1       1.235   5.069  -3.798  1.00  0.00    -0.392 OA
ATOM     12  H   UNL     1       0.405   5.191  -3.268  1.00  0.00     0.211 HD
ENDBRANCH   8  11
TORSDOF 1
ENDMDL
MODEL 6
REMARK VINA RESULT:    -3.315     11.850     13.135
REMARK INTER + INTRA:          -3.412
REMARK INTER:                  -3.412
REMARK INTRA:                   0.000
REMARK UNBOUND:                 0.000
REMARK SMILES CC1(C)[C@H]2CC[C@](C)(C2)[C@H]1O
REMARK SMILES IDX 1 1 2 2 4 3 5 4 6 5 7 6 9 7 10 8 8 9 3 10 11 11
REMARK H PARENT 11 12
REMARK Flexibility Score: inf
ROOT
ATOM      1  C   UNL     1       0.237  -1.078   6.377  1.00  0.00     0.014 C 
ATOM      2  C   UNL     1      -1.136  -0.711   6.998  1.00  0.00    -0.006 C 
ATOM      3  C   UNL     1      -1.028  -0.169   8.465  1.00  0.00    -0.002 C 
ATOM      4  C   UNL     1       0.040   0.940   8.574  1.00  0.00     0.005 C 
ATOM      5  C   UNL     1      -0.584   2.094   7.774  1.00  0.00     0.010 C 
ATOM      6  C   UNL     1      -1.978   1.536   7.402  1.00  0.00    -0.006 C 
ATOM      7  C   UNL     1      -2.287   0.669   8.602  1.00  0.00     0.013 C 
ATOM      8  C   UNL     1      -1.853   0.476   6.274  1.00  0.00     0.126 C 
ATOM      9  C   UNL     1      -3.029   2.620   7.133  1.00  0.00     0.014 C 
ATOM     10  C   UNL     1      -2.009  -1.990   6.967  1.00  0.00     0.014 C 
ENDROOT
BRANCH   8  11
ATOM     11  O   UNL     1      -1.128   0.962   5.171  1.00  0.00    -0.392 OA
ATOM     12  H   UNL     1      -0.306   0.411   5.105  1.00  0.00     0.211 HD
ENDBRANCH   8  11
TORSDOF 1
ENDMDL
MODEL 7
REMARK VINA RESULT:    -3.284     11.759     13.204
REMARK INTER + INTRA:          -3.380
REMARK INTER:                  -3.380
REMARK INTRA:                   0.000
REMARK UNBOUND:                 0.000
REMARK SMILES CC1(C)[C@H]2CC[C@](C)(C2)[C@H]1O
REMARK SMILES IDX 1 1 2 2 4 3 5 4 6 5 7 6 9 7 10 8 8 9 3 10 11 11
REMARK H PARENT 11 12
REMARK Flexibility Score: inf
ROOT
ATOM      1  C   UNL     1      -2.384   2.461   9.101  1.00  0.00     0.014 C 
ATOM      2  C   UNL     1      -1.090   1.893   8.461  1.00  0.00    -0.006 C 
ATOM      3  C   UNL     1      -0.832   0.388   8.814  1.00  0.00    -0.002 C 
ATOM      4  C   UNL     1      -2.094  -0.467   8.571  1.00  0.00     0.005 C 
ATOM      5  C   UNL     1      -2.236  -0.441   7.041  1.00  0.00     0.010 C 
ATOM      6  C   UNL     1      -0.972   0.334   6.596  1.00  0.00    -0.006 C 
ATOM      7  C   UNL     1       0.027  -0.083   7.653  1.00  0.00     0.013 C 
ATOM      8  C   UNL     1      -1.133   1.849   6.897  1.00  0.00     0.126 C 
ATOM      9  C   UNL     1      -0.526   0.022   5.163  1.00  0.00     0.014 C 
ATOM     10  C   UNL     1       0.089   2.765   8.959  1.00  0.00     0.014 C 
ENDROOT
BRANCH   8  11
ATOM     11  O   UNL     1      -2.329   2.368   6.368  1.00  0.00    -0.392 OA
ATOM     12  H   UNL     1      -2.214   3.352   6.317  1.00  0.00     0.211 HD
ENDBRANCH   8  11
TORSDOF 1
ENDMDL
MODEL 8
REMARK VINA RESULT:    -3.253     12.404     13.608
REMARK INTER + INTRA:          -3.349
REMARK INTER:                  -3.349
REMARK INTRA:                   0.000
REMARK UNBOUND:                 0.000
REMARK SMILES CC1(C)[C@H]2CC[C@](C)(C2)[C@H]1O
REMARK SMILES IDX 1 1 2 2 4 3 5 4 6 5 7 6 9 7 10 8 8 9 3 10 11 11
REMARK H PARENT 11 12
REMARK Flexibility Score: inf
ROOT
ATOM      1  C   UNL     1       0.420   0.376   8.841  1.00  0.00     0.014 C 
ATOM      2  C   UNL     1      -0.474   1.519   8.293  1.00  0.00    -0.006 C 
ATOM      3  C   UNL     1      -0.864   1.334   6.786  1.00  0.00    -0.002 C 
ATOM      4  C   UNL     1      -1.408  -0.086   6.520  1.00  0.00     0.005 C 
ATOM      5  C   UNL     1      -2.746  -0.086   7.275  1.00  0.00     0.010 C 
ATOM      6  C   UNL     1      -2.849   1.371   7.786  1.00  0.00    -0.006 C 
ATOM      7  C   UNL     1      -2.153   2.130   6.678  1.00  0.00     0.013 C 
ATOM      8  C   UNL     1      -1.879   1.597   8.977  1.00  0.00     0.126 C 
ATOM      9  C   UNL     1      -4.286   1.837   8.048  1.00  0.00     0.014 C 
ATOM     10  C   UNL     1       0.310   2.842   8.480  1.00  0.00     0.014 C 
ENDROOT
BRANCH   8  11
ATOM     11  O   UNL     1      -2.050   0.633   9.987  1.00  0.00    -0.392 OA
ATOM     12  H   UNL     1      -2.152   1.129  10.840  1.00  0.00     0.211 HD
ENDBRANCH   8  11
TORSDOF 1
ENDMDL
MODEL 9
REMARK VINA RESULT:    -3.244     12.978     14.264
REMARK INTER + INTRA:          -3.339
REMARK INTER:                  -3.339
REMARK INTRA:                   0.000
REMARK UNBOUND:                 0.000
REMARK SMILES CC1(C)[C@H]2CC[C@](C)(C2)[C@H]1O
REMARK SMILES IDX 1 1 2 2 4 3 5 4 6 5 7 6 9 7 10 8 8 9 3 10 11 11
REMARK H PARENT 11 12
REMARK Flexibility Score: inf
ROOT
ATOM      1  C   UNL     1      -2.339   0.313   7.117  1.00  0.00     0.014 C 
ATOM      2  C   UNL     1      -2.363   1.646   7.911  1.00  0.00    -0.006 C 
ATOM      3  C   UNL     1      -2.768   1.466   9.415  1.00  0.00    -0.002 C 
ATOM      4  C   UNL     1      -1.952   0.338  10.082  1.00  0.00     0.005 C 
ATOM      5  C   UNL     1      -0.531   0.925  10.125  1.00  0.00     0.010 C 
ATOM      6  C   UNL     1      -0.738   2.357   9.577  1.00  0.00    -0.006 C 
ATOM      7  C   UNL     1      -2.130   2.675  10.077  1.00  0.00     0.013 C 
ATOM      8  C   UNL     1      -0.957   2.322   8.040  1.00  0.00     0.126 C 
ATOM      9  C   UNL     1       0.329   3.357  10.037  1.00  0.00     0.014 C 
ATOM     10  C   UNL     1      -3.368   2.585   7.199  1.00  0.00     0.014 C 
ENDROOT
BRANCH   8  11
ATOM     11  O   UNL     1       0.057   1.606   7.378  1.00  0.00    -0.392 OA
ATOM     12  H   UNL     1      -0.065   1.772   6.408  1.00  0.00     0.211 HD
ENDBRANCH   8  11
TORSDOF 1
ENDMDL
