MODEL 1
REMARK VINA RESULT:    -3.606      0.000      0.000
REMARK INTER + INTRA:          -6.461
REMARK INTER:                  -5.713
REMARK INTRA:                  -0.747
REMARK UNBOUND:                -0.747
REMARK SMILES CCCCCCCCCCCC(=O)[O-]
REMARK SMILES IDX 7 1 8 2 9 3 10 4 11 5 12 6 13 7 14 8 6 9 5 10 4 11 3 12 2 13
REMARK SMILES IDX 1 14
REMARK H PARENT
REMARK Flexibility Score: inf
ROOT
ATOM      1  C   UNL     1      57.133  29.586  51.719  1.00  0.00     0.000 C 
ENDROOT
BRANCH   1   2
ATOM      2  C   UNL     1      58.489  29.891  51.061  1.00  0.00     0.000 C 
BRANCH   2   3
ATOM      3  C   UNL     1      58.660  29.324  49.638  1.00  0.00     0.000 C 
BRANCH   3   4
ATOM      4  C   UNL     1      59.714  28.200  49.539  1.00  0.00     0.006 C 
BRANCH   4   5
ATOM      5  C   UNL     1      59.137  26.827  49.909  1.00  0.00     0.053 C 
BRANCH   5   6
ATOM      6  C   UNL     1      60.230  25.898  50.335  1.00  0.00     0.041 C 
ATOM      7  O   UNL     1      61.410  26.320  50.449  1.00  0.00    -0.550 OA
ATOM      8  O   UNL     1      59.954  24.555  50.559  1.00  0.00    -0.550 OA
ENDBRANCH   5   6
ENDBRANCH   4   5
ENDBRANCH   3   4
ENDBRANCH   2   3
ENDBRANCH   1   2
BRANCH   1   9
ATOM      9  C   UNL     1      56.167  28.848  50.779  1.00  0.00     0.000 C 
BRANCH   9  10
ATOM     10  C   UNL     1      54.784  29.512  50.785  1.00  0.00    -0.000 C 
BRANCH  10  11
ATOM     11  C   UNL     1      53.692  28.510  50.381  1.00  0.00    -0.000 C 
BRANCH  11  12
ATOM     12  C   UNL     1      53.382  27.483  51.486  1.00  0.00    -0.000 C 
BRANCH  12  13
ATOM     13  C   UNL     1      53.614  26.015  51.086  1.00  0.00    -0.003 C 
ATOM     14  C   UNL     1      53.981  25.847  49.612  1.00  0.00     0.004 C 
ENDBRANCH  12  13
ENDBRANCH  11  12
ENDBRANCH  10  11
ENDBRANCH   9  10
ENDBRANCH   1   9
TORSDOF 10
ENDMDL
MODEL 2
REMARK VINA RESULT:    -3.518      1.529      2.280
REMARK INTER + INTRA:          -6.322
REMARK INTER:                  -4.858
REMARK INTRA:                  -1.464
REMARK UNBOUND:                -0.747
REMARK SMILES CCCCCCCCCCCC(=O)[O-]
REMARK SMILES IDX 7 1 8 2 9 3 10 4 11 5 12 6 13 7 14 8 6 9 5 10 4 11 3 12 2 13
REMARK SMILES IDX 1 14
REMARK H PARENT
REMARK Flexibility Score: inf
ROOT
ATOM      1  C   UNL     1      55.439  29.886  51.951  1.00  0.00     0.000 C 
ENDROOT
BRANCH   1   2
ATOM      2  C   UNL     1      56.744  29.595  52.710  1.00  0.00     0.000 C 
BRANCH   2   3
ATOM      3  C   UNL     1      57.970  29.331  51.813  1.00  0.00     0.000 C 
BRANCH   3   4
ATOM      4  C   UNL     1      57.650  29.344  50.303  1.00  0.00     0.006 C 
BRANCH   4   5
ATOM      5  C   UNL     1      58.919  29.353  49.439  1.00  0.00     0.053 C 
BRANCH   5   6
ATOM      6  C   UNL     1      59.740  28.131  49.704  1.00  0.00     0.041 C 
ATOM      7  O   UNL     1      60.971  28.236  49.945  1.00  0.00    -0.550 OA
ATOM      8  O   UNL     1      59.157  26.872  49.636  1.00  0.00    -0.550 OA
ENDBRANCH   5   6
ENDBRANCH   4   5
ENDBRANCH   3   4
ENDBRANCH   2   3
ENDBRANCH   1   2
BRANCH   1   9
ATOM      9  C   UNL     1      54.196  29.343  52.674  1.00  0.00     0.000 C 
BRANCH   9  10
ATOM     10  C   UNL     1      53.279  28.595  51.699  1.00  0.00    -0.000 C 
BRANCH  10  11
ATOM     11  C   UNL     1      54.002  28.305  50.376  1.00  0.00    -0.000 C 
BRANCH  11  12
ATOM     12  C   UNL     1      54.295  26.807  50.168  1.00  0.00    -0.000 C 
BRANCH  12  13
ATOM     13  C   UNL     1      55.746  26.386  50.461  1.00  0.00    -0.003 C 
ATOM     14  C   UNL     1      55.981  26.033  51.930  1.00  0.00     0.004 C 
ENDBRANCH  12  13
ENDBRANCH  11  12
ENDBRANCH  10  11
ENDBRANCH   9  10
ENDBRANCH   1   9
TORSDOF 10
ENDMDL
MODEL 3
REMARK VINA RESULT:    -3.518      3.498      6.067
REMARK INTER + INTRA:          -6.322
REMARK INTER:                  -5.004
REMARK INTRA:                  -1.318
REMARK UNBOUND:                -0.747
REMARK SMILES CCCCCCCCCCCC(=O)[O-]
REMARK SMILES IDX 7 1 8 2 9 3 10 4 11 5 12 6 13 7 14 8 6 9 5 10 4 11 3 12 2 13
REMARK SMILES IDX 1 14
REMARK H PARENT
REMARK Flexibility Score: inf
ROOT
ATOM      1  C   UNL     1      58.371  26.467  52.009  1.00  0.00     0.000 C 
ENDROOT
BRANCH   1   2
ATOM      2  C   UNL     1      56.862  26.761  51.982  1.00  0.00     0.000 C 
BRANCH   2   3
ATOM      3  C   UNL     1      56.184  26.546  50.613  1.00  0.00     0.000 C 
BRANCH   3   4
ATOM      4  C   UNL     1      54.981  27.479  50.362  1.00  0.00     0.006 C 
BRANCH   4   5
ATOM      5  C   UNL     1      55.275  28.930  50.766  1.00  0.00     0.053 C 
BRANCH   5   6
ATOM      6  C   UNL     1      54.003  29.655  51.074  1.00  0.00     0.041 C 
ATOM      7  O   UNL     1      53.901  30.335  52.128  1.00  0.00    -0.550 OA
ATOM      8  O   UNL     1      52.912  29.540  50.221  1.00  0.00    -0.550 OA
ENDBRANCH   5   6
ENDBRANCH   4   5
ENDBRANCH   3   4
ENDBRANCH   2   3
ENDBRANCH   1   2
BRANCH   1   9
ATOM      9  C   UNL     1      58.891  25.897  50.680  1.00  0.00     0.000 C 
BRANCH   9  10
ATOM     10  C   UNL     1      60.328  26.359  50.412  1.00  0.00    -0.000 C 
BRANCH  10  11
ATOM     11  C   UNL     1      60.396  27.886  50.264  1.00  0.00    -0.000 C 
BRANCH  11  12
ATOM     12  C   UNL     1      59.314  28.447  49.323  1.00  0.00    -0.000 C 
BRANCH  12  13
ATOM     13  C   UNL     1      58.721  29.800  49.755  1.00  0.00    -0.003 C 
ATOM     14  C   UNL     1      58.812  30.040  51.262  1.00  0.00     0.004 C 
ENDBRANCH  12  13
ENDBRANCH  11  12
ENDBRANCH  10  11
ENDBRANCH   9  10
ENDBRANCH   1   9
TORSDOF 10
ENDMDL
MODEL 4
REMARK VINA RESULT:    -3.422      1.320      2.398
REMARK INTER + INTRA:          -6.169
REMARK INTER:                  -5.315
REMARK INTRA:                  -0.854
REMARK UNBOUND:                -0.747
REMARK SMILES CCCCCCCCCCCC(=O)[O-]
REMARK SMILES IDX 7 1 8 2 9 3 10 4 11 5 12 6 13 7 14 8 6 9 5 10 4 11 3 12 2 13
REMARK SMILES IDX 1 14
REMARK H PARENT
REMARK Flexibility Score: inf
ROOT
ATOM      1  C   UNL     1      59.199  29.272  50.224  1.00  0.00     0.000 C 
ENDROOT
BRANCH   1   2
ATOM      2  C   UNL     1      59.697  27.959  49.596  1.00  0.00     0.000 C 
BRANCH   2   3
ATOM      3  C   UNL     1      58.863  26.713  49.952  1.00  0.00     0.000 C 
BRANCH   3   4
ATOM      4  C   UNL     1      59.596  25.719  50.879  1.00  0.00     0.006 C 
BRANCH   4   5
ATOM      5  C   UNL     1      61.084  25.583  50.527  1.00  0.00     0.053 C 
BRANCH   5   6
ATOM      6  C   UNL     1      61.501  24.148  50.565  1.00  0.00     0.041 C 
ATOM      7  O   UNL     1      62.410  23.773  51.352  1.00  0.00    -0.550 OA
ATOM      8  O   UNL     1      60.923  23.231  49.696  1.00  0.00    -0.550 OA
ENDBRANCH   5   6
ENDBRANCH   4   5
ENDBRANCH   3   4
ENDBRANCH   2   3
ENDBRANCH   1   2
BRANCH   1   9
ATOM      9  C   UNL     1      57.669  29.322  50.361  1.00  0.00     0.000 C 
BRANCH   9  10
ATOM     10  C   UNL     1      57.252  29.328  51.837  1.00  0.00    -0.000 C 
BRANCH  10  11
ATOM     11  C   UNL     1      55.727  29.225  51.978  1.00  0.00    -0.000 C 
BRANCH  11  12
ATOM     12  C   UNL     1      55.004  29.134  50.622  1.00  0.00    -0.000 C 
BRANCH  12  13
ATOM     13  C   UNL     1      54.186  27.847  50.411  1.00  0.00    -0.003 C 
ATOM     14  C   UNL     1      55.059  26.604  50.240  1.00  0.00     0.004 C 
ENDBRANCH  12  13
ENDBRANCH  11  12
ENDBRANCH  10  11
ENDBRANCH   9  10
ENDBRANCH   1   9
TORSDOF 10
ENDMDL
MODEL 5
REMARK VINA RESULT:    -3.403      2.053      3.115
REMARK INTER + INTRA:          -6.139
REMARK INTER:                  -4.997
REMARK INTRA:                  -1.142
REMARK UNBOUND:                -0.747
REMARK SMILES CCCCCCCCCCCC(=O)[O-]
REMARK SMILES IDX 7 1 8 2 9 3 10 4 11 5 12 6 13 7 14 8 6 9 5 10 4 11 3 12 2 13
REMARK SMILES IDX 1 14
REMARK H PARENT
REMARK Flexibility Score: inf
ROOT
ATOM      1  C   UNL     1      57.853  26.572  50.168  1.00  0.00     0.000 C 
ENDROOT
BRANCH   1   2
ATOM      2  C   UNL     1      59.367  26.829  50.234  1.00  0.00     0.000 C 
BRANCH   2   3
ATOM      3  C   UNL     1      59.840  28.107  49.513  1.00  0.00     0.000 C 
BRANCH   3   4
ATOM      4  C   UNL     1      58.914  29.323  49.732  1.00  0.00     0.006 C 
BRANCH   4   5
ATOM      5  C   UNL     1      59.196  30.037  51.061  1.00  0.00     0.053 C 
BRANCH   5   6
ATOM      6  C   UNL     1      60.660  30.303  51.212  1.00  0.00     0.041 C 
ATOM      7  O   UNL     1      61.250  31.070  50.408  1.00  0.00    -0.550 OA
ATOM      8  O   UNL     1      61.384  29.663  52.210  1.00  0.00    -0.550 OA
ENDBRANCH   5   6
ENDBRANCH   4   5
ENDBRANCH   3   4
ENDBRANCH   2   3
ENDBRANCH   1   2
BRANCH   1   9
ATOM      9  C   UNL     1      57.218  26.399  51.556  1.00  0.00     0.000 C 
BRANCH   9  10
ATOM     10  C   UNL     1      56.394  27.635  51.939  1.00  0.00    -0.000 C 
BRANCH  10  11
ATOM     11  C   UNL     1      55.578  28.144  50.742  1.00  0.00    -0.000 C 
BRANCH  11  12
ATOM     12  C   UNL     1      54.058  28.071  50.978  1.00  0.00    -0.000 C 
BRANCH  12  13
ATOM     13  C   UNL     1      53.291  27.187  49.979  1.00  0.00    -0.003 C 
ATOM     14  C   UNL     1      53.951  25.827  49.754  1.00  0.00     0.004 C 
ENDBRANCH  12  13
ENDBRANCH  11  12
ENDBRANCH  10  11
ENDBRANCH   9  10
ENDBRANCH   1   9
TORSDOF 10
ENDMDL
MODEL 6
REMARK VINA RESULT:    -3.384      1.774      3.362
REMARK INTER + INTRA:          -6.110
REMARK INTER:                  -5.110
REMARK INTRA:                  -1.000
REMARK UNBOUND:                -0.747
REMARK SMILES CCCCCCCCCCCC(=O)[O-]
REMARK SMILES IDX 7 1 8 2 9 3 10 4 11 5 12 6 13 7 14 8 6 9 5 10 4 11 3 12 2 13
REMARK SMILES IDX 1 14
REMARK H PARENT
REMARK Flexibility Score: inf
ROOT
ATOM      1  C   UNL     1      55.896  26.264  50.964  1.00  0.00     0.000 C 
ENDROOT
BRANCH   1   2
ATOM      2  C   UNL     1      57.227  26.963  50.642  1.00  0.00     0.000 C 
BRANCH   2   3
ATOM      3  C   UNL     1      57.282  28.458  51.018  1.00  0.00     0.000 C 
BRANCH   3   4
ATOM      4  C   UNL     1      58.121  29.313  50.045  1.00  0.00     0.006 C 
BRANCH   4   5
ATOM      5  C   UNL     1      59.314  28.539  49.469  1.00  0.00     0.053 C 
BRANCH   5   6
ATOM      6  C   UNL     1      60.531  28.750  50.313  1.00  0.00     0.041 C 
ATOM      7  O   UNL     1      60.977  27.814  51.026  1.00  0.00    -0.550 OA
ATOM      8  O   UNL     1      61.143  29.996  50.352  1.00  0.00    -0.550 OA
ENDBRANCH   5   6
ENDBRANCH   4   5
ENDBRANCH   3   4
ENDBRANCH   2   3
ENDBRANCH   1   2
BRANCH   1   9
ATOM      9  C   UNL     1      54.732  26.773  50.099  1.00  0.00     0.000 C 
BRANCH   9  10
ATOM     10  C   UNL     1      53.641  27.408  50.970  1.00  0.00    -0.000 C 
BRANCH  10  11
ATOM     11  C   UNL     1      53.093  28.687  50.319  1.00  0.00    -0.000 C 
BRANCH  11  12
ATOM     12  C   UNL     1      53.940  29.933  50.637  1.00  0.00    -0.000 C 
BRANCH  12  13
ATOM     13  C   UNL     1      54.164  30.195  52.137  1.00  0.00    -0.003 C 
ATOM     14  C   UNL     1      53.843  31.631  52.548  1.00  0.00     0.004 C 
ENDBRANCH  12  13
ENDBRANCH  11  12
ENDBRANCH  10  11
ENDBRANCH   9  10
ENDBRANCH   1   9
TORSDOF 10
ENDMDL
MODEL 7
REMARK VINA RESULT:    -3.372      2.513      5.071
REMARK INTER + INTRA:          -6.091
REMARK INTER:                  -4.720
REMARK INTRA:                  -1.371
REMARK UNBOUND:                -0.747
REMARK SMILES CCCCCCCCCCCC(=O)[O-]
REMARK SMILES IDX 7 1 8 2 9 3 10 4 11 5 12 6 13 7 14 8 6 9 5 10 4 11 3 12 2 13
REMARK SMILES IDX 1 14
REMARK H PARENT
REMARK Flexibility Score: inf
ROOT
ATOM      1  C   UNL     1      58.282  29.572  51.376  1.00  0.00     0.000 C 
ENDROOT
BRANCH   1   2
ATOM      2  C   UNL     1      56.961  28.873  51.740  1.00  0.00     0.000 C 
BRANCH   2   3
ATOM      3  C   UNL     1      55.761  29.249  50.848  1.00  0.00     0.000 C 
BRANCH   3   4
ATOM      4  C   UNL     1      54.916  28.037  50.402  1.00  0.00     0.006 C 
BRANCH   4   5
ATOM      5  C   UNL     1      55.608  26.701  50.703  1.00  0.00     0.053 C 
BRANCH   5   6
ATOM      6  C   UNL     1      54.815  25.914  51.698  1.00  0.00     0.041 C 
ATOM      7  O   UNL     1      55.382  25.410  52.702  1.00  0.00    -0.550 OA
ATOM      8  O   UNL     1      53.459  25.695  51.490  1.00  0.00    -0.550 OA
ENDBRANCH   5   6
ENDBRANCH   4   5
ENDBRANCH   3   4
ENDBRANCH   2   3
ENDBRANCH   1   2
BRANCH   1   9
ATOM      9  C   UNL     1      58.509  29.662  49.859  1.00  0.00     0.000 C 
BRANCH   9  10
ATOM     10  C   UNL     1      59.248  28.421  49.342  1.00  0.00    -0.000 C 
BRANCH  10  11
ATOM     11  C   UNL     1      60.303  27.949  50.353  1.00  0.00    -0.000 C 
BRANCH  11  12
ATOM     12  C   UNL     1      60.493  26.421  50.352  1.00  0.00    -0.000 C 
BRANCH  12  13
ATOM     13  C   UNL     1      59.250  25.615  50.768  1.00  0.00    -0.003 C 
ATOM     14  C   UNL     1      58.888  25.791  52.242  1.00  0.00     0.004 C 
ENDBRANCH  12  13
ENDBRANCH  11  12
ENDBRANCH  10  11
ENDBRANCH   9  10
ENDBRANCH   1   9
TORSDOF 10
ENDMDL
MODEL 8
REMARK VINA RESULT:    -3.358      3.052      4.378
REMARK INTER + INTRA:          -6.068
REMARK INTER:                  -5.150
REMARK INTRA:                  -0.918
REMARK UNBOUND:                -0.747
REMARK SMILES CCCCCCCCCCCC(=O)[O-]
REMARK SMILES IDX 7 1 8 2 9 3 10 4 11 5 12 6 13 7 14 8 6 9 5 10 4 11 3 12 2 13
REMARK SMILES IDX 1 14
REMARK H PARENT
REMARK Flexibility Score: inf
ROOT
ATOM      1  C   UNL     1      59.499  27.407  49.898  1.00  0.00     0.000 C 
ENDROOT
BRANCH   1   2
ATOM      2  C   UNL     1      60.923  27.262  50.459  1.00  0.00     0.000 C 
BRANCH   2   3
ATOM      3  C   UNL     1      62.001  28.068  49.707  1.00  0.00     0.000 C 
BRANCH   3   4
ATOM      4  C   UNL     1      62.856  28.970  50.623  1.00  0.00     0.006 C 
BRANCH   4   5
ATOM      5  C   UNL     1      62.203  30.337  50.866  1.00  0.00     0.053 C 
BRANCH   5   6
ATOM      6  C   UNL     1      62.749  31.354  49.914  1.00  0.00     0.041 C 
ATOM      7  O   UNL     1      63.891  31.199  49.409  1.00  0.00    -0.550 OA
ATOM      8  O   UNL     1      62.017  32.498  49.623  1.00  0.00    -0.550 OA
ENDBRANCH   5   6
ENDBRANCH   4   5
ENDBRANCH   3   4
ENDBRANCH   2   3
ENDBRANCH   1   2
BRANCH   1   9
ATOM      9  C   UNL     1      59.239  28.792  49.285  1.00  0.00     0.000 C 
BRANCH   9  10
ATOM     10  C   UNL     1      58.286  29.610  50.165  1.00  0.00    -0.000 C 
BRANCH  10  11
ATOM     11  C   UNL     1      57.460  28.695  51.081  1.00  0.00    -0.000 C 
BRANCH  11  12
ATOM     12  C   UNL     1      55.972  29.085  51.134  1.00  0.00    -0.000 C 
BRANCH  12  13
ATOM     13  C   UNL     1      55.011  28.052  50.516  1.00  0.00    -0.003 C 
ATOM     14  C   UNL     1      55.593  26.639  50.483  1.00  0.00     0.004 C 
ENDBRANCH  12  13
ENDBRANCH  11  12
ENDBRANCH  10  11
ENDBRANCH   9  10
ENDBRANCH   1   9
TORSDOF 10
ENDMDL
MODEL 9
REMARK VINA RESULT:    -3.333      1.320      1.871
REMARK INTER + INTRA:          -6.028
REMARK INTER:                  -4.785
REMARK INTRA:                  -1.243
REMARK UNBOUND:                -0.747
REMARK SMILES CCCCCCCCCCCC(=O)[O-]
REMARK SMILES IDX 7 1 8 2 9 3 10 4 11 5 12 6 13 7 14 8 6 9 5 10 4 11 3 12 2 13
REMARK SMILES IDX 1 14
REMARK H PARENT
REMARK Flexibility Score: inf
ROOT
ATOM      1  C   UNL     1      58.045  30.283  52.401  1.00  0.00     0.000 C 
ENDROOT
BRANCH   1   2
ATOM      2  C   UNL     1      59.155  30.009  51.373  1.00  0.00     0.000 C 
BRANCH   2   3
ATOM      3  C   UNL     1      58.656  29.714  49.944  1.00  0.00     0.000 C 
BRANCH   3   4
ATOM      4  C   UNL     1      59.367  28.520  49.272  1.00  0.00     0.006 C 
BRANCH   4   5
ATOM      5  C   UNL     1      59.839  27.474  50.292  1.00  0.00     0.053 C 
BRANCH   5   6
ATOM      6  C   UNL     1      61.310  27.240  50.159  1.00  0.00     0.041 C 
ATOM      7  O   UNL     1      62.039  28.100  49.598  1.00  0.00    -0.550 OA
ATOM      8  O   UNL     1      61.870  26.051  50.609  1.00  0.00    -0.550 OA
ENDBRANCH   5   6
ENDBRANCH   4   5
ENDBRANCH   3   4
ENDBRANCH   2   3
ENDBRANCH   1   2
BRANCH   1   9
ATOM      9  C   UNL     1      56.735  29.550  52.073  1.00  0.00     0.000 C 
BRANCH   9  10
ATOM     10  C   UNL     1      56.680  28.187  52.774  1.00  0.00    -0.000 C 
BRANCH  10  11
ATOM     11  C   UNL     1      56.421  27.059  51.764  1.00  0.00    -0.000 C 
BRANCH  11  12
ATOM     12  C   UNL     1      55.712  27.548  50.488  1.00  0.00    -0.000 C 
BRANCH  12  13
ATOM     13  C   UNL     1      54.226  27.160  50.387  1.00  0.00    -0.003 C 
ATOM     14  C   UNL     1      54.003  25.825  49.677  1.00  0.00     0.004 C 
ENDBRANCH  12  13
ENDBRANCH  11  12
ENDBRANCH  10  11
ENDBRANCH   9  10
ENDBRANCH   1   9
TORSDOF 10
ENDMDL
