MODEL 1
REMARK VINA RESULT:    -5.451      0.000      0.000
REMARK INTER + INTRA:         -16.514
REMARK INTER:                 -14.374
REMARK INTRA:                  -2.140
REMARK UNBOUND:                -2.140
REMARK SMILES CCCCCCCCCCCCCCCCCCCCCCCCCCCCCC(=O)[O-]
REMARK SMILES IDX 16 1 17 2 18 3 19 4 20 5 21 6 22 7 23 8 24 9 25 10 26 11
REMARK SMILES IDX 27 12 28 13 29 14 30 15 31 16 32 17 15 18 14 19 13 20 12 21
REMARK SMILES IDX 11 22 10 23 9 24 8 25 7 26 6 27 5 28 4 29 3 30 2 31 1 32
REMARK H PARENT
REMARK Flexibility Score: inf
ROOT
ATOM      1  C   UNL     1       7.272  47.960  67.319  1.00  0.00     0.000 C 
ENDROOT
BRANCH   1   2
ATOM      2  C   UNL     1       6.600  48.159  68.686  1.00  0.00     0.000 C 
BRANCH   2   3
ATOM      3  C   UNL     1       7.286  47.373  69.817  1.00  0.00     0.000 C 
BRANCH   3   4
ATOM      4  C   UNL     1       8.014  48.235  70.866  1.00  0.00     0.000 C 
BRANCH   4   5
ATOM      5  C   UNL     1       8.535  49.564  70.300  1.00  0.00     0.000 C 
BRANCH   5   6
ATOM      6  C   UNL     1      10.068  49.556  70.192  1.00  0.00     0.000 C 
BRANCH   6   7
ATOM      7  C   UNL     1      10.682  48.208  70.628  1.00  0.00     0.000 C 
BRANCH   7   8
ATOM      8  C   UNL     1      11.757  48.335  71.721  1.00  0.00     0.000 C 
BRANCH   8   9
ATOM      9  C   UNL     1      11.276  47.841  73.094  1.00  0.00     0.000 C 
BRANCH   9  10
ATOM     10  C   UNL     1      12.341  48.000  74.195  1.00  0.00     0.000 C 
BRANCH  10  11
ATOM     11  C   UNL     1      13.194  46.743  74.470  1.00  0.00     0.000 C 
BRANCH  11  12
ATOM     12  C   UNL     1      12.399  45.480  74.860  1.00  0.00     0.000 C 
BRANCH  12  13
ATOM     13  C   UNL     1      13.232  44.361  75.517  1.00  0.00     0.006 C 
BRANCH  13  14
ATOM     14  C   UNL     1      13.723  43.281  74.539  1.00  0.00     0.053 C 
BRANCH  14  15
ATOM     15  C   UNL     1      15.158  43.479  74.157  1.00  0.00     0.041 C 
ATOM     16  O   UNL     1      15.923  42.486  74.032  1.00  0.00    -0.550 OA
ATOM     17  O   UNL     1      15.651  44.760  73.937  1.00  0.00    -0.550 OA
ENDBRANCH  14  15
ENDBRANCH  13  14
ENDBRANCH  12  13
ENDBRANCH  11  12
ENDBRANCH  10  11
ENDBRANCH   9  10
ENDBRANCH   8   9
ENDBRANCH   7   8
ENDBRANCH   6   7
ENDBRANCH   5   6
ENDBRANCH   4   5
ENDBRANCH   3   4
ENDBRANCH   2   3
ENDBRANCH   1   2
BRANCH   1  18
ATOM     18  C   UNL     1       7.265  49.266  66.508  1.00  0.00     0.000 C 
BRANCH  18  19
ATOM     19  C   UNL     1       5.917  50.005  66.579  1.00  0.00     0.000 C 
BRANCH  19  20
ATOM     20  C   UNL     1       4.777  49.353  65.778  1.00  0.00     0.000 C 
BRANCH  20  21
ATOM     21  C   UNL     1       5.189  48.997  64.339  1.00  0.00     0.000 C 
BRANCH  21  22
ATOM     22  C   UNL     1       4.971  47.510  64.014  1.00  0.00     0.000 C 
BRANCH  22  23
ATOM     23  C   UNL     1       3.631  46.980  64.546  1.00  0.00     0.000 C 
BRANCH  23  24
ATOM     24  C   UNL     1       3.813  45.623  65.242  1.00  0.00    -0.000 C 
BRANCH  24  25
ATOM     25  C   UNL     1       3.580  44.428  64.299  1.00  0.00    -0.000 C 
BRANCH  25  26
ATOM     26  C   UNL     1       3.639  43.040  64.966  1.00  0.00    -0.000 C 
BRANCH  26  27
ATOM     27  C   UNL     1       2.621  42.878  66.107  1.00  0.00    -0.000 C 
BRANCH  27  28
ATOM     28  C   UNL     1       3.288  42.807  67.490  1.00  0.00    -0.000 C 
BRANCH  28  29
ATOM     29  C   UNL     1       2.629  43.737  68.521  1.00  0.00    -0.000 C 
BRANCH  29  30
ATOM     30  C   UNL     1       2.531  43.054  69.893  1.00  0.00    -0.000 C 
BRANCH  30  31
ATOM     31  C   UNL     1       3.842  43.138  70.689  1.00  0.00    -0.003 C 
ATOM     32  C   UNL     1       3.838  44.267  71.719  1.00  0.00     0.004 C 
ENDBRANCH  30  31
ENDBRANCH  29  30
ENDBRANCH  28  29
ENDBRANCH  27  28
ENDBRANCH  26  27
ENDBRANCH  25  26
ENDBRANCH  24  25
ENDBRANCH  23  24
ENDBRANCH  22  23
ENDBRANCH  21  22
ENDBRANCH  20  21
ENDBRANCH  19  20
ENDBRANCH  18  19
ENDBRANCH   1  18
TORSDOF 28
ENDMDL
MODEL 2
REMARK VINA RESULT:    -5.241      1.777      5.383
REMARK INTER + INTRA:         -15.960
REMARK INTER:                 -13.021
REMARK INTRA:                  -2.939
REMARK UNBOUND:                -2.140
REMARK SMILES CCCCCCCCCCCCCCCCCCCCCCCCCCCCCC(=O)[O-]
REMARK SMILES IDX 16 1 17 2 18 3 19 4 20 5 21 6 22 7 23 8 24 9 25 10 26 11
REMARK SMILES IDX 27 12 28 13 29 14 30 15 31 16 32 17 15 18 14 19 13 20 12 21
REMARK SMILES IDX 11 22 10 23 9 24 8 25 7 26 6 27 5 28 4 29 3 30 2 31 1 32
REMARK H PARENT
REMARK Flexibility Score: inf
ROOT
ATOM      1  C   UNL     1       3.165  43.596  71.028  1.00  0.00     0.000 C 
ENDROOT
BRANCH   1   2
ATOM      2  C   UNL     1       4.691  43.761  70.977  1.00  0.00     0.000 C 
BRANCH   2   3
ATOM      3  C   UNL     1       5.143  45.232  71.010  1.00  0.00     0.000 C 
BRANCH   3   4
ATOM      4  C   UNL     1       5.524  45.830  69.642  1.00  0.00     0.000 C 
BRANCH   4   5
ATOM      5  C   UNL     1       6.003  47.286  69.732  1.00  0.00     0.000 C 
BRANCH   5   6
ATOM      6  C   UNL     1       7.537  47.361  69.787  1.00  0.00     0.000 C 
BRANCH   6   7
ATOM      7  C   UNL     1       8.038  48.415  70.798  1.00  0.00     0.000 C 
BRANCH   7   8
ATOM      8  C   UNL     1       8.557  49.709  70.147  1.00  0.00     0.000 C 
BRANCH   8   9
ATOM      9  C   UNL     1      10.090  49.773  70.083  1.00  0.00     0.000 C 
BRANCH   9  10
ATOM     10  C   UNL     1      10.739  48.396  69.849  1.00  0.00     0.000 C 
BRANCH  10  11
ATOM     11  C   UNL     1      11.634  47.888  70.999  1.00  0.00     0.000 C 
BRANCH  11  12
ATOM     12  C   UNL     1      11.144  48.239  72.419  1.00  0.00     0.000 C 
BRANCH  12  13
ATOM     13  C   UNL     1      12.138  47.914  73.553  1.00  0.00     0.006 C 
BRANCH  13  14
ATOM     14  C   UNL     1      11.484  47.727  74.931  1.00  0.00     0.053 C 
BRANCH  14  15
ATOM     15  C   UNL     1      11.485  46.293  75.364  1.00  0.00     0.041 C 
ATOM     16  O   UNL     1      10.713  45.907  76.282  1.00  0.00    -0.550 OA
ATOM     17  O   UNL     1      12.338  45.380  74.753  1.00  0.00    -0.550 OA
ENDBRANCH  14  15
ENDBRANCH  13  14
ENDBRANCH  12  13
ENDBRANCH  11  12
ENDBRANCH  10  11
ENDBRANCH   9  10
ENDBRANCH   8   9
ENDBRANCH   7   8
ENDBRANCH   6   7
ENDBRANCH   5   6
ENDBRANCH   4   5
ENDBRANCH   3   4
ENDBRANCH   2   3
ENDBRANCH   1   2
BRANCH   1  18
ATOM     18  C   UNL     1       2.684  42.606  69.955  1.00  0.00     0.000 C 
BRANCH  18  19
ATOM     19  C   UNL     1       3.210  42.945  68.550  1.00  0.00     0.000 C 
BRANCH  19  20
ATOM     20  C   UNL     1       2.489  44.111  67.850  1.00  0.00     0.000 C 
BRANCH  20  21
ATOM     21  C   UNL     1       2.235  43.841  66.357  1.00  0.00     0.000 C 
BRANCH  21  22
ATOM     22  C   UNL     1       3.334  42.977  65.718  1.00  0.00     0.000 C 
BRANCH  22  23
ATOM     23  C   UNL     1       3.616  43.364  64.258  1.00  0.00     0.000 C 
BRANCH  23  24
ATOM     24  C   UNL     1       2.996  44.727  63.920  1.00  0.00    -0.000 C 
BRANCH  24  25
ATOM     25  C   UNL     1       4.031  45.867  63.888  1.00  0.00    -0.000 C 
BRANCH  25  26
ATOM     26  C   UNL     1       4.033  46.790  65.122  1.00  0.00    -0.000 C 
BRANCH  26  27
ATOM     27  C   UNL     1       3.713  48.255  64.778  1.00  0.00    -0.000 C 
BRANCH  27  28
ATOM     28  C   UNL     1       4.960  49.154  64.798  1.00  0.00    -0.000 C 
BRANCH  28  29
ATOM     29  C   UNL     1       5.020  50.068  66.031  1.00  0.00    -0.000 C 
BRANCH  29  30
ATOM     30  C   UNL     1       6.023  49.532  67.063  1.00  0.00    -0.000 C 
BRANCH  30  31
ATOM     31  C   UNL     1       7.397  49.225  66.447  1.00  0.00    -0.003 C 
ATOM     32  C   UNL     1       7.791  47.754  66.583  1.00  0.00     0.004 C 
ENDBRANCH  30  31
ENDBRANCH  29  30
ENDBRANCH  28  29
ENDBRANCH  27  28
ENDBRANCH  26  27
ENDBRANCH  25  26
ENDBRANCH  24  25
ENDBRANCH  23  24
ENDBRANCH  22  23
ENDBRANCH  21  22
ENDBRANCH  20  21
ENDBRANCH  19  20
ENDBRANCH  18  19
ENDBRANCH   1  18
TORSDOF 28
ENDMDL
MODEL 3
REMARK VINA RESULT:    -5.161      3.106     10.754
REMARK INTER + INTRA:         -15.750
REMARK INTER:                 -13.331
REMARK INTRA:                  -2.418
REMARK UNBOUND:                -2.140
REMARK SMILES CCCCCCCCCCCCCCCCCCCCCCCCCCCCCC(=O)[O-]
REMARK SMILES IDX 16 1 17 2 18 3 19 4 20 5 21 6 22 7 23 8 24 9 25 10 26 11
REMARK SMILES IDX 27 12 28 13 29 14 30 15 31 16 32 17 15 18 14 19 13 20 12 21
REMARK SMILES IDX 11 22 10 23 9 24 8 25 7 26 6 27 5 28 4 29 3 30 2 31 1 32
REMARK H PARENT
REMARK Flexibility Score: inf
ROOT
ATOM      1  C   UNL     1       8.213  48.224  68.560  1.00  0.00     0.000 C 
ENDROOT
BRANCH   1   2
ATOM      2  C   UNL     1       7.252  49.290  68.012  1.00  0.00     0.000 C 
BRANCH   2   3
ATOM      3  C   UNL     1       7.335  49.453  66.484  1.00  0.00     0.000 C 
BRANCH   3   4
ATOM      4  C   UNL     1       6.049  49.964  65.809  1.00  0.00     0.000 C 
BRANCH   4   5
ATOM      5  C   UNL     1       5.365  48.906  64.932  1.00  0.00     0.000 C 
BRANCH   5   6
ATOM      6  C   UNL     1       4.285  48.149  65.721  1.00  0.00     0.000 C 
BRANCH   6   7
ATOM      7  C   UNL     1       4.527  46.624  65.735  1.00  0.00     0.000 C 
BRANCH   7   8
ATOM      8  C   UNL     1       3.509  45.821  64.907  1.00  0.00     0.000 C 
BRANCH   8   9
ATOM      9  C   UNL     1       3.592  44.308  65.161  1.00  0.00     0.000 C 
BRANCH   9  10
ATOM     10  C   UNL     1       2.276  43.716  65.696  1.00  0.00     0.000 C 
BRANCH  10  11
ATOM     11  C   UNL     1       1.686  44.433  66.930  1.00  0.00     0.000 C 
BRANCH  11  12
ATOM     12  C   UNL     1       2.604  44.472  68.169  1.00  0.00     0.000 C 
BRANCH  12  13
ATOM     13  C   UNL     1       3.070  43.094  68.681  1.00  0.00     0.006 C 
BRANCH  13  14
ATOM     14  C   UNL     1       2.790  42.846  70.172  1.00  0.00     0.053 C 
BRANCH  14  15
ATOM     15  C   UNL     1       3.867  43.409  71.047  1.00  0.00     0.041 C 
ATOM     16  O   UNL     1       5.039  42.950  70.984  1.00  0.00    -0.550 OA
ATOM     17  O   UNL     1       3.578  44.441  71.933  1.00  0.00    -0.550 OA
ENDBRANCH  14  15
ENDBRANCH  13  14
ENDBRANCH  12  13
ENDBRANCH  11  12
ENDBRANCH  10  11
ENDBRANCH   9  10
ENDBRANCH   8   9
ENDBRANCH   7   8
ENDBRANCH   6   7
ENDBRANCH   5   6
ENDBRANCH   4   5
ENDBRANCH   3   4
ENDBRANCH   2   3
ENDBRANCH   1   2
BRANCH   1  18
ATOM     18  C   UNL     1       7.881  47.884  70.021  1.00  0.00     0.000 C 
BRANCH  18  19
ATOM     19  C   UNL     1       8.850  48.537  71.022  1.00  0.00     0.000 C 
BRANCH  19  20
ATOM     20  C   UNL     1      10.288  48.720  70.506  1.00  0.00     0.000 C 
BRANCH  20  21
ATOM     21  C   UNL     1      11.318  47.916  71.319  1.00  0.00     0.000 C 
BRANCH  21  22
ATOM     22  C   UNL     1      12.549  48.753  71.704  1.00  0.00     0.000 C 
BRANCH  22  23
ATOM     23  C   UNL     1      13.373  48.108  72.830  1.00  0.00     0.000 C 
BRANCH  23  24
ATOM     24  C   UNL     1      13.343  48.972  74.098  1.00  0.00    -0.000 C 
BRANCH  24  25
ATOM     25  C   UNL     1      12.610  48.294  75.271  1.00  0.00    -0.000 C 
BRANCH  25  26
ATOM     26  C   UNL     1      11.500  47.303  74.870  1.00  0.00    -0.000 C 
BRANCH  26  27
ATOM     27  C   UNL     1      11.624  45.943  75.576  1.00  0.00    -0.000 C 
BRANCH  27  28
ATOM     28  C   UNL     1      12.311  44.881  74.702  1.00  0.00    -0.000 C 
BRANCH  28  29
ATOM     29  C   UNL     1      13.591  44.319  75.338  1.00  0.00    -0.000 C 
BRANCH  29  30
ATOM     30  C   UNL     1      14.838  45.016  74.774  1.00  0.00    -0.000 C 
BRANCH  30  31
ATOM     31  C   UNL     1      15.522  44.197  73.668  1.00  0.00    -0.003 C 
ATOM     32  C   UNL     1      15.605  42.708  74.000  1.00  0.00     0.004 C 
ENDBRANCH  30  31
ENDBRANCH  29  30
ENDBRANCH  28  29
ENDBRANCH  27  28
ENDBRANCH  26  27
ENDBRANCH  25  26
ENDBRANCH  24  25
ENDBRANCH  23  24
ENDBRANCH  22  23
ENDBRANCH  21  22
ENDBRANCH  20  21
ENDBRANCH  19  20
ENDBRANCH  18  19
ENDBRANCH   1  18
TORSDOF 28
ENDMDL
MODEL 4
REMARK VINA RESULT:    -5.129      3.661     11.165
REMARK INTER + INTRA:         -15.665
REMARK INTER:                 -13.054
REMARK INTRA:                  -2.611
REMARK UNBOUND:                -2.140
REMARK SMILES CCCCCCCCCCCCCCCCCCCCCCCCCCCCCC(=O)[O-]
REMARK SMILES IDX 16 1 17 2 18 3 19 4 20 5 21 6 22 7 23 8 24 9 25 10 26 11
REMARK SMILES IDX 27 12 28 13 29 14 30 15 31 16 32 17 15 18 14 19 13 20 12 21
REMARK SMILES IDX 11 22 10 23 9 24 8 25 7 26 6 27 5 28 4 29 3 30 2 31 1 32
REMARK H PARENT
REMARK Flexibility Score: inf
ROOT
ATOM      1  C   UNL     1       7.621  47.966  70.222  1.00  0.00     0.000 C 
ENDROOT
BRANCH   1   2
ATOM      2  C   UNL     1       7.263  49.253  69.464  1.00  0.00     0.000 C 
BRANCH   2   3
ATOM      3  C   UNL     1       7.202  49.060  67.938  1.00  0.00     0.000 C 
BRANCH   3   4
ATOM      4  C   UNL     1       6.117  49.881  67.216  1.00  0.00     0.000 C 
BRANCH   4   5
ATOM      5  C   UNL     1       6.266  49.869  65.688  1.00  0.00     0.000 C 
BRANCH   5   6
ATOM      6  C   UNL     1       4.964  49.414  65.009  1.00  0.00     0.000 C 
BRANCH   6   7
ATOM      7  C   UNL     1       4.255  48.288  65.791  1.00  0.00     0.000 C 
BRANCH   7   8
ATOM      8  C   UNL     1       4.766  46.876  65.457  1.00  0.00     0.000 C 
BRANCH   8   9
ATOM      9  C   UNL     1       4.054  46.253  64.246  1.00  0.00     0.000 C 
BRANCH   9  10
ATOM     10  C   UNL     1       2.633  45.761  64.574  1.00  0.00     0.000 C 
BRANCH  10  11
ATOM     11  C   UNL     1       2.367  44.271  64.272  1.00  0.00     0.000 C 
BRANCH  11  12
ATOM     12  C   UNL     1       2.102  43.385  65.507  1.00  0.00     0.000 C 
BRANCH  12  13
ATOM     13  C   UNL     1       3.202  43.425  66.587  1.00  0.00     0.006 C 
BRANCH  13  14
ATOM     14  C   UNL     1       2.795  44.158  67.876  1.00  0.00     0.053 C 
BRANCH  14  15
ATOM     15  C   UNL     1       2.924  43.284  69.085  1.00  0.00     0.041 C 
ATOM     16  O   UNL     1       2.330  43.588  70.154  1.00  0.00    -0.550 OA
ATOM     17  O   UNL     1       3.700  42.131  69.033  1.00  0.00    -0.550 OA
ENDBRANCH  14  15
ENDBRANCH  13  14
ENDBRANCH  12  13
ENDBRANCH  11  12
ENDBRANCH  10  11
ENDBRANCH   9  10
ENDBRANCH   8   9
ENDBRANCH   7   8
ENDBRANCH   6   7
ENDBRANCH   5   6
ENDBRANCH   4   5
ENDBRANCH   3   4
ENDBRANCH   2   3
ENDBRANCH   1   2
BRANCH   1  18
ATOM     18  C   UNL     1       8.753  48.221  71.231  1.00  0.00     0.000 C 
BRANCH  18  19
ATOM     19  C   UNL     1      10.000  48.849  70.584  1.00  0.00     0.000 C 
BRANCH  19  20
ATOM     20  C   UNL     1      11.320  48.113  70.872  1.00  0.00     0.000 C 
BRANCH  20  21
ATOM     21  C   UNL     1      11.743  48.205  72.348  1.00  0.00     0.000 C 
BRANCH  21  22
ATOM     22  C   UNL     1      13.269  48.277  72.521  1.00  0.00     0.000 C 
BRANCH  22  23
ATOM     23  C   UNL     1      13.686  48.575  73.970  1.00  0.00     0.000 C 
BRANCH  23  24
ATOM     24  C   UNL     1      15.078  48.003  74.272  1.00  0.00    -0.000 C 
BRANCH  24  25
ATOM     25  C   UNL     1      15.282  46.586  73.702  1.00  0.00    -0.000 C 
BRANCH  25  26
ATOM     26  C   UNL     1      15.379  45.461  74.751  1.00  0.00    -0.000 C 
BRANCH  26  27
ATOM     27  C   UNL     1      14.350  44.340  74.526  1.00  0.00    -0.000 C 
BRANCH  27  28
ATOM     28  C   UNL     1      13.150  44.437  75.482  1.00  0.00    -0.000 C 
BRANCH  28  29
ATOM     29  C   UNL     1      12.031  45.344  74.949  1.00  0.00    -0.000 C 
BRANCH  29  30
ATOM     30  C   UNL     1      11.198  45.924  76.101  1.00  0.00    -0.000 C 
BRANCH  30  31
ATOM     31  C   UNL     1      10.972  47.437  75.962  1.00  0.00    -0.003 C 
ATOM     32  C   UNL     1      10.558  48.096  77.278  1.00  0.00     0.004 C 
ENDBRANCH  30  31
ENDBRANCH  29  30
ENDBRANCH  28  29
ENDBRANCH  27  28
ENDBRANCH  26  27
ENDBRANCH  25  26
ENDBRANCH  24  25
ENDBRANCH  23  24
ENDBRANCH  22  23
ENDBRANCH  21  22
ENDBRANCH  20  21
ENDBRANCH  19  20
ENDBRANCH  18  19
ENDBRANCH   1  18
TORSDOF 28
ENDMDL
MODEL 5
REMARK VINA RESULT:    -5.129      1.535      3.003
REMARK INTER + INTRA:         -15.664
REMARK INTER:                 -13.698
REMARK INTRA:                  -1.967
REMARK UNBOUND:                -2.140
REMARK SMILES CCCCCCCCCCCCCCCCCCCCCCCCCCCCCC(=O)[O-]
REMARK SMILES IDX 16 1 17 2 18 3 19 4 20 5 21 6 22 7 23 8 24 9 25 10 26 11
REMARK SMILES IDX 27 12 28 13 29 14 30 15 31 16 32 17 15 18 14 19 13 20 12 21
REMARK SMILES IDX 11 22 10 23 9 24 8 25 7 26 6 27 5 28 4 29 3 30 2 31 1 32
REMARK H PARENT
REMARK Flexibility Score: inf
ROOT
ATOM      1  C   UNL     1       7.666  47.877  70.430  1.00  0.00     0.000 C 
ENDROOT
BRANCH   1   2
ATOM      2  C   UNL     1       8.911  48.398  71.164  1.00  0.00     0.000 C 
BRANCH   2   3
ATOM      3  C   UNL     1      10.173  48.411  70.282  1.00  0.00     0.000 C 
BRANCH   3   4
ATOM      4  C   UNL     1      11.505  48.281  71.043  1.00  0.00     0.000 C 
BRANCH   4   5
ATOM      5  C   UNL     1      11.321  48.069  72.552  1.00  0.00     0.000 C 
BRANCH   5   6
ATOM      6  C   UNL     1      12.648  48.264  73.304  1.00  0.00     0.000 C 
BRANCH   6   7
ATOM      7  C   UNL     1      12.568  47.790  74.771  1.00  0.00     0.000 C 
BRANCH   7   8
ATOM      8  C   UNL     1      11.375  46.866  75.066  1.00  0.00     0.000 C 
BRANCH   8   9
ATOM      9  C   UNL     1      11.764  45.380  75.110  1.00  0.00     0.000 C 
BRANCH   9  10
ATOM     10  C   UNL     1      13.288  45.159  75.107  1.00  0.00     0.000 C 
BRANCH  10  11
ATOM     11  C   UNL     1      13.742  43.720  74.784  1.00  0.00     0.000 C 
BRANCH  11  12
ATOM     12  C   UNL     1      15.201  43.583  74.302  1.00  0.00     0.000 C 
BRANCH  12  13
ATOM     13  C   UNL     1      15.640  42.148  73.946  1.00  0.00     0.006 C 
BRANCH  13  14
ATOM     14  C   UNL     1      17.163  41.939  73.929  1.00  0.00     0.053 C 
BRANCH  14  15
ATOM     15  C   UNL     1      17.563  40.661  74.601  1.00  0.00     0.041 C 
ATOM     16  O   UNL     1      17.843  40.653  75.829  1.00  0.00    -0.550 OA
ATOM     17  O   UNL     1      17.626  39.479  73.871  1.00  0.00    -0.550 OA
ENDBRANCH  14  15
ENDBRANCH  13  14
ENDBRANCH  12  13
ENDBRANCH  11  12
ENDBRANCH  10  11
ENDBRANCH   9  10
ENDBRANCH   8   9
ENDBRANCH   7   8
ENDBRANCH   6   7
ENDBRANCH   5   6
ENDBRANCH   4   5
ENDBRANCH   3   4
ENDBRANCH   2   3
ENDBRANCH   1   2
BRANCH   1  18
ATOM     18  C   UNL     1       7.837  47.997  68.907  1.00  0.00     0.000 C 
BRANCH  18  19
ATOM     19  C   UNL     1       6.974  49.114  68.294  1.00  0.00     0.000 C 
BRANCH  19  20
ATOM     20  C   UNL     1       7.266  49.421  66.815  1.00  0.00     0.000 C 
BRANCH  20  21
ATOM     21  C   UNL     1       6.806  48.295  65.873  1.00  0.00     0.000 C 
BRANCH  21  22
ATOM     22  C   UNL     1       5.274  48.167  65.810  1.00  0.00     0.000 C 
BRANCH  22  23
ATOM     23  C   UNL     1       4.756  46.921  66.545  1.00  0.00     0.000 C 
BRANCH  23  24
ATOM     24  C   UNL     1       3.486  46.376  65.877  1.00  0.00    -0.000 C 
BRANCH  24  25
ATOM     25  C   UNL     1       3.632  44.917  65.408  1.00  0.00    -0.000 C 
BRANCH  25  26
ATOM     26  C   UNL     1       2.732  43.898  66.133  1.00  0.00    -0.000 C 
BRANCH  26  27
ATOM     27  C   UNL     1       1.555  44.555  66.874  1.00  0.00    -0.000 C 
BRANCH  27  28
ATOM     28  C   UNL     1       1.498  44.163  68.359  1.00  0.00    -0.000 C 
BRANCH  28  29
ATOM     29  C   UNL     1       2.846  43.664  68.900  1.00  0.00    -0.000 C 
BRANCH  29  30
ATOM     30  C   UNL     1       2.686  43.056  70.301  1.00  0.00    -0.000 C 
BRANCH  30  31
ATOM     31  C   UNL     1       3.715  43.600  71.303  1.00  0.00    -0.003 C 
ATOM     32  C   UNL     1       4.810  44.430  70.633  1.00  0.00     0.004 C 
ENDBRANCH  30  31
ENDBRANCH  29  30
ENDBRANCH  28  29
ENDBRANCH  27  28
ENDBRANCH  26  27
ENDBRANCH  25  26
ENDBRANCH  24  25
ENDBRANCH  23  24
ENDBRANCH  22  23
ENDBRANCH  21  22
ENDBRANCH  20  21
ENDBRANCH  19  20
ENDBRANCH  18  19
ENDBRANCH   1  18
TORSDOF 28
ENDMDL
MODEL 6
REMARK VINA RESULT:    -5.103      1.269      1.951
REMARK INTER + INTRA:         -15.596
REMARK INTER:                 -13.136
REMARK INTRA:                  -2.460
REMARK UNBOUND:                -2.140
REMARK SMILES CCCCCCCCCCCCCCCCCCCCCCCCCCCCCC(=O)[O-]
REMARK SMILES IDX 16 1 17 2 18 3 19 4 20 5 21 6 22 7 23 8 24 9 25 10 26 11
REMARK SMILES IDX 27 12 28 13 29 14 30 15 31 16 32 17 15 18 14 19 13 20 12 21
REMARK SMILES IDX 11 22 10 23 9 24 8 25 7 26 6 27 5 28 4 29 3 30 2 31 1 32
REMARK H PARENT
REMARK Flexibility Score: inf
ROOT
ATOM      1  C   UNL     1       7.025  47.156  68.983  1.00  0.00     0.000 C 
ENDROOT
BRANCH   1   2
ATOM      2  C   UNL     1       6.992  48.284  70.025  1.00  0.00     0.000 C 
BRANCH   2   3
ATOM      3  C   UNL     1       8.355  48.976  70.212  1.00  0.00     0.000 C 
BRANCH   3   4
ATOM      4  C   UNL     1       9.427  48.604  69.170  1.00  0.00     0.000 C 
BRANCH   4   5
ATOM      5  C   UNL     1      10.670  47.949  69.788  1.00  0.00     0.000 C 
BRANCH   5   6
ATOM      6  C   UNL     1      10.795  48.298  71.280  1.00  0.00     0.000 C 
BRANCH   6   7
ATOM      7  C   UNL     1      12.253  48.227  71.781  1.00  0.00     0.000 C 
BRANCH   7   8
ATOM      8  C   UNL     1      12.385  48.078  73.306  1.00  0.00     0.000 C 
BRANCH   8   9
ATOM      9  C   UNL     1      13.763  48.506  73.833  1.00  0.00     0.000 C 
BRANCH   9  10
ATOM     10  C   UNL     1      14.908  48.174  72.858  1.00  0.00     0.000 C 
BRANCH  10  11
ATOM     11  C   UNL     1      15.707  46.896  73.192  1.00  0.00     0.000 C 
BRANCH  11  12
ATOM     12  C   UNL     1      15.538  46.373  74.633  1.00  0.00     0.000 C 
BRANCH  12  13
ATOM     13  C   UNL     1      15.001  44.932  74.746  1.00  0.00     0.006 C 
BRANCH  13  14
ATOM     14  C   UNL     1      15.799  43.895  73.941  1.00  0.00     0.053 C 
BRANCH  14  15
ATOM     15  C   UNL     1      15.143  42.548  73.952  1.00  0.00     0.041 C 
ATOM     16  O   UNL     1      13.887  42.455  73.981  1.00  0.00    -0.550 OA
ATOM     17  O   UNL     1      15.920  41.394  73.929  1.00  0.00    -0.550 OA
ENDBRANCH  14  15
ENDBRANCH  13  14
ENDBRANCH  12  13
ENDBRANCH  11  12
ENDBRANCH  10  11
ENDBRANCH   9  10
ENDBRANCH   8   9
ENDBRANCH   7   8
ENDBRANCH   6   7
ENDBRANCH   5   6
ENDBRANCH   4   5
ENDBRANCH   3   4
ENDBRANCH   2   3
ENDBRANCH   1   2
BRANCH   1  18
ATOM     18  C   UNL     1       6.050  47.445  67.831  1.00  0.00     0.000 C 
BRANCH  18  19
ATOM     19  C   UNL     1       6.766  47.824  66.523  1.00  0.00     0.000 C 
BRANCH  19  20
ATOM     20  C   UNL     1       6.475  49.246  66.013  1.00  0.00     0.000 C 
BRANCH  20  21
ATOM     21  C   UNL     1       5.202  49.321  65.152  1.00  0.00     0.000 C 
BRANCH  21  22
ATOM     22  C   UNL     1       5.101  48.161  64.147  1.00  0.00     0.000 C 
BRANCH  22  23
ATOM     23  C   UNL     1       3.673  47.610  64.024  1.00  0.00     0.000 C 
BRANCH  23  24
ATOM     24  C   UNL     1       3.232  46.922  65.324  1.00  0.00    -0.000 C 
BRANCH  24  25
ATOM     25  C   UNL     1       3.916  45.560  65.545  1.00  0.00    -0.000 C 
BRANCH  25  26
ATOM     26  C   UNL     1       3.006  44.329  65.361  1.00  0.00    -0.000 C 
BRANCH  26  27
ATOM     27  C   UNL     1       3.135  43.310  66.505  1.00  0.00    -0.000 C 
BRANCH  27  28
ATOM     28  C   UNL     1       2.864  43.931  67.885  1.00  0.00    -0.000 C 
BRANCH  28  29
ATOM     29  C   UNL     1       3.249  43.002  69.046  1.00  0.00    -0.000 C 
BRANCH  29  30
ATOM     30  C   UNL     1       2.255  43.135  70.209  1.00  0.00    -0.000 C 
BRANCH  30  31
ATOM     31  C   UNL     1       2.898  43.731  71.471  1.00  0.00    -0.003 C 
ATOM     32  C   UNL     1       4.418  43.845  71.361  1.00  0.00     0.004 C 
ENDBRANCH  30  31
ENDBRANCH  29  30
ENDBRANCH  28  29
ENDBRANCH  27  28
ENDBRANCH  26  27
ENDBRANCH  25  26
ENDBRANCH  24  25
ENDBRANCH  23  24
ENDBRANCH  22  23
ENDBRANCH  21  22
ENDBRANCH  20  21
ENDBRANCH  19  20
ENDBRANCH  18  19
ENDBRANCH   1  18
TORSDOF 28
ENDMDL
MODEL 7
REMARK VINA RESULT:    -5.089      3.241     10.650
REMARK INTER + INTRA:         -15.558
REMARK INTER:                 -13.214
REMARK INTRA:                  -2.344
REMARK UNBOUND:                -2.140
REMARK SMILES CCCCCCCCCCCCCCCCCCCCCCCCCCCCCC(=O)[O-]
REMARK SMILES IDX 16 1 17 2 18 3 19 4 20 5 21 6 22 7 23 8 24 9 25 10 26 11
REMARK SMILES IDX 27 12 28 13 29 14 30 15 31 16 32 17 15 18 14 19 13 20 12 21
REMARK SMILES IDX 11 22 10 23 9 24 8 25 7 26 6 27 5 28 4 29 3 30 2 31 1 32
REMARK H PARENT
REMARK Flexibility Score: inf
ROOT
ATOM      1  C   UNL     1       7.436  47.409  69.839  1.00  0.00     0.000 C 
ENDROOT
BRANCH   1   2
ATOM      2  C   UNL     1       7.346  48.344  68.624  1.00  0.00     0.000 C 
BRANCH   2   3
ATOM      3  C   UNL     1       5.899  48.609  68.170  1.00  0.00     0.000 C 
BRANCH   3   4
ATOM      4  C   UNL     1       5.448  47.820  66.926  1.00  0.00     0.000 C 
BRANCH   4   5
ATOM      5  C   UNL     1       5.759  48.541  65.607  1.00  0.00     0.000 C 
BRANCH   5   6
ATOM      6  C   UNL     1       5.231  47.745  64.404  1.00  0.00     0.000 C 
BRANCH   6   7
ATOM      7  C   UNL     1       4.407  46.511  64.830  1.00  0.00     0.000 C 
BRANCH   7   8
ATOM      8  C   UNL     1       3.021  46.425  64.169  1.00  0.00     0.000 C 
BRANCH   8   9
ATOM      9  C   UNL     1       2.173  45.261  64.705  1.00  0.00     0.000 C 
BRANCH   9  10
ATOM     10  C   UNL     1       2.549  44.857  66.142  1.00  0.00     0.000 C 
BRANCH  10  11
ATOM     11  C   UNL     1       2.700  43.340  66.381  1.00  0.00     0.000 C 
BRANCH  11  12
ATOM     12  C   UNL     1       3.230  42.942  67.774  1.00  0.00     0.000 C 
BRANCH  12  13
ATOM     13  C   UNL     1       2.585  43.693  68.957  1.00  0.00     0.006 C 
BRANCH  13  14
ATOM     14  C   UNL     1       2.654  42.941  70.296  1.00  0.00     0.053 C 
BRANCH  14  15
ATOM     15  C   UNL     1       3.776  43.431  71.159  1.00  0.00     0.041 C 
ATOM     16  O   UNL     1       4.934  42.953  71.026  1.00  0.00    -0.550 OA
ATOM     17  O   UNL     1       3.543  44.418  72.111  1.00  0.00    -0.550 OA
ENDBRANCH  14  15
ENDBRANCH  13  14
ENDBRANCH  12  13
ENDBRANCH  11  12
ENDBRANCH  10  11
ENDBRANCH   9  10
ENDBRANCH   8   9
ENDBRANCH   7   8
ENDBRANCH   6   7
ENDBRANCH   5   6
ENDBRANCH   4   5
ENDBRANCH   3   4
ENDBRANCH   2   3
ENDBRANCH   1   2
BRANCH   1  18
ATOM     18  C   UNL     1       8.256  48.053  70.968  1.00  0.00     0.000 C 
BRANCH  18  19
ATOM     19  C   UNL     1       8.906  49.384  70.550  1.00  0.00     0.000 C 
BRANCH  19  20
ATOM     20  C   UNL     1      10.441  49.351  70.446  1.00  0.00     0.000 C 
BRANCH  20  21
ATOM     21  C   UNL     1      11.044  48.037  70.971  1.00  0.00     0.000 C 
BRANCH  21  22
ATOM     22  C   UNL     1      11.943  48.250  72.201  1.00  0.00     0.000 C 
BRANCH  22  23
ATOM     23  C   UNL     1      13.245  48.989  71.860  1.00  0.00     0.000 C 
BRANCH  23  24
ATOM     24  C   UNL     1      14.403  48.002  71.660  1.00  0.00    -0.000 C 
BRANCH  24  25
ATOM     25  C   UNL     1      15.509  48.149  72.722  1.00  0.00    -0.000 C 
BRANCH  25  26
ATOM     26  C   UNL     1      15.690  46.938  73.658  1.00  0.00    -0.000 C 
BRANCH  26  27
ATOM     27  C   UNL     1      14.394  46.541  74.384  1.00  0.00    -0.000 C 
BRANCH  27  28
ATOM     28  C   UNL     1      14.364  45.053  74.770  1.00  0.00    -0.000 C 
BRANCH  28  29
ATOM     29  C   UNL     1      12.963  44.567  75.173  1.00  0.00    -0.000 C 
BRANCH  29  30
ATOM     30  C   UNL     1      11.913  45.662  74.934  1.00  0.00    -0.000 C 
BRANCH  30  31
ATOM     31  C   UNL     1      11.068  45.952  76.184  1.00  0.00    -0.003 C 
ATOM     32  C   UNL     1      10.937  47.447  76.475  1.00  0.00     0.004 C 
ENDBRANCH  30  31
ENDBRANCH  29  30
ENDBRANCH  28  29
ENDBRANCH  27  28
ENDBRANCH  26  27
ENDBRANCH  25  26
ENDBRANCH  24  25
ENDBRANCH  23  24
ENDBRANCH  22  23
ENDBRANCH  21  22
ENDBRANCH  20  21
ENDBRANCH  19  20
ENDBRANCH  18  19
ENDBRANCH   1  18
TORSDOF 28
ENDMDL
MODEL 8
REMARK VINA RESULT:    -5.066      3.445     11.636
REMARK INTER + INTRA:         -15.498
REMARK INTER:                 -13.659
REMARK INTRA:                  -1.838
REMARK UNBOUND:                -2.140
REMARK SMILES CCCCCCCCCCCCCCCCCCCCCCCCCCCCCC(=O)[O-]
REMARK SMILES IDX 16 1 17 2 18 3 19 4 20 5 21 6 22 7 23 8 24 9 25 10 26 11
REMARK SMILES IDX 27 12 28 13 29 14 30 15 31 16 32 17 15 18 14 19 13 20 12 21
REMARK SMILES IDX 11 22 10 23 9 24 8 25 7 26 6 27 5 28 4 29 3 30 2 31 1 32
REMARK H PARENT
REMARK Flexibility Score: inf
ROOT
ATOM      1  C   UNL     1       8.252  47.881  70.788  1.00  0.00     0.000 C 
ENDROOT
BRANCH   1   2
ATOM      2  C   UNL     1       7.614  48.541  69.556  1.00  0.00     0.000 C 
BRANCH   2   3
ATOM      3  C   UNL     1       7.125  47.524  68.509  1.00  0.00     0.000 C 
BRANCH   3   4
ATOM      4  C   UNL     1       5.906  47.971  67.681  1.00  0.00     0.000 C 
BRANCH   4   5
ATOM      5  C   UNL     1       6.225  48.168  66.193  1.00  0.00     0.000 C 
BRANCH   5   6
ATOM      6  C   UNL     1       5.235  47.394  65.308  1.00  0.00     0.000 C 
BRANCH   6   7
ATOM      7  C   UNL     1       4.239  46.553  66.135  1.00  0.00     0.000 C 
BRANCH   7   8
ATOM      8  C   UNL     1       3.169  45.840  65.291  1.00  0.00     0.000 C 
BRANCH   8   9
ATOM      9  C   UNL     1       3.740  44.688  64.450  1.00  0.00     0.000 C 
BRANCH   9  10
ATOM     10  C   UNL     1       3.158  43.316  64.839  1.00  0.00     0.000 C 
BRANCH  10  11
ATOM     11  C   UNL     1       2.371  43.289  66.167  1.00  0.00     0.000 C 
BRANCH  11  12
ATOM     12  C   UNL     1       3.190  42.885  67.410  1.00  0.00     0.000 C 
BRANCH  12  13
ATOM     13  C   UNL     1       3.190  43.917  68.556  1.00  0.00     0.006 C 
BRANCH  13  14
ATOM     14  C   UNL     1       2.915  43.319  69.945  1.00  0.00     0.053 C 
BRANCH  14  15
ATOM     15  C   UNL     1       3.739  43.971  71.012  1.00  0.00     0.041 C 
ATOM     16  O   UNL     1       3.293  44.069  72.186  1.00  0.00    -0.550 OA
ATOM     17  O   UNL     1       5.002  44.470  70.711  1.00  0.00    -0.550 OA
ENDBRANCH  14  15
ENDBRANCH  13  14
ENDBRANCH  12  13
ENDBRANCH  11  12
ENDBRANCH  10  11
ENDBRANCH   9  10
ENDBRANCH   8   9
ENDBRANCH   7   8
ENDBRANCH   6   7
ENDBRANCH   5   6
ENDBRANCH   4   5
ENDBRANCH   3   4
ENDBRANCH   2   3
ENDBRANCH   1   2
BRANCH   1  18
ATOM     18  C   UNL     1       9.405  48.738  71.334  1.00  0.00     0.000 C 
BRANCH  18  19
ATOM     19  C   UNL     1      10.738  48.480  70.609  1.00  0.00     0.000 C 
BRANCH  19  20
ATOM     20  C   UNL     1      11.946  48.253  71.534  1.00  0.00     0.000 C 
BRANCH  20  21
ATOM     21  C   UNL     1      11.535  47.919  72.978  1.00  0.00     0.000 C 
BRANCH  21  22
ATOM     22  C   UNL     1      12.737  47.861  73.936  1.00  0.00     0.000 C 
BRANCH  22  23
ATOM     23  C   UNL     1      14.016  48.440  73.314  1.00  0.00     0.000 C 
BRANCH  23  24
ATOM     24  C   UNL     1      15.204  47.488  73.509  1.00  0.00    -0.000 C 
BRANCH  24  25
ATOM     25  C   UNL     1      14.820  46.190  74.243  1.00  0.00    -0.000 C 
BRANCH  25  26
ATOM     26  C   UNL     1      15.493  44.909  73.712  1.00  0.00    -0.000 C 
BRANCH  26  27
ATOM     27  C   UNL     1      15.159  43.663  74.550  1.00  0.00    -0.000 C 
BRANCH  27  28
ATOM     28  C   UNL     1      15.759  42.376  73.962  1.00  0.00    -0.000 C 
BRANCH  28  29
ATOM     29  C   UNL     1      16.994  41.885  74.732  1.00  0.00    -0.000 C 
BRANCH  29  30
ATOM     30  C   UNL     1      17.862  40.972  73.853  1.00  0.00    -0.000 C 
BRANCH  30  31
ATOM     31  C   UNL     1      17.666  39.482  74.175  1.00  0.00    -0.003 C 
ATOM     32  C   UNL     1      17.491  39.219  75.670  1.00  0.00     0.004 C 
ENDBRANCH  30  31
ENDBRANCH  29  30
ENDBRANCH  28  29
ENDBRANCH  27  28
ENDBRANCH  26  27
ENDBRANCH  25  26
ENDBRANCH  24  25
ENDBRANCH  23  24
ENDBRANCH  22  23
ENDBRANCH  21  22
ENDBRANCH  20  21
ENDBRANCH  19  20
ENDBRANCH  18  19
ENDBRANCH   1  18
TORSDOF 28
ENDMDL
MODEL 9
REMARK VINA RESULT:    -5.004      8.831     14.538
REMARK INTER + INTRA:         -15.336
REMARK INTER:                 -12.877
REMARK INTRA:                  -2.459
REMARK UNBOUND:                -2.140
REMARK SMILES CCCCCCCCCCCCCCCCCCCCCCCCCCCCCC(=O)[O-]
REMARK SMILES IDX 16 1 17 2 18 3 19 4 20 5 21 6 22 7 23 8 24 9 25 10 26 11
REMARK SMILES IDX 27 12 28 13 29 14 30 15 31 16 32 17 15 18 14 19 13 20 12 21
REMARK SMILES IDX 11 22 10 23 9 24 8 25 7 26 6 27 5 28 4 29 3 30 2 31 1 32
REMARK H PARENT
REMARK Flexibility Score: inf
ROOT
ATOM      1  C   UNL     1      15.780  41.080  73.999  1.00  0.00     0.000 C 
ENDROOT
BRANCH   1   2
ATOM      2  C   UNL     1      16.137  39.586  74.009  1.00  0.00     0.000 C 
BRANCH   2   3
ATOM      3  C   UNL     1      17.551  39.305  74.548  1.00  0.00     0.000 C 
BRANCH   3   4
ATOM      4  C   UNL     1      17.619  38.911  76.035  1.00  0.00     0.000 C 
BRANCH   4   5
ATOM      5  C   UNL     1      19.055  38.810  76.569  1.00  0.00     0.000 C 
BRANCH   5   6
ATOM      6  C   UNL     1      19.462  37.344  76.788  1.00  0.00     0.000 C 
BRANCH   6   7
ATOM      7  C   UNL     1      19.932  36.663  75.485  1.00  0.00     0.000 C 
BRANCH   7   8
ATOM      8  C   UNL     1      19.797  35.131  75.496  1.00  0.00     0.000 C 
BRANCH   8   9
ATOM      9  C   UNL     1      19.939  34.527  76.901  1.00  0.00     0.000 C 
BRANCH   9  10
ATOM     10  C   UNL     1      19.518  33.047  76.963  1.00  0.00     0.000 C 
BRANCH  10  11
ATOM     11  C   UNL     1      19.794  32.231  75.683  1.00  0.00     0.000 C 
BRANCH  11  12
ATOM     12  C   UNL     1      18.853  31.031  75.451  1.00  0.00     0.000 C 
BRANCH  12  13
ATOM     13  C   UNL     1      17.358  31.387  75.326  1.00  0.00     0.006 C 
BRANCH  13  14
ATOM     14  C   UNL     1      16.519  31.040  76.566  1.00  0.00     0.053 C 
BRANCH  14  15
ATOM     15  C   UNL     1      15.050  31.168  76.305  1.00  0.00     0.041 C 
ATOM     16  O   UNL     1      14.607  31.100  75.127  1.00  0.00    -0.550 OA
ATOM     17  O   UNL     1      14.168  31.361  77.362  1.00  0.00    -0.550 OA
ENDBRANCH  14  15
ENDBRANCH  13  14
ENDBRANCH  12  13
ENDBRANCH  11  12
ENDBRANCH  10  11
ENDBRANCH   9  10
ENDBRANCH   8   9
ENDBRANCH   7   8
ENDBRANCH   6   7
ENDBRANCH   5   6
ENDBRANCH   4   5
ENDBRANCH   3   4
ENDBRANCH   2   3
ENDBRANCH   1   2
BRANCH   1  18
ATOM     18  C   UNL     1      17.019  41.943  74.288  1.00  0.00     0.000 C 
BRANCH  18  19
ATOM     19  C   UNL     1      16.753  43.448  74.113  1.00  0.00     0.000 C 
BRANCH  19  20
ATOM     20  C   UNL     1      15.850  44.077  75.188  1.00  0.00     0.000 C 
BRANCH  20  21
ATOM     21  C   UNL     1      14.563  44.684  74.602  1.00  0.00     0.000 C 
BRANCH  21  22
ATOM     22  C   UNL     1      13.329  44.410  75.479  1.00  0.00     0.000 C 
BRANCH  22  23
ATOM     23  C   UNL     1      12.046  45.028  74.902  1.00  0.00     0.000 C 
BRANCH  23  24
ATOM     24  C   UNL     1      11.374  45.955  75.924  1.00  0.00    -0.000 C 
BRANCH  24  25
ATOM     25  C   UNL     1      11.440  47.440  75.523  1.00  0.00    -0.000 C 
BRANCH  25  26
ATOM     26  C   UNL     1      11.634  47.708  74.018  1.00  0.00    -0.000 C 
BRANCH  26  27
ATOM     27  C   UNL     1      12.914  48.503  73.708  1.00  0.00    -0.000 C 
BRANCH  27  28
ATOM     28  C   UNL     1      13.550  49.114  74.966  1.00  0.00    -0.000 C 
BRANCH  28  29
ATOM     29  C   UNL     1      15.066  49.323  74.830  1.00  0.00    -0.000 C 
BRANCH  29  30
ATOM     30  C   UNL     1      15.771  48.010  74.460  1.00  0.00    -0.000 C 
BRANCH  30  31
ATOM     31  C   UNL     1      16.947  47.687  75.395  1.00  0.00    -0.003 C 
ATOM     32  C   UNL     1      17.030  48.637  76.589  1.00  0.00     0.004 C 
ENDBRANCH  30  31
ENDBRANCH  29  30
ENDBRANCH  28  29
ENDBRANCH  27  28
ENDBRANCH  26  27
ENDBRANCH  25  26
ENDBRANCH  24  25
ENDBRANCH  23  24
ENDBRANCH  22  23
ENDBRANCH  21  22
ENDBRANCH  20  21
ENDBRANCH  19  20
ENDBRANCH  18  19
ENDBRANCH   1  18
TORSDOF 28
ENDMDL
