MODEL 1
REMARK VINA RESULT:    -8.219      0.000      0.000
REMARK INTER + INTRA:         -16.225
REMARK INTER:                 -13.744
REMARK INTRA:                  -2.481
REMARK UNBOUND:                -2.481
REMARK SMILES C[C@H]1O[C@@H](OC[C@H]2O[C@@H](Oc3c(-c4ccc(O)c(O)c4)oc4cc(O)cc(O)c4c3=O)[C@@H](O)[C@H](O)[C@@H]2O)[C@H](O)[C@H](O)[C@@H]1O
REMARK SMILES IDX 7 1 36 2 34 3 32 4 9 5 8 6 6 7 5 8 4 9 1 10 2 11 42 12 3 13
REMARK SMILES IDX 40 14 38 15 43 16 41 18 39 20 37 22 35 24 10 26 11 27 12 28
REMARK SMILES IDX 30 29 21 30 29 31 31 32 22 33 27 34 23 35 26 36 24 37 13 38
REMARK SMILES IDX 20 39 14 40 18 41 15 42 16 43 19 44 17 46 28 48 25 50 33 52
REMARK H PARENT 43 17 41 19 39 21 37 23 35 25 19 45 17 47 28 49 25 51 33 53
REMARK Flexibility Score: inf
ROOT
ATOM      1  C   UNL     1       2.115  26.158  75.866  1.00  0.00     0.180 C 
ATOM      2  C   UNL     1       1.625  25.978  74.333  1.00  0.00     0.177 C 
ATOM      3  C   UNL     1       2.108  24.624  73.764  1.00  0.00     0.180 C 
ATOM      4  C   UNL     1       2.408  23.672  74.897  1.00  0.00     0.214 C 
ATOM      5  C   UNL     1       3.676  24.463  75.657  1.00  0.00     0.339 C 
ATOM      6  O   UNL     1       3.494  25.857  75.817  1.00  0.00    -0.332 OA
ENDROOT
BRANCH   1   7
ATOM      7  C   UNL     1       1.374  25.731  77.328  1.00  0.00     0.198 C 
BRANCH   7   8
ATOM      8  O   UNL     1       1.682  26.623  78.440  1.00  0.00    -0.347 OA
BRANCH   8   9
ATOM      9  C   UNL     1       2.534  27.783  78.872  1.00  0.00     0.281 C 
ATOM     10  C   UNL     1       0.872  29.738  81.523  1.00  0.00     0.041 C 
ATOM     11  C   UNL     1       1.800  29.625  80.267  1.00  0.00     0.150 C 
ATOM     12  C   UNL     1       1.142  30.095  78.851  1.00  0.00     0.174 C 
ATOM     13  O   UNL     1       2.129  28.231  80.177  1.00  0.00    -0.344 OA
ATOM     14  C   UNL     1       2.171  29.995  77.613  1.00  0.00     0.179 C 
ATOM     15  C   UNL     1       3.296  28.962  78.067  1.00  0.00     0.202 C 
BRANCH  12  16
ATOM     16  O   UNL     1       0.516  31.373  78.929  1.00  0.00    -0.388 OA
ATOM     17  H   UNL     1       0.766  31.779  79.791  1.00  0.00     0.211 HD
ENDBRANCH  12  16
BRANCH  14  18
ATOM     18  O   UNL     1       2.797  31.266  77.328  1.00  0.00    -0.387 OA
ATOM     19  H   UNL     1       3.792  31.276  77.479  1.00  0.00     0.211 HD
ENDBRANCH  14  18
BRANCH  15  20
ATOM     20  O   UNL     1       4.775  29.133  78.139  1.00  0.00    -0.385 OA
ATOM     21  H   UNL     1       5.316  29.999  77.845  1.00  0.00     0.211 HD
ENDBRANCH  15  20
ENDBRANCH   8   9
ENDBRANCH   7   8
ENDBRANCH   1   7
BRANCH   2  22
ATOM     22  O   UNL     1       2.125  26.979  73.451  1.00  0.00    -0.387 OA
ATOM     23  H   UNL     1       2.069  27.865  73.916  1.00  0.00     0.211 HD
ENDBRANCH   2  22
BRANCH   3  24
ATOM     24  O   UNL     1       3.260  24.695  72.920  1.00  0.00    -0.387 OA
ATOM     25  H   UNL     1       3.616  23.793  72.790  1.00  0.00     0.211 HD
ENDBRANCH   3  24
BRANCH   5  26
ATOM     26  O   UNL     1       3.950  24.050  77.013  1.00  0.00    -0.454 OA
BRANCH  26  27
ATOM     27  C   UNL     1       5.177  24.011  77.700  1.00  0.00     0.214 A 
ATOM     28  C   UNL     1       5.702  22.821  78.367  1.00  0.00     0.180 A 
ATOM     29  C   UNL     1       5.314  25.156  78.672  1.00  0.00     0.239 A 
ATOM     30  O   UNL     1       6.162  23.091  79.615  1.00  0.00    -0.452 OA
ATOM     31  C   UNL     1       4.907  24.839  80.054  1.00  0.00     0.111 A 
ATOM     32  O   UNL     1       5.887  26.293  78.387  1.00  0.00    -0.285 OA
ATOM     33  C   UNL     1       6.212  24.368  79.982  1.00  0.00     0.146 A 
ATOM     34  C   UNL     1       4.633  25.141  81.486  1.00  0.00     0.134 A 
ATOM     35  C   UNL     1       7.236  24.948  80.811  1.00  0.00     0.094 A 
ATOM     36  C   UNL     1       5.626  25.567  82.425  1.00  0.00     0.093 A 
ATOM     37  C   UNL     1       6.908  25.742  81.901  1.00  0.00     0.123 A 
BRANCH  28  38
ATOM     38  C   UNL     1       6.721  21.708  77.893  1.00  0.00     0.025 A 
ATOM     39  C   UNL     1       6.900  21.622  76.405  1.00  0.00     0.062 A 
ATOM     40  C   UNL     1       8.103  21.799  78.488  1.00  0.00     0.016 A 
ATOM     41  C   UNL     1       7.657  22.777  75.816  1.00  0.00     0.158 A 
ATOM     42  C   UNL     1       9.182  22.075  77.582  1.00  0.00     0.051 A 
ATOM     43  C   UNL     1       8.628  23.119  76.900  1.00  0.00     0.157 A 
BRANCH  41  44
ATOM     44  O   UNL     1       6.242  22.538  75.537  1.00  0.00    -0.504 OA
ATOM     45  H   UNL     1       5.531  23.096  75.023  1.00  0.00     0.293 HD
ENDBRANCH  41  44
BRANCH  43  46
ATOM     46  O   UNL     1       8.680  24.347  77.678  1.00  0.00    -0.504 OA
ATOM     47  H   UNL     1       9.253  24.401  78.579  1.00  0.00     0.293 HD
ENDBRANCH  43  46
ENDBRANCH  28  38
BRANCH  34  48
ATOM     48  O   UNL     1       3.290  25.043  81.835  1.00  0.00    -0.507 OA
ATOM     49  H   UNL     1       2.887  25.373  82.701  1.00  0.00     0.293 HD
ENDBRANCH  34  48
BRANCH  37  50
ATOM     50  O   UNL     1       7.987  26.359  82.580  1.00  0.00    -0.508 OA
ATOM     51  H   UNL     1       8.248  26.140  83.547  1.00  0.00     0.293 HD
ENDBRANCH  37  50
ENDBRANCH  26  27
ENDBRANCH   5  26
BRANCH   4  52
ATOM     52  O   UNL     1       1.184  23.570  75.578  1.00  0.00    -0.384 OA
ATOM     53  H   UNL     1       1.201  23.976  76.482  1.00  0.00     0.211 HD
ENDBRANCH   4  52
TORSDOF 16
ENDMDL
MODEL 2
REMARK VINA RESULT:    -7.699      1.823      6.672
REMARK INTER + INTRA:         -15.356
REMARK INTER:                 -12.348
REMARK INTRA:                  -3.008
REMARK UNBOUND:                -2.481
REMARK SMILES C[C@H]1O[C@@H](OC[C@H]2O[C@@H](Oc3c(-c4ccc(O)c(O)c4)oc4cc(O)cc(O)c4c3=O)[C@@H](O)[C@H](O)[C@@H]2O)[C@H](O)[C@H](O)[C@@H]1O
REMARK SMILES IDX 7 1 36 2 34 3 32 4 9 5 8 6 6 7 5 8 4 9 1 10 2 11 42 12 3 13
REMARK SMILES IDX 40 14 38 15 43 16 41 18 39 20 37 22 35 24 10 26 11 27 12 28
REMARK SMILES IDX 30 29 21 30 29 31 31 32 22 33 27 34 23 35 26 36 24 37 13 38
REMARK SMILES IDX 20 39 14 40 18 41 15 42 16 43 19 44 17 46 28 48 25 50 33 52
REMARK H PARENT 43 17 41 19 39 21 37 23 35 25 19 45 17 47 28 49 25 51 33 53
REMARK Flexibility Score: inf
ROOT
ATOM      1  C   UNL     1       2.916  23.499  75.100  1.00  0.00     0.180 C 
ATOM      2  C   UNL     1       1.962  23.400  73.795  1.00  0.00     0.177 C 
ATOM      3  C   UNL     1       1.559  24.811  73.308  1.00  0.00     0.180 C 
ATOM      4  C   UNL     1       2.551  25.829  73.817  1.00  0.00     0.214 C 
ATOM      5  C   UNL     1       2.322  25.704  75.473  1.00  0.00     0.339 C 
ATOM      6  O   UNL     1       2.222  24.379  75.959  1.00  0.00    -0.332 OA
ENDROOT
BRANCH   1   7
ATOM      7  C   UNL     1       4.601  23.595  75.240  1.00  0.00     0.198 C 
BRANCH   7   8
ATOM      8  O   UNL     1       5.157  22.814  76.338  1.00  0.00    -0.347 OA
BRANCH   8   9
ATOM      9  C   UNL     1       6.422  22.225  76.898  1.00  0.00     0.281 C 
ATOM     10  C   UNL     1       6.955  23.299  80.387  1.00  0.00     0.041 C 
ATOM     11  C   UNL     1       7.487  22.893  78.971  1.00  0.00     0.150 C 
ATOM     12  C   UNL     1       7.982  24.120  78.018  1.00  0.00     0.174 C 
ATOM     13  O   UNL     1       6.377  22.242  78.335  1.00  0.00    -0.344 OA
ATOM     14  C   UNL     1       8.559  23.623  76.597  1.00  0.00     0.179 C 
ATOM     15  C   UNL     1       7.951  22.168  76.368  1.00  0.00     0.202 C 
BRANCH  12  16
ATOM     16  O   UNL     1       8.879  25.008  78.682  1.00  0.00    -0.388 OA
ATOM     17  H   UNL     1       9.292  25.586  77.999  1.00  0.00     0.211 HD
ENDBRANCH  12  16
BRANCH  14  18
ATOM     18  O   UNL     1      10.001  23.525  76.604  1.00  0.00    -0.387 OA
ATOM     19  H   UNL     1      10.349  22.618  76.865  1.00  0.00     0.211 HD
ENDBRANCH  14  18
BRANCH  15  20
ATOM     20  O   UNL     1       8.642  20.875  76.106  1.00  0.00    -0.385 OA
ATOM     21  H   UNL     1       9.254  20.656  75.265  1.00  0.00     0.211 HD
ENDBRANCH  15  20
ENDBRANCH   8   9
ENDBRANCH   7   8
ENDBRANCH   1   7
BRANCH   2  22
ATOM     22  O   UNL     1       0.744  22.700  74.029  1.00  0.00    -0.387 OA
ATOM     23  H   UNL     1       0.865  22.117  74.836  1.00  0.00     0.211 HD
ENDBRANCH   2  22
BRANCH   3  24
ATOM     24  O   UNL     1       0.247  25.233  73.686  1.00  0.00    -0.387 OA
ATOM     25  H   UNL     1      -0.158  25.722  72.941  1.00  0.00     0.211 HD
ENDBRANCH   3  24
BRANCH   5  26
ATOM     26  O   UNL     1       3.383  26.234  76.296  1.00  0.00    -0.454 OA
BRANCH  26  27
ATOM     27  C   UNL     1       3.303  27.096  77.405  1.00  0.00     0.214 A 
ATOM     28  C   UNL     1       2.237  27.043  78.404  1.00  0.00     0.180 A 
ATOM     29  C   UNL     1       3.460  28.542  77.006  1.00  0.00     0.239 A 
ATOM     30  O   UNL     1       1.734  28.272  78.685  1.00  0.00    -0.452 OA
ATOM     31  C   UNL     1       2.190  29.256  76.776  1.00  0.00     0.111 A 
ATOM     32  O   UNL     1       4.597  29.182  77.009  1.00  0.00    -0.285 OA
ATOM     33  C   UNL     1       2.355  29.320  78.154  1.00  0.00     0.146 A 
ATOM     34  C   UNL     1       1.342  30.417  76.385  1.00  0.00     0.134 A 
ATOM     35  C   UNL     1       2.525  30.594  78.802  1.00  0.00     0.094 A 
ATOM     36  C   UNL     1       1.326  31.672  77.075  1.00  0.00     0.093 A 
ATOM     37  C   UNL     1       2.216  31.778  78.145  1.00  0.00     0.123 A 
BRANCH  28  38
ATOM     38  C   UNL     1       2.149  26.339  79.818  1.00  0.00     0.025 A 
ATOM     39  C   UNL     1       1.379  25.050  79.824  1.00  0.00     0.062 A 
ATOM     40  C   UNL     1       3.472  26.053  80.481  1.00  0.00     0.016 A 
ATOM     41  C   UNL     1       2.085  23.917  79.136  1.00  0.00     0.158 A 
ATOM     42  C   UNL     1       3.813  24.672  80.679  1.00  0.00     0.051 A 
ATOM     43  C   UNL     1       3.523  24.199  79.432  1.00  0.00     0.157 A 
BRANCH  41  44
ATOM     44  O   UNL     1       0.853  24.509  78.617  1.00  0.00    -0.504 OA
ATOM     45  H   UNL     1       0.402  24.467  77.681  1.00  0.00     0.293 HD
ENDBRANCH  41  44
BRANCH  43  46
ATOM     46  O   UNL     1       4.565  24.545  78.479  1.00  0.00    -0.504 OA
ATOM     47  H   UNL     1       5.598  24.442  78.734  1.00  0.00     0.293 HD
ENDBRANCH  43  46
ENDBRANCH  28  38
BRANCH  34  48
ATOM     48  O   UNL     1       0.601  30.208  75.227  1.00  0.00    -0.507 OA
ATOM     49  H   UNL     1      -0.008  29.420  75.059  1.00  0.00     0.293 HD
ENDBRANCH  34  48
BRANCH  37  50
ATOM     50  O   UNL     1       2.529  32.978  78.827  1.00  0.00    -0.508 OA
ATOM     51  H   UNL     1       1.872  33.759  78.930  1.00  0.00     0.293 HD
ENDBRANCH  37  50
ENDBRANCH  26  27
ENDBRANCH   5  26
BRANCH   4  52
ATOM     52  O   UNL     1       3.775  25.398  73.281  1.00  0.00    -0.384 OA
ATOM     53  H   UNL     1       4.066  24.514  73.623  1.00  0.00     0.211 HD
ENDBRANCH   4  52
TORSDOF 16
ENDMDL
MODEL 3
REMARK VINA RESULT:    -7.489      1.276      1.807
REMARK INTER + INTRA:         -15.004
REMARK INTER:                 -13.289
REMARK INTRA:                  -1.715
REMARK UNBOUND:                -2.481
REMARK SMILES C[C@H]1O[C@@H](OC[C@H]2O[C@@H](Oc3c(-c4ccc(O)c(O)c4)oc4cc(O)cc(O)c4c3=O)[C@@H](O)[C@H](O)[C@@H]2O)[C@H](O)[C@H](O)[C@@H]1O
REMARK SMILES IDX 7 1 36 2 34 3 32 4 9 5 8 6 6 7 5 8 4 9 1 10 2 11 42 12 3 13
REMARK SMILES IDX 40 14 38 15 43 16 41 18 39 20 37 22 35 24 10 26 11 27 12 28
REMARK SMILES IDX 30 29 21 30 29 31 31 32 22 33 27 34 23 35 26 36 24 37 13 38
REMARK SMILES IDX 20 39 14 40 18 41 15 42 16 43 19 44 17 46 28 48 25 50 33 52
REMARK H PARENT 43 17 41 19 39 21 37 23 35 25 19 45 17 47 28 49 25 51 33 53
REMARK Flexibility Score: inf
ROOT
ATOM      1  C   UNL     1       3.107  27.337  75.515  1.00  0.00     0.180 C 
ATOM      2  C   UNL     1       2.121  27.262  74.233  1.00  0.00     0.177 C 
ATOM      3  C   UNL     1       1.283  25.963  74.268  1.00  0.00     0.180 C 
ATOM      4  C   UNL     1       1.224  25.432  75.679  1.00  0.00     0.214 C 
ATOM      5  C   UNL     1       2.839  25.083  75.962  1.00  0.00     0.339 C 
ATOM      6  O   UNL     1       3.745  26.077  75.524  1.00  0.00    -0.332 OA
ENDROOT
BRANCH   1   7
ATOM      7  C   UNL     1       2.877  27.997  77.058  1.00  0.00     0.198 C 
BRANCH   7   8
ATOM      8  O   UNL     1       2.640  29.436  77.065  1.00  0.00    -0.347 OA
BRANCH   8   9
ATOM      9  C   UNL     1       2.503  30.646  77.948  1.00  0.00     0.281 C 
ATOM     10  C   UNL     1       1.408  29.697  81.340  1.00  0.00     0.041 C 
ATOM     11  C   UNL     1       1.438  30.684  80.125  1.00  0.00     0.150 C 
ATOM     12  C   UNL     1       0.106  30.699  79.185  1.00  0.00     0.174 C 
ATOM     13  O   UNL     1       2.553  30.253  79.330  1.00  0.00    -0.344 OA
ATOM     14  C   UNL     1       0.192  31.772  77.985  1.00  0.00     0.179 C 
ATOM     15  C   UNL     1       1.744  32.065  77.776  1.00  0.00     0.202 C 
BRANCH  12  16
ATOM     16  O   UNL     1      -1.099  30.827  79.936  1.00  0.00    -0.388 OA
ATOM     17  H   UNL     1      -1.847  30.554  79.356  1.00  0.00     0.211 HD
ENDBRANCH  12  16
BRANCH  14  18
ATOM     18  O   UNL     1      -0.472  33.011  78.320  1.00  0.00    -0.387 OA
ATOM     19  H   UNL     1      -1.374  32.889  78.751  1.00  0.00     0.211 HD
ENDBRANCH  14  18
BRANCH  15  20
ATOM     20  O   UNL     1       2.483  33.358  77.807  1.00  0.00    -0.385 OA
ATOM     21  H   UNL     1       2.731  33.953  76.961  1.00  0.00     0.211 HD
ENDBRANCH  15  20
ENDBRANCH   8   9
ENDBRANCH   7   8
ENDBRANCH   1   7
BRANCH   2  22
ATOM     22  O   UNL     1       2.806  27.258  72.984  1.00  0.00    -0.387 OA
ATOM     23  H   UNL     1       3.613  27.847  73.064  1.00  0.00     0.211 HD
ENDBRANCH   2  22
BRANCH   3  24
ATOM     24  O   UNL     1       1.748  24.916  73.412  1.00  0.00    -0.387 OA
ATOM     25  H   UNL     1       2.212  24.246  73.952  1.00  0.00     0.211 HD
ENDBRANCH   3  24
BRANCH   5  26
ATOM     26  O   UNL     1       3.217  24.938  77.348  1.00  0.00    -0.454 OA
BRANCH  26  27
ATOM     27  C   UNL     1       4.460  24.575  77.898  1.00  0.00     0.214 A 
ATOM     28  C   UNL     1       4.764  23.245  78.422  1.00  0.00     0.180 A 
ATOM     29  C   UNL     1       4.931  25.571  78.927  1.00  0.00     0.239 A 
ATOM     30  O   UNL     1       5.379  23.296  79.630  1.00  0.00    -0.452 OA
ATOM     31  C   UNL     1       4.586  25.224  80.319  1.00  0.00     0.111 A 
ATOM     32  O   UNL     1       5.714  26.581  78.664  1.00  0.00    -0.285 OA
ATOM     33  C   UNL     1       5.743  24.494  80.078  1.00  0.00     0.146 A 
ATOM     34  C   UNL     1       4.511  25.447  81.790  1.00  0.00     0.134 A 
ATOM     35  C   UNL     1       6.938  24.764  80.834  1.00  0.00     0.094 A 
ATOM     36  C   UNL     1       5.652  25.564  82.647  1.00  0.00     0.093 A 
ATOM     37  C   UNL     1       6.890  25.508  82.005  1.00  0.00     0.123 A 
BRANCH  28  38
ATOM     38  C   UNL     1       5.465  21.987  77.767  1.00  0.00     0.025 A 
ATOM     39  C   UNL     1       5.622  22.069  76.276  1.00  0.00     0.062 A 
ATOM     40  C   UNL     1       6.822  21.639  78.324  1.00  0.00     0.016 A 
ATOM     41  C   UNL     1       6.653  23.065  75.828  1.00  0.00     0.158 A 
ATOM     42  C   UNL     1       7.939  21.757  77.431  1.00  0.00     0.051 A 
ATOM     43  C   UNL     1       7.674  22.993  76.917  1.00  0.00     0.157 A 
BRANCH  41  44
ATOM     44  O   UNL     1       5.225  23.234  75.563  1.00  0.00    -0.504 OA
ATOM     45  H   UNL     1       4.712  23.689  74.782  1.00  0.00     0.293 HD
ENDBRANCH  41  44
BRANCH  43  46
ATOM     46  O   UNL     1       8.036  24.045  77.853  1.00  0.00    -0.504 OA
ATOM     47  H   UNL     1       7.389  24.881  78.014  1.00  0.00     0.293 HD
ENDBRANCH  43  46
ENDBRANCH  28  38
BRANCH  34  48
ATOM     48  O   UNL     1       3.215  25.607  82.270  1.00  0.00    -0.507 OA
ATOM     49  H   UNL     1       2.958  26.150  83.082  1.00  0.00     0.293 HD
ENDBRANCH  34  48
BRANCH  37  50
ATOM     50  O   UNL     1       8.133  25.815  82.607  1.00  0.00    -0.508 OA
ATOM     51  H   UNL     1       8.300  25.772  83.619  1.00  0.00     0.293 HD
ENDBRANCH  37  50
ENDBRANCH  26  27
ENDBRANCH   5  26
BRANCH   4  52
ATOM     52  O   UNL     1       0.633  26.479  76.404  1.00  0.00    -0.384 OA
ATOM     53  H   UNL     1       1.233  26.872  77.088  1.00  0.00     0.211 HD
ENDBRANCH   4  52
TORSDOF 16
ENDMDL
MODEL 4
REMARK VINA RESULT:    -7.421      1.780      6.730
REMARK INTER + INTRA:         -14.890
REMARK INTER:                 -12.390
REMARK INTRA:                  -2.500
REMARK UNBOUND:                -2.481
REMARK SMILES C[C@H]1O[C@@H](OC[C@H]2O[C@@H](Oc3c(-c4ccc(O)c(O)c4)oc4cc(O)cc(O)c4c3=O)[C@@H](O)[C@H](O)[C@@H]2O)[C@H](O)[C@H](O)[C@@H]1O
REMARK SMILES IDX 7 1 36 2 34 3 32 4 9 5 8 6 6 7 5 8 4 9 1 10 2 11 42 12 3 13
REMARK SMILES IDX 40 14 38 15 43 16 41 18 39 20 37 22 35 24 10 26 11 27 12 28
REMARK SMILES IDX 30 29 21 30 29 31 31 32 22 33 27 34 23 35 26 36 24 37 13 38
REMARK SMILES IDX 20 39 14 40 18 41 15 42 16 43 19 44 17 46 28 48 25 50 33 52
REMARK H PARENT 43 17 41 19 39 21 37 23 35 25 19 45 17 47 28 49 25 51 33 53
REMARK Flexibility Score: inf
ROOT
ATOM      1  C   UNL     1       2.716  22.629  75.051  1.00  0.00     0.180 C 
ATOM      2  C   UNL     1       1.602  22.372  73.903  1.00  0.00     0.177 C 
ATOM      3  C   UNL     1       0.955  23.707  73.465  1.00  0.00     0.180 C 
ATOM      4  C   UNL     1       1.871  24.855  73.811  1.00  0.00     0.214 C 
ATOM      5  C   UNL     1       1.903  24.752  75.484  1.00  0.00     0.339 C 
ATOM      6  O   UNL     1       2.046  23.440  75.994  1.00  0.00    -0.332 OA
ENDROOT
BRANCH   1   7
ATOM      7  C   UNL     1       4.376  22.940  74.938  1.00  0.00     0.198 C 
BRANCH   7   8
ATOM      8  O   UNL     1       5.000  23.331  76.197  1.00  0.00    -0.347 OA
BRANCH   8   9
ATOM      9  C   UNL     1       6.264  23.851  76.823  1.00  0.00     0.281 C 
ATOM     10  C   UNL     1       9.236  22.239  75.348  1.00  0.00     0.041 C 
ATOM     11  C   UNL     1       8.469  22.881  76.553  1.00  0.00     0.150 C 
ATOM     12  C   UNL     1       7.860  21.837  77.647  1.00  0.00     0.174 C 
ATOM     13  O   UNL     1       7.381  23.601  75.953  1.00  0.00    -0.344 OA
ATOM     14  C   UNL     1       7.126  22.573  78.880  1.00  0.00     0.179 C 
ATOM     15  C   UNL     1       6.752  24.030  78.356  1.00  0.00     0.202 C 
BRANCH  12  16
ATOM     16  O   UNL     1       8.816  20.875  78.085  1.00  0.00    -0.388 OA
ATOM     17  H   UNL     1       9.278  20.524  77.289  1.00  0.00     0.211 HD
ENDBRANCH  12  16
BRANCH  14  18
ATOM     18  O   UNL     1       7.996  22.702  80.026  1.00  0.00    -0.387 OA
ATOM     19  H   UNL     1       7.606  22.342  80.881  1.00  0.00     0.211 HD
ENDBRANCH  14  18
BRANCH  15  20
ATOM     20  O   UNL     1       7.104  25.365  78.916  1.00  0.00    -0.385 OA
ATOM     21  H   UNL     1       6.417  26.141  79.152  1.00  0.00     0.211 HD
ENDBRANCH  15  20
ENDBRANCH   8   9
ENDBRANCH   7   8
ENDBRANCH   1   7
BRANCH   2  22
ATOM     22  O   UNL     1       0.531  21.532  74.323  1.00  0.00    -0.387 OA
ATOM     23  H   UNL     1       0.402  20.816  73.633  1.00  0.00     0.211 HD
ENDBRANCH   2  22
BRANCH   3  24
ATOM     24  O   UNL     1      -0.332  23.972  74.030  1.00  0.00    -0.387 OA
ATOM     25  H   UNL     1      -0.389  23.544  74.908  1.00  0.00     0.211 HD
ENDBRANCH   3  24
BRANCH   5  26
ATOM     26  O   UNL     1       2.996  25.436  76.134  1.00  0.00    -0.454 OA
BRANCH  26  27
ATOM     27  C   UNL     1       2.976  26.266  77.269  1.00  0.00     0.214 A 
ATOM     28  C   UNL     1       1.888  26.287  78.246  1.00  0.00     0.180 A 
ATOM     29  C   UNL     1       3.283  27.701  76.923  1.00  0.00     0.239 A 
ATOM     30  O   UNL     1       1.502  27.550  78.559  1.00  0.00    -0.452 OA
ATOM     31  C   UNL     1       2.095  28.544  76.693  1.00  0.00     0.111 A 
ATOM     32  O   UNL     1       4.477  28.225  76.969  1.00  0.00    -0.285 OA
ATOM     33  C   UNL     1       2.235  28.548  78.075  1.00  0.00     0.146 A 
ATOM     34  C   UNL     1       1.374  29.795  76.326  1.00  0.00     0.134 A 
ATOM     35  C   UNL     1       2.515  29.778  78.769  1.00  0.00     0.094 A 
ATOM     36  C   UNL     1       1.466  31.023  77.057  1.00  0.00     0.093 A 
ATOM     37  C   UNL     1       2.338  31.006  78.147  1.00  0.00     0.123 A 
BRANCH  28  38
ATOM     38  C   UNL     1       1.701  25.550  79.633  1.00  0.00     0.025 A 
ATOM     39  C   UNL     1       2.258  24.157  79.678  1.00  0.00     0.062 A 
ATOM     40  C   UNL     1       2.257  26.275  80.832  1.00  0.00     0.016 A 
ATOM     41  C   UNL     1       3.758  24.103  79.682  1.00  0.00     0.158 A 
ATOM     42  C   UNL     1       3.345  25.643  81.524  1.00  0.00     0.051 A 
ATOM     43  C   UNL     1       4.129  25.330  80.452  1.00  0.00     0.157 A 
BRANCH  41  44
ATOM     44  O   UNL     1       2.955  23.614  78.562  1.00  0.00    -0.504 OA
ATOM     45  H   UNL     1       2.060  23.086  78.527  1.00  0.00     0.293 HD
ENDBRANCH  41  44
BRANCH  43  46
ATOM     46  O   UNL     1       4.838  26.497  79.955  1.00  0.00    -0.504 OA
ATOM     47  H   UNL     1       5.333  26.476  79.007  1.00  0.00     0.293 HD
ENDBRANCH  43  46
ENDBRANCH  28  38
BRANCH  34  48
ATOM     48  O   UNL     1       0.642  29.697  75.147  1.00  0.00    -0.507 OA
ATOM     49  H   UNL     1       0.844  29.066  74.386  1.00  0.00     0.293 HD
ENDBRANCH  34  48
BRANCH  37  50
ATOM     50  O   UNL     1       2.752  32.147  78.874  1.00  0.00    -0.508 OA
ATOM     51  H   UNL     1       3.709  32.284  79.218  1.00  0.00     0.293 HD
ENDBRANCH  37  50
ENDBRANCH  26  27
ENDBRANCH   5  26
BRANCH   4  52
ATOM     52  O   UNL     1       3.049  24.565  73.104  1.00  0.00    -0.384 OA
ATOM     53  H   UNL     1       2.889  24.310  72.160  1.00  0.00     0.211 HD
ENDBRANCH   4  52
TORSDOF 16
ENDMDL
MODEL 5
REMARK VINA RESULT:    -7.158      1.744      4.316
REMARK INTER + INTRA:         -14.451
REMARK INTER:                 -11.699
REMARK INTRA:                  -2.751
REMARK UNBOUND:                -2.481
REMARK SMILES C[C@H]1O[C@@H](OC[C@H]2O[C@@H](Oc3c(-c4ccc(O)c(O)c4)oc4cc(O)cc(O)c4c3=O)[C@@H](O)[C@H](O)[C@@H]2O)[C@H](O)[C@H](O)[C@@H]1O
REMARK SMILES IDX 7 1 36 2 34 3 32 4 9 5 8 6 6 7 5 8 4 9 1 10 2 11 42 12 3 13
REMARK SMILES IDX 40 14 38 15 43 16 41 18 39 20 37 22 35 24 10 26 11 27 12 28
REMARK SMILES IDX 30 29 21 30 29 31 31 32 22 33 27 34 23 35 26 36 24 37 13 38
REMARK SMILES IDX 20 39 14 40 18 41 15 42 16 43 19 44 17 46 28 48 25 50 33 52
REMARK H PARENT 43 17 41 19 39 21 37 23 35 25 19 45 17 47 28 49 25 51 33 53
REMARK Flexibility Score: inf
ROOT
ATOM      1  C   UNL     1       2.711  27.644  75.092  1.00  0.00     0.180 C 
ATOM      2  C   UNL     1       1.225  27.418  74.490  1.00  0.00     0.177 C 
ATOM      3  C   UNL     1       0.644  26.067  74.967  1.00  0.00     0.180 C 
ATOM      4  C   UNL     1       1.355  25.622  76.222  1.00  0.00     0.214 C 
ATOM      5  C   UNL     1       2.917  25.409  75.650  1.00  0.00     0.339 C 
ATOM      6  O   UNL     1       3.381  26.437  74.796  1.00  0.00    -0.332 OA
ENDROOT
BRANCH   1   7
ATOM      7  C   UNL     1       3.230  28.380  76.526  1.00  0.00     0.198 C 
BRANCH   7   8
ATOM      8  O   UNL     1       2.499  29.593  76.876  1.00  0.00    -0.347 OA
BRANCH   8   9
ATOM      9  C   UNL     1       2.434  30.741  77.844  1.00  0.00     0.281 C 
ATOM     10  C   UNL     1       1.401  29.596  81.195  1.00  0.00     0.041 C 
ATOM     11  C   UNL     1       1.434  30.665  80.051  1.00  0.00     0.150 C 
ATOM     12  C   UNL     1       0.077  30.793  79.157  1.00  0.00     0.174 C 
ATOM     13  O   UNL     1       2.508  30.250  79.194  1.00  0.00    -0.344 OA
ATOM     14  C   UNL     1       0.169  31.944  78.032  1.00  0.00     0.179 C 
ATOM     15  C   UNL     1       1.725  32.196  77.795  1.00  0.00     0.202 C 
BRANCH  12  16
ATOM     16  O   UNL     1      -1.100  30.911  79.953  1.00  0.00    -0.388 OA
ATOM     17  H   UNL     1      -1.651  30.109  79.797  1.00  0.00     0.211 HD
ENDBRANCH  12  16
BRANCH  14  18
ATOM     18  O   UNL     1      -0.437  33.180  78.472  1.00  0.00    -0.387 OA
ATOM     19  H   UNL     1      -0.021  33.568  79.302  1.00  0.00     0.211 HD
ENDBRANCH  14  18
BRANCH  15  20
ATOM     20  O   UNL     1       2.513  33.456  77.893  1.00  0.00    -0.385 OA
ATOM     21  H   UNL     1       2.137  34.438  77.738  1.00  0.00     0.211 HD
ENDBRANCH  15  20
ENDBRANCH   8   9
ENDBRANCH   7   8
ENDBRANCH   1   7
BRANCH   2  22
ATOM     22  O   UNL     1       1.183  27.387  73.066  1.00  0.00    -0.387 OA
ATOM     23  H   UNL     1       0.419  26.801  72.786  1.00  0.00     0.211 HD
ENDBRANCH   2  22
BRANCH   3  24
ATOM     24  O   UNL     1       0.710  25.006  74.011  1.00  0.00    -0.387 OA
ATOM     25  H   UNL     1       0.178  24.252  74.336  1.00  0.00     0.211 HD
ENDBRANCH   3  24
BRANCH   5  26
ATOM     26  O   UNL     1       3.954  25.377  76.655  1.00  0.00    -0.454 OA
BRANCH  26  27
ATOM     27  C   UNL     1       4.440  24.285  77.397  1.00  0.00     0.214 A 
ATOM     28  C   UNL     1       4.622  24.301  78.847  1.00  0.00     0.180 A 
ATOM     29  C   UNL     1       5.705  23.719  76.802  1.00  0.00     0.239 A 
ATOM     30  O   UNL     1       5.826  23.798  79.221  1.00  0.00    -0.452 OA
ATOM     31  C   UNL     1       6.950  24.250  77.389  1.00  0.00     0.111 A 
ATOM     32  O   UNL     1       5.735  22.730  75.952  1.00  0.00    -0.285 OA
ATOM     33  C   UNL     1       6.576  23.245  78.272  1.00  0.00     0.146 A 
ATOM     34  C   UNL     1       8.425  24.410  77.514  1.00  0.00     0.134 A 
ATOM     35  C   UNL     1       7.418  22.092  78.455  1.00  0.00     0.094 A 
ATOM     36  C   UNL     1       9.326  23.350  77.854  1.00  0.00     0.093 A 
ATOM     37  C   UNL     1       8.737  22.095  78.020  1.00  0.00     0.123 A 
BRANCH  28  38
ATOM     38  C   UNL     1       3.697  23.808  80.032  1.00  0.00     0.025 A 
ATOM     39  C   UNL     1       4.091  24.323  81.386  1.00  0.00     0.062 A 
ATOM     40  C   UNL     1       2.227  24.102  79.871  1.00  0.00     0.016 A 
ATOM     41  C   UNL     1       3.818  25.787  81.582  1.00  0.00     0.158 A 
ATOM     42  C   UNL     1       1.639  25.005  80.820  1.00  0.00     0.051 A 
ATOM     43  C   UNL     1       2.575  25.998  80.778  1.00  0.00     0.157 A 
BRANCH  41  44
ATOM     44  O   UNL     1       5.172  25.238  81.531  1.00  0.00    -0.504 OA
ATOM     45  H   UNL     1       5.594  24.479  80.959  1.00  0.00     0.293 HD
ENDBRANCH  41  44
BRANCH  43  46
ATOM     46  O   UNL     1       2.429  26.814  79.584  1.00  0.00    -0.504 OA
ATOM     47  H   UNL     1       3.161  27.553  79.332  1.00  0.00     0.293 HD
ENDBRANCH  43  46
ENDBRANCH  28  38
BRANCH  34  48
ATOM     48  O   UNL     1       8.882  25.686  77.199  1.00  0.00    -0.507 OA
ATOM     49  H   UNL     1       9.802  25.904  76.844  1.00  0.00     0.293 HD
ENDBRANCH  34  48
BRANCH  37  50
ATOM     50  O   UNL     1       9.444  20.875  78.141  1.00  0.00    -0.508 OA
ATOM     51  H   UNL     1       9.089  20.063  78.659  1.00  0.00     0.293 HD
ENDBRANCH  37  50
ENDBRANCH  26  27
ENDBRANCH   5  26
BRANCH   4  52
ATOM     52  O   UNL     1       1.116  26.666  77.129  1.00  0.00    -0.384 OA
ATOM     53  H   UNL     1       1.461  26.483  78.040  1.00  0.00     0.211 HD
ENDBRANCH   4  52
TORSDOF 16
ENDMDL
MODEL 6
REMARK VINA RESULT:    -7.139      2.207      3.303
REMARK INTER + INTRA:         -14.420
REMARK INTER:                 -11.754
REMARK INTRA:                  -2.666
REMARK UNBOUND:                -2.481
REMARK SMILES C[C@H]1O[C@@H](OC[C@H]2O[C@@H](Oc3c(-c4ccc(O)c(O)c4)oc4cc(O)cc(O)c4c3=O)[C@@H](O)[C@H](O)[C@@H]2O)[C@H](O)[C@H](O)[C@@H]1O
REMARK SMILES IDX 7 1 36 2 34 3 32 4 9 5 8 6 6 7 5 8 4 9 1 10 2 11 42 12 3 13
REMARK SMILES IDX 40 14 38 15 43 16 41 18 39 20 37 22 35 24 10 26 11 27 12 28
REMARK SMILES IDX 30 29 21 30 29 31 31 32 22 33 27 34 23 35 26 36 24 37 13 38
REMARK SMILES IDX 20 39 14 40 18 41 15 42 16 43 19 44 17 46 28 48 25 50 33 52
REMARK H PARENT 43 17 41 19 39 21 37 23 35 25 19 45 17 47 28 49 25 51 33 53
REMARK Flexibility Score: inf
ROOT
ATOM      1  C   UNL     1       2.288  28.158  74.578  1.00  0.00     0.180 C 
ATOM      2  C   UNL     1       0.729  27.862  74.253  1.00  0.00     0.177 C 
ATOM      3  C   UNL     1       0.395  26.374  74.504  1.00  0.00     0.180 C 
ATOM      4  C   UNL     1       1.410  25.775  75.447  1.00  0.00     0.214 C 
ATOM      5  C   UNL     1       2.812  25.905  74.537  1.00  0.00     0.339 C 
ATOM      6  O   UNL     1       2.977  27.144  73.875  1.00  0.00    -0.332 OA
ENDROOT
BRANCH   1   7
ATOM      7  C   UNL     1       3.054  28.638  76.010  1.00  0.00     0.198 C 
BRANCH   7   8
ATOM      8  O   UNL     1       2.231  29.468  76.881  1.00  0.00    -0.347 OA
BRANCH   8   9
ATOM      9  C   UNL     1       2.239  30.668  77.787  1.00  0.00     0.281 C 
ATOM     10  C   UNL     1       1.282  29.741  81.227  1.00  0.00     0.041 C 
ATOM     11  C   UNL     1       1.314  30.746  80.026  1.00  0.00     0.150 C 
ATOM     12  C   UNL     1      -0.068  30.876  79.170  1.00  0.00     0.174 C 
ATOM     13  O   UNL     1       2.342  30.247  79.158  1.00  0.00    -0.344 OA
ATOM     14  C   UNL     1       0.026  31.962  77.981  1.00  0.00     0.179 C 
ATOM     15  C   UNL     1       1.580  32.143  77.682  1.00  0.00     0.202 C 
BRANCH  12  16
ATOM     16  O   UNL     1      -1.212  31.080  79.996  1.00  0.00    -0.388 OA
ATOM     17  H   UNL     1      -1.046  31.876  80.551  1.00  0.00     0.211 HD
ENDBRANCH  12  16
BRANCH  14  18
ATOM     18  O   UNL     1      -0.522  33.240  78.374  1.00  0.00    -0.387 OA
ATOM     19  H   UNL     1      -1.012  33.720  77.637  1.00  0.00     0.211 HD
ENDBRANCH  14  18
BRANCH  15  20
ATOM     20  O   UNL     1       2.415  33.376  77.685  1.00  0.00    -0.385 OA
ATOM     21  H   UNL     1       3.063  33.687  78.468  1.00  0.00     0.211 HD
ENDBRANCH  15  20
ENDBRANCH   8   9
ENDBRANCH   7   8
ENDBRANCH   1   7
BRANCH   2  22
ATOM     22  O   UNL     1       0.366  28.127  72.901  1.00  0.00    -0.387 OA
ATOM     23  H   UNL     1      -0.152  27.343  72.554  1.00  0.00     0.211 HD
ENDBRANCH   2  22
BRANCH   3  24
ATOM     24  O   UNL     1       0.333  25.558  73.331  1.00  0.00    -0.387 OA
ATOM     25  H   UNL     1       1.112  24.966  73.314  1.00  0.00     0.211 HD
ENDBRANCH   3  24
BRANCH   5  26
ATOM     26  O   UNL     1       4.050  25.804  75.274  1.00  0.00    -0.454 OA
BRANCH  26  27
ATOM     27  C   UNL     1       4.392  24.930  76.322  1.00  0.00     0.214 A 
ATOM     28  C   UNL     1       3.618  23.743  76.681  1.00  0.00     0.180 A 
ATOM     29  C   UNL     1       4.677  25.672  77.603  1.00  0.00     0.239 A 
ATOM     30  O   UNL     1       3.409  23.650  78.018  1.00  0.00    -0.452 OA
ATOM     31  C   UNL     1       3.523  25.786  78.516  1.00  0.00     0.111 A 
ATOM     32  O   UNL     1       5.867  26.057  77.977  1.00  0.00    -0.285 OA
ATOM     33  C   UNL     1       4.038  24.526  78.796  1.00  0.00     0.146 A 
ATOM     34  C   UNL     1       2.806  26.243  79.738  1.00  0.00     0.134 A 
ATOM     35  C   UNL     1       4.571  24.237  80.101  1.00  0.00     0.094 A 
ATOM     36  C   UNL     1       3.168  25.871  81.072  1.00  0.00     0.093 A 
ATOM     37  C   UNL     1       4.303  25.067  81.182  1.00  0.00     0.123 A 
BRANCH  28  38
ATOM     38  C   UNL     1       3.775  22.220  76.283  1.00  0.00     0.025 A 
ATOM     39  C   UNL     1       2.582  21.632  75.586  1.00  0.00     0.062 A 
ATOM     40  C   UNL     1       4.975  21.894  75.430  1.00  0.00     0.016 A 
ATOM     41  C   UNL     1       2.390  22.134  74.184  1.00  0.00     0.158 A 
ATOM     42  C   UNL     1       4.715  21.412  74.103  1.00  0.00     0.051 A 
ATOM     43  C   UNL     1       3.794  22.340  73.714  1.00  0.00     0.157 A 
BRANCH  41  44
ATOM     44  O   UNL     1       1.454  22.439  75.266  1.00  0.00    -0.504 OA
ATOM     45  H   UNL     1       0.821  21.836  75.827  1.00  0.00     0.293 HD
ENDBRANCH  41  44
BRANCH  43  46
ATOM     46  O   UNL     1       4.427  23.602  73.365  1.00  0.00    -0.504 OA
ATOM     47  H   UNL     1       3.943  24.533  73.570  1.00  0.00     0.293 HD
ENDBRANCH  43  46
ENDBRANCH  28  38
BRANCH  34  48
ATOM     48  O   UNL     1       1.773  27.139  79.482  1.00  0.00    -0.507 OA
ATOM     49  H   UNL     1       1.772  28.116  79.738  1.00  0.00     0.293 HD
ENDBRANCH  34  48
BRANCH  37  50
ATOM     50  O   UNL     1       4.968  24.759  82.393  1.00  0.00    -0.508 OA
ATOM     51  H   UNL     1       4.574  24.150  83.117  1.00  0.00     0.293 HD
ENDBRANCH  37  50
ENDBRANCH  26  27
ENDBRANCH   5  26
BRANCH   4  52
ATOM     52  O   UNL     1       1.293  26.560  76.604  1.00  0.00    -0.384 OA
ATOM     53  H   UNL     1       2.152  26.960  76.897  1.00  0.00     0.211 HD
ENDBRANCH   4  52
TORSDOF 16
ENDMDL
MODEL 7
REMARK VINA RESULT:    -6.827      1.730      2.770
REMARK INTER + INTRA:         -13.897
REMARK INTER:                 -11.812
REMARK INTRA:                  -2.086
REMARK UNBOUND:                -2.481
REMARK SMILES C[C@H]1O[C@@H](OC[C@H]2O[C@@H](Oc3c(-c4ccc(O)c(O)c4)oc4cc(O)cc(O)c4c3=O)[C@@H](O)[C@H](O)[C@@H]2O)[C@H](O)[C@H](O)[C@@H]1O
REMARK SMILES IDX 7 1 36 2 34 3 32 4 9 5 8 6 6 7 5 8 4 9 1 10 2 11 42 12 3 13
REMARK SMILES IDX 40 14 38 15 43 16 41 18 39 20 37 22 35 24 10 26 11 27 12 28
REMARK SMILES IDX 30 29 21 30 29 31 31 32 22 33 27 34 23 35 26 36 24 37 13 38
REMARK SMILES IDX 20 39 14 40 18 41 15 42 16 43 19 44 17 46 28 48 25 50 33 52
REMARK H PARENT 43 17 41 19 39 21 37 23 35 25 19 45 17 47 28 49 25 51 33 53
REMARK Flexibility Score: inf
ROOT
ATOM      1  C   UNL     1       3.115  23.954  73.717  1.00  0.00     0.180 C 
ATOM      2  C   UNL     1       1.758  23.095  73.931  1.00  0.00     0.177 C 
ATOM      3  C   UNL     1       1.844  22.257  75.227  1.00  0.00     0.180 C 
ATOM      4  C   UNL     1       2.872  22.856  76.155  1.00  0.00     0.214 C 
ATOM      5  C   UNL     1       4.272  22.667  75.252  1.00  0.00     0.339 C 
ATOM      6  O   UNL     1       4.145  23.002  73.884  1.00  0.00    -0.332 OA
ENDROOT
BRANCH   1   7
ATOM      7  C   UNL     1       3.535  25.513  74.227  1.00  0.00     0.198 C 
BRANCH   7   8
ATOM      8  O   UNL     1       2.407  26.323  74.671  1.00  0.00    -0.347 OA
BRANCH   8   9
ATOM      9  C   UNL     1       1.695  26.864  75.879  1.00  0.00     0.281 C 
ATOM     10  C   UNL     1       0.955  30.457  75.487  1.00  0.00     0.041 C 
ATOM     11  C   UNL     1       1.326  29.211  76.360  1.00  0.00     0.150 C 
ATOM     12  C   UNL     1       2.888  29.097  76.812  1.00  0.00     0.174 C 
ATOM     13  O   UNL     1       1.004  28.079  75.539  1.00  0.00    -0.344 OA
ATOM     14  C   UNL     1       3.184  27.817  77.746  1.00  0.00     0.179 C 
ATOM     15  C   UNL     1       1.994  26.794  77.468  1.00  0.00     0.202 C 
BRANCH  12  16
ATOM     16  O   UNL     1       3.389  30.305  77.379  1.00  0.00    -0.388 OA
ATOM     17  H   UNL     1       4.368  30.308  77.267  1.00  0.00     0.211 HD
ENDBRANCH  12  16
BRANCH  14  18
ATOM     18  O   UNL     1       3.180  28.161  79.150  1.00  0.00    -0.387 OA
ATOM     19  H   UNL     1       3.088  27.370  79.766  1.00  0.00     0.211 HD
ENDBRANCH  14  18
BRANCH  15  20
ATOM     20  O   UNL     1       1.037  26.163  78.419  1.00  0.00    -0.385 OA
ATOM     21  H   UNL     1       0.095  25.740  78.164  1.00  0.00     0.211 HD
ENDBRANCH  15  20
ENDBRANCH   8   9
ENDBRANCH   7   8
ENDBRANCH   1   7
BRANCH   2  22
ATOM     22  O   UNL     1       1.494  22.171  72.878  1.00  0.00    -0.387 OA
ATOM     23  H   UNL     1       0.793  22.566  72.280  1.00  0.00     0.211 HD
ENDBRANCH   2  22
BRANCH   3  24
ATOM     24  O   UNL     1       2.160  20.875  75.037  1.00  0.00    -0.387 OA
ATOM     25  H   UNL     1       1.450  20.455  74.511  1.00  0.00     0.211 HD
ENDBRANCH   3  24
BRANCH   5  26
ATOM     26  O   UNL     1       5.391  23.489  75.649  1.00  0.00    -0.454 OA
BRANCH  26  27
ATOM     27  C   UNL     1       6.094  23.507  76.868  1.00  0.00     0.214 A 
ATOM     28  C   UNL     1       6.382  22.313  77.661  1.00  0.00     0.180 A 
ATOM     29  C   UNL     1       5.548  24.543  77.817  1.00  0.00     0.239 A 
ATOM     30  O   UNL     1       6.104  22.490  78.977  1.00  0.00    -0.452 OA
ATOM     31  C   UNL     1       4.553  24.031  78.778  1.00  0.00     0.111 A 
ATOM     32  O   UNL     1       6.008  25.761  77.914  1.00  0.00    -0.285 OA
ATOM     33  C   UNL     1       5.769  23.716  79.369  1.00  0.00     0.146 A 
ATOM     34  C   UNL     1       3.552  24.140  79.875  1.00  0.00     0.134 A 
ATOM     35  C   UNL     1       6.135  24.307  80.630  1.00  0.00     0.094 A 
ATOM     36  C   UNL     1       3.859  24.564  81.208  1.00  0.00     0.093 A 
ATOM     37  C   UNL     1       5.187  24.934  81.427  1.00  0.00     0.123 A 
BRANCH  28  38
ATOM     38  C   UNL     1       7.655  21.376  77.734  1.00  0.00     0.025 A 
ATOM     39  C   UNL     1       8.142  20.884  76.402  1.00  0.00     0.062 A 
ATOM     40  C   UNL     1       8.851  21.964  78.439  1.00  0.00     0.016 A 
ATOM     41  C   UNL     1       8.787  21.946  75.560  1.00  0.00     0.158 A 
ATOM     42  C   UNL     1      10.025  22.192  77.644  1.00  0.00     0.051 A 
ATOM     43  C   UNL     1       9.444  22.819  76.580  1.00  0.00     0.157 A 
BRANCH  41  44
ATOM     44  O   UNL     1       7.522  21.311  75.195  1.00  0.00    -0.504 OA
ATOM     45  H   UNL     1       7.010  20.500  75.597  1.00  0.00     0.293 HD
ENDBRANCH  41  44
BRANCH  43  46
ATOM     46  O   UNL     1       9.122  24.202  76.892  1.00  0.00    -0.504 OA
ATOM     47  H   UNL     1       9.227  24.969  76.154  1.00  0.00     0.293 HD
ENDBRANCH  43  46
ENDBRANCH  28  38
BRANCH  34  48
ATOM     48  O   UNL     1       2.248  23.860  79.479  1.00  0.00    -0.507 OA
ATOM     49  H   UNL     1       1.845  24.106  78.586  1.00  0.00     0.293 HD
ENDBRANCH  34  48
BRANCH  37  50
ATOM     50  O   UNL     1       5.670  25.583  82.588  1.00  0.00    -0.508 OA
ATOM     51  H   UNL     1       5.066  25.890  83.359  1.00  0.00     0.293 HD
ENDBRANCH  37  50
ENDBRANCH  26  27
ENDBRANCH   5  26
BRANCH   4  52
ATOM     52  O   UNL     1       2.398  24.158  76.381  1.00  0.00    -0.384 OA
ATOM     53  H   UNL     1       2.256  24.365  77.339  1.00  0.00     0.211 HD
ENDBRANCH   4  52
TORSDOF 16
ENDMDL
MODEL 8
REMARK VINA RESULT:    -6.806      4.133      6.774
REMARK INTER + INTRA:         -13.863
REMARK INTER:                 -11.631
REMARK INTRA:                  -2.231
REMARK UNBOUND:                -2.481
REMARK SMILES C[C@H]1O[C@@H](OC[C@H]2O[C@@H](Oc3c(-c4ccc(O)c(O)c4)oc4cc(O)cc(O)c4c3=O)[C@@H](O)[C@H](O)[C@@H]2O)[C@H](O)[C@H](O)[C@@H]1O
REMARK SMILES IDX 7 1 36 2 34 3 32 4 9 5 8 6 6 7 5 8 4 9 1 10 2 11 42 12 3 13
REMARK SMILES IDX 40 14 38 15 43 16 41 18 39 20 37 22 35 24 10 26 11 27 12 28
REMARK SMILES IDX 30 29 21 30 29 31 31 32 22 33 27 34 23 35 26 36 24 37 13 38
REMARK SMILES IDX 20 39 14 40 18 41 15 42 16 43 19 44 17 46 28 48 25 50 33 52
REMARK H PARENT 43 17 41 19 39 21 37 23 35 25 19 45 17 47 28 49 25 51 33 53
REMARK Flexibility Score: inf
ROOT
ATOM      1  C   UNL     1       8.128  24.993  79.304  1.00  0.00     0.180 C 
ATOM      2  C   UNL     1       7.729  24.194  77.952  1.00  0.00     0.177 C 
ATOM      3  C   UNL     1       7.917  22.672  78.146  1.00  0.00     0.180 C 
ATOM      4  C   UNL     1       7.892  22.338  79.617  1.00  0.00     0.214 C 
ATOM      5  C   UNL     1       9.250  23.159  80.159  1.00  0.00     0.339 C 
ATOM      6  O   UNL     1       9.395  24.469  79.643  1.00  0.00    -0.332 OA
ENDROOT
BRANCH   1   7
ATOM      7  C   UNL     1       7.196  25.449  80.642  1.00  0.00     0.198 C 
BRANCH   7   8
ATOM      8  O   UNL     1       5.759  25.470  80.393  1.00  0.00    -0.347 OA
BRANCH   8   9
ATOM      9  C   UNL     1       4.684  26.030  79.504  1.00  0.00     0.281 C 
ATOM     10  C   UNL     1       1.495  24.238  79.988  1.00  0.00     0.041 C 
ATOM     11  C   UNL     1       2.526  25.006  79.092  1.00  0.00     0.150 C 
ATOM     12  C   UNL     1       3.442  24.082  78.109  1.00  0.00     0.174 C 
ATOM     13  O   UNL     1       3.389  25.680  80.020  1.00  0.00    -0.344 OA
ATOM     14  C   UNL     1       4.444  24.944  77.186  1.00  0.00     0.179 C 
ATOM     15  C   UNL     1       4.608  26.349  77.919  1.00  0.00     0.202 C 
BRANCH  12  16
ATOM     16  O   UNL     1       2.674  23.153  77.349  1.00  0.00    -0.388 OA
ATOM     17  H   UNL     1       1.850  23.609  77.057  1.00  0.00     0.211 HD
ENDBRANCH  12  16
BRANCH  14  18
ATOM     18  O   UNL     1       3.900  25.172  75.866  1.00  0.00    -0.387 OA
ATOM     19  H   UNL     1       4.091  24.432  75.211  1.00  0.00     0.211 HD
ENDBRANCH  14  18
BRANCH  15  20
ATOM     20  O   UNL     1       4.362  27.727  77.407  1.00  0.00    -0.385 OA
ATOM     21  H   UNL     1       3.411  28.190  77.301  1.00  0.00     0.211 HD
ENDBRANCH  15  20
ENDBRANCH   8   9
ENDBRANCH   7   8
ENDBRANCH   1   7
BRANCH   2  22
ATOM     22  O   UNL     1       8.521  24.551  76.822  1.00  0.00    -0.387 OA
ATOM     23  H   UNL     1       8.327  25.507  76.591  1.00  0.00     0.211 HD
ENDBRANCH   2  22
BRANCH   3  24
ATOM     24  O   UNL     1       9.114  22.131  77.581  1.00  0.00    -0.387 OA
ATOM     25  H   UNL     1       9.866  22.713  77.810  1.00  0.00     0.211 HD
ENDBRANCH   3  24
BRANCH   5  26
ATOM     26  O   UNL     1       9.312  23.399  81.581  1.00  0.00    -0.454 OA
BRANCH  26  27
ATOM     27  C   UNL     1      10.315  24.039  82.332  1.00  0.00     0.214 A 
ATOM     28  C   UNL     1      11.725  23.650  82.310  1.00  0.00     0.180 A 
ATOM     29  C   UNL     1       9.924  24.189  83.780  1.00  0.00     0.239 A 
ATOM     30  O   UNL     1      12.254  23.562  83.556  1.00  0.00    -0.452 OA
ATOM     31  C   UNL     1      10.412  23.111  84.662  1.00  0.00     0.111 A 
ATOM     32  O   UNL     1       9.342  25.247  84.275  1.00  0.00    -0.285 OA
ATOM     33  C   UNL     1      11.498  23.973  84.569  1.00  0.00     0.146 A 
ATOM     34  C   UNL     1      10.550  22.376  85.950  1.00  0.00     0.134 A 
ATOM     35  C   UNL     1      11.987  24.649  85.743  1.00  0.00     0.094 A 
ATOM     36  C   UNL     1      11.171  22.913  87.123  1.00  0.00     0.093 A 
ATOM     37  C   UNL     1      11.615  24.232  87.014  1.00  0.00     0.123 A 
BRANCH  28  38
ATOM     38  C   UNL     1      12.958  24.198  81.484  1.00  0.00     0.025 A 
ATOM     39  C   UNL     1      14.125  23.257  81.410  1.00  0.00     0.062 A 
ATOM     40  C   UNL     1      12.654  24.618  80.068  1.00  0.00     0.016 A 
ATOM     41  C   UNL     1      13.884  22.057  80.540  1.00  0.00     0.158 A 
ATOM     42  C   UNL     1      13.278  23.862  79.020  1.00  0.00     0.051 A 
ATOM     43  C   UNL     1      12.998  22.603  79.466  1.00  0.00     0.157 A 
BRANCH  41  44
ATOM     44  O   UNL     1      14.053  21.959  81.989  1.00  0.00    -0.504 OA
ATOM     45  H   UNL     1      14.871  21.705  82.577  1.00  0.00     0.293 HD
ENDBRANCH  41  44
BRANCH  43  46
ATOM     46  O   UNL     1      11.616  22.241  79.199  1.00  0.00    -0.504 OA
ATOM     47  H   UNL     1      10.873  22.310  79.965  1.00  0.00     0.293 HD
ENDBRANCH  43  46
ENDBRANCH  28  38
BRANCH  34  48
ATOM     48  O   UNL     1       9.951  21.120  85.948  1.00  0.00    -0.507 OA
ATOM     49  H   UNL     1       8.977  20.940  85.754  1.00  0.00     0.293 HD
ENDBRANCH  34  48
BRANCH  37  50
ATOM     50  O   UNL     1      12.056  25.034  88.094  1.00  0.00    -0.508 OA
ATOM     51  H   UNL     1      13.043  25.240  88.281  1.00  0.00     0.293 HD
ENDBRANCH  37  50
ENDBRANCH  26  27
ENDBRANCH   5  26
BRANCH   4  52
ATOM     52  O   UNL     1       6.631  22.787  80.039  1.00  0.00    -0.384 OA
ATOM     53  H   UNL     1       5.881  22.242  79.690  1.00  0.00     0.211 HD
ENDBRANCH   4  52
TORSDOF 16
ENDMDL
MODEL 9
REMARK VINA RESULT:    -6.793      2.831      8.144
REMARK INTER + INTRA:         -13.841
REMARK INTER:                 -11.480
REMARK INTRA:                  -2.361
REMARK UNBOUND:                -2.481
REMARK SMILES C[C@H]1O[C@@H](OC[C@H]2O[C@@H](Oc3c(-c4ccc(O)c(O)c4)oc4cc(O)cc(O)c4c3=O)[C@@H](O)[C@H](O)[C@@H]2O)[C@H](O)[C@H](O)[C@@H]1O
REMARK SMILES IDX 7 1 36 2 34 3 32 4 9 5 8 6 6 7 5 8 4 9 1 10 2 11 42 12 3 13
REMARK SMILES IDX 40 14 38 15 43 16 41 18 39 20 37 22 35 24 10 26 11 27 12 28
REMARK SMILES IDX 30 29 21 30 29 31 31 32 22 33 27 34 23 35 26 36 24 37 13 38
REMARK SMILES IDX 20 39 14 40 18 41 15 42 16 43 19 44 17 46 28 48 25 50 33 52
REMARK H PARENT 43 17 41 19 39 21 37 23 35 25 19 45 17 47 28 49 25 51 33 53
REMARK Flexibility Score: inf
ROOT
ATOM      1  C   UNL     1       7.608  23.011  79.285  1.00  0.00     0.180 C 
ATOM      2  C   UNL     1       8.555  22.195  78.256  1.00  0.00     0.177 C 
ATOM      3  C   UNL     1       8.632  22.922  76.894  1.00  0.00     0.180 C 
ATOM      4  C   UNL     1       8.274  24.377  77.072  1.00  0.00     0.214 C 
ATOM      5  C   UNL     1       6.678  24.258  77.573  1.00  0.00     0.339 C 
ATOM      6  O   UNL     1       6.433  23.255  78.540  1.00  0.00    -0.332 OA
ENDROOT
BRANCH   1   7
ATOM      7  C   UNL     1       7.972  24.229  80.404  1.00  0.00     0.198 C 
BRANCH   7   8
ATOM      8  O   UNL     1       9.342  24.194  80.904  1.00  0.00    -0.347 OA
BRANCH   8   9
ATOM      9  C   UNL     1      10.294  23.456  81.803  1.00  0.00     0.281 C 
ATOM     10  C   UNL     1       9.760  24.368  85.337  1.00  0.00     0.041 C 
ATOM     11  C   UNL     1      10.684  23.947  84.145  1.00  0.00     0.150 C 
ATOM     12  C   UNL     1      11.575  25.139  83.479  1.00  0.00     0.174 C 
ATOM     13  O   UNL     1       9.785  23.438  83.147  1.00  0.00    -0.344 OA
ATOM     14  C   UNL     1      12.534  24.621  82.290  1.00  0.00     0.179 C 
ATOM     15  C   UNL     1      11.900  23.248  81.789  1.00  0.00     0.202 C 
BRANCH  12  16
ATOM     16  O   UNL     1      12.286  25.905  84.448  1.00  0.00    -0.388 OA
ATOM     17  H   UNL     1      13.247  25.837  84.242  1.00  0.00     0.211 HD
ENDBRANCH  12  16
BRANCH  14  18
ATOM     18  O   UNL     1      13.879  24.367  82.754  1.00  0.00    -0.387 OA
ATOM     19  H   UNL     1      14.021  24.565  83.730  1.00  0.00     0.211 HD
ENDBRANCH  14  18
BRANCH  15  20
ATOM     20  O   UNL     1      12.514  21.895  81.684  1.00  0.00    -0.385 OA
ATOM     21  H   UNL     1      12.635  21.334  80.789  1.00  0.00     0.211 HD
ENDBRANCH  15  20
ENDBRANCH   8   9
ENDBRANCH   7   8
ENDBRANCH   1   7
BRANCH   2  22
ATOM     22  O   UNL     1       8.093  20.876  77.976  1.00  0.00    -0.387 OA
ATOM     23  H   UNL     1       7.770  20.467  78.832  1.00  0.00     0.211 HD
ENDBRANCH   2  22
BRANCH   3  24
ATOM     24  O   UNL     1       7.802  22.376  75.866  1.00  0.00    -0.387 OA
ATOM     25  H   UNL     1       8.367  22.079  75.124  1.00  0.00     0.211 HD
ENDBRANCH   3  24
BRANCH   5  26
ATOM     26  O   UNL     1       6.136  25.427  78.224  1.00  0.00    -0.454 OA
BRANCH  26  27
ATOM     27  C   UNL     1       4.824  25.935  78.192  1.00  0.00     0.214 A 
ATOM     28  C   UNL     1       3.630  25.127  78.431  1.00  0.00     0.180 A 
ATOM     29  C   UNL     1       4.565  26.745  76.947  1.00  0.00     0.239 A 
ATOM     30  O   UNL     1       2.663  25.351  77.505  1.00  0.00    -0.452 OA
ATOM     31  C   UNL     1       3.946  25.988  75.841  1.00  0.00     0.111 A 
ATOM     32  O   UNL     1       4.715  28.039  76.871  1.00  0.00    -0.285 OA
ATOM     33  C   UNL     1       2.866  26.340  76.640  1.00  0.00     0.146 A 
ATOM     34  C   UNL     1       3.421  25.798  74.461  1.00  0.00     0.134 A 
ATOM     35  C   UNL     1       1.840  27.210  76.127  1.00  0.00     0.094 A 
ATOM     36  C   UNL     1       2.299  26.504  73.920  1.00  0.00     0.093 A 
ATOM     37  C   UNL     1       1.728  27.456  74.765  1.00  0.00     0.123 A 
BRANCH  28  38
ATOM     38  C   UNL     1       2.765  24.880  79.733  1.00  0.00     0.025 A 
ATOM     39  C   UNL     1       3.128  23.640  80.496  1.00  0.00     0.062 A 
ATOM     40  C   UNL     1       2.757  26.011  80.729  1.00  0.00     0.016 A 
ATOM     41  C   UNL     1       4.447  23.729  81.208  1.00  0.00     0.158 A 
ATOM     42  C   UNL     1       3.348  25.750  82.011  1.00  0.00     0.051 A 
ATOM     43  C   UNL     1       4.513  25.171  81.596  1.00  0.00     0.157 A 
BRANCH  41  44
ATOM     44  O   UNL     1       4.219  22.823  80.083  1.00  0.00    -0.504 OA
ATOM     45  H   UNL     1       3.366  22.602  79.531  1.00  0.00     0.293 HD
ENDBRANCH  41  44
BRANCH  43  46
ATOM     46  O   UNL     1       5.459  26.167  81.121  1.00  0.00    -0.504 OA
ATOM     47  H   UNL     1       5.132  27.146  80.841  1.00  0.00     0.293 HD
ENDBRANCH  43  46
ENDBRANCH  28  38
BRANCH  34  48
ATOM     48  O   UNL     1       4.167  24.909  73.693  1.00  0.00    -0.507 OA
ATOM     49  H   UNL     1       5.055  25.117  73.260  1.00  0.00     0.293 HD
ENDBRANCH  34  48
BRANCH  37  50
ATOM     50  O   UNL     1       0.763  28.415  74.375  1.00  0.00    -0.508 OA
ATOM     51  H   UNL     1      -0.151  28.518  74.831  1.00  0.00     0.293 HD
ENDBRANCH  37  50
ENDBRANCH  26  27
ENDBRANCH   5  26
BRANCH   4  52
ATOM     52  O   UNL     1       9.225  24.844  77.992  1.00  0.00    -0.384 OA
ATOM     53  H   UNL     1       9.533  24.150  78.629  1.00  0.00     0.211 HD
ENDBRANCH   4  52
TORSDOF 16
ENDMDL
