MODEL 1
REMARK VINA RESULT:    -5.396      0.000      0.000
REMARK INTER + INTRA:          -6.335
REMARK INTER:                  -6.184
REMARK INTRA:                  -0.151
REMARK UNBOUND:                -0.151
REMARK SMILES O=C([O-])C=Cc1ccc(O)cc1
REMARK SMILES IDX 6 1 7 2 12 3 8 4 11 5 9 6 5 7 4 8 2 9 1 10 3 11 10 12
REMARK H PARENT 10 13
REMARK Flexibility Score: inf
ROOT
ATOM      1  C   UNL     1     -12.262  -7.601  38.771  1.00  0.00    -0.025 A 
ATOM      2  C   UNL     1     -12.185  -7.786  37.381  1.00  0.00     0.012 A 
ATOM      3  C   UNL     1     -11.415  -8.359  39.606  1.00  0.00     0.012 A 
ATOM      4  C   UNL     1     -11.302  -8.723  36.835  1.00  0.00     0.047 A 
ATOM      5  C   UNL     1     -10.532  -9.295  39.056  1.00  0.00     0.047 A 
ATOM      6  C   UNL     1     -10.476  -9.482  37.670  1.00  0.00     0.115 A 
ENDROOT
BRANCH   1   7
ATOM      7  C   UNL     1     -13.207  -6.587  39.301  1.00  0.00     0.010 C 
ATOM      8  C   UNL     1     -14.181  -6.024  38.572  1.00  0.00     0.025 C 
BRANCH   8   9
ATOM      9  C   UNL     1     -15.088  -5.012  39.136  1.00  0.00     0.064 C 
ATOM     10  O   UNL     1     -14.619  -3.919  39.547  1.00  0.00    -0.545 OA
ATOM     11  O   UNL     1     -16.457  -5.242  39.222  1.00  0.00    -0.545 OA
ENDBRANCH   8   9
ENDBRANCH   1   7
BRANCH   6  12
ATOM     12  O   UNL     1      -9.603 -10.412  37.112  1.00  0.00    -0.508 OA
ATOM     13  H   UNL     1      -9.167 -11.133  37.676  1.00  0.00     0.293 HD
ENDBRANCH   6  12
TORSDOF 3
ENDMDL
MODEL 2
REMARK VINA RESULT:    -5.353      1.087      5.899
REMARK INTER + INTRA:          -6.286
REMARK INTER:                  -6.136
REMARK INTRA:                  -0.150
REMARK UNBOUND:                -0.151
REMARK SMILES O=C([O-])C=Cc1ccc(O)cc1
REMARK SMILES IDX 6 1 7 2 12 3 8 4 11 5 9 6 5 7 4 8 2 9 1 10 3 11 10 12
REMARK H PARENT 10 13
REMARK Flexibility Score: inf
ROOT
ATOM      1  C   UNL     1     -12.893  -7.269  37.617  1.00  0.00    -0.025 A 
ATOM      2  C   UNL     1     -12.881  -6.962  38.988  1.00  0.00     0.012 A 
ATOM      3  C   UNL     1     -13.946  -6.777  36.819  1.00  0.00     0.012 A 
ATOM      4  C   UNL     1     -13.910  -6.205  39.556  1.00  0.00     0.047 A 
ATOM      5  C   UNL     1     -14.973  -6.019  37.391  1.00  0.00     0.047 A 
ATOM      6  C   UNL     1     -14.959  -5.734  38.762  1.00  0.00     0.115 A 
ENDROOT
BRANCH   1   7
ATOM      7  C   UNL     1     -11.773  -8.066  37.059  1.00  0.00     0.010 C 
ATOM      8  C   UNL     1     -10.994  -8.873  37.794  1.00  0.00     0.025 C 
BRANCH   8   9
ATOM      9  C   UNL     1      -9.886  -9.637  37.199  1.00  0.00     0.064 C 
ATOM     10  O   UNL     1      -9.147 -10.337  37.940  1.00  0.00    -0.545 OA
ATOM     11  O   UNL     1      -9.641  -9.600  35.831  1.00  0.00    -0.545 OA
ENDBRANCH   8   9
ENDBRANCH   1   7
BRANCH   6  12
ATOM     12  O   UNL     1     -15.977  -4.981  39.342  1.00  0.00    -0.508 OA
ATOM     13  H   UNL     1     -15.983  -3.970  39.290  1.00  0.00     0.293 HD
ENDBRANCH   6  12
TORSDOF 3
ENDMDL
MODEL 3
REMARK VINA RESULT:    -5.330      1.102      5.756
REMARK INTER + INTRA:          -6.260
REMARK INTER:                  -6.117
REMARK INTRA:                  -0.143
REMARK UNBOUND:                -0.151
REMARK SMILES O=C([O-])C=Cc1ccc(O)cc1
REMARK SMILES IDX 6 1 7 2 12 3 8 4 11 5 9 6 5 7 4 8 2 9 1 10 3 11 10 12
REMARK H PARENT 10 13
REMARK Flexibility Score: inf
ROOT
ATOM      1  C   UNL     1     -12.866  -7.256  37.680  1.00  0.00    -0.025 A 
ATOM      2  C   UNL     1     -13.926  -6.830  36.862  1.00  0.00     0.012 A 
ATOM      3  C   UNL     1     -12.889  -6.924  39.050  1.00  0.00     0.012 A 
ATOM      4  C   UNL     1     -14.972  -6.068  37.392  1.00  0.00     0.047 A 
ATOM      5  C   UNL     1     -13.938  -6.164  39.576  1.00  0.00     0.047 A 
ATOM      6  C   UNL     1     -14.980  -5.731  38.748  1.00  0.00     0.115 A 
ENDROOT
BRANCH   1   7
ATOM      7  C   UNL     1     -11.784  -8.070  37.072  1.00  0.00     0.010 C 
ATOM      8  C   UNL     1     -10.908  -8.795  37.784  1.00  0.00     0.025 C 
BRANCH   8   9
ATOM      9  C   UNL     1      -9.843  -9.579  37.139  1.00  0.00     0.064 C 
ATOM     10  O   UNL     1      -9.713  -9.538  35.887  1.00  0.00    -0.545 OA
ATOM     11  O   UNL     1      -8.975 -10.365  37.889  1.00  0.00    -0.545 OA
ENDBRANCH   8   9
ENDBRANCH   1   7
BRANCH   6  12
ATOM     12  O   UNL     1     -16.028  -4.972  39.262  1.00  0.00    -0.508 OA
ATOM     13  H   UNL     1     -16.930  -5.386  39.470  1.00  0.00     0.293 HD
ENDBRANCH   6  12
TORSDOF 3
ENDMDL
MODEL 4
REMARK VINA RESULT:    -5.263      1.794      5.527
REMARK INTER + INTRA:          -6.183
REMARK INTER:                  -6.034
REMARK INTRA:                  -0.149
REMARK UNBOUND:                -0.151
REMARK SMILES O=C([O-])C=Cc1ccc(O)cc1
REMARK SMILES IDX 6 1 7 2 12 3 8 4 11 5 9 6 5 7 4 8 2 9 1 10 3 11 10 12
REMARK H PARENT 10 13
REMARK Flexibility Score: inf
ROOT
ATOM      1  C   UNL     1     -12.099  -7.674  38.892  1.00  0.00    -0.025 A 
ATOM      2  C   UNL     1     -12.264  -7.890  37.513  1.00  0.00     0.012 A 
ATOM      3  C   UNL     1     -12.971  -6.784  39.550  1.00  0.00     0.012 A 
ATOM      4  C   UNL     1     -13.260  -7.213  36.802  1.00  0.00     0.047 A 
ATOM      5  C   UNL     1     -13.966  -6.110  38.835  1.00  0.00     0.047 A 
ATOM      6  C   UNL     1     -14.111  -6.320  37.459  1.00  0.00     0.115 A 
ENDROOT
BRANCH   1   7
ATOM      7  C   UNL     1     -11.034  -8.425  39.604  1.00  0.00     0.010 C 
ATOM      8  C   UNL     1     -10.542  -9.599  39.184  1.00  0.00     0.025 C 
BRANCH   8   9
ATOM      9  C   UNL     1      -9.495 -10.314  39.930  1.00  0.00     0.064 C 
ATOM     10  O   UNL     1      -8.388 -10.547  39.377  1.00  0.00    -0.545 OA
ATOM     11  O   UNL     1      -9.705 -10.735  41.239  1.00  0.00    -0.545 OA
ENDBRANCH   8   9
ENDBRANCH   1   7
BRANCH   6  12
ATOM     12  O   UNL     1     -15.098  -5.653  36.737  1.00  0.00    -0.508 OA
ATOM     13  H   UNL     1     -15.710  -6.146  36.098  1.00  0.00     0.293 HD
ENDBRANCH   6  12
TORSDOF 3
ENDMDL
MODEL 5
REMARK VINA RESULT:    -5.205      1.832      5.734
REMARK INTER + INTRA:          -6.117
REMARK INTER:                  -5.982
REMARK INTRA:                  -0.134
REMARK UNBOUND:                -0.151
REMARK SMILES O=C([O-])C=Cc1ccc(O)cc1
REMARK SMILES IDX 6 1 7 2 12 3 8 4 11 5 9 6 5 7 4 8 2 9 1 10 3 11 10 12
REMARK H PARENT 10 13
REMARK Flexibility Score: inf
ROOT
ATOM      1  C   UNL     1     -11.865  -7.885  38.878  1.00  0.00    -0.025 A 
ATOM      2  C   UNL     1     -12.644  -6.993  39.632  1.00  0.00     0.012 A 
ATOM      3  C   UNL     1     -12.137  -8.031  37.502  1.00  0.00     0.012 A 
ATOM      4  C   UNL     1     -13.689  -6.281  39.035  1.00  0.00     0.047 A 
ATOM      5  C   UNL     1     -13.182  -7.316  36.908  1.00  0.00     0.047 A 
ATOM      6  C   UNL     1     -13.963  -6.441  37.674  1.00  0.00     0.115 A 
ENDROOT
BRANCH   1   7
ATOM      7  C   UNL     1     -10.760  -8.610  39.555  1.00  0.00     0.010 C 
ATOM      8  C   UNL     1     -10.400  -9.866  39.256  1.00  0.00     0.025 C 
BRANCH   8   9
ATOM      9  C   UNL     1      -9.305 -10.550  39.963  1.00  0.00     0.064 C 
ATOM     10  O   UNL     1      -8.252 -10.844  39.339  1.00  0.00    -0.545 OA
ATOM     11  O   UNL     1      -9.413 -10.875  41.310  1.00  0.00    -0.545 OA
ENDBRANCH   8   9
ENDBRANCH   1   7
BRANCH   6  12
ATOM     12  O   UNL     1     -15.007  -5.726  37.093  1.00  0.00    -0.508 OA
ATOM     13  H   UNL     1     -14.839  -5.044  36.362  1.00  0.00     0.293 HD
ENDBRANCH   6  12
TORSDOF 3
ENDMDL
MODEL 6
REMARK VINA RESULT:    -5.178      1.686      5.697
REMARK INTER + INTRA:          -6.086
REMARK INTER:                  -5.948
REMARK INTRA:                  -0.139
REMARK UNBOUND:                -0.151
REMARK SMILES O=C([O-])C=Cc1ccc(O)cc1
REMARK SMILES IDX 6 1 7 2 12 3 8 4 11 5 9 6 5 7 4 8 2 9 1 10 3 11 10 12
REMARK H PARENT 10 13
REMARK Flexibility Score: inf
ROOT
ATOM      1  C   UNL     1     -13.676  -6.583  38.919  1.00  0.00    -0.025 A 
ATOM      2  C   UNL     1     -14.533  -6.545  37.806  1.00  0.00     0.012 A 
ATOM      3  C   UNL     1     -14.156  -6.126  40.163  1.00  0.00     0.012 A 
ATOM      4  C   UNL     1     -15.831  -6.038  37.925  1.00  0.00     0.047 A 
ATOM      5  C   UNL     1     -15.455  -5.621  40.278  1.00  0.00     0.047 A 
ATOM      6  C   UNL     1     -16.294  -5.572  39.159  1.00  0.00     0.115 A 
ENDROOT
BRANCH   1   7
ATOM      7  C   UNL     1     -12.311  -7.141  38.744  1.00  0.00     0.010 C 
ATOM      8  C   UNL     1     -11.752  -8.019  39.589  1.00  0.00     0.025 C 
BRANCH   8   9
ATOM      9  C   UNL     1     -10.390  -8.536  39.382  1.00  0.00     0.064 C 
ATOM     10  O   UNL     1      -9.427  -7.730  39.287  1.00  0.00    -0.545 OA
ATOM     11  O   UNL     1     -10.146  -9.902  39.291  1.00  0.00    -0.545 OA
ENDBRANCH   8   9
ENDBRANCH   1   7
BRANCH   6  12
ATOM     12  O   UNL     1     -17.589  -5.069  39.262  1.00  0.00    -0.508 OA
ATOM     13  H   UNL     1     -17.969  -4.439  38.566  1.00  0.00     0.293 HD
ENDBRANCH   6  12
TORSDOF 3
ENDMDL
MODEL 7
REMARK VINA RESULT:    -5.112      3.251      5.911
REMARK INTER + INTRA:          -6.011
REMARK INTER:                  -5.857
REMARK INTRA:                  -0.154
REMARK UNBOUND:                -0.151
REMARK SMILES O=C([O-])C=Cc1ccc(O)cc1
REMARK SMILES IDX 6 1 7 2 12 3 8 4 11 5 9 6 5 7 4 8 2 9 1 10 3 11 10 12
REMARK H PARENT 10 13
REMARK Flexibility Score: inf
ROOT
ATOM      1  C   UNL     1     -10.582  -9.456  39.350  1.00  0.00    -0.025 A 
ATOM      2  C   UNL     1     -11.336  -8.347  39.770  1.00  0.00     0.012 A 
ATOM      3  C   UNL     1     -10.600  -9.812  37.986  1.00  0.00     0.012 A 
ATOM      4  C   UNL     1     -12.111  -7.626  38.856  1.00  0.00     0.047 A 
ATOM      5  C   UNL     1     -11.375  -9.088  37.075  1.00  0.00     0.047 A 
ATOM      6  C   UNL     1     -12.135  -7.995  37.509  1.00  0.00     0.115 A 
ENDROOT
BRANCH   1   7
ATOM      7  C   UNL     1      -9.767 -10.182  40.356  1.00  0.00     0.010 C 
ATOM      8  C   UNL     1      -9.881 -10.000  41.679  1.00  0.00     0.025 C 
BRANCH   8   9
ATOM      9  C   UNL     1      -9.043 -10.734  42.640  1.00  0.00     0.064 C 
ATOM     10  O   UNL     1      -8.465 -11.792  42.277  1.00  0.00    -0.545 OA
ATOM     11  O   UNL     1      -8.876 -10.278  43.943  1.00  0.00    -0.545 OA
ENDBRANCH   8   9
ENDBRANCH   1   7
BRANCH   6  12
ATOM     12  O   UNL     1     -12.912  -7.268  36.610  1.00  0.00    -0.508 OA
ATOM     13  H   UNL     1     -13.190  -7.655  35.716  1.00  0.00     0.293 HD
ENDBRANCH   6  12
TORSDOF 3
ENDMDL
MODEL 8
REMARK VINA RESULT:    -4.996      7.816      8.884
REMARK INTER + INTRA:          -5.877
REMARK INTER:                  -5.740
REMARK INTRA:                  -0.137
REMARK UNBOUND:                -0.151
REMARK SMILES O=C([O-])C=Cc1ccc(O)cc1
REMARK SMILES IDX 6 1 7 2 12 3 8 4 11 5 9 6 5 7 4 8 2 9 1 10 3 11 10 12
REMARK H PARENT 10 13
REMARK Flexibility Score: inf
ROOT
ATOM      1  C   UNL     1     -16.795  -9.644  45.576  1.00  0.00    -0.025 A 
ATOM      2  C   UNL     1     -15.689 -10.508  45.510  1.00  0.00     0.012 A 
ATOM      3  C   UNL     1     -17.262  -9.233  46.841  1.00  0.00     0.012 A 
ATOM      4  C   UNL     1     -15.079 -10.973  46.679  1.00  0.00     0.047 A 
ATOM      5  C   UNL     1     -16.648  -9.700  48.008  1.00  0.00     0.047 A 
ATOM      6  C   UNL     1     -15.557 -10.574  47.930  1.00  0.00     0.115 A 
ENDROOT
BRANCH   1   7
ATOM      7  C   UNL     1     -17.401  -9.169  44.307  1.00  0.00     0.010 C 
ATOM      8  C   UNL     1     -17.202  -7.944  43.799  1.00  0.00     0.025 C 
BRANCH   8   9
ATOM      9  C   UNL     1     -17.833  -7.512  42.542  1.00  0.00     0.064 C 
ATOM     10  O   UNL     1     -18.122  -8.369  41.666  1.00  0.00    -0.545 OA
ATOM     11  O   UNL     1     -18.120  -6.172  42.306  1.00  0.00    -0.545 OA
ENDBRANCH   8   9
ENDBRANCH   1   7
BRANCH   6  12
ATOM     12  O   UNL     1     -14.940 -11.046  49.085  1.00  0.00    -0.508 OA
ATOM     13  H   UNL     1     -15.480 -11.360  49.883  1.00  0.00     0.293 HD
ENDBRANCH   6  12
TORSDOF 3
ENDMDL
MODEL 9
REMARK VINA RESULT:    -3.835      3.816      5.271
REMARK INTER + INTRA:          -4.547
REMARK INTER:                  -4.410
REMARK INTRA:                  -0.137
REMARK UNBOUND:                -0.151
REMARK SMILES O=C([O-])C=Cc1ccc(O)cc1
REMARK SMILES IDX 6 1 7 2 12 3 8 4 11 5 9 6 5 7 4 8 2 9 1 10 3 11 10 12
REMARK H PARENT 10 13
REMARK Flexibility Score: inf
ROOT
ATOM      1  C   UNL     1     -16.162  -6.213  40.277  1.00  0.00    -0.025 A 
ATOM      2  C   UNL     1     -16.936  -6.365  39.114  1.00  0.00     0.012 A 
ATOM      3  C   UNL     1     -14.776  -5.989  40.147  1.00  0.00     0.012 A 
ATOM      4  C   UNL     1     -16.338  -6.322  37.851  1.00  0.00     0.047 A 
ATOM      5  C   UNL     1     -14.182  -5.946  38.882  1.00  0.00     0.047 A 
ATOM      6  C   UNL     1     -14.961  -6.115  37.731  1.00  0.00     0.115 A 
ENDROOT
BRANCH   1   7
ATOM      7  C   UNL     1     -16.845  -6.255  41.594  1.00  0.00     0.010 C 
ATOM      8  C   UNL     1     -16.215  -6.497  42.753  1.00  0.00     0.025 C 
BRANCH   8   9
ATOM      9  C   UNL     1     -16.935  -6.542  44.035  1.00  0.00     0.064 C 
ATOM     10  O   UNL     1     -16.469  -5.928  45.030  1.00  0.00    -0.545 OA
ATOM     11  O   UNL     1     -18.125  -7.250  44.166  1.00  0.00    -0.545 OA
ENDBRANCH   8   9
ENDBRANCH   1   7
BRANCH   6  12
ATOM     12  O   UNL     1     -14.379  -6.075  36.466  1.00  0.00    -0.508 OA
ATOM     13  H   UNL     1     -14.820  -5.586  35.696  1.00  0.00     0.293 HD
ENDBRANCH   6  12
TORSDOF 3
ENDMDL
