MODEL 1
REMARK VINA RESULT:    -6.385      0.000      0.000
REMARK INTER + INTRA:          -7.965
REMARK INTER:                  -7.691
REMARK INTRA:                  -0.274
REMARK UNBOUND:                -0.274
REMARK SMILES O=c1c(O)c(-c2ccc(O)c(O)c2)oc2cc(O)cc(O)c12
REMARK SMILES IDX 5 1 3 2 2 3 1 4 22 5 20 6 19 7 17 8 16 9 15 10 14 11 6 12
REMARK SMILES IDX 7 13 8 14 9 15 13 16 11 17 10 18 12 20 4 22 21 24 18 26
REMARK H PARENT 10 19 12 21 4 23 21 25 18 27
REMARK Flexibility Score: inf
ROOT
ATOM      1  C   UNL     1     479.616  37.747 459.530  1.00  0.00     0.180 A 
ATOM      2  C   UNL     1     478.842  38.844 459.950  1.00  0.00     0.208 A 
ATOM      3  C   UNL     1     477.789  38.627 460.854  1.00  0.00     0.238 A 
ATOM      4  O   UNL     1     477.135  39.620 461.267  1.00  0.00    -0.285 OA
ATOM      5  C   UNL     1     477.513  37.318 461.313  1.00  0.00     0.111 A 
ATOM      6  C   UNL     1     476.445  36.977 462.198  1.00  0.00     0.134 A 
ATOM      7  C   UNL     1     476.345  35.670 462.689  1.00  0.00     0.093 A 
ATOM      8  C   UNL     1     477.235  34.675 462.276  1.00  0.00     0.123 A 
ATOM      9  C   UNL     1     478.244  34.984 461.367  1.00  0.00     0.094 A 
ATOM     10  C   UNL     1     478.391  36.288 460.887  1.00  0.00     0.146 A 
ATOM     11  O   UNL     1     479.372  36.541 460.029  1.00  0.00    -0.452 OA
ENDROOT
BRANCH   1  12
ATOM     12  C   UNL     1     480.725  37.892 458.560  1.00  0.00     0.025 A 
ATOM     13  C   UNL     1     480.584  37.488 457.220  1.00  0.00     0.016 A 
ATOM     14  C   UNL     1     481.653  37.612 456.330  1.00  0.00     0.051 A 
ATOM     15  C   UNL     1     482.879  38.126 456.762  1.00  0.00     0.157 A 
ATOM     16  C   UNL     1     481.965  38.389 458.996  1.00  0.00     0.062 A 
ATOM     17  C   UNL     1     483.038  38.514 458.103  1.00  0.00     0.158 A 
BRANCH  15  18
ATOM     18  O   UNL     1     483.927  38.239 455.849  1.00  0.00    -0.504 OA
ATOM     19  H   UNL     1     484.813  37.768 455.987  1.00  0.00     0.293 HD
ENDBRANCH  15  18
BRANCH  17  20
ATOM     20  O   UNL     1     484.260  39.021 458.543  1.00  0.00    -0.504 OA
ATOM     21  H   UNL     1     484.434  40.018 458.592  1.00  0.00     0.293 HD
ENDBRANCH  17  20
ENDBRANCH   1  12
BRANCH   2  22
ATOM     22  O   UNL     1     479.145  40.132 459.501  1.00  0.00    -0.502 OA
ATOM     23  H   UNL     1     478.733  40.529 458.666  1.00  0.00     0.293 HD
ENDBRANCH   2  22
BRANCH   6  24
ATOM     24  O   UNL     1     475.449  37.872 462.599  1.00  0.00    -0.507 OA
ATOM     25  H   UNL     1     475.288  38.777 462.184  1.00  0.00     0.293 HD
ENDBRANCH   6  24
BRANCH   8  26
ATOM     26  O   UNL     1     477.120  33.373 462.757  1.00  0.00    -0.508 OA
ATOM     27  H   UNL     1     476.289  32.817 462.587  1.00  0.00     0.293 HD
ENDBRANCH   8  26
TORSDOF 6
ENDMDL
MODEL 2
REMARK VINA RESULT:    -6.019      1.681      7.042
REMARK INTER + INTRA:          -7.525
REMARK INTER:                  -7.223
REMARK INTRA:                  -0.302
REMARK UNBOUND:                -0.274
REMARK SMILES O=c1c(O)c(-c2ccc(O)c(O)c2)oc2cc(O)cc(O)c12
REMARK SMILES IDX 5 1 3 2 2 3 1 4 22 5 20 6 19 7 17 8 16 9 15 10 14 11 6 12
REMARK SMILES IDX 7 13 8 14 9 15 13 16 11 17 10 18 12 20 4 22 21 24 18 26
REMARK H PARENT 10 19 12 21 4 23 21 25 18 27
REMARK Flexibility Score: inf
ROOT
ATOM      1  C   UNL     1     480.212  38.193 459.353  1.00  0.00     0.180 A 
ATOM      2  C   UNL     1     480.043  38.533 457.999  1.00  0.00     0.208 A 
ATOM      3  C   UNL     1     481.157  38.966 457.262  1.00  0.00     0.238 A 
ATOM      4  O   UNL     1     481.010  39.217 456.037  1.00  0.00    -0.285 OA
ATOM      5  C   UNL     1     482.421  39.068 457.889  1.00  0.00     0.111 A 
ATOM      6  C   UNL     1     483.609  39.533 457.249  1.00  0.00     0.134 A 
ATOM      7  C   UNL     1     484.831  39.470 457.929  1.00  0.00     0.093 A 
ATOM      8  C   UNL     1     484.897  39.019 459.250  1.00  0.00     0.123 A 
ATOM      9  C   UNL     1     483.734  38.619 459.904  1.00  0.00     0.094 A 
ATOM     10  C   UNL     1     482.506  38.637 459.239  1.00  0.00     0.146 A 
ATOM     11  O   UNL     1     481.423  38.238 459.896  1.00  0.00    -0.452 OA
ENDROOT
BRANCH   1  12
ATOM     12  C   UNL     1     479.082  37.754 460.202  1.00  0.00     0.025 A 
ATOM     13  C   UNL     1     478.165  38.677 460.737  1.00  0.00     0.016 A 
ATOM     14  C   UNL     1     477.120  38.241 461.555  1.00  0.00     0.051 A 
ATOM     15  C   UNL     1     476.981  36.884 461.862  1.00  0.00     0.157 A 
ATOM     16  C   UNL     1     478.951  36.394 460.530  1.00  0.00     0.062 A 
ATOM     17  C   UNL     1     477.902  35.955 461.351  1.00  0.00     0.158 A 
BRANCH  15  18
ATOM     18  O   UNL     1     475.926  36.479 462.681  1.00  0.00    -0.504 OA
ATOM     19  H   UNL     1     475.021  36.933 462.655  1.00  0.00     0.293 HD
ENDBRANCH  15  18
BRANCH  17  20
ATOM     20  O   UNL     1     477.773  34.602 461.659  1.00  0.00    -0.504 OA
ATOM     21  H   UNL     1     477.979  34.246 462.586  1.00  0.00     0.293 HD
ENDBRANCH  17  20
ENDBRANCH   1  12
BRANCH   2  22
ATOM     22  O   UNL     1     478.791  38.404 457.392  1.00  0.00    -0.502 OA
ATOM     23  H   UNL     1     478.104  39.147 457.397  1.00  0.00     0.293 HD
ENDBRANCH   2  22
BRANCH   6  24
ATOM     24  O   UNL     1     483.637  40.088 455.966  1.00  0.00    -0.507 OA
ATOM     25  H   UNL     1     484.475  40.368 455.478  1.00  0.00     0.293 HD
ENDBRANCH   6  24
BRANCH   8  26
ATOM     26  O   UNL     1     486.115  38.974 459.926  1.00  0.00    -0.508 OA
ATOM     27  H   UNL     1     486.321  38.240 460.595  1.00  0.00     0.293 HD
ENDBRANCH   8  26
TORSDOF 6
ENDMDL
MODEL 3
REMARK VINA RESULT:    -5.819      1.754      6.974
REMARK INTER + INTRA:          -7.284
REMARK INTER:                  -7.072
REMARK INTRA:                  -0.212
REMARK UNBOUND:                -0.274
REMARK SMILES O=c1c(O)c(-c2ccc(O)c(O)c2)oc2cc(O)cc(O)c12
REMARK SMILES IDX 5 1 3 2 2 3 1 4 22 5 20 6 19 7 17 8 16 9 15 10 14 11 6 12
REMARK SMILES IDX 7 13 8 14 9 15 13 16 11 17 10 18 12 20 4 22 21 24 18 26
REMARK H PARENT 10 19 12 21 4 23 21 25 18 27
REMARK Flexibility Score: inf
ROOT
ATOM      1  C   UNL     1     480.126  38.055 459.245  1.00  0.00     0.180 A 
ATOM      2  C   UNL     1     479.711  38.718 458.076  1.00  0.00     0.208 A 
ATOM      3  C   UNL     1     480.670  39.383 457.295  1.00  0.00     0.238 A 
ATOM      4  O   UNL     1     480.301  39.929 456.222  1.00  0.00    -0.285 OA
ATOM      5  C   UNL     1     482.026  39.390 457.698  1.00  0.00     0.111 A 
ATOM      6  C   UNL     1     483.076  40.065 457.004  1.00  0.00     0.134 A 
ATOM      7  C   UNL     1     484.401  39.896 457.422  1.00  0.00     0.093 A 
ATOM      8  C   UNL     1     484.709  39.128 458.548  1.00  0.00     0.123 A 
ATOM      9  C   UNL     1     483.686  38.513 459.267  1.00  0.00     0.094 A 
ATOM     10  C   UNL     1     482.358  38.635 458.854  1.00  0.00     0.146 A 
ATOM     11  O   UNL     1     481.415  38.024 459.562  1.00  0.00    -0.452 OA
ENDROOT
BRANCH   1  12
ATOM     12  C   UNL     1     479.171  37.354 460.133  1.00  0.00     0.025 A 
ATOM     13  C   UNL     1     479.139  35.950 460.212  1.00  0.00     0.016 A 
ATOM     14  C   UNL     1     478.212  35.311 461.039  1.00  0.00     0.051 A 
ATOM     15  C   UNL     1     477.299  36.057 461.789  1.00  0.00     0.157 A 
ATOM     16  C   UNL     1     478.238  38.100 460.872  1.00  0.00     0.062 A 
ATOM     17  C   UNL     1     477.308  37.460 461.704  1.00  0.00     0.158 A 
BRANCH  15  18
ATOM     18  O   UNL     1     476.387  35.390 462.607  1.00  0.00    -0.504 OA
ATOM     19  H   UNL     1     475.524  35.003 462.246  1.00  0.00     0.293 HD
ENDBRANCH  15  18
BRANCH  17  20
ATOM     20  O   UNL     1     476.395  38.210 462.443  1.00  0.00    -0.504 OA
ATOM     21  H   UNL     1     476.687  38.773 463.234  1.00  0.00     0.293 HD
ENDBRANCH  17  20
ENDBRANCH   1  12
BRANCH   2  22
ATOM     22  O   UNL     1     478.371  38.681 457.684  1.00  0.00    -0.502 OA
ATOM     23  H   UNL     1     477.761  39.486 457.752  1.00  0.00     0.293 HD
ENDBRANCH   2  22
BRANCH   6  24
ATOM     24  O   UNL     1     482.867  40.929 455.925  1.00  0.00    -0.507 OA
ATOM     25  H   UNL     1     482.050  41.508 455.801  1.00  0.00     0.293 HD
ENDBRANCH   6  24
BRANCH   8  26
ATOM     26  O   UNL     1     486.029  38.977 458.967  1.00  0.00    -0.508 OA
ATOM     27  H   UNL     1     486.598  39.776 459.221  1.00  0.00     0.293 HD
ENDBRANCH   8  26
TORSDOF 6
ENDMDL
MODEL 4
REMARK VINA RESULT:    -5.757      1.799      7.168
REMARK INTER + INTRA:          -7.209
REMARK INTER:                  -6.893
REMARK INTRA:                  -0.316
REMARK UNBOUND:                -0.274
REMARK SMILES O=c1c(O)c(-c2ccc(O)c(O)c2)oc2cc(O)cc(O)c12
REMARK SMILES IDX 5 1 3 2 2 3 1 4 22 5 20 6 19 7 17 8 16 9 15 10 14 11 6 12
REMARK SMILES IDX 7 13 8 14 9 15 13 16 11 17 10 18 12 20 4 22 21 24 18 26
REMARK H PARENT 10 19 12 21 4 23 21 25 18 27
REMARK Flexibility Score: inf
ROOT
ATOM      1  C   UNL     1     480.458  38.319 459.716  1.00  0.00     0.180 A 
ATOM      2  C   UNL     1     480.639  37.917 458.381  1.00  0.00     0.208 A 
ATOM      3  C   UNL     1     481.911  38.043 457.798  1.00  0.00     0.238 A 
ATOM      4  O   UNL     1     482.078  37.631 456.620  1.00  0.00    -0.285 OA
ATOM      5  C   UNL     1     482.980  38.582 458.551  1.00  0.00     0.111 A 
ATOM      6  C   UNL     1     484.301  38.792 458.049  1.00  0.00     0.134 A 
ATOM      7  C   UNL     1     485.312  39.210 458.921  1.00  0.00     0.093 A 
ATOM      8  C   UNL     1     485.038  39.489 460.263  1.00  0.00     0.123 A 
ATOM      9  C   UNL     1     483.740  39.344 460.748  1.00  0.00     0.094 A 
ATOM     10  C   UNL     1     482.717  38.894 459.911  1.00  0.00     0.146 A 
ATOM     11  O   UNL     1     481.496  38.761 460.416  1.00  0.00    -0.452 OA
ENDROOT
BRANCH   1  12
ATOM     12  C   UNL     1     479.143  38.241 460.391  1.00  0.00     0.025 A 
ATOM     13  C   UNL     1     478.292  39.358 460.467  1.00  0.00     0.016 A 
ATOM     14  C   UNL     1     477.066  39.267 461.131  1.00  0.00     0.051 A 
ATOM     15  C   UNL     1     476.676  38.069 461.736  1.00  0.00     0.157 A 
ATOM     16  C   UNL     1     478.757  37.045 461.019  1.00  0.00     0.062 A 
ATOM     17  C   UNL     1     477.526  36.952 461.684  1.00  0.00     0.158 A 
BRANCH  15  18
ATOM     18  O   UNL     1     475.444  38.009 462.390  1.00  0.00    -0.504 OA
ATOM     19  H   UNL     1     474.746  38.735 462.289  1.00  0.00     0.293 HD
ENDBRANCH  15  18
BRANCH  17  20
ATOM     20  O   UNL     1     477.147  35.757 462.292  1.00  0.00    -0.504 OA
ATOM     21  H   UNL     1     477.261  35.608 463.288  1.00  0.00     0.293 HD
ENDBRANCH  17  20
ENDBRANCH   1  12
BRANCH   2  22
ATOM     22  O   UNL     1     479.575  37.367 457.661  1.00  0.00    -0.502 OA
ATOM     23  H   UNL     1     478.651  37.249 458.060  1.00  0.00     0.293 HD
ENDBRANCH   2  22
BRANCH   6  24
ATOM     24  O   UNL     1     484.659  38.632 456.708  1.00  0.00    -0.507 OA
ATOM     25  H   UNL     1     485.607  38.624 456.362  1.00  0.00     0.293 HD
ENDBRANCH   6  24
BRANCH   8  26
ATOM     26  O   UNL     1     486.048  39.920 461.121  1.00  0.00    -0.508 OA
ATOM     27  H   UNL     1     486.187  39.494 462.030  1.00  0.00     0.293 HD
ENDBRANCH   8  26
TORSDOF 6
ENDMDL
MODEL 5
REMARK VINA RESULT:    -5.538      3.738      6.761
REMARK INTER + INTRA:          -6.945
REMARK INTER:                  -6.611
REMARK INTRA:                  -0.335
REMARK UNBOUND:                -0.274
REMARK SMILES O=c1c(O)c(-c2ccc(O)c(O)c2)oc2cc(O)cc(O)c12
REMARK SMILES IDX 5 1 3 2 2 3 1 4 22 5 20 6 19 7 17 8 16 9 15 10 14 11 6 12
REMARK SMILES IDX 7 13 8 14 9 15 13 16 11 17 10 18 12 20 4 22 21 24 18 26
REMARK H PARENT 10 19 12 21 4 23 21 25 18 27
REMARK Flexibility Score: inf
ROOT
ATOM      1  C   UNL     1     484.215  39.976 459.731  1.00  0.00     0.180 A 
ATOM      2  C   UNL     1     484.731  39.341 458.588  1.00  0.00     0.208 A 
ATOM      3  C   UNL     1     483.871  38.569 457.791  1.00  0.00     0.238 A 
ATOM      4  O   UNL     1     484.328  38.047 456.740  1.00  0.00    -0.285 OA
ATOM      5  C   UNL     1     482.511  38.428 458.154  1.00  0.00     0.111 A 
ATOM      6  C   UNL     1     481.559  37.637 457.442  1.00  0.00     0.134 A 
ATOM      7  C   UNL     1     480.211  37.674 457.817  1.00  0.00     0.093 A 
ATOM      8  C   UNL     1     479.790  38.423 458.919  1.00  0.00     0.123 A 
ATOM      9  C   UNL     1     480.721  39.151 459.656  1.00  0.00     0.094 A 
ATOM     10  C   UNL     1     482.067  39.162 459.285  1.00  0.00     0.146 A 
ATOM     11  O   UNL     1     482.920  39.878 460.009  1.00  0.00    -0.452 OA
ENDROOT
BRANCH   1  12
ATOM     12  C   UNL     1     485.063  40.786 460.634  1.00  0.00     0.025 A 
ATOM     13  C   UNL     1     485.758  40.199 461.708  1.00  0.00     0.016 A 
ATOM     14  C   UNL     1     486.533  40.988 462.561  1.00  0.00     0.051 A 
ATOM     15  C   UNL     1     486.619  42.369 462.366  1.00  0.00     0.157 A 
ATOM     16  C   UNL     1     485.135  42.177 460.454  1.00  0.00     0.062 A 
ATOM     17  C   UNL     1     485.914  42.969 461.309  1.00  0.00     0.158 A 
BRANCH  15  18
ATOM     18  O   UNL     1     487.403  43.129 463.234  1.00  0.00    -0.504 OA
ATOM     19  H   UNL     1     487.025  43.540 464.079  1.00  0.00     0.293 HD
ENDBRANCH  15  18
BRANCH  17  20
ATOM     20  O   UNL     1     485.989  44.347 461.113  1.00  0.00    -0.504 OA
ATOM     21  H   UNL     1     485.361  44.986 461.587  1.00  0.00     0.293 HD
ENDBRANCH  17  20
ENDBRANCH   1  12
BRANCH   2  22
ATOM     22  O   UNL     1     486.073  39.511 458.235  1.00  0.00    -0.502 OA
ATOM     23  H   UNL     1     486.793  39.716 458.915  1.00  0.00     0.293 HD
ENDBRANCH   2  22
BRANCH   6  24
ATOM     24  O   UNL     1     481.889  36.783 456.386  1.00  0.00    -0.507 OA
ATOM     25  H   UNL     1     481.224  36.369 455.750  1.00  0.00     0.293 HD
ENDBRANCH   6  24
BRANCH   8  26
ATOM     26  O   UNL     1     478.449  38.443 459.296  1.00  0.00    -0.508 OA
ATOM     27  H   UNL     1     477.891  37.597 459.309  1.00  0.00     0.293 HD
ENDBRANCH   8  26
TORSDOF 6
ENDMDL
MODEL 6
REMARK VINA RESULT:    -5.537      1.201      2.977
REMARK INTER + INTRA:          -6.945
REMARK INTER:                  -6.686
REMARK INTRA:                  -0.258
REMARK UNBOUND:                -0.274
REMARK SMILES O=c1c(O)c(-c2ccc(O)c(O)c2)oc2cc(O)cc(O)c12
REMARK SMILES IDX 5 1 3 2 2 3 1 4 22 5 20 6 19 7 17 8 16 9 15 10 14 11 6 12
REMARK SMILES IDX 7 13 8 14 9 15 13 16 11 17 10 18 12 20 4 22 21 24 18 26
REMARK H PARENT 10 19 12 21 4 23 21 25 18 27
REMARK Flexibility Score: inf
ROOT
ATOM      1  C   UNL     1     479.706  37.569 459.534  1.00  0.00     0.180 A 
ATOM      2  C   UNL     1     479.315  36.297 459.986  1.00  0.00     0.208 A 
ATOM      3  C   UNL     1     478.204  36.189 460.839  1.00  0.00     0.238 A 
ATOM      4  O   UNL     1     477.828  35.042 461.197  1.00  0.00    -0.285 OA
ATOM      5  C   UNL     1     477.509  37.353 461.242  1.00  0.00     0.111 A 
ATOM      6  C   UNL     1     476.396  37.365 462.135  1.00  0.00     0.134 A 
ATOM      7  C   UNL     1     475.704  38.561 462.362  1.00  0.00     0.093 A 
ATOM      8  C   UNL     1     476.126  39.758 461.778  1.00  0.00     0.123 A 
ATOM      9  C   UNL     1     477.247  39.768 460.952  1.00  0.00     0.094 A 
ATOM     10  C   UNL     1     477.936  38.584 460.679  1.00  0.00     0.146 A 
ATOM     11  O   UNL     1     478.994  38.636 459.878  1.00  0.00    -0.452 OA
ENDROOT
BRANCH   1  12
ATOM     12  C   UNL     1     480.879  37.766 458.654  1.00  0.00     0.025 A 
ATOM     13  C   UNL     1     480.840  37.421 457.291  1.00  0.00     0.016 A 
ATOM     14  C   UNL     1     481.968  37.593 456.486  1.00  0.00     0.051 A 
ATOM     15  C   UNL     1     483.153  38.100 457.027  1.00  0.00     0.157 A 
ATOM     16  C   UNL     1     482.079  38.255 459.199  1.00  0.00     0.062 A 
ATOM     17  C   UNL     1     483.212  38.430 458.392  1.00  0.00     0.158 A 
BRANCH  15  18
ATOM     18  O   UNL     1     484.263  38.262 456.198  1.00  0.00    -0.504 OA
ATOM     19  H   UNL     1     484.328  37.812 455.293  1.00  0.00     0.293 HD
ENDBRANCH  15  18
BRANCH  17  20
ATOM     20  O   UNL     1     484.393  38.928 458.940  1.00  0.00    -0.504 OA
ATOM     21  H   UNL     1     484.715  39.868 458.741  1.00  0.00     0.293 HD
ENDBRANCH  17  20
ENDBRANCH   1  12
BRANCH   2  22
ATOM     22  O   UNL     1     480.001  35.157 459.559  1.00  0.00    -0.502 OA
ATOM     23  H   UNL     1     479.751  34.224 459.863  1.00  0.00     0.293 HD
ENDBRANCH   2  22
BRANCH   6  24
ATOM     24  O   UNL     1     475.951  36.243 462.841  1.00  0.00    -0.507 OA
ATOM     25  H   UNL     1     476.018  35.292 462.512  1.00  0.00     0.293 HD
ENDBRANCH   6  24
BRANCH   8  26
ATOM     26  O   UNL     1     475.441  40.947 462.021  1.00  0.00    -0.508 OA
ATOM     27  H   UNL     1     475.900  41.745 462.447  1.00  0.00     0.293 HD
ENDBRANCH   8  26
TORSDOF 6
ENDMDL
MODEL 7
REMARK VINA RESULT:    -5.449      1.513      6.932
REMARK INTER + INTRA:          -6.838
REMARK INTER:                  -6.574
REMARK INTRA:                  -0.263
REMARK UNBOUND:                -0.274
REMARK SMILES O=c1c(O)c(-c2ccc(O)c(O)c2)oc2cc(O)cc(O)c12
REMARK SMILES IDX 5 1 3 2 2 3 1 4 22 5 20 6 19 7 17 8 16 9 15 10 14 11 6 12
REMARK SMILES IDX 7 13 8 14 9 15 13 16 11 17 10 18 12 20 4 22 21 24 18 26
REMARK H PARENT 10 19 12 21 4 23 21 25 18 27
REMARK Flexibility Score: inf
ROOT
ATOM      1  C   UNL     1     479.720  37.865 459.867  1.00  0.00     0.180 A 
ATOM      2  C   UNL     1     480.749  38.655 460.410  1.00  0.00     0.208 A 
ATOM      3  C   UNL     1     481.757  39.139 459.559  1.00  0.00     0.238 A 
ATOM      4  O   UNL     1     482.645  39.889 460.042  1.00  0.00    -0.285 OA
ATOM      5  C   UNL     1     481.733  38.814 458.183  1.00  0.00     0.111 A 
ATOM      6  C   UNL     1     482.724  39.216 457.237  1.00  0.00     0.134 A 
ATOM      7  C   UNL     1     482.531  38.947 455.877  1.00  0.00     0.093 A 
ATOM      8  C   UNL     1     481.413  38.234 455.435  1.00  0.00     0.123 A 
ATOM      9  C   UNL     1     480.470  37.786 456.357  1.00  0.00     0.094 A 
ATOM     10  C   UNL     1     480.618  38.069 457.717  1.00  0.00     0.146 A 
ATOM     11  O   UNL     1     479.690  37.632 458.560  1.00  0.00    -0.452 OA
ENDROOT
BRANCH   1  12
ATOM     12  C   UNL     1     478.638  37.299 460.703  1.00  0.00     0.025 A 
ATOM     13  C   UNL     1     477.590  38.101 461.187  1.00  0.00     0.016 A 
ATOM     14  C   UNL     1     476.592  37.549 461.995  1.00  0.00     0.051 A 
ATOM     15  C   UNL     1     476.631  36.196 462.341  1.00  0.00     0.157 A 
ATOM     16  C   UNL     1     478.686  35.943 461.071  1.00  0.00     0.062 A 
ATOM     17  C   UNL     1     477.685  35.388 461.881  1.00  0.00     0.158 A 
BRANCH  15  18
ATOM     18  O   UNL     1     475.620  35.673 463.148  1.00  0.00    -0.504 OA
ATOM     19  H   UNL     1     474.697  35.465 462.786  1.00  0.00     0.293 HD
ENDBRANCH  15  18
BRANCH  17  20
ATOM     20  O   UNL     1     477.734  34.039 462.230  1.00  0.00    -0.504 OA
ATOM     21  H   UNL     1     478.475  33.432 461.899  1.00  0.00     0.293 HD
ENDBRANCH  17  20
ENDBRANCH   1  12
BRANCH   2  22
ATOM     22  O   UNL     1     480.743  38.983 461.768  1.00  0.00    -0.502 OA
ATOM     23  H   UNL     1     480.010  39.540 462.191  1.00  0.00     0.293 HD
ENDBRANCH   2  22
BRANCH   6  24
ATOM     24  O   UNL     1     483.920  39.851 457.583  1.00  0.00    -0.507 OA
ATOM     25  H   UNL     1     483.989  40.792 457.941  1.00  0.00     0.293 HD
ENDBRANCH   6  24
BRANCH   8  26
ATOM     26  O   UNL     1     481.235  37.957 454.081  1.00  0.00    -0.508 OA
ATOM     27  H   UNL     1     480.716  38.584 453.477  1.00  0.00     0.293 HD
ENDBRANCH   8  26
TORSDOF 6
ENDMDL
MODEL 8
REMARK VINA RESULT:    -5.164      2.277      7.102
REMARK INTER + INTRA:          -6.495
REMARK INTER:                  -6.194
REMARK INTRA:                  -0.300
REMARK UNBOUND:                -0.274
REMARK SMILES O=c1c(O)c(-c2ccc(O)c(O)c2)oc2cc(O)cc(O)c12
REMARK SMILES IDX 5 1 3 2 2 3 1 4 22 5 20 6 19 7 17 8 16 9 15 10 14 11 6 12
REMARK SMILES IDX 7 13 8 14 9 15 13 16 11 17 10 18 12 20 4 22 21 24 18 26
REMARK H PARENT 10 19 12 21 4 23 21 25 18 27
REMARK Flexibility Score: inf
ROOT
ATOM      1  C   UNL     1     480.542  38.976 461.079  1.00  0.00     0.180 A 
ATOM      2  C   UNL     1     481.385  39.493 462.079  1.00  0.00     0.208 A 
ATOM      3  C   UNL     1     482.767  39.553 461.840  1.00  0.00     0.238 A 
ATOM      4  O   UNL     1     483.509  40.067 462.718  1.00  0.00    -0.285 OA
ATOM      5  C   UNL     1     483.292  39.082 460.614  1.00  0.00     0.111 A 
ATOM      6  C   UNL     1     484.680  39.058 460.281  1.00  0.00     0.134 A 
ATOM      7  C   UNL     1     485.075  38.691 458.989  1.00  0.00     0.093 A 
ATOM      8  C   UNL     1     484.136  38.285 458.037  1.00  0.00     0.123 A 
ATOM      9  C   UNL     1     482.784  38.248 458.371  1.00  0.00     0.094 A 
ATOM     10  C   UNL     1     482.357  38.642 459.641  1.00  0.00     0.146 A 
ATOM     11  O   UNL     1     481.058  38.602 459.914  1.00  0.00    -0.452 OA
ENDROOT
BRANCH   1  12
ATOM     12  C   UNL     1     479.079  38.856 461.266  1.00  0.00     0.025 A 
ATOM     13  C   UNL     1     478.225  39.958 461.082  1.00  0.00     0.016 A 
ATOM     14  C   UNL     1     476.849  39.828 461.288  1.00  0.00     0.051 A 
ATOM     15  C   UNL     1     476.307  38.604 461.691  1.00  0.00     0.157 A 
ATOM     16  C   UNL     1     478.533  37.634 461.692  1.00  0.00     0.062 A 
ATOM     17  C   UNL     1     477.152  37.501 461.898  1.00  0.00     0.158 A 
BRANCH  15  18
ATOM     18  O   UNL     1     474.930  38.504 461.887  1.00  0.00    -0.504 OA
ATOM     19  H   UNL     1     474.385  37.745 461.496  1.00  0.00     0.293 HD
ENDBRANCH  15  18
BRANCH  17  20
ATOM     20  O   UNL     1     476.620  36.280 462.307  1.00  0.00    -0.504 OA
ATOM     21  H   UNL     1     476.200  36.163 463.222  1.00  0.00     0.293 HD
ENDBRANCH  17  20
ENDBRANCH   1  12
BRANCH   2  22
ATOM     22  O   UNL     1     480.844  39.974 463.275  1.00  0.00    -0.502 OA
ATOM     23  H   UNL     1     481.099  39.596 464.179  1.00  0.00     0.293 HD
ENDBRANCH   2  22
BRANCH   6  24
ATOM     24  O   UNL     1     485.704  39.356 461.185  1.00  0.00    -0.507 OA
ATOM     25  H   UNL     1     485.748  39.019 462.136  1.00  0.00     0.293 HD
ENDBRANCH   6  24
BRANCH   8  26
ATOM     26  O   UNL     1     484.538  37.906 456.758  1.00  0.00    -0.508 OA
ATOM     27  H   UNL     1     484.380  38.505 455.955  1.00  0.00     0.293 HD
ENDBRANCH   8  26
TORSDOF 6
ENDMDL
MODEL 9
REMARK VINA RESULT:    -5.046      5.654      8.626
REMARK INTER + INTRA:          -6.352
REMARK INTER:                  -6.064
REMARK INTRA:                  -0.288
REMARK UNBOUND:                -0.274
REMARK SMILES O=c1c(O)c(-c2ccc(O)c(O)c2)oc2cc(O)cc(O)c12
REMARK SMILES IDX 5 1 3 2 2 3 1 4 22 5 20 6 19 7 17 8 16 9 15 10 14 11 6 12
REMARK SMILES IDX 7 13 8 14 9 15 13 16 11 17 10 18 12 20 4 22 21 24 18 26
REMARK H PARENT 10 19 12 21 4 23 21 25 18 27
REMARK Flexibility Score: inf
ROOT
ATOM      1  C   UNL     1     484.435  40.329 461.795  1.00  0.00     0.180 A 
ATOM      2  C   UNL     1     484.364  39.860 463.119  1.00  0.00     0.208 A 
ATOM      3  C   UNL     1     485.069  40.545 464.122  1.00  0.00     0.238 A 
ATOM      4  O   UNL     1     484.958  40.152 465.313  1.00  0.00    -0.285 OA
ATOM      5  C   UNL     1     485.849  41.677 463.788  1.00  0.00     0.111 A 
ATOM      6  C   UNL     1     486.636  42.423 464.717  1.00  0.00     0.134 A 
ATOM      7  C   UNL     1     487.264  43.603 464.300  1.00  0.00     0.093 A 
ATOM      8  C   UNL     1     487.186  44.029 462.972  1.00  0.00     0.123 A 
ATOM      9  C   UNL     1     486.469  43.277 462.044  1.00  0.00     0.094 A 
ATOM     10  C   UNL     1     485.803  42.114 462.438  1.00  0.00     0.146 A 
ATOM     11  O   UNL     1     485.123  41.432 461.524  1.00  0.00    -0.452 OA
ENDROOT
BRANCH   1  12
ATOM     12  C   UNL     1     483.741  39.647 460.680  1.00  0.00     0.025 A 
ATOM     13  C   UNL     1     482.361  39.813 460.465  1.00  0.00     0.016 A 
ATOM     14  C   UNL     1     481.722  39.140 459.421  1.00  0.00     0.051 A 
ATOM     15  C   UNL     1     482.445  38.284 458.584  1.00  0.00     0.157 A 
ATOM     16  C   UNL     1     484.459  38.770 459.850  1.00  0.00     0.062 A 
ATOM     17  C   UNL     1     483.820  38.094 458.801  1.00  0.00     0.158 A 
BRANCH  15  18
ATOM     18  O   UNL     1     481.780  37.627 457.549  1.00  0.00    -0.504 OA
ATOM     19  H   UNL     1     481.719  38.018 456.616  1.00  0.00     0.293 HD
ENDBRANCH  15  18
BRANCH  17  20
ATOM     20  O   UNL     1     484.545  37.236 457.975  1.00  0.00    -0.504 OA
ATOM     21  H   UNL     1     484.181  36.927 457.081  1.00  0.00     0.293 HD
ENDBRANCH  17  20
ENDBRANCH   1  12
BRANCH   2  22
ATOM     22  O   UNL     1     483.571  38.753 463.432  1.00  0.00    -0.502 OA
ATOM     23  H   UNL     1     483.252  38.096 462.730  1.00  0.00     0.293 HD
ENDBRANCH   2  22
BRANCH   6  24
ATOM     24  O   UNL     1     486.854  42.034 466.042  1.00  0.00    -0.507 OA
ATOM     25  H   UNL     1     487.260  42.622 466.755  1.00  0.00     0.293 HD
ENDBRANCH   6  24
BRANCH   8  26
ATOM     26  O   UNL     1     487.826  45.197 462.561  1.00  0.00    -0.508 OA
ATOM     27  H   UNL     1     487.642  45.610 461.654  1.00  0.00     0.293 HD
ENDBRANCH   8  26
TORSDOF 6
ENDMDL
