MODEL 1
REMARK VINA RESULT:    -5.133      0.000      0.000
REMARK INTER + INTRA:         -15.692
REMARK INTER:                 -11.734
REMARK INTRA:                  -3.958
REMARK UNBOUND:                -3.958
REMARK SMILES CCCCCCCCCCCCCCCCCCCCCCCC(=O)[O-]
REMARK SMILES IDX 13 1 14 2 15 3 16 4 17 5 18 6 19 7 20 8 21 9 22 10 23 11
REMARK SMILES IDX 24 12 25 13 26 14 12 15 11 16 10 17 9 18 8 19 7 20 6 21 5 22
REMARK SMILES IDX 4 23 3 24 2 25 1 26
REMARK H PARENT
REMARK Flexibility Score: inf
ROOT
ATOM      1  C   UNL     1      15.453 -33.492  23.662  1.00  0.00     0.000 C 
ENDROOT
BRANCH   1   2
ATOM      2  C   UNL     1      15.191 -33.995  22.230  1.00  0.00     0.000 C 
BRANCH   2   3
ATOM      3  C   UNL     1      16.437 -34.613  21.571  1.00  0.00     0.000 C 
BRANCH   3   4
ATOM      4  C   UNL     1      16.637 -34.140  20.122  1.00  0.00     0.000 C 
BRANCH   4   5
ATOM      5  C   UNL     1      18.115 -34.076  19.713  1.00  0.00     0.000 C 
BRANCH   5   6
ATOM      6  C   UNL     1      18.964 -33.445  20.826  1.00  0.00     0.000 C 
BRANCH   6   7
ATOM      7  C   UNL     1      19.540 -32.074  20.436  1.00  0.00     0.000 C 
BRANCH   7   8
ATOM      8  C   UNL     1      20.759 -31.652  21.282  1.00  0.00     0.000 C 
BRANCH   8   9
ATOM      9  C   UNL     1      20.615 -30.224  21.836  1.00  0.00     0.000 C 
BRANCH   9  10
ATOM     10  C   UNL     1      20.828 -29.141  20.762  1.00  0.00     0.006 C 
BRANCH  10  11
ATOM     11  C   UNL     1      19.840 -27.967  20.843  1.00  0.00     0.053 C 
BRANCH  11  12
ATOM     12  C   UNL     1      20.545 -26.648  20.931  1.00  0.00     0.041 C 
ATOM     13  O   UNL     1      21.800 -26.606  21.020  1.00  0.00    -0.550 OA
ATOM     14  O   UNL     1      19.813 -25.467  20.950  1.00  0.00    -0.550 OA
ENDBRANCH  11  12
ENDBRANCH  10  11
ENDBRANCH   9  10
ENDBRANCH   8   9
ENDBRANCH   7   8
ENDBRANCH   6   7
ENDBRANCH   5   6
ENDBRANCH   4   5
ENDBRANCH   3   4
ENDBRANCH   2   3
ENDBRANCH   1   2
BRANCH   1  15
ATOM     15  C   UNL     1      16.927 -33.533  24.108  1.00  0.00     0.000 C 
BRANCH  15  16
ATOM     16  C   UNL     1      17.610 -32.155  24.050  1.00  0.00     0.000 C 
BRANCH  16  17
ATOM     17  C   UNL     1      16.643 -31.034  23.639  1.00  0.00     0.000 C 
BRANCH  17  18
ATOM     18  C   UNL     1      17.143 -30.241  22.421  1.00  0.00    -0.000 C 
BRANCH  18  19
ATOM     19  C   UNL     1      16.184 -30.402  21.232  1.00  0.00    -0.000 C 
BRANCH  19  20
ATOM     20  C   UNL     1      14.817 -29.744  21.478  1.00  0.00    -0.000 C 
BRANCH  20  21
ATOM     21  C   UNL     1      13.650 -30.735  21.353  1.00  0.00    -0.000 C 
BRANCH  21  22
ATOM     22  C   UNL     1      12.939 -30.919  22.702  1.00  0.00    -0.000 C 
BRANCH  22  23
ATOM     23  C   UNL     1      13.076 -29.690  23.617  1.00  0.00    -0.000 C 
BRANCH  23  24
ATOM     24  C   UNL     1      11.911 -28.700  23.459  1.00  0.00    -0.000 C 
BRANCH  24  25
ATOM     25  C   UNL     1      12.281 -27.326  24.031  1.00  0.00    -0.003 C 
ATOM     26  C   UNL     1      13.684 -26.909  23.601  1.00  0.00     0.004 C 
ENDBRANCH  24  25
ENDBRANCH  23  24
ENDBRANCH  22  23
ENDBRANCH  21  22
ENDBRANCH  20  21
ENDBRANCH  19  20
ENDBRANCH  18  19
ENDBRANCH  17  18
ENDBRANCH  16  17
ENDBRANCH  15  16
ENDBRANCH   1  15
TORSDOF 22
ENDMDL
MODEL 2
REMARK VINA RESULT:    -4.976      3.138      5.389
REMARK INTER + INTRA:         -15.333
REMARK INTER:                 -11.028
REMARK INTRA:                  -4.306
REMARK UNBOUND:                -3.958
REMARK SMILES CCCCCCCCCCCCCCCCCCCCCCCC(=O)[O-]
REMARK SMILES IDX 13 1 14 2 15 3 16 4 17 5 18 6 19 7 20 8 21 9 22 10 23 11
REMARK SMILES IDX 24 12 25 13 26 14 12 15 11 16 10 17 9 18 8 19 7 20 6 21 5 22
REMARK SMILES IDX 4 23 3 24 2 25 1 26
REMARK H PARENT
REMARK Flexibility Score: inf
ROOT
ATOM      1  C   UNL     1      14.768 -33.733  21.041  1.00  0.00     0.000 C 
ENDROOT
BRANCH   1   2
ATOM      2  C   UNL     1      15.190 -34.545  19.801  1.00  0.00     0.000 C 
BRANCH   2   3
ATOM      3  C   UNL     1      16.496 -34.037  19.166  1.00  0.00     0.000 C 
BRANCH   3   4
ATOM      4  C   UNL     1      17.636 -35.064  19.254  1.00  0.00     0.000 C 
BRANCH   4   5
ATOM      5  C   UNL     1      17.141 -36.515  19.163  1.00  0.00     0.000 C 
BRANCH   5   6
ATOM      6  C   UNL     1      17.717 -37.362  20.305  1.00  0.00     0.000 C 
BRANCH   6   7
ATOM      7  C   UNL     1      17.957 -36.552  21.590  1.00  0.00     0.000 C 
BRANCH   7   8
ATOM      8  C   UNL     1      19.324 -36.828  22.249  1.00  0.00     0.000 C 
BRANCH   8   9
ATOM      9  C   UNL     1      20.121 -35.535  22.497  1.00  0.00     0.000 C 
BRANCH   9  10
ATOM     10  C   UNL     1      19.216 -34.307  22.713  1.00  0.00     0.006 C 
BRANCH  10  11
ATOM     11  C   UNL     1      19.547 -33.492  23.973  1.00  0.00     0.053 C 
BRANCH  11  12
ATOM     12  C   UNL     1      18.555 -33.729  25.070  1.00  0.00     0.041 C 
ATOM     13  O   UNL     1      18.184 -32.778  25.805  1.00  0.00    -0.550 OA
ATOM     14  O   UNL     1      18.066 -35.009  25.301  1.00  0.00    -0.550 OA
ENDBRANCH  11  12
ENDBRANCH  10  11
ENDBRANCH   9  10
ENDBRANCH   8   9
ENDBRANCH   7   8
ENDBRANCH   6   7
ENDBRANCH   5   6
ENDBRANCH   4   5
ENDBRANCH   3   4
ENDBRANCH   2   3
ENDBRANCH   1   2
BRANCH   1  15
ATOM     15  C   UNL     1      15.591 -34.010  22.313  1.00  0.00     0.000 C 
BRANCH  15  16
ATOM     16  C   UNL     1      15.452 -32.901  23.371  1.00  0.00     0.000 C 
BRANCH  16  17
ATOM     17  C   UNL     1      13.997 -32.447  23.563  1.00  0.00     0.000 C 
BRANCH  17  18
ATOM     18  C   UNL     1      13.845 -30.919  23.516  1.00  0.00    -0.000 C 
BRANCH  18  19
ATOM     19  C   UNL     1      13.418 -30.454  22.116  1.00  0.00    -0.000 C 
BRANCH  19  20
ATOM     20  C   UNL     1      14.606 -29.993  21.256  1.00  0.00    -0.000 C 
BRANCH  20  21
ATOM     21  C   UNL     1      15.666 -29.233  22.068  1.00  0.00    -0.000 C 
BRANCH  21  22
ATOM     22  C   UNL     1      17.073 -29.491  21.509  1.00  0.00    -0.000 C 
BRANCH  22  23
ATOM     23  C   UNL     1      17.232 -30.907  20.930  1.00  0.00    -0.000 C 
BRANCH  23  24
ATOM     24  C   UNL     1      18.700 -31.348  20.832  1.00  0.00    -0.000 C 
BRANCH  24  25
ATOM     25  C   UNL     1      19.643 -30.198  21.208  1.00  0.00    -0.003 C 
ATOM     26  C   UNL     1      20.892 -30.717  21.915  1.00  0.00     0.004 C 
ENDBRANCH  24  25
ENDBRANCH  23  24
ENDBRANCH  22  23
ENDBRANCH  21  22
ENDBRANCH  20  21
ENDBRANCH  19  20
ENDBRANCH  18  19
ENDBRANCH  17  18
ENDBRANCH  16  17
ENDBRANCH  15  16
ENDBRANCH   1  15
TORSDOF 22
ENDMDL
MODEL 3
REMARK VINA RESULT:    -4.952      2.824      6.288
REMARK INTER + INTRA:         -15.278
REMARK INTER:                 -11.699
REMARK INTRA:                  -3.579
REMARK UNBOUND:                -3.958
REMARK SMILES CCCCCCCCCCCCCCCCCCCCCCCC(=O)[O-]
REMARK SMILES IDX 13 1 14 2 15 3 16 4 17 5 18 6 19 7 20 8 21 9 22 10 23 11
REMARK SMILES IDX 24 12 25 13 26 14 12 15 11 16 10 17 9 18 8 19 7 20 6 21 5 22
REMARK SMILES IDX 4 23 3 24 2 25 1 26
REMARK H PARENT
REMARK Flexibility Score: inf
ROOT
ATOM      1  C   UNL     1      17.043 -35.585  19.508  1.00  0.00     0.000 C 
ENDROOT
BRANCH   1   2
ATOM      2  C   UNL     1      16.216 -34.301  19.308  1.00  0.00     0.000 C 
BRANCH   2   3
ATOM      3  C   UNL     1      14.842 -34.356  19.999  1.00  0.00     0.000 C 
BRANCH   3   4
ATOM      4  C   UNL     1      14.573 -33.126  20.882  1.00  0.00     0.000 C 
BRANCH   4   5
ATOM      5  C   UNL     1      13.532 -32.174  20.277  1.00  0.00     0.000 C 
BRANCH   5   6
ATOM      6  C   UNL     1      13.313 -30.955  21.184  1.00  0.00     0.000 C 
BRANCH   6   7
ATOM      7  C   UNL     1      14.572 -30.083  21.329  1.00  0.00     0.000 C 
BRANCH   7   8
ATOM      8  C   UNL     1      14.508 -29.097  22.514  1.00  0.00     0.000 C 
BRANCH   8   9
ATOM      9  C   UNL     1      13.285 -29.350  23.414  1.00  0.00     0.000 C 
BRANCH   9  10
ATOM     10  C   UNL     1      12.305 -28.161  23.437  1.00  0.00     0.006 C 
BRANCH  10  11
ATOM     11  C   UNL     1      12.410 -27.280  24.692  1.00  0.00     0.053 C 
BRANCH  11  12
ATOM     12  C   UNL     1      13.417 -26.184  24.523  1.00  0.00     0.041 C 
ATOM     13  O   UNL     1      14.196 -25.888  25.466  1.00  0.00    -0.550 OA
ATOM     14  O   UNL     1      13.472 -25.466  23.334  1.00  0.00    -0.550 OA
ENDBRANCH  11  12
ENDBRANCH  10  11
ENDBRANCH   9  10
ENDBRANCH   8   9
ENDBRANCH   7   8
ENDBRANCH   6   7
ENDBRANCH   5   6
ENDBRANCH   4   5
ENDBRANCH   3   4
ENDBRANCH   2   3
ENDBRANCH   1   2
BRANCH   1  15
ATOM     15  C   UNL     1      18.135 -35.496  20.590  1.00  0.00     0.000 C 
BRANCH  15  16
ATOM     16  C   UNL     1      17.596 -35.743  22.010  1.00  0.00     0.000 C 
BRANCH  16  17
ATOM     17  C   UNL     1      18.700 -36.146  22.999  1.00  0.00     0.000 C 
BRANCH  17  18
ATOM     18  C   UNL     1      18.810 -35.176  24.186  1.00  0.00    -0.000 C 
BRANCH  18  19
ATOM     19  C   UNL     1      17.565 -35.262  25.081  1.00  0.00    -0.000 C 
BRANCH  19  20
ATOM     20  C   UNL     1      16.934 -33.887  25.353  1.00  0.00    -0.000 C 
BRANCH  20  21
ATOM     21  C   UNL     1      16.239 -33.298  24.115  1.00  0.00    -0.000 C 
BRANCH  21  22
ATOM     22  C   UNL     1      16.699 -31.854  23.864  1.00  0.00    -0.000 C 
BRANCH  22  23
ATOM     23  C   UNL     1      18.037 -31.779  23.109  1.00  0.00    -0.000 C 
BRANCH  23  24
ATOM     24  C   UNL     1      17.870 -31.916  21.588  1.00  0.00    -0.000 C 
BRANCH  24  25
ATOM     25  C   UNL     1      19.213 -31.736  20.872  1.00  0.00    -0.003 C 
ATOM     26  C   UNL     1      20.272 -32.679  21.438  1.00  0.00     0.004 C 
ENDBRANCH  24  25
ENDBRANCH  23  24
ENDBRANCH  22  23
ENDBRANCH  21  22
ENDBRANCH  20  21
ENDBRANCH  19  20
ENDBRANCH  18  19
ENDBRANCH  17  18
ENDBRANCH  16  17
ENDBRANCH  15  16
ENDBRANCH   1  15
TORSDOF 22
ENDMDL
MODEL 4
REMARK VINA RESULT:    -4.929      3.311      7.109
REMARK INTER + INTRA:         -15.226
REMARK INTER:                 -12.338
REMARK INTRA:                  -2.888
REMARK UNBOUND:                -3.958
REMARK SMILES CCCCCCCCCCCCCCCCCCCCCCCC(=O)[O-]
REMARK SMILES IDX 13 1 14 2 15 3 16 4 17 5 18 6 19 7 20 8 21 9 22 10 23 11
REMARK SMILES IDX 24 12 25 13 26 14 12 15 11 16 10 17 9 18 8 19 7 20 6 21 5 22
REMARK SMILES IDX 4 23 3 24 2 25 1 26
REMARK H PARENT
REMARK Flexibility Score: inf
ROOT
ATOM      1  C   UNL     1      16.982 -33.971  19.093  1.00  0.00     0.000 C 
ENDROOT
BRANCH   1   2
ATOM      2  C   UNL     1      16.130 -34.934  19.942  1.00  0.00     0.000 C 
BRANCH   2   3
ATOM      3  C   UNL     1      14.939 -34.239  20.626  1.00  0.00     0.000 C 
BRANCH   3   4
ATOM      4  C   UNL     1      14.309 -33.144  19.749  1.00  0.00     0.000 C 
BRANCH   4   5
ATOM      5  C   UNL     1      13.512 -32.114  20.562  1.00  0.00     0.000 C 
BRANCH   5   6
ATOM      6  C   UNL     1      14.396 -30.921  20.952  1.00  0.00     0.000 C 
BRANCH   6   7
ATOM      7  C   UNL     1      14.055 -30.351  22.339  1.00  0.00     0.000 C 
BRANCH   7   8
ATOM      8  C   UNL     1      14.205 -31.375  23.483  1.00  0.00     0.000 C 
BRANCH   8   9
ATOM      9  C   UNL     1      15.588 -32.050  23.480  1.00  0.00     0.000 C 
BRANCH   9  10
ATOM     10  C   UNL     1      15.553 -33.487  24.035  1.00  0.00     0.006 C 
BRANCH  10  11
ATOM     11  C   UNL     1      16.851 -33.928  24.730  1.00  0.00     0.053 C 
BRANCH  11  12
ATOM     12  C   UNL     1      17.348 -35.241  24.207  1.00  0.00     0.041 C 
ATOM     13  O   UNL     1      17.643 -35.366  22.990  1.00  0.00    -0.550 OA
ATOM     14  O   UNL     1      17.451 -36.335  25.056  1.00  0.00    -0.550 OA
ENDBRANCH  11  12
ENDBRANCH  10  11
ENDBRANCH   9  10
ENDBRANCH   8   9
ENDBRANCH   7   8
ENDBRANCH   6   7
ENDBRANCH   5   6
ENDBRANCH   4   5
ENDBRANCH   3   4
ENDBRANCH   2   3
ENDBRANCH   1   2
BRANCH   1  15
ATOM     15  C   UNL     1      18.484 -33.955  19.434  1.00  0.00     0.000 C 
BRANCH  15  16
ATOM     16  C   UNL     1      18.851 -32.883  20.475  1.00  0.00     0.000 C 
BRANCH  16  17
ATOM     17  C   UNL     1      17.879 -31.694  20.467  1.00  0.00     0.000 C 
BRANCH  17  18
ATOM     18  C   UNL     1      18.420 -30.484  21.246  1.00  0.00    -0.000 C 
BRANCH  18  19
ATOM     19  C   UNL     1      19.952 -30.420  21.162  1.00  0.00    -0.000 C 
BRANCH  19  20
ATOM     20  C   UNL     1      20.469 -29.017  20.806  1.00  0.00    -0.000 C 
BRANCH  20  21
ATOM     21  C   UNL     1      19.346 -27.970  20.743  1.00  0.00    -0.000 C 
BRANCH  21  22
ATOM     22  C   UNL     1      19.854 -26.593  21.197  1.00  0.00    -0.000 C 
BRANCH  22  23
ATOM     23  C   UNL     1      20.348 -25.727  20.026  1.00  0.00    -0.000 C 
BRANCH  23  24
ATOM     24  C   UNL     1      21.660 -24.993  20.343  1.00  0.00    -0.000 C 
BRANCH  24  25
ATOM     25  C   UNL     1      22.751 -25.360  19.330  1.00  0.00    -0.003 C 
ATOM     26  C   UNL     1      23.273 -26.774  19.569  1.00  0.00     0.004 C 
ENDBRANCH  24  25
ENDBRANCH  23  24
ENDBRANCH  22  23
ENDBRANCH  21  22
ENDBRANCH  20  21
ENDBRANCH  19  20
ENDBRANCH  18  19
ENDBRANCH  17  18
ENDBRANCH  16  17
ENDBRANCH  15  16
ENDBRANCH   1  15
TORSDOF 22
ENDMDL
MODEL 5
REMARK VINA RESULT:    -4.926      3.605      7.489
REMARK INTER + INTRA:         -15.220
REMARK INTER:                 -11.268
REMARK INTRA:                  -3.952
REMARK UNBOUND:                -3.958
REMARK SMILES CCCCCCCCCCCCCCCCCCCCCCCC(=O)[O-]
REMARK SMILES IDX 13 1 14 2 15 3 16 4 17 5 18 6 19 7 20 8 21 9 22 10 23 11
REMARK SMILES IDX 24 12 25 13 26 14 12 15 11 16 10 17 9 18 8 19 7 20 6 21 5 22
REMARK SMILES IDX 4 23 3 24 2 25 1 26
REMARK H PARENT
REMARK Flexibility Score: inf
ROOT
ATOM      1  C   UNL     1      17.381 -32.885  20.016  1.00  0.00     0.000 C 
ENDROOT
BRANCH   1   2
ATOM      2  C   UNL     1      18.879 -32.963  20.368  1.00  0.00     0.000 C 
BRANCH   2   3
ATOM      3  C   UNL     1      19.411 -31.675  21.021  1.00  0.00     0.000 C 
BRANCH   3   4
ATOM      4  C   UNL     1      19.110 -31.608  22.528  1.00  0.00     0.000 C 
BRANCH   4   5
ATOM      5  C   UNL     1      19.767 -32.748  23.319  1.00  0.00     0.000 C 
BRANCH   5   6
ATOM      6  C   UNL     1      18.856 -33.216  24.462  1.00  0.00     0.000 C 
BRANCH   6   7
ATOM      7  C   UNL     1      17.368 -32.934  24.196  1.00  0.00     0.000 C 
BRANCH   7   8
ATOM      8  C   UNL     1      16.517 -34.209  24.028  1.00  0.00     0.000 C 
BRANCH   8   9
ATOM      9  C   UNL     1      15.295 -33.976  23.121  1.00  0.00     0.000 C 
BRANCH   9  10
ATOM     10  C   UNL     1      14.971 -32.483  22.926  1.00  0.00     0.006 C 
BRANCH  10  11
ATOM     11  C   UNL     1      13.776 -31.983  23.753  1.00  0.00     0.053 C 
BRANCH  11  12
ATOM     12  C   UNL     1      13.113 -30.800  23.117  1.00  0.00     0.041 C 
ATOM     13  O   UNL     1      12.707 -30.865  21.927  1.00  0.00    -0.550 OA
ATOM     14  O   UNL     1      12.974 -29.614  23.827  1.00  0.00    -0.550 OA
ENDBRANCH  11  12
ENDBRANCH  10  11
ENDBRANCH   9  10
ENDBRANCH   8   9
ENDBRANCH   7   8
ENDBRANCH   6   7
ENDBRANCH   5   6
ENDBRANCH   4   5
ENDBRANCH   3   4
ENDBRANCH   2   3
ENDBRANCH   1   2
BRANCH   1  15
ATOM     15  C   UNL     1      16.866 -34.012  19.102  1.00  0.00     0.000 C 
BRANCH  15  16
ATOM     16  C   UNL     1      16.246 -35.183  19.885  1.00  0.00     0.000 C 
BRANCH  16  17
ATOM     17  C   UNL     1      16.725 -36.552  19.377  1.00  0.00     0.000 C 
BRANCH  17  18
ATOM     18  C   UNL     1      17.853 -37.139  20.240  1.00  0.00    -0.000 C 
BRANCH  18  19
ATOM     19  C   UNL     1      17.882 -36.480  21.627  1.00  0.00    -0.000 C 
BRANCH  19  20
ATOM     20  C   UNL     1      19.306 -36.129  22.087  1.00  0.00    -0.000 C 
BRANCH  20  21
ATOM     21  C   UNL     1      19.831 -37.084  23.171  1.00  0.00    -0.000 C 
BRANCH  21  22
ATOM     22  C   UNL     1      18.727 -37.424  24.183  1.00  0.00    -0.000 C 
BRANCH  22  23
ATOM     23  C   UNL     1      18.971 -36.792  25.563  1.00  0.00    -0.000 C 
BRANCH  23  24
ATOM     24  C   UNL     1      18.096 -37.411  26.664  1.00  0.00    -0.000 C 
BRANCH  24  25
ATOM     25  C   UNL     1      16.627 -37.468  26.228  1.00  0.00    -0.003 C 
ATOM     26  C   UNL     1      15.738 -38.000  27.349  1.00  0.00     0.004 C 
ENDBRANCH  24  25
ENDBRANCH  23  24
ENDBRANCH  22  23
ENDBRANCH  21  22
ENDBRANCH  20  21
ENDBRANCH  19  20
ENDBRANCH  18  19
ENDBRANCH  17  18
ENDBRANCH  16  17
ENDBRANCH  15  16
ENDBRANCH   1  15
TORSDOF 22
ENDMDL
MODEL 6
REMARK VINA RESULT:    -4.899      1.343      2.791
REMARK INTER + INTRA:         -15.157
REMARK INTER:                 -10.637
REMARK INTRA:                  -4.519
REMARK UNBOUND:                -3.958
REMARK SMILES CCCCCCCCCCCCCCCCCCCCCCCC(=O)[O-]
REMARK SMILES IDX 13 1 14 2 15 3 16 4 17 5 18 6 19 7 20 8 21 9 22 10 23 11
REMARK SMILES IDX 24 12 25 13 26 14 12 15 11 16 10 17 9 18 8 19 7 20 6 21 5 22
REMARK SMILES IDX 4 23 3 24 2 25 1 26
REMARK H PARENT
REMARK Flexibility Score: inf
ROOT
ATOM      1  C   UNL     1      15.336 -34.274  21.344  1.00  0.00     0.000 C 
ENDROOT
BRANCH   1   2
ATOM      2  C   UNL     1      16.349 -34.955  20.404  1.00  0.00     0.000 C 
BRANCH   2   3
ATOM      3  C   UNL     1      16.832 -34.033  19.270  1.00  0.00     0.000 C 
BRANCH   3   4
ATOM      4  C   UNL     1      18.356 -34.082  19.076  1.00  0.00     0.000 C 
BRANCH   4   5
ATOM      5  C   UNL     1      19.112 -33.179  20.061  1.00  0.00     0.000 C 
BRANCH   5   6
ATOM      6  C   UNL     1      19.763 -34.010  21.175  1.00  0.00     0.000 C 
BRANCH   6   7
ATOM      7  C   UNL     1      20.639 -33.167  22.117  1.00  0.00     0.000 C 
BRANCH   7   8
ATOM      8  C   UNL     1      21.055 -31.806  21.522  1.00  0.00     0.000 C 
BRANCH   8   9
ATOM      9  C   UNL     1      21.501 -30.810  22.608  1.00  0.00     0.000 C 
BRANCH   9  10
ATOM     10  C   UNL     1      21.274 -29.342  22.201  1.00  0.00     0.006 C 
BRANCH  10  11
ATOM     11  C   UNL     1      20.758 -29.155  20.766  1.00  0.00     0.053 C 
BRANCH  11  12
ATOM     12  C   UNL     1      19.948 -27.903  20.621  1.00  0.00     0.041 C 
ATOM     13  O   UNL     1      20.519 -26.799  20.422  1.00  0.00    -0.550 OA
ATOM     14  O   UNL     1      18.565 -27.951  20.741  1.00  0.00    -0.550 OA
ENDBRANCH  11  12
ENDBRANCH  10  11
ENDBRANCH   9  10
ENDBRANCH   8   9
ENDBRANCH   7   8
ENDBRANCH   6   7
ENDBRANCH   5   6
ENDBRANCH   4   5
ENDBRANCH   3   4
ENDBRANCH   2   3
ENDBRANCH   1   2
BRANCH   1  15
ATOM     15  C   UNL     1      15.719 -34.283  22.835  1.00  0.00     0.000 C 
BRANCH  15  16
ATOM     16  C   UNL     1      17.010 -35.072  23.118  1.00  0.00     0.000 C 
BRANCH  16  17
ATOM     17  C   UNL     1      17.832 -34.466  24.266  1.00  0.00     0.000 C 
BRANCH  17  18
ATOM     18  C   UNL     1      17.145 -33.250  24.906  1.00  0.00    -0.000 C 
BRANCH  18  19
ATOM     19  C   UNL     1      17.935 -31.964  24.626  1.00  0.00    -0.000 C 
BRANCH  19  20
ATOM     20  C   UNL     1      17.146 -30.957  23.774  1.00  0.00    -0.000 C 
BRANCH  20  21
ATOM     21  C   UNL     1      17.647 -30.886  22.323  1.00  0.00    -0.000 C 
BRANCH  21  22
ATOM     22  C   UNL     1      16.471 -30.757  21.343  1.00  0.00    -0.000 C 
BRANCH  22  23
ATOM     23  C   UNL     1      15.471 -29.664  21.755  1.00  0.00    -0.000 C 
BRANCH  23  24
ATOM     24  C   UNL     1      14.012 -30.140  21.692  1.00  0.00    -0.000 C 
BRANCH  24  25
ATOM     25  C   UNL     1      13.405 -30.234  23.097  1.00  0.00    -0.003 C 
ATOM     26  C   UNL     1      13.501 -31.654  23.646  1.00  0.00     0.004 C 
ENDBRANCH  24  25
ENDBRANCH  23  24
ENDBRANCH  22  23
ENDBRANCH  21  22
ENDBRANCH  20  21
ENDBRANCH  19  20
ENDBRANCH  18  19
ENDBRANCH  17  18
ENDBRANCH  16  17
ENDBRANCH  15  16
ENDBRANCH   1  15
TORSDOF 22
ENDMDL
MODEL 7
REMARK VINA RESULT:    -4.894      3.292      6.754
REMARK INTER + INTRA:         -15.146
REMARK INTER:                 -11.206
REMARK INTRA:                  -3.940
REMARK UNBOUND:                -3.958
REMARK SMILES CCCCCCCCCCCCCCCCCCCCCCCC(=O)[O-]
REMARK SMILES IDX 13 1 14 2 15 3 16 4 17 5 18 6 19 7 20 8 21 9 22 10 23 11
REMARK SMILES IDX 24 12 25 13 26 14 12 15 11 16 10 17 9 18 8 19 7 20 6 21 5 22
REMARK SMILES IDX 4 23 3 24 2 25 1 26
REMARK H PARENT
REMARK Flexibility Score: inf
ROOT
ATOM      1  C   UNL     1      15.735 -34.333  22.377  1.00  0.00     0.000 C 
ENDROOT
BRANCH   1   2
ATOM      2  C   UNL     1      15.570 -33.578  23.710  1.00  0.00     0.000 C 
BRANCH   2   3
ATOM      3  C   UNL     1      16.840 -32.819  24.133  1.00  0.00     0.000 C 
BRANCH   3   4
ATOM      4  C   UNL     1      18.130 -33.558  23.741  1.00  0.00     0.000 C 
BRANCH   4   5
ATOM      5  C   UNL     1      19.152 -32.647  23.046  1.00  0.00     0.000 C 
BRANCH   5   6
ATOM      6  C   UNL     1      18.970 -32.683  21.522  1.00  0.00     0.000 C 
BRANCH   6   7
ATOM      7  C   UNL     1      18.688 -31.296  20.920  1.00  0.00     0.000 C 
BRANCH   7   8
ATOM      8  C   UNL     1      17.189 -30.932  20.883  1.00  0.00     0.000 C 
BRANCH   8   9
ATOM      9  C   UNL     1      16.881 -29.660  21.693  1.00  0.00     0.000 C 
BRANCH   9  10
ATOM     10  C   UNL     1      15.763 -29.869  22.732  1.00  0.00     0.006 C 
BRANCH  10  11
ATOM     11  C   UNL     1      14.440 -29.168  22.386  1.00  0.00     0.053 C 
BRANCH  11  12
ATOM     12  C   UNL     1      13.293 -29.717  23.178  1.00  0.00     0.041 C 
ATOM     13  O   UNL     1      12.206 -29.086  23.240  1.00  0.00    -0.550 OA
ATOM     14  O   UNL     1      13.437 -30.909  23.878  1.00  0.00    -0.550 OA
ENDBRANCH  11  12
ENDBRANCH  10  11
ENDBRANCH   9  10
ENDBRANCH   8   9
ENDBRANCH   7   8
ENDBRANCH   6   7
ENDBRANCH   5   6
ENDBRANCH   4   5
ENDBRANCH   3   4
ENDBRANCH   2   3
ENDBRANCH   1   2
BRANCH   1  15
ATOM     15  C   UNL     1      14.972 -33.727  21.185  1.00  0.00     0.000 C 
BRANCH  15  16
ATOM     16  C   UNL     1      15.194 -34.501  19.874  1.00  0.00     0.000 C 
BRANCH  16  17
ATOM     17  C   UNL     1      16.449 -34.037  19.119  1.00  0.00     0.000 C 
BRANCH  17  18
ATOM     18  C   UNL     1      17.532 -35.126  19.051  1.00  0.00    -0.000 C 
BRANCH  18  19
ATOM     19  C   UNL     1      16.916 -36.522  19.228  1.00  0.00    -0.000 C 
BRANCH  19  20
ATOM     20  C   UNL     1      17.630 -37.353  20.306  1.00  0.00    -0.000 C 
BRANCH  20  21
ATOM     21  C   UNL     1      18.345 -36.481  21.350  1.00  0.00    -0.000 C 
BRANCH  21  22
ATOM     22  C   UNL     1      18.889 -37.340  22.501  1.00  0.00    -0.000 C 
BRANCH  22  23
ATOM     23  C   UNL     1      18.502 -36.793  23.885  1.00  0.00    -0.000 C 
BRANCH  23  24
ATOM     24  C   UNL     1      18.537 -37.869  24.981  1.00  0.00    -0.000 C 
BRANCH  24  25
ATOM     25  C   UNL     1      18.006 -37.316  26.309  1.00  0.00    -0.003 C 
ATOM     26  C   UNL     1      16.945 -36.244  26.076  1.00  0.00     0.004 C 
ENDBRANCH  24  25
ENDBRANCH  23  24
ENDBRANCH  22  23
ENDBRANCH  21  22
ENDBRANCH  20  21
ENDBRANCH  19  20
ENDBRANCH  18  19
ENDBRANCH  17  18
ENDBRANCH  16  17
ENDBRANCH  15  16
ENDBRANCH   1  15
TORSDOF 22
ENDMDL
MODEL 8
REMARK VINA RESULT:    -4.851      1.747      4.870
REMARK INTER + INTRA:         -15.049
REMARK INTER:                 -11.113
REMARK INTRA:                  -3.935
REMARK UNBOUND:                -3.958
REMARK SMILES CCCCCCCCCCCCCCCCCCCCCCCC(=O)[O-]
REMARK SMILES IDX 13 1 14 2 15 3 16 4 17 5 18 6 19 7 20 8 21 9 22 10 23 11
REMARK SMILES IDX 24 12 25 13 26 14 12 15 11 16 10 17 9 18 8 19 7 20 6 21 5 22
REMARK SMILES IDX 4 23 3 24 2 25 1 26
REMARK H PARENT
REMARK Flexibility Score: inf
ROOT
ATOM      1  C   UNL     1      13.977 -30.557  21.963  1.00  0.00     0.000 C 
ENDROOT
BRANCH   1   2
ATOM      2  C   UNL     1      14.854 -31.034  23.137  1.00  0.00     0.000 C 
BRANCH   2   3
ATOM      3  C   UNL     1      16.310 -30.544  23.036  1.00  0.00     0.000 C 
BRANCH   3   4
ATOM      4  C   UNL     1      16.620 -29.882  21.684  1.00  0.00     0.000 C 
BRANCH   4   5
ATOM      5  C   UNL     1      17.460 -30.777  20.761  1.00  0.00     0.000 C 
BRANCH   5   6
ATOM      6  C   UNL     1      18.053 -31.961  21.538  1.00  0.00     0.000 C 
BRANCH   6   7
ATOM      7  C   UNL     1      19.375 -32.469  20.938  1.00  0.00     0.000 C 
BRANCH   7   8
ATOM      8  C   UNL     1      20.417 -31.355  20.706  1.00  0.00     0.000 C 
BRANCH   8   9
ATOM      9  C   UNL     1      21.031 -30.850  22.023  1.00  0.00     0.000 C 
BRANCH   9  10
ATOM     10  C   UNL     1      21.109 -29.313  22.096  1.00  0.00     0.006 C 
BRANCH  10  11
ATOM     11  C   UNL     1      20.972 -28.608  20.737  1.00  0.00     0.053 C 
BRANCH  11  12
ATOM     12  C   UNL     1      19.964 -27.500  20.782  1.00  0.00     0.041 C 
ATOM     13  O   UNL     1      18.845 -27.639  20.224  1.00  0.00    -0.550 OA
ATOM     14  O   UNL     1      20.276 -26.301  21.410  1.00  0.00    -0.550 OA
ENDBRANCH  11  12
ENDBRANCH  10  11
ENDBRANCH   9  10
ENDBRANCH   8   9
ENDBRANCH   7   8
ENDBRANCH   6   7
ENDBRANCH   5   6
ENDBRANCH   4   5
ENDBRANCH   3   4
ENDBRANCH   2   3
ENDBRANCH   1   2
BRANCH   1  15
ATOM     15  C   UNL     1      13.502 -31.669  21.009  1.00  0.00     0.000 C 
BRANCH  15  16
ATOM     16  C   UNL     1      14.354 -32.947  21.106  1.00  0.00     0.000 C 
BRANCH  16  17
ATOM     17  C   UNL     1      14.542 -33.636  19.746  1.00  0.00     0.000 C 
BRANCH  17  18
ATOM     18  C   UNL     1      16.008 -34.005  19.470  1.00  0.00    -0.000 C 
BRANCH  18  19
ATOM     19  C   UNL     1      16.175 -35.527  19.344  1.00  0.00    -0.000 C 
BRANCH  19  20
ATOM     20  C   UNL     1      17.610 -35.993  19.641  1.00  0.00    -0.000 C 
BRANCH  20  21
ATOM     21  C   UNL     1      17.725 -36.747  20.975  1.00  0.00    -0.000 C 
BRANCH  21  22
ATOM     22  C   UNL     1      18.196 -35.808  22.096  1.00  0.00    -0.000 C 
BRANCH  22  23
ATOM     23  C   UNL     1      17.029 -35.152  22.851  1.00  0.00    -0.000 C 
BRANCH  23  24
ATOM     24  C   UNL     1      17.233 -35.149  24.374  1.00  0.00    -0.000 C 
BRANCH  24  25
ATOM     25  C   UNL     1      16.901 -33.775  24.968  1.00  0.00    -0.003 C 
ATOM     26  C   UNL     1      18.169 -32.975  25.252  1.00  0.00     0.004 C 
ENDBRANCH  24  25
ENDBRANCH  23  24
ENDBRANCH  22  23
ENDBRANCH  21  22
ENDBRANCH  20  21
ENDBRANCH  19  20
ENDBRANCH  18  19
ENDBRANCH  17  18
ENDBRANCH  16  17
ENDBRANCH  15  16
ENDBRANCH   1  15
TORSDOF 22
ENDMDL
MODEL 9
REMARK VINA RESULT:    -4.825      2.621      6.708
REMARK INTER + INTRA:         -14.989
REMARK INTER:                 -11.562
REMARK INTRA:                  -3.426
REMARK UNBOUND:                -3.958
REMARK SMILES CCCCCCCCCCCCCCCCCCCCCCCC(=O)[O-]
REMARK SMILES IDX 13 1 14 2 15 3 16 4 17 5 18 6 19 7 20 8 21 9 22 10 23 11
REMARK SMILES IDX 24 12 25 13 26 14 12 15 11 16 10 17 9 18 8 19 7 20 6 21 5 22
REMARK SMILES IDX 4 23 3 24 2 25 1 26
REMARK H PARENT
REMARK Flexibility Score: inf
ROOT
ATOM      1  C   UNL     1      19.754 -31.255  20.846  1.00  0.00     0.000 C 
ENDROOT
BRANCH   1   2
ATOM      2  C   UNL     1      18.740 -30.305  21.512  1.00  0.00     0.000 C 
BRANCH   2   3
ATOM      3  C   UNL     1      17.287 -30.799  21.396  1.00  0.00     0.000 C 
BRANCH   3   4
ATOM      4  C   UNL     1      16.374 -30.214  22.485  1.00  0.00     0.000 C 
BRANCH   4   5
ATOM      5  C   UNL     1      15.185 -29.431  21.910  1.00  0.00     0.000 C 
BRANCH   5   6
ATOM      6  C   UNL     1      14.172 -30.379  21.253  1.00  0.00     0.000 C 
BRANCH   6   7
ATOM      7  C   UNL     1      12.990 -30.724  22.175  1.00  0.00     0.000 C 
BRANCH   7   8
ATOM      8  C   UNL     1      12.745 -29.680  23.284  1.00  0.00     0.000 C 
BRANCH   8   9
ATOM      9  C   UNL     1      11.631 -28.687  22.910  1.00  0.00     0.000 C 
BRANCH   9  10
ATOM     10  C   UNL     1      11.567 -27.475  23.859  1.00  0.00     0.006 C 
BRANCH  10  11
ATOM     11  C   UNL     1      12.753 -27.370  24.831  1.00  0.00     0.053 C 
BRANCH  11  12
ATOM     12  C   UNL     1      13.532 -26.107  24.628  1.00  0.00     0.041 C 
ATOM     13  O   UNL     1      14.263 -25.659  25.550  1.00  0.00    -0.550 OA
ATOM     14  O   UNL     1      13.423 -25.406  23.434  1.00  0.00    -0.550 OA
ENDBRANCH  11  12
ENDBRANCH  10  11
ENDBRANCH   9  10
ENDBRANCH   8   9
ENDBRANCH   7   8
ENDBRANCH   6   7
ENDBRANCH   5   6
ENDBRANCH   4   5
ENDBRANCH   3   4
ENDBRANCH   2   3
ENDBRANCH   1   2
BRANCH   1  15
ATOM     15  C   UNL     1      19.399 -32.751  20.929  1.00  0.00     0.000 C 
BRANCH  15  16
ATOM     16  C   UNL     1      20.210 -33.502  22.000  1.00  0.00     0.000 C 
BRANCH  16  17
ATOM     17  C   UNL     1      19.916 -35.010  22.014  1.00  0.00     0.000 C 
BRANCH  17  18
ATOM     18  C   UNL     1      18.994 -35.420  23.172  1.00  0.00    -0.000 C 
BRANCH  18  19
ATOM     19  C   UNL     1      19.044 -34.384  24.306  1.00  0.00    -0.000 C 
BRANCH  19  20
ATOM     20  C   UNL     1      17.708 -34.261  25.057  1.00  0.00    -0.000 C 
BRANCH  20  21
ATOM     21  C   UNL     1      16.517 -34.782  24.238  1.00  0.00    -0.000 C 
BRANCH  21  22
ATOM     22  C   UNL     1      15.553 -33.639  23.885  1.00  0.00    -0.000 C 
BRANCH  22  23
ATOM     23  C   UNL     1      15.041 -33.720  22.437  1.00  0.00    -0.000 C 
BRANCH  23  24
ATOM     24  C   UNL     1      16.036 -34.411  21.493  1.00  0.00    -0.000 C 
BRANCH  24  25
ATOM     25  C   UNL     1      15.758 -34.033  20.033  1.00  0.00    -0.003 C 
ATOM     26  C   UNL     1      16.802 -34.636  19.097  1.00  0.00     0.004 C 
ENDBRANCH  24  25
ENDBRANCH  23  24
ENDBRANCH  22  23
ENDBRANCH  21  22
ENDBRANCH  20  21
ENDBRANCH  19  20
ENDBRANCH  18  19
ENDBRANCH  17  18
ENDBRANCH  16  17
ENDBRANCH  15  16
ENDBRANCH   1  15
TORSDOF 22
ENDMDL
