MODEL 1
REMARK VINA RESULT:    -6.036      0.000      0.000
REMARK INTER + INTRA:         -11.718
REMARK INTER:                 -10.977
REMARK INTRA:                  -0.741
REMARK UNBOUND:                -0.741
REMARK SMILES CCCCCCCCCCCCCCCC(=O)[O-]
REMARK SMILES IDX 9 1 10 2 11 3 12 4 13 5 14 6 15 7 16 8 17 9 18 10 8 11 7 12
REMARK SMILES IDX 6 13 5 14 4 15 3 16 2 17 1 18
REMARK H PARENT
REMARK Flexibility Score: inf
ROOT
ATOM      1  C   UNL     1       7.452 -29.430  23.905  1.00  0.00     0.000 C 
ENDROOT
BRANCH   1   2
ATOM      2  C   UNL     1       6.309 -30.305  24.429  1.00  0.00     0.000 C 
BRANCH   2   3
ATOM      3  C   UNL     1       5.811 -29.802  25.793  1.00  0.00     0.000 C 
BRANCH   3   4
ATOM      4  C   UNL     1       4.445 -29.094  25.695  1.00  0.00     0.000 C 
BRANCH   4   5
ATOM      5  C   UNL     1       3.665 -29.410  24.404  1.00  0.00     0.000 C 
BRANCH   5   6
ATOM      6  C   UNL     1       2.360 -28.601  24.238  1.00  0.00     0.006 C 
BRANCH   6   7
ATOM      7  C   UNL     1       1.444 -29.132  23.124  1.00  0.00     0.053 C 
BRANCH   7   8
ATOM      8  C   UNL     1       0.549 -30.226  23.617  1.00  0.00     0.041 C 
ATOM      9  O   UNL     1       0.248 -31.188  22.862  1.00  0.00    -0.550 OA
ATOM     10  O   UNL     1       0.065 -30.196  24.919  1.00  0.00    -0.550 OA
ENDBRANCH   7   8
ENDBRANCH   6   7
ENDBRANCH   5   6
ENDBRANCH   4   5
ENDBRANCH   3   4
ENDBRANCH   2   3
ENDBRANCH   1   2
BRANCH   1  11
ATOM     11  C   UNL     1       7.503 -29.452  22.370  1.00  0.00     0.000 C 
BRANCH  11  12
ATOM     12  C   UNL     1       8.936 -29.346  21.824  1.00  0.00    -0.000 C 
BRANCH  12  13
ATOM     13  C   UNL     1       9.533 -30.718  21.463  1.00  0.00    -0.000 C 
BRANCH  13  14
ATOM     14  C   UNL     1      11.066 -30.688  21.356  1.00  0.00    -0.000 C 
BRANCH  14  15
ATOM     15  C   UNL     1      11.679 -29.440  22.015  1.00  0.00    -0.000 C 
BRANCH  15  16
ATOM     16  C   UNL     1      12.205 -29.718  23.432  1.00  0.00    -0.000 C 
BRANCH  16  17
ATOM     17  C   UNL     1      13.531 -29.001  23.725  1.00  0.00    -0.003 C 
ATOM     18  C   UNL     1      13.775 -28.889  25.227  1.00  0.00     0.004 C 
ENDBRANCH  16  17
ENDBRANCH  15  16
ENDBRANCH  14  15
ENDBRANCH  13  14
ENDBRANCH  12  13
ENDBRANCH  11  12
ENDBRANCH   1  11
TORSDOF 14
ENDMDL
MODEL 2
REMARK VINA RESULT:    -5.999      3.723      8.588
REMARK INTER + INTRA:         -11.651
REMARK INTER:                 -10.459
REMARK INTRA:                  -1.192
REMARK UNBOUND:                -0.741
REMARK SMILES CCCCCCCCCCCCCCCC(=O)[O-]
REMARK SMILES IDX 9 1 10 2 11 3 12 4 13 5 14 6 15 7 16 8 17 9 18 10 8 11 7 12
REMARK SMILES IDX 6 13 5 14 4 15 3 16 2 17 1 18
REMARK H PARENT
REMARK Flexibility Score: inf
ROOT
ATOM      1  C   UNL     1       7.775 -30.266  22.131  1.00  0.00     0.000 C 
ENDROOT
BRANCH   1   2
ATOM      2  C   UNL     1       7.176 -31.662  21.926  1.00  0.00     0.000 C 
BRANCH   2   3
ATOM      3  C   UNL     1       8.082 -32.525  21.035  1.00  0.00     0.000 C 
BRANCH   3   4
ATOM      4  C   UNL     1       9.486 -31.913  20.858  1.00  0.00     0.000 C 
BRANCH   4   5
ATOM      5  C   UNL     1      10.640 -32.899  21.131  1.00  0.00     0.000 C 
BRANCH   5   6
ATOM      6  C   UNL     1      11.720 -32.358  22.093  1.00  0.00     0.006 C 
BRANCH   6   7
ATOM      7  C   UNL     1      11.512 -32.786  23.555  1.00  0.00     0.053 C 
BRANCH   7   8
ATOM      8  C   UNL     1      10.671 -31.800  24.305  1.00  0.00     0.041 C 
ATOM      9  O   UNL     1      11.033 -30.597  24.397  1.00  0.00    -0.550 OA
ATOM     10  O   UNL     1       9.475 -32.203  24.885  1.00  0.00    -0.550 OA
ENDBRANCH   7   8
ENDBRANCH   6   7
ENDBRANCH   5   6
ENDBRANCH   4   5
ENDBRANCH   3   4
ENDBRANCH   2   3
ENDBRANCH   1   2
BRANCH   1  11
ATOM     11  C   UNL     1       7.409 -29.707  23.514  1.00  0.00     0.000 C 
BRANCH  11  12
ATOM     12  C   UNL     1       6.068 -30.248  24.035  1.00  0.00    -0.000 C 
BRANCH  12  13
ATOM     13  C   UNL     1       5.709 -29.698  25.426  1.00  0.00    -0.000 C 
BRANCH  13  14
ATOM     14  C   UNL     1       4.311 -29.064  25.471  1.00  0.00    -0.000 C 
BRANCH  14  15
ATOM     15  C   UNL     1       3.497 -29.336  24.194  1.00  0.00    -0.000 C 
BRANCH  15  16
ATOM     16  C   UNL     1       2.147 -28.602  24.185  1.00  0.00    -0.000 C 
BRANCH  16  17
ATOM     17  C   UNL     1       1.210 -29.096  23.073  1.00  0.00    -0.003 C 
ATOM     18  C   UNL     1       0.828 -30.557  23.286  1.00  0.00     0.004 C 
ENDBRANCH  16  17
ENDBRANCH  15  16
ENDBRANCH  14  15
ENDBRANCH  13  14
ENDBRANCH  12  13
ENDBRANCH  11  12
ENDBRANCH   1  11
TORSDOF 14
ENDMDL
MODEL 3
REMARK VINA RESULT:    -5.961      3.918      6.391
REMARK INTER + INTRA:         -11.581
REMARK INTER:                  -9.155
REMARK INTRA:                  -2.426
REMARK UNBOUND:                -0.741
REMARK SMILES CCCCCCCCCCCCCCCC(=O)[O-]
REMARK SMILES IDX 9 1 10 2 11 3 12 4 13 5 14 6 15 7 16 8 17 9 18 10 8 11 7 12
REMARK SMILES IDX 6 13 5 14 4 15 3 16 2 17 1 18
REMARK H PARENT
REMARK Flexibility Score: inf
ROOT
ATOM      1  C   UNL     1      13.110 -32.391  22.482  1.00  0.00     0.000 C 
ENDROOT
BRANCH   1   2
ATOM      2  C   UNL     1      12.168 -32.390  21.274  1.00  0.00     0.000 C 
BRANCH   2   3
ATOM      3  C   UNL     1      10.847 -33.100  21.604  1.00  0.00     0.000 C 
BRANCH   3   4
ATOM      4  C   UNL     1       9.639 -32.452  20.898  1.00  0.00     0.000 C 
BRANCH   4   5
ATOM      5  C   UNL     1       8.780 -31.559  21.816  1.00  0.00     0.000 C 
BRANCH   5   6
ATOM      6  C   UNL     1       9.275 -30.100  21.922  1.00  0.00     0.006 C 
BRANCH   6   7
ATOM      7  C   UNL     1       8.185 -29.112  22.367  1.00  0.00     0.053 C 
BRANCH   7   8
ATOM      8  C   UNL     1       7.479 -29.585  23.601  1.00  0.00     0.041 C 
ATOM      9  O   UNL     1       8.067 -29.567  24.714  1.00  0.00    -0.550 OA
ATOM     10  O   UNL     1       6.164 -30.024  23.525  1.00  0.00    -0.550 OA
ENDBRANCH   7   8
ENDBRANCH   6   7
ENDBRANCH   5   6
ENDBRANCH   4   5
ENDBRANCH   3   4
ENDBRANCH   2   3
ENDBRANCH   1   2
BRANCH   1  11
ATOM     11  C   UNL     1      12.966 -31.095  23.294  1.00  0.00     0.000 C 
BRANCH  11  12
ATOM     12  C   UNL     1      12.601 -31.355  24.764  1.00  0.00    -0.000 C 
BRANCH  12  13
ATOM     13  C   UNL     1      11.083 -31.474  24.983  1.00  0.00    -0.000 C 
BRANCH  13  14
ATOM     14  C   UNL     1      10.637 -32.916  25.271  1.00  0.00    -0.000 C 
BRANCH  14  15
ATOM     15  C   UNL     1      11.815 -33.838  25.631  1.00  0.00    -0.000 C 
BRANCH  15  16
ATOM     16  C   UNL     1      11.902 -35.070  24.717  1.00  0.00    -0.000 C 
BRANCH  16  17
ATOM     17  C   UNL     1      13.347 -35.539  24.489  1.00  0.00    -0.003 C 
ATOM     18  C   UNL     1      14.338 -34.640  25.223  1.00  0.00     0.004 C 
ENDBRANCH  16  17
ENDBRANCH  15  16
ENDBRANCH  14  15
ENDBRANCH  13  14
ENDBRANCH  12  13
ENDBRANCH  11  12
ENDBRANCH   1  11
TORSDOF 14
ENDMDL
MODEL 4
REMARK VINA RESULT:    -5.902      4.954      6.768
REMARK INTER + INTRA:         -11.473
REMARK INTER:                  -9.572
REMARK INTRA:                  -1.901
REMARK UNBOUND:                -0.741
REMARK SMILES CCCCCCCCCCCCCCCC(=O)[O-]
REMARK SMILES IDX 9 1 10 2 11 3 12 4 13 5 14 6 15 7 16 8 17 9 18 10 8 11 7 12
REMARK SMILES IDX 6 13 5 14 4 15 3 16 2 17 1 18
REMARK H PARENT
REMARK Flexibility Score: inf
ROOT
ATOM      1  C   UNL     1       7.120 -29.940  23.941  1.00  0.00     0.000 C 
ENDROOT
BRANCH   1   2
ATOM      2  C   UNL     1       7.697 -29.019  22.861  1.00  0.00     0.000 C 
BRANCH   2   3
ATOM      3  C   UNL     1       8.065 -29.812  21.599  1.00  0.00     0.000 C 
BRANCH   3   4
ATOM      4  C   UNL     1       7.564 -31.269  21.654  1.00  0.00     0.000 C 
BRANCH   4   5
ATOM      5  C   UNL     1       8.504 -32.283  20.971  1.00  0.00     0.000 C 
BRANCH   5   6
ATOM      6  C   UNL     1       9.999 -32.083  21.304  1.00  0.00     0.006 C 
BRANCH   6   7
ATOM      7  C   UNL     1      10.804 -33.392  21.329  1.00  0.00     0.053 C 
BRANCH   7   8
ATOM      8  C   UNL     1      11.982 -33.301  22.248  1.00  0.00     0.041 C 
ATOM      9  O   UNL     1      11.926 -33.800  23.403  1.00  0.00    -0.550 OA
ATOM     10  O   UNL     1      13.151 -32.683  21.822  1.00  0.00    -0.550 OA
ENDBRANCH   7   8
ENDBRANCH   6   7
ENDBRANCH   5   6
ENDBRANCH   4   5
ENDBRANCH   3   4
ENDBRANCH   2   3
ENDBRANCH   1   2
BRANCH   1  11
ATOM     11  C   UNL     1       8.029 -29.976  25.179  1.00  0.00     0.000 C 
BRANCH  11  12
ATOM     12  C   UNL     1       8.479 -31.400  25.540  1.00  0.00    -0.000 C 
BRANCH  12  13
ATOM     13  C   UNL     1       9.963 -31.650  25.218  1.00  0.00    -0.000 C 
BRANCH  13  14
ATOM     14  C   UNL     1      10.623 -30.461  24.503  1.00  0.00    -0.000 C 
BRANCH  14  15
ATOM     15  C   UNL     1      12.159 -30.550  24.505  1.00  0.00    -0.000 C 
BRANCH  15  16
ATOM     16  C   UNL     1      12.804 -29.640  23.447  1.00  0.00    -0.000 C 
BRANCH  16  17
ATOM     17  C   UNL     1      14.006 -28.855  23.993  1.00  0.00    -0.003 C 
ATOM     18  C   UNL     1      13.883 -28.639  25.498  1.00  0.00     0.004 C 
ENDBRANCH  16  17
ENDBRANCH  15  16
ENDBRANCH  14  15
ENDBRANCH  13  14
ENDBRANCH  12  13
ENDBRANCH  11  12
ENDBRANCH   1  11
TORSDOF 14
ENDMDL
MODEL 5
REMARK VINA RESULT:    -5.889      1.669      2.448
REMARK INTER + INTRA:         -11.451
REMARK INTER:                  -9.735
REMARK INTRA:                  -1.716
REMARK UNBOUND:                -0.741
REMARK SMILES CCCCCCCCCCCCCCCC(=O)[O-]
REMARK SMILES IDX 9 1 10 2 11 3 12 4 13 5 14 6 15 7 16 8 17 9 18 10 8 11 7 12
REMARK SMILES IDX 6 13 5 14 4 15 3 16 2 17 1 18
REMARK H PARENT
REMARK Flexibility Score: inf
ROOT
ATOM      1  C   UNL     1       7.801 -30.068  22.006  1.00  0.00     0.000 C 
ENDROOT
BRANCH   1   2
ATOM      2  C   UNL     1       7.371 -29.438  23.335  1.00  0.00     0.000 C 
BRANCH   2   3
ATOM      3  C   UNL     1       6.204 -30.216  23.962  1.00  0.00     0.000 C 
BRANCH   3   4
ATOM      4  C   UNL     1       5.733 -29.597  25.293  1.00  0.00     0.000 C 
BRANCH   4   5
ATOM      5  C   UNL     1       4.246 -29.190  25.305  1.00  0.00     0.000 C 
BRANCH   5   6
ATOM      6  C   UNL     1       3.492 -29.510  23.996  1.00  0.00     0.006 C 
BRANCH   6   7
ATOM      7  C   UNL     1       2.081 -28.902  23.935  1.00  0.00     0.053 C 
BRANCH   7   8
ATOM      8  C   UNL     1       1.023 -29.929  24.195  1.00  0.00     0.041 C 
ATOM      9  O   UNL     1       0.398 -29.933  25.288  1.00  0.00    -0.550 OA
ATOM     10  O   UNL     1       0.711 -30.869  23.221  1.00  0.00    -0.550 OA
ENDBRANCH   7   8
ENDBRANCH   6   7
ENDBRANCH   5   6
ENDBRANCH   4   5
ENDBRANCH   3   4
ENDBRANCH   2   3
ENDBRANCH   1   2
BRANCH   1  11
ATOM     11  C   UNL     1       7.676 -31.598  22.056  1.00  0.00     0.000 C 
BRANCH  11  12
ATOM     12  C   UNL     1       8.410 -32.290  20.896  1.00  0.00    -0.000 C 
BRANCH  12  13
ATOM     13  C   UNL     1       9.926 -32.025  20.915  1.00  0.00    -0.000 C 
BRANCH  13  14
ATOM     14  C   UNL     1      10.719 -33.170  21.564  1.00  0.00    -0.000 C 
BRANCH  14  15
ATOM     15  C   UNL     1      11.298 -32.785  22.937  1.00  0.00    -0.000 C 
BRANCH  15  16
ATOM     16  C   UNL     1      11.253 -31.270  23.192  1.00  0.00    -0.000 C 
BRANCH  16  17
ATOM     17  C   UNL     1      10.510 -30.908  24.486  1.00  0.00    -0.003 C 
ATOM     18  C   UNL     1       9.752 -32.111  25.039  1.00  0.00     0.004 C 
ENDBRANCH  16  17
ENDBRANCH  15  16
ENDBRANCH  14  15
ENDBRANCH  13  14
ENDBRANCH  12  13
ENDBRANCH  11  12
ENDBRANCH   1  11
TORSDOF 14
ENDMDL
MODEL 6
REMARK VINA RESULT:    -5.798      4.716      8.915
REMARK INTER + INTRA:         -11.284
REMARK INTER:                 -10.074
REMARK INTRA:                  -1.210
REMARK UNBOUND:                -0.741
REMARK SMILES CCCCCCCCCCCCCCCC(=O)[O-]
REMARK SMILES IDX 9 1 10 2 11 3 12 4 13 5 14 6 15 7 16 8 17 9 18 10 8 11 7 12
REMARK SMILES IDX 6 13 5 14 4 15 3 16 2 17 1 18
REMARK H PARENT
REMARK Flexibility Score: inf
ROOT
ATOM      1  C   UNL     1       7.767 -31.449  21.502  1.00  0.00     0.000 C 
ENDROOT
BRANCH   1   2
ATOM      2  C   UNL     1       8.953 -31.805  20.598  1.00  0.00     0.000 C 
BRANCH   2   3
ATOM      3  C   UNL     1       9.950 -32.715  21.331  1.00  0.00     0.000 C 
BRANCH   3   4
ATOM      4  C   UNL     1      11.415 -32.343  21.029  1.00  0.00     0.000 C 
BRANCH   4   5
ATOM      5  C   UNL     1      12.328 -32.325  22.273  1.00  0.00     0.000 C 
BRANCH   5   6
ATOM      6  C   UNL     1      11.853 -31.373  23.392  1.00  0.00     0.006 C 
BRANCH   6   7
ATOM      7  C   UNL     1      12.138 -29.891  23.100  1.00  0.00     0.053 C 
BRANCH   7   8
ATOM      8  C   UNL     1      13.222 -29.351  23.980  1.00  0.00     0.041 C 
ATOM      9  O   UNL     1      14.082 -28.559  23.514  1.00  0.00    -0.550 OA
ATOM     10  O   UNL     1      13.269 -29.704  25.323  1.00  0.00    -0.550 OA
ENDBRANCH   7   8
ENDBRANCH   6   7
ENDBRANCH   5   6
ENDBRANCH   4   5
ENDBRANCH   3   4
ENDBRANCH   2   3
ENDBRANCH   1   2
BRANCH   1  11
ATOM     11  C   UNL     1       7.958 -30.066  22.141  1.00  0.00     0.000 C 
BRANCH  11  12
ATOM     12  C   UNL     1       8.301 -30.148  23.638  1.00  0.00    -0.000 C 
BRANCH  12  13
ATOM     13  C   UNL     1       7.171 -30.783  24.468  1.00  0.00    -0.000 C 
BRANCH  13  14
ATOM     14  C   UNL     1       5.808 -30.118  24.221  1.00  0.00    -0.000 C 
BRANCH  14  15
ATOM     15  C   UNL     1       5.248 -29.434  25.480  1.00  0.00    -0.000 C 
BRANCH  15  16
ATOM     16  C   UNL     1       3.782 -29.002  25.315  1.00  0.00    -0.000 C 
BRANCH  16  17
ATOM     17  C   UNL     1       3.193 -29.410  23.957  1.00  0.00    -0.003 C 
ATOM     18  C   UNL     1       1.950 -28.588  23.628  1.00  0.00     0.004 C 
ENDBRANCH  16  17
ENDBRANCH  15  16
ENDBRANCH  14  15
ENDBRANCH  13  14
ENDBRANCH  12  13
ENDBRANCH  11  12
ENDBRANCH   1  11
TORSDOF 14
ENDMDL
MODEL 7
REMARK VINA RESULT:    -5.783      4.955      8.108
REMARK INTER + INTRA:         -11.257
REMARK INTER:                  -9.260
REMARK INTRA:                  -1.997
REMARK UNBOUND:                -0.741
REMARK SMILES CCCCCCCCCCCCCCCC(=O)[O-]
REMARK SMILES IDX 9 1 10 2 11 3 12 4 13 5 14 6 15 7 16 8 17 9 18 10 8 11 7 12
REMARK SMILES IDX 6 13 5 14 4 15 3 16 2 17 1 18
REMARK H PARENT
REMARK Flexibility Score: inf
ROOT
ATOM      1  C   UNL     1      11.393 -31.592  21.060  1.00  0.00     0.000 C 
ENDROOT
BRANCH   1   2
ATOM      2  C   UNL     1      12.326 -32.528  21.837  1.00  0.00     0.000 C 
BRANCH   2   3
ATOM      3  C   UNL     1      11.524 -33.530  22.681  1.00  0.00     0.000 C 
BRANCH   3   4
ATOM      4  C   UNL     1      11.422 -33.104  24.159  1.00  0.00     0.000 C 
BRANCH   4   5
ATOM      5  C   UNL     1      10.389 -31.990  24.422  1.00  0.00     0.000 C 
BRANCH   5   6
ATOM      6  C   UNL     1      11.007 -30.648  24.872  1.00  0.00     0.006 C 
BRANCH   6   7
ATOM      7  C   UNL     1      12.541 -30.680  24.968  1.00  0.00     0.053 C 
BRANCH   7   8
ATOM      8  C   UNL     1      13.147 -29.368  24.576  1.00  0.00     0.041 C 
ATOM      9  O   UNL     1      13.679 -28.630  25.447  1.00  0.00    -0.550 OA
ATOM     10  O   UNL     1      13.147 -28.971  23.245  1.00  0.00    -0.550 OA
ENDBRANCH   7   8
ENDBRANCH   6   7
ENDBRANCH   5   6
ENDBRANCH   4   5
ENDBRANCH   3   4
ENDBRANCH   2   3
ENDBRANCH   1   2
BRANCH   1  11
ATOM     11  C   UNL     1      10.155 -32.345  20.553  1.00  0.00     0.000 C 
BRANCH  11  12
ATOM     12  C   UNL     1       8.839 -31.678  20.983  1.00  0.00    -0.000 C 
BRANCH  12  13
ATOM     13  C   UNL     1       9.013 -30.183  21.306  1.00  0.00    -0.000 C 
BRANCH  13  14
ATOM     14  C   UNL     1       7.848 -29.616  22.132  1.00  0.00    -0.000 C 
BRANCH  14  15
ATOM     15  C   UNL     1       7.216 -30.667  23.061  1.00  0.00    -0.000 C 
BRANCH  15  16
ATOM     16  C   UNL     1       6.019 -30.113  23.852  1.00  0.00    -0.000 C 
BRANCH  16  17
ATOM     17  C   UNL     1       6.275 -30.073  25.366  1.00  0.00    -0.003 C 
ATOM     18  C   UNL     1       7.545 -29.290  25.687  1.00  0.00     0.004 C 
ENDBRANCH  16  17
ENDBRANCH  15  16
ENDBRANCH  14  15
ENDBRANCH  13  14
ENDBRANCH  12  13
ENDBRANCH  11  12
ENDBRANCH   1  11
TORSDOF 14
ENDMDL
MODEL 8
REMARK VINA RESULT:    -5.724      4.603      9.114
REMARK INTER + INTRA:         -11.150
REMARK INTER:                 -10.056
REMARK INTRA:                  -1.095
REMARK UNBOUND:                -0.741
REMARK SMILES CCCCCCCCCCCCCCCC(=O)[O-]
REMARK SMILES IDX 9 1 10 2 11 3 12 4 13 5 14 6 15 7 16 8 17 9 18 10 8 11 7 12
REMARK SMILES IDX 6 13 5 14 4 15 3 16 2 17 1 18
REMARK H PARENT
REMARK Flexibility Score: inf
ROOT
ATOM      1  C   UNL     1       7.067 -30.347  22.976  1.00  0.00     0.000 C 
ENDROOT
BRANCH   1   2
ATOM      2  C   UNL     1       7.900 -29.259  22.290  1.00  0.00     0.000 C 
BRANCH   2   3
ATOM      3  C   UNL     1       9.267 -29.806  21.852  1.00  0.00     0.000 C 
BRANCH   3   4
ATOM      4  C   UNL     1       9.140 -31.004  20.891  1.00  0.00     0.000 C 
BRANCH   4   5
ATOM      5  C   UNL     1       9.969 -32.236  21.310  1.00  0.00     0.000 C 
BRANCH   5   6
ATOM      6  C   UNL     1      10.210 -32.349  22.831  1.00  0.00     0.006 C 
BRANCH   6   7
ATOM      7  C   UNL     1      11.528 -33.052  23.194  1.00  0.00     0.053 C 
BRANCH   7   8
ATOM      8  C   UNL     1      12.719 -32.256  22.758  1.00  0.00     0.041 C 
ATOM      9  O   UNL     1      13.615 -32.791  22.054  1.00  0.00    -0.550 OA
ATOM     10  O   UNL     1      12.827 -30.917  23.109  1.00  0.00    -0.550 OA
ENDBRANCH   7   8
ENDBRANCH   6   7
ENDBRANCH   5   6
ENDBRANCH   4   5
ENDBRANCH   3   4
ENDBRANCH   2   3
ENDBRANCH   1   2
BRANCH   1  11
ATOM     11  C   UNL     1       7.433 -30.467  24.463  1.00  0.00     0.000 C 
BRANCH  11  12
ATOM     12  C   UNL     1       6.504 -29.644  25.370  1.00  0.00    -0.000 C 
BRANCH  12  13
ATOM     13  C   UNL     1       5.040 -29.673  24.896  1.00  0.00    -0.000 C 
BRANCH  13  14
ATOM     14  C   UNL     1       4.101 -28.887  25.825  1.00  0.00    -0.000 C 
BRANCH  14  15
ATOM     15  C   UNL     1       2.640 -28.909  25.344  1.00  0.00    -0.000 C 
BRANCH  15  16
ATOM     16  C   UNL     1       2.517 -29.219  23.844  1.00  0.00    -0.000 C 
BRANCH  16  17
ATOM     17  C   UNL     1       1.358 -30.176  23.528  1.00  0.00    -0.003 C 
ATOM     18  C   UNL     1       0.238 -29.455  22.783  1.00  0.00     0.004 C 
ENDBRANCH  16  17
ENDBRANCH  15  16
ENDBRANCH  14  15
ENDBRANCH  13  14
ENDBRANCH  12  13
ENDBRANCH  11  12
ENDBRANCH   1  11
TORSDOF 14
ENDMDL
MODEL 9
REMARK VINA RESULT:    -5.678      3.320      5.598
REMARK INTER + INTRA:         -11.067
REMARK INTER:                  -9.014
REMARK INTRA:                  -2.053
REMARK UNBOUND:                -0.741
REMARK SMILES CCCCCCCCCCCCCCCC(=O)[O-]
REMARK SMILES IDX 9 1 10 2 11 3 12 4 13 5 14 6 15 7 16 8 17 9 18 10 8 11 7 12
REMARK SMILES IDX 6 13 5 14 4 15 3 16 2 17 1 18
REMARK H PARENT
REMARK Flexibility Score: inf
ROOT
ATOM      1  C   UNL     1      11.154 -30.515  21.251  1.00  0.00     0.000 C 
ENDROOT
BRANCH   1   2
ATOM      2  C   UNL     1      11.460 -32.007  21.419  1.00  0.00     0.000 C 
BRANCH   2   3
ATOM      3  C   UNL     1      10.188 -32.853  21.254  1.00  0.00     0.000 C 
BRANCH   3   4
ATOM      4  C   UNL     1       9.007 -32.035  20.694  1.00  0.00     0.000 C 
BRANCH   4   5
ATOM      5  C   UNL     1       7.758 -32.037  21.598  1.00  0.00     0.000 C 
BRANCH   5   6
ATOM      6  C   UNL     1       7.833 -31.050  22.783  1.00  0.00     0.006 C 
BRANCH   6   7
ATOM      7  C   UNL     1       6.574 -31.053  23.666  1.00  0.00     0.053 C 
BRANCH   7   8
ATOM      8  C   UNL     1       6.608 -29.953  24.682  1.00  0.00     0.041 C 
ATOM      9  O   UNL     1       7.696 -29.387  24.968  1.00  0.00    -0.550 OA
ATOM     10  O   UNL     1       5.434 -29.536  25.297  1.00  0.00    -0.550 OA
ENDBRANCH   7   8
ENDBRANCH   6   7
ENDBRANCH   5   6
ENDBRANCH   4   5
ENDBRANCH   3   4
ENDBRANCH   2   3
ENDBRANCH   1   2
BRANCH   1  11
ATOM     11  C   UNL     1      11.460 -29.741  22.541  1.00  0.00     0.000 C 
BRANCH  11  12
ATOM     12  C   UNL     1      12.683 -30.298  23.289  1.00  0.00    -0.000 C 
BRANCH  12  13
ATOM     13  C   UNL     1      12.401 -30.544  24.781  1.00  0.00    -0.000 C 
BRANCH  13  14
ATOM     14  C   UNL     1      11.152 -31.408  25.015  1.00  0.00    -0.000 C 
BRANCH  14  15
ATOM     15  C   UNL     1      11.489 -32.781  25.622  1.00  0.00    -0.000 C 
BRANCH  15  16
ATOM     16  C   UNL     1      11.449 -33.913  24.583  1.00  0.00    -0.000 C 
BRANCH  16  17
ATOM     17  C   UNL     1      12.753 -34.724  24.538  1.00  0.00    -0.003 C 
ATOM     18  C   UNL     1      13.924 -33.856  24.088  1.00  0.00     0.004 C 
ENDBRANCH  16  17
ENDBRANCH  15  16
ENDBRANCH  14  15
ENDBRANCH  13  14
ENDBRANCH  12  13
ENDBRANCH  11  12
ENDBRANCH   1  11
TORSDOF 14
ENDMDL
