MODEL 1
REMARK VINA RESULT:    -5.059      0.000      0.000
REMARK INTER + INTRA:         -10.787
REMARK INTER:                  -9.200
REMARK INTRA:                  -1.588
REMARK UNBOUND:                -1.588
REMARK SMILES CCCCCCCCCCCCCCCC(=O)[O-]
REMARK SMILES IDX 9 1 10 2 11 3 12 4 13 5 14 6 15 7 16 8 17 9 18 10 8 11 7 12
REMARK SMILES IDX 6 13 5 14 4 15 3 16 2 17 1 18
REMARK H PARENT
REMARK Flexibility Score: inf
ROOT
ATOM      1  C   UNL     1      25.043  11.073  31.505  1.00  0.00     0.000 C 
ENDROOT
BRANCH   1   2
ATOM      2  C   UNL     1      25.553  11.110  32.956  1.00  0.00     0.000 C 
BRANCH   2   3
ATOM      3  C   UNL     1      24.783  12.117  33.826  1.00  0.00     0.000 C 
BRANCH   3   4
ATOM      4  C   UNL     1      25.142  12.005  35.315  1.00  0.00     0.000 C 
BRANCH   4   5
ATOM      5  C   UNL     1      23.964  12.445  36.197  1.00  0.00     0.000 C 
BRANCH   5   6
ATOM      6  C   UNL     1      22.783  13.005  35.381  1.00  0.00     0.006 C 
BRANCH   6   7
ATOM      7  C   UNL     1      21.441  12.306  35.651  1.00  0.00     0.053 C 
BRANCH   7   8
ATOM      8  C   UNL     1      20.310  13.281  35.754  1.00  0.00     0.041 C 
ATOM      9  O   UNL     1      20.291  14.310  35.027  1.00  0.00    -0.550 OA
ATOM     10  O   UNL     1      19.292  13.073  36.676  1.00  0.00    -0.550 OA
ENDBRANCH   7   8
ENDBRANCH   6   7
ENDBRANCH   5   6
ENDBRANCH   4   5
ENDBRANCH   3   4
ENDBRANCH   2   3
ENDBRANCH   1   2
BRANCH   1  11
ATOM     11  C   UNL     1      26.158  10.752  30.496  1.00  0.00     0.000 C 
BRANCH  11  12
ATOM     12  C   UNL     1      27.564  10.996  31.070  1.00  0.00    -0.000 C 
BRANCH  12  13
ATOM     13  C   UNL     1      28.290  12.177  30.387  1.00  0.00    -0.000 C 
BRANCH  13  14
ATOM     14  C   UNL     1      28.915  13.174  31.379  1.00  0.00    -0.000 C 
BRANCH  14  15
ATOM     15  C   UNL     1      28.755  12.787  32.861  1.00  0.00    -0.000 C 
BRANCH  15  16
ATOM     16  C   UNL     1      28.046  13.866  33.711  1.00  0.00    -0.000 C 
BRANCH  16  17
ATOM     17  C   UNL     1      28.321  13.714  35.213  1.00  0.00    -0.003 C 
ATOM     18  C   UNL     1      27.494  14.704  36.028  1.00  0.00     0.004 C 
ENDBRANCH  16  17
ENDBRANCH  15  16
ENDBRANCH  14  15
ENDBRANCH  13  14
ENDBRANCH  12  13
ENDBRANCH  11  12
ENDBRANCH   1  11
TORSDOF 14
ENDMDL
MODEL 2
REMARK VINA RESULT:    -4.906      2.568      6.031
REMARK INTER + INTRA:         -10.509
REMARK INTER:                  -9.030
REMARK INTRA:                  -1.480
REMARK UNBOUND:                -1.588
REMARK SMILES CCCCCCCCCCCCCCCC(=O)[O-]
REMARK SMILES IDX 9 1 10 2 11 3 12 4 13 5 14 6 15 7 16 8 17 9 18 10 8 11 7 12
REMARK SMILES IDX 6 13 5 14 4 15 3 16 2 17 1 18
REMARK H PARENT
REMARK Flexibility Score: inf
ROOT
ATOM      1  C   UNL     1      25.821  10.451  31.656  1.00  0.00     0.000 C 
ENDROOT
BRANCH   1   2
ATOM      2  C   UNL     1      26.574  11.175  30.527  1.00  0.00     0.000 C 
BRANCH   2   3
ATOM      3  C   UNL     1      28.032  11.492  30.898  1.00  0.00     0.000 C 
BRANCH   3   4
ATOM      4  C   UNL     1      28.275  12.992  31.114  1.00  0.00     0.000 C 
BRANCH   4   5
ATOM      5  C   UNL     1      27.817  13.424  32.515  1.00  0.00     0.000 C 
BRANCH   5   6
ATOM      6  C   UNL     1      28.596  12.719  33.642  1.00  0.00     0.006 C 
BRANCH   6   7
ATOM      7  C   UNL     1      27.757  12.412  34.894  1.00  0.00     0.053 C 
BRANCH   7   8
ATOM      8  C   UNL     1      27.406  13.653  35.653  1.00  0.00     0.041 C 
ATOM      9  O   UNL     1      28.222  14.611  35.716  1.00  0.00    -0.550 OA
ATOM     10  O   UNL     1      26.190  13.741  36.320  1.00  0.00    -0.550 OA
ENDBRANCH   7   8
ENDBRANCH   6   7
ENDBRANCH   5   6
ENDBRANCH   4   5
ENDBRANCH   3   4
ENDBRANCH   2   3
ENDBRANCH   1   2
BRANCH   1  11
ATOM     11  C   UNL     1      24.348  10.880  31.752  1.00  0.00     0.000 C 
BRANCH  11  12
ATOM     12  C   UNL     1      24.170  12.223  32.480  1.00  0.00    -0.000 C 
BRANCH  12  13
ATOM     13  C   UNL     1      24.241  12.082  34.017  1.00  0.00    -0.000 C 
BRANCH  13  14
ATOM     14  C   UNL     1      23.129  12.845  34.759  1.00  0.00    -0.000 C 
BRANCH  14  15
ATOM     15  C   UNL     1      22.007  13.382  33.852  1.00  0.00    -0.000 C 
BRANCH  15  16
ATOM     16  C   UNL     1      20.841  14.035  34.628  1.00  0.00    -0.000 C 
BRANCH  16  17
ATOM     17  C   UNL     1      20.492  13.283  35.919  1.00  0.00    -0.003 C 
ATOM     18  C   UNL     1      19.003  13.393  36.237  1.00  0.00     0.004 C 
ENDBRANCH  16  17
ENDBRANCH  15  16
ENDBRANCH  14  15
ENDBRANCH  13  14
ENDBRANCH  12  13
ENDBRANCH  11  12
ENDBRANCH   1  11
TORSDOF 14
ENDMDL
MODEL 3
REMARK VINA RESULT:    -4.868      1.055      1.961
REMARK INTER + INTRA:         -10.439
REMARK INTER:                  -8.852
REMARK INTRA:                  -1.588
REMARK UNBOUND:                -1.588
REMARK SMILES CCCCCCCCCCCCCCCC(=O)[O-]
REMARK SMILES IDX 9 1 10 2 11 3 12 4 13 5 14 6 15 7 16 8 17 9 18 10 8 11 7 12
REMARK SMILES IDX 6 13 5 14 4 15 3 16 2 17 1 18
REMARK H PARENT
REMARK Flexibility Score: inf
ROOT
ATOM      1  C   UNL     1      26.383  10.878  29.987  1.00  0.00     0.000 C 
ENDROOT
BRANCH   1   2
ATOM      2  C   UNL     1      25.731  10.149  31.175  1.00  0.00     0.000 C 
BRANCH   2   3
ATOM      3  C   UNL     1      24.386  10.771  31.583  1.00  0.00     0.000 C 
BRANCH   3   4
ATOM      4  C   UNL     1      24.554  12.069  32.385  1.00  0.00     0.000 C 
BRANCH   4   5
ATOM      5  C   UNL     1      24.719  11.770  33.882  1.00  0.00     0.000 C 
BRANCH   5   6
ATOM      6  C   UNL     1      23.796  12.630  34.768  1.00  0.00     0.006 C 
BRANCH   6   7
ATOM      7  C   UNL     1      22.350  12.738  34.258  1.00  0.00     0.053 C 
BRANCH   7   8
ATOM      8  C   UNL     1      21.371  12.907  35.377  1.00  0.00     0.041 C 
ATOM      9  O   UNL     1      21.195  11.980  36.211  1.00  0.00    -0.550 OA
ATOM     10  O   UNL     1      20.625  14.075  35.480  1.00  0.00    -0.550 OA
ENDBRANCH   7   8
ENDBRANCH   6   7
ENDBRANCH   5   6
ENDBRANCH   4   5
ENDBRANCH   3   4
ENDBRANCH   2   3
ENDBRANCH   1   2
BRANCH   1  11
ATOM     11  C   UNL     1      27.817  11.340  30.294  1.00  0.00     0.000 C 
BRANCH  11  12
ATOM     12  C   UNL     1      27.937  12.870  30.392  1.00  0.00    -0.000 C 
BRANCH  12  13
ATOM     13  C   UNL     1      28.857  13.323  31.548  1.00  0.00    -0.000 C 
BRANCH  13  14
ATOM     14  C   UNL     1      28.148  13.387  32.913  1.00  0.00    -0.000 C 
BRANCH  14  15
ATOM     15  C   UNL     1      28.469  12.213  33.856  1.00  0.00    -0.000 C 
BRANCH  15  16
ATOM     16  C   UNL     1      28.048  12.462  35.322  1.00  0.00    -0.000 C 
BRANCH  16  17
ATOM     17  C   UNL     1      27.203  13.731  35.489  1.00  0.00    -0.003 C 
ATOM     18  C   UNL     1      28.046  14.891  36.012  1.00  0.00     0.004 C 
ENDBRANCH  16  17
ENDBRANCH  15  16
ENDBRANCH  14  15
ENDBRANCH  13  14
ENDBRANCH  12  13
ENDBRANCH  11  12
ENDBRANCH   1  11
TORSDOF 14
ENDMDL
MODEL 4
REMARK VINA RESULT:    -4.805      2.627      6.832
REMARK INTER + INTRA:         -10.324
REMARK INTER:                  -9.100
REMARK INTRA:                  -1.225
REMARK UNBOUND:                -1.588
REMARK SMILES CCCCCCCCCCCCCCCC(=O)[O-]
REMARK SMILES IDX 9 1 10 2 11 3 12 4 13 5 14 6 15 7 16 8 17 9 18 10 8 11 7 12
REMARK SMILES IDX 6 13 5 14 4 15 3 16 2 17 1 18
REMARK H PARENT
REMARK Flexibility Score: inf
ROOT
ATOM      1  C   UNL     1      24.988  12.000  32.029  1.00  0.00     0.000 C 
ENDROOT
BRANCH   1   2
ATOM      2  C   UNL     1      25.848  10.728  31.926  1.00  0.00     0.000 C 
BRANCH   2   3
ATOM      3  C   UNL     1      27.280  11.021  31.449  1.00  0.00     0.000 C 
BRANCH   3   4
ATOM      4  C   UNL     1      27.441  12.445  30.899  1.00  0.00     0.000 C 
BRANCH   4   5
ATOM      5  C   UNL     1      28.644  13.148  31.543  1.00  0.00     0.000 C 
BRANCH   5   6
ATOM      6  C   UNL     1      28.697  12.964  33.072  1.00  0.00     0.006 C 
BRANCH   6   7
ATOM      7  C   UNL     1      27.714  13.854  33.850  1.00  0.00     0.053 C 
BRANCH   7   8
ATOM      8  C   UNL     1      27.176  13.167  35.066  1.00  0.00     0.041 C 
ATOM      9  O   UNL     1      27.137  11.910  35.119  1.00  0.00    -0.550 OA
ATOM     10  O   UNL     1      26.685  13.916  36.129  1.00  0.00    -0.550 OA
ENDBRANCH   7   8
ENDBRANCH   6   7
ENDBRANCH   5   6
ENDBRANCH   4   5
ENDBRANCH   3   4
ENDBRANCH   2   3
ENDBRANCH   1   2
BRANCH   1  11
ATOM     11  C   UNL     1      24.172  12.056  33.330  1.00  0.00     0.000 C 
BRANCH  11  12
ATOM     12  C   UNL     1      22.690  12.388  33.086  1.00  0.00    -0.000 C 
BRANCH  12  13
ATOM     13  C   UNL     1      22.113  13.351  34.147  1.00  0.00    -0.000 C 
BRANCH  13  14
ATOM     14  C   UNL     1      22.006  12.730  35.552  1.00  0.00    -0.000 C 
BRANCH  14  15
ATOM     15  C   UNL     1      20.589  12.270  35.941  1.00  0.00    -0.000 C 
BRANCH  15  16
ATOM     16  C   UNL     1      19.578  13.430  36.086  1.00  0.00    -0.000 C 
BRANCH  16  17
ATOM     17  C   UNL     1      18.303  13.017  36.832  1.00  0.00    -0.003 C 
ATOM     18  C   UNL     1      18.388  11.570  37.312  1.00  0.00     0.004 C 
ENDBRANCH  16  17
ENDBRANCH  15  16
ENDBRANCH  14  15
ENDBRANCH  13  14
ENDBRANCH  12  13
ENDBRANCH  11  12
ENDBRANCH   1  11
TORSDOF 14
ENDMDL
MODEL 5
REMARK VINA RESULT:    -4.801      2.406      3.233
REMARK INTER + INTRA:         -10.317
REMARK INTER:                  -8.425
REMARK INTRA:                  -1.892
REMARK UNBOUND:                -1.588
REMARK SMILES CCCCCCCCCCCCCCCC(=O)[O-]
REMARK SMILES IDX 9 1 10 2 11 3 12 4 13 5 14 6 15 7 16 8 17 9 18 10 8 11 7 12
REMARK SMILES IDX 6 13 5 14 4 15 3 16 2 17 1 18
REMARK H PARENT
REMARK Flexibility Score: inf
ROOT
ATOM      1  C   UNL     1      24.937   8.944  30.305  1.00  0.00     0.000 C 
ENDROOT
BRANCH   1   2
ATOM      2  C   UNL     1      23.530   9.536  30.116  1.00  0.00     0.000 C 
BRANCH   2   3
ATOM      3  C   UNL     1      23.021  10.263  31.371  1.00  0.00     0.000 C 
BRANCH   3   4
ATOM      4  C   UNL     1      22.503  11.676  31.065  1.00  0.00     0.000 C 
BRANCH   4   5
ATOM      5  C   UNL     1      22.872  12.651  32.193  1.00  0.00     0.000 C 
BRANCH   5   6
ATOM      6  C   UNL     1      23.653  11.974  33.336  1.00  0.00     0.006 C 
BRANCH   6   7
ATOM      7  C   UNL     1      23.543  12.694  34.690  1.00  0.00     0.053 C 
BRANCH   7   8
ATOM      8  C   UNL     1      24.713  12.406  35.577  1.00  0.00     0.041 C 
ATOM      9  O   UNL     1      25.583  11.565  35.226  1.00  0.00    -0.550 OA
ATOM     10  O   UNL     1      24.827  13.041  36.807  1.00  0.00    -0.550 OA
ENDBRANCH   7   8
ENDBRANCH   6   7
ENDBRANCH   5   6
ENDBRANCH   4   5
ENDBRANCH   3   4
ENDBRANCH   2   3
ENDBRANCH   1   2
BRANCH   1  11
ATOM     11  C   UNL     1      25.894   9.914  31.017  1.00  0.00     0.000 C 
BRANCH  11  12
ATOM     12  C   UNL     1      26.583  10.886  30.043  1.00  0.00    -0.000 C 
BRANCH  12  13
ATOM     13  C   UNL     1      26.516  12.354  30.520  1.00  0.00    -0.000 C 
BRANCH  13  14
ATOM     14  C   UNL     1      26.776  12.527  32.028  1.00  0.00    -0.000 C 
BRANCH  14  15
ATOM     15  C   UNL     1      28.211  12.958  32.383  1.00  0.00    -0.000 C 
BRANCH  15  16
ATOM     16  C   UNL     1      28.437  13.172  33.897  1.00  0.00    -0.000 C 
BRANCH  16  17
ATOM     17  C   UNL     1      27.737  14.430  34.429  1.00  0.00    -0.003 C 
ATOM     18  C   UNL     1      27.952  14.586  35.933  1.00  0.00     0.004 C 
ENDBRANCH  16  17
ENDBRANCH  15  16
ENDBRANCH  14  15
ENDBRANCH  13  14
ENDBRANCH  12  13
ENDBRANCH  11  12
ENDBRANCH   1  11
TORSDOF 14
ENDMDL
MODEL 6
REMARK VINA RESULT:    -4.767      2.898      7.050
REMARK INTER + INTRA:         -10.256
REMARK INTER:                  -8.805
REMARK INTRA:                  -1.452
REMARK UNBOUND:                -1.588
REMARK SMILES CCCCCCCCCCCCCCCC(=O)[O-]
REMARK SMILES IDX 9 1 10 2 11 3 12 4 13 5 14 6 15 7 16 8 17 9 18 10 8 11 7 12
REMARK SMILES IDX 6 13 5 14 4 15 3 16 2 17 1 18
REMARK H PARENT
REMARK Flexibility Score: inf
ROOT
ATOM      1  C   UNL     1      24.684  12.312  35.868  1.00  0.00     0.000 C 
ENDROOT
BRANCH   1   2
ATOM      2  C   UNL     1      25.605  12.031  34.668  1.00  0.00     0.000 C 
BRANCH   2   3
ATOM      3  C   UNL     1      27.066  11.803  35.086  1.00  0.00     0.000 C 
BRANCH   3   4
ATOM      4  C   UNL     1      27.880  13.104  35.127  1.00  0.00     0.000 C 
BRANCH   4   5
ATOM      5  C   UNL     1      27.881  13.793  33.755  1.00  0.00     0.000 C 
BRANCH   5   6
ATOM      6  C   UNL     1      28.726  13.041  32.709  1.00  0.00     0.006 C 
BRANCH   6   7
ATOM      7  C   UNL     1      28.094  12.981  31.310  1.00  0.00     0.053 C 
BRANCH   7   8
ATOM      8  C   UNL     1      26.943  12.025  31.253  1.00  0.00     0.041 C 
ATOM      9  O   UNL     1      27.120  10.804  31.509  1.00  0.00    -0.550 OA
ATOM     10  O   UNL     1      25.682  12.475  30.883  1.00  0.00    -0.550 OA
ENDBRANCH   7   8
ENDBRANCH   6   7
ENDBRANCH   5   6
ENDBRANCH   4   5
ENDBRANCH   3   4
ENDBRANCH   2   3
ENDBRANCH   1   2
BRANCH   1  11
ATOM     11  C   UNL     1      23.276  12.757  35.439  1.00  0.00     0.000 C 
BRANCH  11  12
ATOM     12  C   UNL     1      22.947  12.364  33.989  1.00  0.00    -0.000 C 
BRANCH  12  13
ATOM     13  C   UNL     1      21.979  13.357  33.307  1.00  0.00    -0.000 C 
BRANCH  13  14
ATOM     14  C   UNL     1      21.136  14.178  34.300  1.00  0.00    -0.000 C 
BRANCH  14  15
ATOM     15  C   UNL     1      19.753  13.579  34.612  1.00  0.00    -0.000 C 
BRANCH  15  16
ATOM     16  C   UNL     1      19.381  13.622  36.112  1.00  0.00    -0.000 C 
BRANCH  16  17
ATOM     17  C   UNL     1      19.042  12.238  36.680  1.00  0.00    -0.003 C 
ATOM     18  C   UNL     1      19.963  11.165  36.105  1.00  0.00     0.004 C 
ENDBRANCH  16  17
ENDBRANCH  15  16
ENDBRANCH  14  15
ENDBRANCH  13  14
ENDBRANCH  12  13
ENDBRANCH  11  12
ENDBRANCH   1  11
TORSDOF 14
ENDMDL
MODEL 7
REMARK VINA RESULT:    -4.721     15.476     17.582
REMARK INTER + INTRA:         -10.173
REMARK INTER:                  -8.648
REMARK INTRA:                  -1.526
REMARK UNBOUND:                -1.588
REMARK SMILES CCCCCCCCCCCCCCCC(=O)[O-]
REMARK SMILES IDX 9 1 10 2 11 3 12 4 13 5 14 6 15 7 16 8 17 9 18 10 8 11 7 12
REMARK SMILES IDX 6 13 5 14 4 15 3 16 2 17 1 18
REMARK H PARENT
REMARK Flexibility Score: inf
ROOT
ATOM      1  C   UNL     1      29.944   8.460  49.762  1.00  0.00     0.000 C 
ENDROOT
BRANCH   1   2
ATOM      2  C   UNL     1      29.659   6.960  49.943  1.00  0.00     0.000 C 
BRANCH   2   3
ATOM      3  C   UNL     1      29.619   6.201  48.606  1.00  0.00     0.000 C 
BRANCH   3   4
ATOM      4  C   UNL     1      30.956   5.526  48.270  1.00  0.00     0.000 C 
BRANCH   4   5
ATOM      5  C   UNL     1      31.700   6.300  47.172  1.00  0.00     0.000 C 
BRANCH   5   6
ATOM      6  C   UNL     1      33.180   6.554  47.518  1.00  0.00     0.006 C 
BRANCH   6   7
ATOM      7  C   UNL     1      34.163   6.193  46.392  1.00  0.00     0.053 C 
BRANCH   7   8
ATOM      8  C   UNL     1      34.936   4.948  46.698  1.00  0.00     0.041 C 
ATOM      9  O   UNL     1      35.094   4.577  47.891  1.00  0.00    -0.550 OA
ATOM     10  O   UNL     1      35.512   4.215  45.667  1.00  0.00    -0.550 OA
ENDBRANCH   7   8
ENDBRANCH   6   7
ENDBRANCH   5   6
ENDBRANCH   4   5
ENDBRANCH   3   4
ENDBRANCH   2   3
ENDBRANCH   1   2
BRANCH   1  11
ATOM     11  C   UNL     1      31.430   8.805  49.951  1.00  0.00     0.000 C 
BRANCH  11  12
ATOM     12  C   UNL     1      31.934   9.837  48.928  1.00  0.00    -0.000 C 
BRANCH  12  13
ATOM     13  C   UNL     1      33.035  10.756  49.502  1.00  0.00    -0.000 C 
BRANCH  13  14
ATOM     14  C   UNL     1      34.143  11.100  48.489  1.00  0.00    -0.000 C 
BRANCH  14  15
ATOM     15  C   UNL     1      34.311  10.073  47.354  1.00  0.00    -0.000 C 
BRANCH  15  16
ATOM     16  C   UNL     1      35.163  10.588  46.173  1.00  0.00    -0.000 C 
BRANCH  16  17
ATOM     17  C   UNL     1      34.473  10.399  44.815  1.00  0.00    -0.003 C 
ATOM     18  C   UNL     1      34.652   8.974  44.298  1.00  0.00     0.004 C 
ENDBRANCH  16  17
ENDBRANCH  15  16
ENDBRANCH  14  15
ENDBRANCH  13  14
ENDBRANCH  12  13
ENDBRANCH  11  12
ENDBRANCH   1  11
TORSDOF 14
ENDMDL
MODEL 8
REMARK VINA RESULT:    -4.716      1.202      3.301
REMARK INTER + INTRA:         -10.163
REMARK INTER:                  -8.415
REMARK INTRA:                  -1.748
REMARK UNBOUND:                -1.588
REMARK SMILES CCCCCCCCCCCCCCCC(=O)[O-]
REMARK SMILES IDX 9 1 10 2 11 3 12 4 13 5 14 6 15 7 16 8 17 9 18 10 8 11 7 12
REMARK SMILES IDX 6 13 5 14 4 15 3 16 2 17 1 18
REMARK H PARENT
REMARK Flexibility Score: inf
ROOT
ATOM      1  C   UNL     1      27.258  13.482  35.263  1.00  0.00     0.000 C 
ENDROOT
BRANCH   1   2
ATOM      2  C   UNL     1      26.867  12.009  35.052  1.00  0.00     0.000 C 
BRANCH   2   3
ATOM      3  C   UNL     1      25.344  11.804  35.002  1.00  0.00     0.000 C 
BRANCH   3   4
ATOM      4  C   UNL     1      24.625  12.423  36.209  1.00  0.00     0.000 C 
BRANCH   4   5
ATOM      5  C   UNL     1      23.116  12.538  35.947  1.00  0.00     0.000 C 
BRANCH   5   6
ATOM      6  C   UNL     1      22.791  12.997  34.513  1.00  0.00     0.006 C 
BRANCH   6   7
ATOM      7  C   UNL     1      21.301  12.910  34.143  1.00  0.00     0.053 C 
BRANCH   7   8
ATOM      8  C   UNL     1      20.514  14.050  34.711  1.00  0.00     0.041 C 
ATOM      9  O   UNL     1      20.545  15.180  34.158  1.00  0.00    -0.550 OA
ATOM     10  O   UNL     1      19.771  13.872  35.872  1.00  0.00    -0.550 OA
ENDBRANCH   7   8
ENDBRANCH   6   7
ENDBRANCH   5   6
ENDBRANCH   4   5
ENDBRANCH   3   4
ENDBRANCH   2   3
ENDBRANCH   1   2
BRANCH   1  11
ATOM     11  C   UNL     1      27.978  14.081  34.044  1.00  0.00     0.000 C 
BRANCH  11  12
ATOM     12  C   UNL     1      28.731  13.022  33.222  1.00  0.00    -0.000 C 
BRANCH  12  13
ATOM     13  C   UNL     1      28.282  12.985  31.743  1.00  0.00    -0.000 C 
BRANCH  13  14
ATOM     14  C   UNL     1      28.034  11.562  31.209  1.00  0.00    -0.000 C 
BRANCH  14  15
ATOM     15  C   UNL     1      26.636  10.997  31.519  1.00  0.00    -0.000 C 
BRANCH  15  16
ATOM     16  C   UNL     1      25.514  11.605  30.647  1.00  0.00    -0.000 C 
BRANCH  16  17
ATOM     17  C   UNL     1      24.624  12.586  31.423  1.00  0.00    -0.003 C 
ATOM     18  C   UNL     1      23.247  12.711  30.777  1.00  0.00     0.004 C 
ENDBRANCH  16  17
ENDBRANCH  15  16
ENDBRANCH  14  15
ENDBRANCH  13  14
ENDBRANCH  12  13
ENDBRANCH  11  12
ENDBRANCH   1  11
TORSDOF 14
ENDMDL
MODEL 9
REMARK VINA RESULT:    -4.667      2.338      5.099
REMARK INTER + INTRA:         -10.074
REMARK INTER:                  -8.286
REMARK INTRA:                  -1.789
REMARK UNBOUND:                -1.588
REMARK SMILES CCCCCCCCCCCCCCCC(=O)[O-]
REMARK SMILES IDX 9 1 10 2 11 3 12 4 13 5 14 6 15 7 16 8 17 9 18 10 8 11 7 12
REMARK SMILES IDX 6 13 5 14 4 15 3 16 2 17 1 18
REMARK H PARENT
REMARK Flexibility Score: inf
ROOT
ATOM      1  C   UNL     1      28.629  13.138  32.964  1.00  0.00     0.000 C 
ENDROOT
BRANCH   1   2
ATOM      2  C   UNL     1      27.801  12.985  31.676  1.00  0.00     0.000 C 
BRANCH   2   3
ATOM      3  C   UNL     1      27.856  11.559  31.104  1.00  0.00     0.000 C 
BRANCH   3   4
ATOM      4  C   UNL     1      26.620  10.727  31.472  1.00  0.00     0.000 C 
BRANCH   4   5
ATOM      5  C   UNL     1      25.346  11.582  31.411  1.00  0.00     0.000 C 
BRANCH   5   6
ATOM      6  C   UNL     1      24.100  10.837  31.927  1.00  0.00     0.006 C 
BRANCH   6   7
ATOM      7  C   UNL     1      23.222  10.231  30.821  1.00  0.00     0.053 C 
BRANCH   7   8
ATOM      8  C   UNL     1      21.827   9.963  31.293  1.00  0.00     0.041 C 
ATOM      9  O   UNL     1      21.216   8.930  30.912  1.00  0.00    -0.550 OA
ATOM     10  O   UNL     1      21.188  10.872  32.127  1.00  0.00    -0.550 OA
ENDBRANCH   7   8
ENDBRANCH   6   7
ENDBRANCH   5   6
ENDBRANCH   4   5
ENDBRANCH   3   4
ENDBRANCH   2   3
ENDBRANCH   1   2
BRANCH   1  11
ATOM     11  C   UNL     1      27.978  14.099  33.972  1.00  0.00     0.000 C 
BRANCH  11  12
ATOM     12  C   UNL     1      27.596  13.403  35.290  1.00  0.00    -0.000 C 
BRANCH  12  13
ATOM     13  C   UNL     1      27.429  11.875  35.131  1.00  0.00    -0.000 C 
BRANCH  13  14
ATOM     14  C   UNL     1      25.961  11.415  35.097  1.00  0.00    -0.000 C 
BRANCH  14  15
ATOM     15  C   UNL     1      24.983  12.341  35.843  1.00  0.00    -0.000 C 
BRANCH  15  16
ATOM     16  C   UNL     1      23.844  12.887  34.953  1.00  0.00    -0.000 C 
BRANCH  16  17
ATOM     17  C   UNL     1      22.453  12.643  35.553  1.00  0.00    -0.003 C 
ATOM     18  C   UNL     1      21.380  13.420  34.795  1.00  0.00     0.004 C 
ENDBRANCH  16  17
ENDBRANCH  15  16
ENDBRANCH  14  15
ENDBRANCH  13  14
ENDBRANCH  12  13
ENDBRANCH  11  12
ENDBRANCH   1  11
TORSDOF 14
ENDMDL
