MODEL 1
REMARK VINA RESULT:    -3.448      0.000      0.000
REMARK INTER + INTRA:          -4.178
REMARK INTER:                  -5.665
REMARK INTRA:                   1.487
REMARK UNBOUND:                 1.487
REMARK SMILES C[C@H]1O[C@H](OC[C@@H]2O[C@@H](Oc3c(-c4ccc(O)c(O)c4)oc4cc(O)cc(O)c4c3=O)[C@H](O)[C@H](O)[C@H]2O)[C@H](O)[C@@H](O)[C@H]1O
REMARK SMILES IDX 7 1 36 2 34 3 32 4 9 5 8 6 6 7 5 8 4 9 1 10 2 11 42 12 3 13
REMARK SMILES IDX 40 14 38 15 43 16 41 18 39 20 37 22 35 24 10 26 11 27 12 28
REMARK SMILES IDX 30 29 21 30 29 31 31 32 22 33 27 34 23 35 26 36 24 37 13 38
REMARK SMILES IDX 20 39 14 40 18 41 15 42 16 43 19 44 17 46 28 48 25 50 33 52
REMARK H PARENT 43 17 41 19 39 21 37 23 35 25 19 45 17 47 28 49 25 51 33 53
REMARK Flexibility Score: inf
ROOT
ATOM      1  C   UNL     1      10.291  13.093  -2.098  1.00  0.00     0.180 C 
ATOM      2  C   UNL     1       9.100  13.447  -1.167  1.00  0.00     0.177 C 
ATOM      3  C   UNL     1       8.469  12.166  -0.601  1.00  0.00     0.180 C 
ATOM      4  C   UNL     1       8.174  11.166  -1.736  1.00  0.00     0.214 C 
ATOM      5  C   UNL     1       9.432  10.965  -2.594  1.00  0.00     0.339 C 
ATOM      6  O   UNL     1       9.889  12.197  -3.123  1.00  0.00    -0.332 OA
ENDROOT
BRANCH   1   7
ATOM      7  C   UNL     1      10.874  14.344  -2.766  1.00  0.00     0.198 C 
BRANCH   7   8
ATOM      8  O   UNL     1      10.732  15.451  -1.905  1.00  0.00    -0.347 OA
BRANCH   8   9
ATOM      9  C   UNL     1      11.709  16.446  -2.176  1.00  0.00     0.281 C 
ATOM     10  C   UNL     1      11.628  18.125   1.109  1.00  0.00     0.041 C 
ATOM     11  C   UNL     1      11.863  16.994   0.105  1.00  0.00     0.150 C 
ATOM     12  C   UNL     1      13.287  16.398   0.250  1.00  0.00     0.174 C 
ATOM     13  O   UNL     1      11.645  17.488  -1.210  1.00  0.00    -0.344 OA
ATOM     14  C   UNL     1      13.510  15.301  -0.809  1.00  0.00     0.179 C 
ATOM     15  C   UNL     1      13.111  15.804  -2.211  1.00  0.00     0.202 C 
BRANCH  12  16
ATOM     16  O   UNL     1      14.287  17.387   0.174  1.00  0.00    -0.388 OA
ATOM     17  H   UNL     1      13.892  18.252   0.452  1.00  0.00     0.211 HD
ENDBRANCH  12  16
BRANCH  14  18
ATOM     18  O   UNL     1      14.860  14.905  -0.800  1.00  0.00    -0.387 OA
ATOM     19  H   UNL     1      14.914  14.064  -0.276  1.00  0.00     0.211 HD
ENDBRANCH  14  18
BRANCH  15  20
ATOM     20  O   UNL     1      13.103  14.738  -3.124  1.00  0.00    -0.385 OA
ATOM     21  H   UNL     1      14.037  14.404  -3.194  1.00  0.00     0.211 HD
ENDBRANCH  15  20
ENDBRANCH   8   9
ENDBRANCH   7   8
ENDBRANCH   1   7
BRANCH   2  22
ATOM     22  O   UNL     1       9.541  14.243  -0.098  1.00  0.00    -0.387 OA
ATOM     23  H   UNL     1       9.418  13.716   0.735  1.00  0.00     0.211 HD
ENDBRANCH   2  22
BRANCH   3  24
ATOM     24  O   UNL     1       7.290  12.492   0.085  1.00  0.00    -0.387 OA
ATOM     25  H   UNL     1       6.831  13.192  -0.451  1.00  0.00     0.211 HD
ENDBRANCH   3  24
BRANCH   5  26
ATOM     26  O   UNL     1      10.465  10.322  -1.840  1.00  0.00    -0.454 OA
BRANCH  26  27
ATOM     27  C   UNL     1      10.860   9.001  -2.070  1.00  0.00     0.214 A 
ATOM     28  C   UNL     1      12.171   8.680  -2.484  1.00  0.00     0.180 A 
ATOM     29  C   UNL     1       9.933   7.969  -1.895  1.00  0.00     0.239 A 
ATOM     30  O   UNL     1      12.485   7.417  -2.756  1.00  0.00    -0.452 OA
ATOM     31  C   UNL     1      10.303   6.641  -2.184  1.00  0.00     0.111 A 
ATOM     32  O   UNL     1       8.771   8.251  -1.497  1.00  0.00    -0.285 OA
ATOM     33  C   UNL     1      11.627   6.410  -2.630  1.00  0.00     0.146 A 
ATOM     34  C   UNL     1       9.417   5.545  -2.063  1.00  0.00     0.134 A 
ATOM     35  C   UNL     1      12.051   5.114  -2.941  1.00  0.00     0.094 A 
ATOM     36  C   UNL     1       9.861   4.252  -2.377  1.00  0.00     0.093 A 
ATOM     37  C   UNL     1      11.170   4.035  -2.816  1.00  0.00     0.123 A 
BRANCH  28  38
ATOM     38  C   UNL     1      13.225   9.709  -2.640  1.00  0.00     0.025 A 
ATOM     39  C   UNL     1      14.583   9.358  -2.765  1.00  0.00     0.062 A 
ATOM     40  C   UNL     1      12.866  11.066  -2.673  1.00  0.00     0.016 A 
ATOM     41  C   UNL     1      15.570  10.348  -2.859  1.00  0.00     0.158 A 
ATOM     42  C   UNL     1      13.848  12.054  -2.780  1.00  0.00     0.051 A 
ATOM     43  C   UNL     1      15.200  11.703  -2.865  1.00  0.00     0.157 A 
BRANCH  41  44
ATOM     44  O   UNL     1      16.914   9.989  -2.946  1.00  0.00    -0.504 OA
ATOM     45  H   UNL     1      17.325   9.319  -2.307  1.00  0.00     0.293 HD
ENDBRANCH  41  44
BRANCH  43  46
ATOM     46  O   UNL     1      16.159  12.713  -2.953  1.00  0.00    -0.504 OA
ATOM     47  H   UNL     1      15.907  13.693  -2.997  1.00  0.00     0.293 HD
ENDBRANCH  43  46
ENDBRANCH  28  38
BRANCH  34  48
ATOM     48  O   UNL     1       8.101   5.729  -1.633  1.00  0.00    -0.507 OA
ATOM     49  H   UNL     1       7.877   5.873  -0.655  1.00  0.00     0.293 HD
ENDBRANCH  34  48
BRANCH  37  50
ATOM     50  O   UNL     1      11.585   2.742  -3.123  1.00  0.00    -0.508 OA
ATOM     51  H   UNL     1      12.561   2.527  -3.297  1.00  0.00     0.293 HD
ENDBRANCH  37  50
ENDBRANCH  26  27
ENDBRANCH   5  26
BRANCH   4  52
ATOM     52  O   UNL     1       7.139  11.652  -2.553  1.00  0.00    -0.384 OA
ATOM     53  H   UNL     1       7.276  12.629  -2.650  1.00  0.00     0.211 HD
ENDBRANCH   4  52
TORSDOF 16
ENDMDL
MODEL 2
REMARK VINA RESULT:    -3.035      2.220      9.316
REMARK INTER + INTRA:          -3.500
REMARK INTER:                  -1.639
REMARK INTRA:                  -1.861
REMARK UNBOUND:                 1.487
REMARK SMILES C[C@H]1O[C@H](OC[C@@H]2O[C@@H](Oc3c(-c4ccc(O)c(O)c4)oc4cc(O)cc(O)c4c3=O)[C@H](O)[C@H](O)[C@H]2O)[C@H](O)[C@@H](O)[C@H]1O
REMARK SMILES IDX 7 1 36 2 34 3 32 4 9 5 8 6 6 7 5 8 4 9 1 10 2 11 42 12 3 13
REMARK SMILES IDX 40 14 38 15 43 16 41 18 39 20 37 22 35 24 10 26 11 27 12 28
REMARK SMILES IDX 30 29 21 30 29 31 31 32 22 33 27 34 23 35 26 36 24 37 13 38
REMARK SMILES IDX 20 39 14 40 18 41 15 42 16 43 19 44 17 46 28 48 25 50 33 52
REMARK H PARENT 43 17 41 19 39 21 37 23 35 25 19 45 17 47 28 49 25 51 33 53
REMARK Flexibility Score: inf
ROOT
ATOM      1  C   UNL     1      11.697   9.996  -2.260  1.00  0.00     0.180 C 
ATOM      2  C   UNL     1      10.229  10.187  -1.793  1.00  0.00     0.177 C 
ATOM      3  C   UNL     1       9.965  11.662  -1.457  1.00  0.00     0.180 C 
ATOM      4  C   UNL     1      11.056  12.202  -0.512  1.00  0.00     0.214 C 
ATOM      5  C   UNL     1      12.445  11.888  -1.088  1.00  0.00     0.339 C 
ATOM      6  O   UNL     1      12.610  10.497  -1.293  1.00  0.00    -0.332 OA
ENDROOT
BRANCH   1   7
ATOM      7  C   UNL     1      12.025   8.518  -2.498  1.00  0.00     0.198 C 
BRANCH   7   8
ATOM      8  O   UNL     1      10.913   7.723  -2.150  1.00  0.00    -0.347 OA
BRANCH   8   9
ATOM      9  C   UNL     1      10.686   6.703  -3.112  1.00  0.00     0.281 C 
ATOM     10  C   UNL     1      12.905   4.143  -1.648  1.00  0.00     0.041 C 
ATOM     11  C   UNL     1      11.712   5.099  -1.733  1.00  0.00     0.150 C 
ATOM     12  C   UNL     1      10.380   4.366  -1.432  1.00  0.00     0.174 C 
ATOM     13  O   UNL     1      11.689   5.698  -3.022  1.00  0.00    -0.344 OA
ATOM     14  C   UNL     1       9.196   5.343  -1.578  1.00  0.00     0.179 C 
ATOM     15  C   UNL     1       9.278   6.105  -2.916  1.00  0.00     0.202 C 
BRANCH  12  16
ATOM     16  O   UNL     1      10.203   3.229  -2.244  1.00  0.00    -0.388 OA
ATOM     17  H   UNL     1      10.793   3.316  -3.034  1.00  0.00     0.211 HD
ENDBRANCH  12  16
BRANCH  14  18
ATOM     18  O   UNL     1       7.986   4.631  -1.497  1.00  0.00    -0.387 OA
ATOM     19  H   UNL     1       7.272   5.229  -1.837  1.00  0.00     0.211 HD
ENDBRANCH  14  18
BRANCH  15  20
ATOM     20  O   UNL     1       8.334   7.143  -2.941  1.00  0.00    -0.385 OA
ATOM     21  H   UNL     1       7.530   6.822  -2.450  1.00  0.00     0.211 HD
ENDBRANCH  15  20
ENDBRANCH   8   9
ENDBRANCH   7   8
ENDBRANCH   1   7
BRANCH   2  22
ATOM     22  O   UNL     1       9.343   9.789  -2.807  1.00  0.00    -0.387 OA
ATOM     23  H   UNL     1       8.727   9.114  -2.416  1.00  0.00     0.211 HD
ENDBRANCH   2  22
BRANCH   3  24
ATOM     24  O   UNL     1       8.698  11.785  -0.866  1.00  0.00    -0.387 OA
ATOM     25  H   UNL     1       8.083  12.112  -1.575  1.00  0.00     0.211 HD
ENDBRANCH   3  24
BRANCH   5  26
ATOM     26  O   UNL     1      12.667  12.610  -2.304  1.00  0.00    -0.454 OA
BRANCH  26  27
ATOM     27  C   UNL     1      13.505  13.727  -2.380  1.00  0.00     0.214 A 
ATOM     28  C   UNL     1      12.998  15.042  -2.296  1.00  0.00     0.180 A 
ATOM     29  C   UNL     1      14.879  13.540  -2.554  1.00  0.00     0.239 A 
ATOM     30  O   UNL     1      13.821  16.076  -2.441  1.00  0.00    -0.452 OA
ATOM     31  C   UNL     1      15.723  14.659  -2.695  1.00  0.00     0.111 A 
ATOM     32  O   UNL     1      15.337  12.367  -2.599  1.00  0.00    -0.285 OA
ATOM     33  C   UNL     1      15.129  15.943  -2.635  1.00  0.00     0.146 A 
ATOM     34  C   UNL     1      17.119  14.556  -2.905  1.00  0.00     0.134 A 
ATOM     35  C   UNL     1      15.914  17.091  -2.778  1.00  0.00     0.094 A 
ATOM     36  C   UNL     1      17.890  15.719  -3.043  1.00  0.00     0.093 A 
ATOM     37  C   UNL     1      17.294  16.982  -2.982  1.00  0.00     0.123 A 
BRANCH  28  38
ATOM     38  C   UNL     1      11.562  15.322  -2.059  1.00  0.00     0.025 A 
ATOM     39  C   UNL     1      11.135  16.073  -0.947  1.00  0.00     0.062 A 
ATOM     40  C   UNL     1      10.605  14.839  -2.965  1.00  0.00     0.016 A 
ATOM     41  C   UNL     1       9.769  16.283  -0.711  1.00  0.00     0.158 A 
ATOM     42  C   UNL     1       9.244  15.059  -2.738  1.00  0.00     0.051 A 
ATOM     43  C   UNL     1       8.820  15.772  -1.612  1.00  0.00     0.157 A 
BRANCH  41  44
ATOM     44  O   UNL     1       9.356  16.997   0.413  1.00  0.00    -0.504 OA
ATOM     45  H   UNL     1       9.499  16.638   1.349  1.00  0.00     0.293 HD
ENDBRANCH  41  44
BRANCH  43  46
ATOM     46  O   UNL     1       7.453  15.960  -1.403  1.00  0.00    -0.504 OA
ATOM     47  H   UNL     1       6.965  16.783  -1.734  1.00  0.00     0.293 HD
ENDBRANCH  43  46
ENDBRANCH  28  38
BRANCH  34  48
ATOM     48  O   UNL     1      17.745  13.310  -2.976  1.00  0.00    -0.507 OA
ATOM     49  H   UNL     1      17.462  12.539  -2.382  1.00  0.00     0.293 HD
ENDBRANCH  34  48
BRANCH  37  50
ATOM     50  O   UNL     1      18.081  18.121  -3.123  1.00  0.00    -0.508 OA
ATOM     51  H   UNL     1      18.758  18.208  -3.875  1.00  0.00     0.293 HD
ENDBRANCH  37  50
ENDBRANCH  26  27
ENDBRANCH   5  26
BRANCH   4  52
ATOM     52  O   UNL     1      10.942  11.601   0.753  1.00  0.00    -0.384 OA
ATOM     53  H   UNL     1      10.283  10.865   0.670  1.00  0.00     0.211 HD
ENDBRANCH   4  52
TORSDOF 16
ENDMDL
MODEL 3
REMARK VINA RESULT:    -2.391      1.636      8.554
REMARK INTER + INTRA:          -2.442
REMARK INTER:                  -3.338
REMARK INTRA:                   0.897
REMARK UNBOUND:                 1.487
REMARK SMILES C[C@H]1O[C@H](OC[C@@H]2O[C@@H](Oc3c(-c4ccc(O)c(O)c4)oc4cc(O)cc(O)c4c3=O)[C@H](O)[C@H](O)[C@H]2O)[C@H](O)[C@@H](O)[C@H]1O
REMARK SMILES IDX 7 1 36 2 34 3 32 4 9 5 8 6 6 7 5 8 4 9 1 10 2 11 42 12 3 13
REMARK SMILES IDX 40 14 38 15 43 16 41 18 39 20 37 22 35 24 10 26 11 27 12 28
REMARK SMILES IDX 30 29 21 30 29 31 31 32 22 33 27 34 23 35 26 36 24 37 13 38
REMARK SMILES IDX 20 39 14 40 18 41 15 42 16 43 19 44 17 46 28 48 25 50 33 52
REMARK H PARENT 43 17 41 19 39 21 37 23 35 25 19 45 17 47 28 49 25 51 33 53
REMARK Flexibility Score: inf
ROOT
ATOM      1  C   UNL     1      10.137  10.449  -1.459  1.00  0.00     0.180 C 
ATOM      2  C   UNL     1       8.629  10.726  -1.700  1.00  0.00     0.177 C 
ATOM      3  C   UNL     1       8.418  12.186  -2.127  1.00  0.00     0.180 C 
ATOM      4  C   UNL     1       9.139  13.140  -1.154  1.00  0.00     0.214 C 
ATOM      5  C   UNL     1      10.601  12.701  -0.982  1.00  0.00     0.339 C 
ATOM      6  O   UNL     1      10.681  11.365  -0.519  1.00  0.00    -0.332 OA
ENDROOT
BRANCH   1   7
ATOM      7  C   UNL     1      10.371   9.031  -0.926  1.00  0.00     0.198 C 
BRANCH   7   8
ATOM      8  O   UNL     1       9.493   8.132  -1.566  1.00  0.00    -0.347 OA
BRANCH   8   9
ATOM      9  C   UNL     1       9.381   6.915  -0.843  1.00  0.00     0.281 C 
ATOM     10  C   UNL     1       7.039   5.201  -3.123  1.00  0.00     0.041 C 
ATOM     11  C   UNL     1       8.345   5.861  -2.671  1.00  0.00     0.150 C 
ATOM     12  C   UNL     1       9.565   4.951  -2.960  1.00  0.00     0.174 C 
ATOM     13  O   UNL     1       8.252   6.171  -1.286  1.00  0.00    -0.344 OA
ATOM     14  C   UNL     1      10.856   5.620  -2.445  1.00  0.00     0.179 C 
ATOM     15  C   UNL     1      10.680   6.098  -0.990  1.00  0.00     0.202 C 
BRANCH  12  16
ATOM     16  O   UNL     1       9.409   3.662  -2.415  1.00  0.00    -0.388 OA
ATOM     17  H   UNL     1       8.474   3.566  -2.105  1.00  0.00     0.211 HD
ENDBRANCH  12  16
BRANCH  14  18
ATOM     18  O   UNL     1      11.925   4.710  -2.533  1.00  0.00    -0.387 OA
ATOM     19  H   UNL     1      12.534   5.043  -3.242  1.00  0.00     0.211 HD
ENDBRANCH  14  18
BRANCH  15  20
ATOM     20  O   UNL     1      11.769   6.898  -0.609  1.00  0.00    -0.385 OA
ATOM     21  H   UNL     1      11.411   7.803  -0.401  1.00  0.00     0.211 HD
ENDBRANCH  15  20
ENDBRANCH   8   9
ENDBRANCH   7   8
ENDBRANCH   1   7
BRANCH   2  22
ATOM     22  O   UNL     1       8.138   9.885  -2.711  1.00  0.00    -0.387 OA
ATOM     23  H   UNL     1       7.508   9.245  -2.286  1.00  0.00     0.211 HD
ENDBRANCH   2  22
BRANCH   3  24
ATOM     24  O   UNL     1       7.044  12.467  -2.161  1.00  0.00    -0.387 OA
ATOM     25  H   UNL     1       6.845  12.811  -3.072  1.00  0.00     0.211 HD
ENDBRANCH   3  24
BRANCH   5  26
ATOM     26  O   UNL     1      11.326  12.858  -2.206  1.00  0.00    -0.454 OA
BRANCH  26  27
ATOM     27  C   UNL     1      12.466  13.661  -2.314  1.00  0.00     0.214 A 
ATOM     28  C   UNL     1      13.747  13.107  -2.526  1.00  0.00     0.180 A 
ATOM     29  C   UNL     1      12.338  15.049  -2.199  1.00  0.00     0.239 A 
ATOM     30  O   UNL     1      14.812  13.902  -2.555  1.00  0.00    -0.452 OA
ATOM     31  C   UNL     1      13.487  15.861  -2.245  1.00  0.00     0.111 A 
ATOM     32  O   UNL     1      11.191  15.547  -2.040  1.00  0.00    -0.285 OA
ATOM     33  C   UNL     1      14.738  15.223  -2.424  1.00  0.00     0.146 A 
ATOM     34  C   UNL     1      13.447  17.270  -2.106  1.00  0.00     0.134 A 
ATOM     35  C   UNL     1      15.916  15.976  -2.467  1.00  0.00     0.094 A 
ATOM     36  C   UNL     1      14.639  18.008  -2.155  1.00  0.00     0.093 A 
ATOM     37  C   UNL     1      15.868  17.368  -2.333  1.00  0.00     0.123 A 
BRANCH  28  38
ATOM     38  C   UNL     1      13.958  11.652  -2.711  1.00  0.00     0.025 A 
ATOM     39  C   UNL     1      12.875  10.767  -2.869  1.00  0.00     0.062 A 
ATOM     40  C   UNL     1      15.266  11.142  -2.741  1.00  0.00     0.016 A 
ATOM     41  C   UNL     1      13.093   9.388  -2.991  1.00  0.00     0.158 A 
ATOM     42  C   UNL     1      15.485   9.769  -2.876  1.00  0.00     0.051 A 
ATOM     43  C   UNL     1      14.406   8.887  -2.993  1.00  0.00     0.157 A 
BRANCH  41  44
ATOM     44  O   UNL     1      12.011   8.517  -3.110  1.00  0.00    -0.504 OA
ATOM     45  H   UNL     1      12.118   7.519  -2.975  1.00  0.00     0.293 HD
ENDBRANCH  41  44
BRANCH  43  46
ATOM     46  O   UNL     1      14.656   7.519  -3.108  1.00  0.00    -0.504 OA
ATOM     47  H   UNL     1      15.477   7.086  -2.702  1.00  0.00     0.293 HD
ENDBRANCH  43  46
ENDBRANCH  28  38
BRANCH  34  48
ATOM     48  O   UNL     1      12.236  17.939  -1.922  1.00  0.00    -0.507 OA
ATOM     49  H   UNL     1      11.374  17.599  -2.331  1.00  0.00     0.293 HD
ENDBRANCH  34  48
BRANCH  37  50
ATOM     50  O   UNL     1      17.036  18.123  -2.376  1.00  0.00    -0.508 OA
ATOM     51  H   UNL     1      17.033  19.085  -2.701  1.00  0.00     0.293 HD
ENDBRANCH  37  50
ENDBRANCH  26  27
ENDBRANCH   5  26
BRANCH   4  52
ATOM     52  O   UNL     1       8.508  13.119   0.101  1.00  0.00    -0.384 OA
ATOM     53  H   UNL     1       9.189  13.371   0.777  1.00  0.00     0.211 HD
ENDBRANCH   4  52
TORSDOF 16
ENDMDL
MODEL 4
REMARK VINA RESULT:    -2.054      1.686      4.701
REMARK INTER + INTRA:          -1.889
REMARK INTER:                  -1.340
REMARK INTRA:                  -0.548
REMARK UNBOUND:                 1.487
REMARK SMILES C[C@H]1O[C@H](OC[C@@H]2O[C@@H](Oc3c(-c4ccc(O)c(O)c4)oc4cc(O)cc(O)c4c3=O)[C@H](O)[C@H](O)[C@H]2O)[C@H](O)[C@@H](O)[C@H]1O
REMARK SMILES IDX 7 1 36 2 34 3 32 4 9 5 8 6 6 7 5 8 4 9 1 10 2 11 42 12 3 13
REMARK SMILES IDX 40 14 38 15 43 16 41 18 39 20 37 22 35 24 10 26 11 27 12 28
REMARK SMILES IDX 30 29 21 30 29 31 31 32 22 33 27 34 23 35 26 36 24 37 13 38
REMARK SMILES IDX 20 39 14 40 18 41 15 42 16 43 19 44 17 46 28 48 25 50 33 52
REMARK H PARENT 43 17 41 19 39 21 37 23 35 25 19 45 17 47 28 49 25 51 33 53
REMARK Flexibility Score: inf
ROOT
ATOM      1  C   UNL     1      13.438  11.850  -2.832  1.00  0.00     0.180 C 
ATOM      2  C   UNL     1      14.679  11.162  -2.204  1.00  0.00     0.177 C 
ATOM      3  C   UNL     1      14.347   9.712  -1.821  1.00  0.00     0.180 C 
ATOM      4  C   UNL     1      13.047   9.659  -0.995  1.00  0.00     0.214 C 
ATOM      5  C   UNL     1      11.935  10.428  -1.724  1.00  0.00     0.339 C 
ATOM      6  O   UNL     1      12.316  11.770  -1.965  1.00  0.00    -0.332 OA
ENDROOT
BRANCH   1   7
ATOM      7  C   UNL     1      13.704  13.331  -3.125  1.00  0.00     0.198 C 
BRANCH   7   8
ATOM      8  O   UNL     1      12.746  14.126  -2.461  1.00  0.00    -0.347 OA
BRANCH   8   9
ATOM      9  C   UNL     1      13.205  14.525  -1.178  1.00  0.00     0.281 C 
ATOM     10  C   UNL     1      15.725  16.979  -2.296  1.00  0.00     0.041 C 
ATOM     11  C   UNL     1      14.334  16.372  -2.096  1.00  0.00     0.150 C 
ATOM     12  C   UNL     1      13.355  17.400  -1.473  1.00  0.00     0.174 C 
ATOM     13  O   UNL     1      14.447  15.212  -1.281  1.00  0.00    -0.344 OA
ATOM     14  C   UNL     1      11.981  16.743  -1.234  1.00  0.00     0.179 C 
ATOM     15  C   UNL     1      12.139  15.401  -0.491  1.00  0.00     0.202 C 
BRANCH  12  16
ATOM     16  O   UNL     1      13.861  17.964  -0.286  1.00  0.00    -0.388 OA
ATOM     17  H   UNL     1      14.351  18.793  -0.519  1.00  0.00     0.211 HD
ENDBRANCH  12  16
BRANCH  14  18
ATOM     18  O   UNL     1      11.164  17.617  -0.494  1.00  0.00    -0.387 OA
ATOM     19  H   UNL     1      11.095  18.460  -1.011  1.00  0.00     0.211 HD
ENDBRANCH  14  18
BRANCH  15  20
ATOM     20  O   UNL     1      10.918  14.709  -0.478  1.00  0.00    -0.385 OA
ATOM     21  H   UNL     1      10.278  15.229  -1.035  1.00  0.00     0.211 HD
ENDBRANCH  15  20
ENDBRANCH   8   9
ENDBRANCH   7   8
ENDBRANCH   1   7
BRANCH   2  22
ATOM     22  O   UNL     1      15.744  11.153  -3.121  1.00  0.00    -0.387 OA
ATOM     23  H   UNL     1      15.642  11.953  -3.701  1.00  0.00     0.211 HD
ENDBRANCH   2  22
BRANCH   3  24
ATOM     24  O   UNL     1      15.414   9.166  -1.093  1.00  0.00    -0.387 OA
ATOM     25  H   UNL     1      15.910   8.571  -1.716  1.00  0.00     0.211 HD
ENDBRANCH   3  24
BRANCH   5  26
ATOM     26  O   UNL     1      11.581   9.773  -2.946  1.00  0.00    -0.454 OA
BRANCH  26  27
ATOM     27  C   UNL     1      10.598   8.781  -3.019  1.00  0.00     0.214 A 
ATOM     28  C   UNL     1       9.223   9.099  -3.030  1.00  0.00     0.180 A 
ATOM     29  C   UNL     1      10.984   7.439  -3.071  1.00  0.00     0.239 A 
ATOM     30  O   UNL     1       8.321   8.122  -3.031  1.00  0.00    -0.452 OA
ATOM     31  C   UNL     1      10.001   6.430  -3.082  1.00  0.00     0.111 A 
ATOM     32  O   UNL     1      12.212   7.154  -3.092  1.00  0.00    -0.285 OA
ATOM     33  C   UNL     1       8.644   6.833  -3.054  1.00  0.00     0.146 A 
ATOM     34  C   UNL     1      10.308   5.048  -3.103  1.00  0.00     0.134 A 
ATOM     35  C   UNL     1       7.624   5.878  -3.053  1.00  0.00     0.094 A 
ATOM     36  C   UNL     1       9.270   4.105  -3.104  1.00  0.00     0.093 A 
ATOM     37  C   UNL     1       7.934   4.513  -3.078  1.00  0.00     0.123 A 
BRANCH  28  38
ATOM     38  C   UNL     1       8.735  10.498  -3.031  1.00  0.00     0.025 A 
ATOM     39  C   UNL     1       9.623  11.586  -3.123  1.00  0.00     0.062 A 
ATOM     40  C   UNL     1       7.355  10.749  -2.949  1.00  0.00     0.016 A 
ATOM     41  C   UNL     1       9.147  12.903  -3.070  1.00  0.00     0.158 A 
ATOM     42  C   UNL     1       6.878  12.061  -2.910  1.00  0.00     0.051 A 
ATOM     43  C   UNL     1       7.766  13.141  -2.961  1.00  0.00     0.157 A 
BRANCH  41  44
ATOM     44  O   UNL     1      10.039  13.972  -3.125  1.00  0.00    -0.504 OA
ATOM     45  H   UNL     1      10.588  14.162  -3.955  1.00  0.00     0.293 HD
ENDBRANCH  41  44
BRANCH  43  46
ATOM     46  O   UNL     1       7.260  14.440  -2.902  1.00  0.00    -0.504 OA
ATOM     47  H   UNL     1       6.269  14.636  -2.975  1.00  0.00     0.293 HD
ENDBRANCH  43  46
ENDBRANCH  28  38
BRANCH  34  48
ATOM     48  O   UNL     1      11.632   4.607  -3.125  1.00  0.00    -0.507 OA
ATOM     49  H   UNL     1      12.117   4.342  -2.275  1.00  0.00     0.293 HD
ENDBRANCH  34  48
BRANCH  37  50
ATOM     50  O   UNL     1       6.923   3.557  -3.078  1.00  0.00    -0.508 OA
ATOM     51  H   UNL     1       6.872   2.840  -2.361  1.00  0.00     0.293 HD
ENDBRANCH  37  50
ENDBRANCH  26  27
ENDBRANCH   5  26
BRANCH   4  52
ATOM     52  O   UNL     1      13.252  10.244   0.267  1.00  0.00    -0.384 OA
ATOM     53  H   UNL     1      13.244  11.227   0.140  1.00  0.00     0.211 HD
ENDBRANCH   4  52
TORSDOF 16
ENDMDL
MODEL 5
REMARK VINA RESULT:    -1.380      1.862      8.707
REMARK INTER + INTRA:          -0.780
REMARK INTER:                  -1.682
REMARK INTRA:                   0.902
REMARK UNBOUND:                 1.487
REMARK SMILES C[C@H]1O[C@H](OC[C@@H]2O[C@@H](Oc3c(-c4ccc(O)c(O)c4)oc4cc(O)cc(O)c4c3=O)[C@H](O)[C@H](O)[C@H]2O)[C@H](O)[C@@H](O)[C@H]1O
REMARK SMILES IDX 7 1 36 2 34 3 32 4 9 5 8 6 6 7 5 8 4 9 1 10 2 11 42 12 3 13
REMARK SMILES IDX 40 14 38 15 43 16 41 18 39 20 37 22 35 24 10 26 11 27 12 28
REMARK SMILES IDX 30 29 21 30 29 31 31 32 22 33 27 34 23 35 26 36 24 37 13 38
REMARK SMILES IDX 20 39 14 40 18 41 15 42 16 43 19 44 17 46 28 48 25 50 33 52
REMARK H PARENT 43 17 41 19 39 21 37 23 35 25 19 45 17 47 28 49 25 51 33 53
REMARK Flexibility Score: inf
ROOT
ATOM      1  C   UNL     1      11.003   7.621  -1.141  1.00  0.00     0.180 C 
ATOM      2  C   UNL     1       9.874   6.839  -1.864  1.00  0.00     0.177 C 
ATOM      3  C   UNL     1       8.959   7.808  -2.627  1.00  0.00     0.180 C 
ATOM      4  C   UNL     1       8.509   8.959  -1.706  1.00  0.00     0.214 C 
ATOM      5  C   UNL     1       9.733   9.592  -1.028  1.00  0.00     0.339 C 
ATOM      6  O   UNL     1      10.466   8.627  -0.295  1.00  0.00    -0.332 OA
ENDROOT
BRANCH   1   7
ATOM      7  C   UNL     1      11.869   6.693  -0.281  1.00  0.00     0.198 C 
BRANCH   7   8
ATOM      8  O   UNL     1      12.589   5.811  -1.112  1.00  0.00    -0.347 OA
BRANCH   8   9
ATOM      9  C   UNL     1      12.511   4.474  -0.638  1.00  0.00     0.281 C 
ATOM     10  C   UNL     1      10.073   3.216  -3.106  1.00  0.00     0.041 C 
ATOM     11  C   UNL     1      11.396   3.788  -2.590  1.00  0.00     0.150 C 
ATOM     12  C   UNL     1      12.604   2.966  -3.106  1.00  0.00     0.174 C 
ATOM     13  O   UNL     1      11.365   3.820  -1.169  1.00  0.00    -0.344 OA
ATOM     14  C   UNL     1      13.915   3.533  -2.526  1.00  0.00     0.179 C 
ATOM     15  C   UNL     1      13.804   3.715  -0.999  1.00  0.00     0.202 C 
BRANCH  12  16
ATOM     16  O   UNL     1      12.475   1.593  -2.818  1.00  0.00    -0.388 OA
ATOM     17  H   UNL     1      12.136   1.136  -3.628  1.00  0.00     0.211 HD
ENDBRANCH  12  16
BRANCH  14  18
ATOM     18  O   UNL     1      14.981   2.670  -2.838  1.00  0.00    -0.387 OA
ATOM     19  H   UNL     1      15.242   2.214  -1.997  1.00  0.00     0.211 HD
ENDBRANCH  14  18
BRANCH  15  20
ATOM     20  O   UNL     1      14.907   4.436  -0.515  1.00  0.00    -0.385 OA
ATOM     21  H   UNL     1      14.569   5.059   0.182  1.00  0.00     0.211 HD
ENDBRANCH  15  20
ENDBRANCH   8   9
ENDBRANCH   7   8
ENDBRANCH   1   7
BRANCH   2  22
ATOM     22  O   UNL     1      10.426   5.926  -2.777  1.00  0.00    -0.387 OA
ATOM     23  H   UNL     1      11.410   6.063  -2.777  1.00  0.00     0.211 HD
ENDBRANCH   2  22
BRANCH   3  24
ATOM     24  O   UNL     1       7.847   7.109  -3.119  1.00  0.00    -0.387 OA
ATOM     25  H   UNL     1       7.288   7.769  -3.609  1.00  0.00     0.211 HD
ENDBRANCH   3  24
BRANCH   5  26
ATOM     26  O   UNL     1      10.570  10.241  -1.990  1.00  0.00    -0.454 OA
BRANCH  26  27
ATOM     27  C   UNL     1      10.758  11.626  -2.020  1.00  0.00     0.214 A 
ATOM     28  C   UNL     1      12.033  12.197  -2.225  1.00  0.00     0.180 A 
ATOM     29  C   UNL     1       9.660  12.470  -1.833  1.00  0.00     0.239 A 
ATOM     30  O   UNL     1      12.178  13.518  -2.179  1.00  0.00    -0.452 OA
ATOM     31  C   UNL     1       9.849  13.865  -1.800  1.00  0.00     0.111 A 
ATOM     32  O   UNL     1       8.516  11.962  -1.680  1.00  0.00    -0.285 OA
ATOM     33  C   UNL     1      11.166  14.355  -1.977  1.00  0.00     0.146 A 
ATOM     34  C   UNL     1       8.796  14.786  -1.584  1.00  0.00     0.134 A 
ATOM     35  C   UNL     1      11.418  15.730  -1.944  1.00  0.00     0.094 A 
ATOM     36  C   UNL     1       9.068  16.162  -1.557  1.00  0.00     0.093 A 
ATOM     37  C   UNL     1      10.371  16.635  -1.734  1.00  0.00     0.123 A 
BRANCH  28  38
ATOM     38  C   UNL     1      13.236  11.373  -2.485  1.00  0.00     0.025 A 
ATOM     39  C   UNL     1      13.192   9.967  -2.417  1.00  0.00     0.062 A 
ATOM     40  C   UNL     1      14.447  12.002  -2.816  1.00  0.00     0.016 A 
ATOM     41  C   UNL     1      14.352   9.206  -2.615  1.00  0.00     0.158 A 
ATOM     42  C   UNL     1      15.602  11.244  -3.026  1.00  0.00     0.051 A 
ATOM     43  C   UNL     1      15.564   9.850  -2.920  1.00  0.00     0.157 A 
BRANCH  41  44
ATOM     44  O   UNL     1      14.304   7.817  -2.510  1.00  0.00    -0.504 OA
ATOM     45  H   UNL     1      15.084   7.288  -2.139  1.00  0.00     0.293 HD
ENDBRANCH  41  44
BRANCH  43  46
ATOM     46  O   UNL     1      16.738   9.122  -3.118  1.00  0.00    -0.504 OA
ATOM     47  H   UNL     1      17.153   8.558  -2.386  1.00  0.00     0.293 HD
ENDBRANCH  43  46
ENDBRANCH  28  38
BRANCH  34  48
ATOM     48  O   UNL     1       7.484  14.346  -1.399  1.00  0.00    -0.507 OA
ATOM     49  H   UNL     1       7.133  14.094  -0.482  1.00  0.00     0.293 HD
ENDBRANCH  34  48
BRANCH  37  50
ATOM     50  O   UNL     1      10.615  18.004  -1.701  1.00  0.00    -0.508 OA
ATOM     51  H   UNL     1       9.860  18.679  -1.770  1.00  0.00     0.293 HD
ENDBRANCH  37  50
ENDBRANCH  26  27
ENDBRANCH   5  26
BRANCH   4  52
ATOM     52  O   UNL     1       7.640   8.474  -0.714  1.00  0.00    -0.384 OA
ATOM     53  H   UNL     1       7.186   7.675  -1.086  1.00  0.00     0.211 HD
ENDBRANCH   4  52
TORSDOF 16
ENDMDL
MODEL 6
REMARK VINA RESULT:    -0.947      1.315      4.874
REMARK INTER + INTRA:          -0.069
REMARK INTER:                  -2.785
REMARK INTRA:                   2.715
REMARK UNBOUND:                 1.487
REMARK SMILES C[C@H]1O[C@H](OC[C@@H]2O[C@@H](Oc3c(-c4ccc(O)c(O)c4)oc4cc(O)cc(O)c4c3=O)[C@H](O)[C@H](O)[C@H]2O)[C@H](O)[C@@H](O)[C@H]1O
REMARK SMILES IDX 7 1 36 2 34 3 32 4 9 5 8 6 6 7 5 8 4 9 1 10 2 11 42 12 3 13
REMARK SMILES IDX 40 14 38 15 43 16 41 18 39 20 37 22 35 24 10 26 11 27 12 28
REMARK SMILES IDX 30 29 21 30 29 31 31 32 22 33 27 34 23 35 26 36 24 37 13 38
REMARK SMILES IDX 20 39 14 40 18 41 15 42 16 43 19 44 17 46 28 48 25 50 33 52
REMARK H PARENT 43 17 41 19 39 21 37 23 35 25 19 45 17 47 28 49 25 51 33 53
REMARK Flexibility Score: inf
ROOT
ATOM      1  C   UNL     1      10.007  13.446  -2.066  1.00  0.00     0.180 C 
ATOM      2  C   UNL     1       8.740  13.854  -1.268  1.00  0.00     0.177 C 
ATOM      3  C   UNL     1       8.223  12.665  -0.445  1.00  0.00     0.180 C 
ATOM      4  C   UNL     1       8.094  11.412  -1.333  1.00  0.00     0.214 C 
ATOM      5  C   UNL     1       9.408  11.175  -2.093  1.00  0.00     0.339 C 
ATOM      6  O   UNL     1       9.756  12.305  -2.874  1.00  0.00    -0.332 OA
ENDROOT
BRANCH   1   7
ATOM      7  C   UNL     1      10.484  14.577  -2.983  1.00  0.00     0.198 C 
BRANCH   7   8
ATOM      8  O   UNL     1      11.832  14.879  -2.702  1.00  0.00    -0.347 OA
BRANCH   8   9
ATOM      9  C   UNL     1      12.054  16.282  -2.674  1.00  0.00     0.281 C 
ATOM     10  C   UNL     1      10.024  17.043   0.312  1.00  0.00     0.041 C 
ATOM     11  C   UNL     1      11.168  16.434  -0.502  1.00  0.00     0.150 C 
ATOM     12  C   UNL     1      12.544  16.746   0.140  1.00  0.00     0.174 C 
ATOM     13  O   UNL     1      11.101  16.923  -1.835  1.00  0.00    -0.344 OA
ATOM     14  C   UNL     1      13.676  16.166  -0.731  1.00  0.00     0.179 C 
ATOM     15  C   UNL     1      13.494  16.574  -2.207  1.00  0.00     0.202 C 
BRANCH  12  16
ATOM     16  O   UNL     1      12.728  18.125   0.360  1.00  0.00    -0.388 OA
ATOM     17  H   UNL     1      13.401  18.239   1.077  1.00  0.00     0.211 HD
ENDBRANCH  12  16
BRANCH  14  18
ATOM     18  O   UNL     1      14.918  16.619  -0.250  1.00  0.00    -0.387 OA
ATOM     19  H   UNL     1      15.334  15.864   0.241  1.00  0.00     0.211 HD
ENDBRANCH  14  18
BRANCH  15  20
ATOM     20  O   UNL     1      14.391  15.863  -3.020  1.00  0.00    -0.385 OA
ATOM     21  H   UNL     1      13.859  15.202  -3.538  1.00  0.00     0.211 HD
ENDBRANCH  15  20
ENDBRANCH   8   9
ENDBRANCH   7   8
ENDBRANCH   1   7
BRANCH   2  22
ATOM     22  O   UNL     1       9.038  14.912  -0.394  1.00  0.00    -0.387 OA
ATOM     23  H   UNL     1       9.726  15.477  -0.836  1.00  0.00     0.211 HD
ENDBRANCH   2  22
BRANCH   3  24
ATOM     24  O   UNL     1       6.983  12.995   0.122  1.00  0.00    -0.387 OA
ATOM     25  H   UNL     1       6.505  13.557  -0.544  1.00  0.00     0.211 HD
ENDBRANCH   3  24
BRANCH   5  26
ATOM     26  O   UNL     1      10.465  10.839  -1.189  1.00  0.00    -0.454 OA
BRANCH  26  27
ATOM     27  C   UNL     1      11.766  10.556  -1.617  1.00  0.00     0.214 A 
ATOM     28  C   UNL     1      12.154   9.254  -2.003  1.00  0.00     0.180 A 
ATOM     29  C   UNL     1      12.712  11.584  -1.654  1.00  0.00     0.239 A 
ATOM     30  O   UNL     1      13.418   9.016  -2.338  1.00  0.00    -0.452 OA
ATOM     31  C   UNL     1      14.041  11.297  -2.024  1.00  0.00     0.111 A 
ATOM     32  O   UNL     1      12.361  12.753  -1.339  1.00  0.00    -0.285 OA
ATOM     33  C   UNL     1      14.355   9.958  -2.361  1.00  0.00     0.146 A 
ATOM     34  C   UNL     1      15.065  12.273  -2.058  1.00  0.00     0.134 A 
ATOM     35  C   UNL     1      15.659   9.609  -2.726  1.00  0.00     0.094 A 
ATOM     36  C   UNL     1      16.366  11.905  -2.429  1.00  0.00     0.093 A 
ATOM     37  C   UNL     1      16.666  10.581  -2.761  1.00  0.00     0.123 A 
BRANCH  28  38
ATOM     38  C   UNL     1      11.197   8.124  -2.041  1.00  0.00     0.025 A 
ATOM     39  C   UNL     1      11.448   6.925  -1.347  1.00  0.00     0.062 A 
ATOM     40  C   UNL     1      10.008   8.250  -2.777  1.00  0.00     0.016 A 
ATOM     41  C   UNL     1      10.556   5.848  -1.438  1.00  0.00     0.158 A 
ATOM     42  C   UNL     1       9.111   7.182  -2.858  1.00  0.00     0.051 A 
ATOM     43  C   UNL     1       9.382   5.978  -2.199  1.00  0.00     0.157 A 
BRANCH  41  44
ATOM     44  O   UNL     1      10.832   4.653  -0.776  1.00  0.00    -0.504 OA
ATOM     45  H   UNL     1      11.713   4.169  -0.904  1.00  0.00     0.293 HD
ENDBRANCH  41  44
BRANCH  43  46
ATOM     46  O   UNL     1       8.475   4.923  -2.313  1.00  0.00    -0.504 OA
ATOM     47  H   UNL     1       8.686   3.992  -1.976  1.00  0.00     0.293 HD
ENDBRANCH  43  46
ENDBRANCH  28  38
BRANCH  34  48
ATOM     48  O   UNL     1      14.801  13.603  -1.727  1.00  0.00    -0.507 OA
ATOM     49  H   UNL     1      15.540  14.238  -1.448  1.00  0.00     0.293 HD
ENDBRANCH  34  48
BRANCH  37  50
ATOM     50  O   UNL     1      17.965  10.241  -3.125  1.00  0.00    -0.508 OA
ATOM     51  H   UNL     1      18.316   9.295  -3.014  1.00  0.00     0.293 HD
ENDBRANCH  37  50
ENDBRANCH  26  27
ENDBRANCH   5  26
BRANCH   4  52
ATOM     52  O   UNL     1       7.055  11.583  -2.263  1.00  0.00    -0.384 OA
ATOM     53  H   UNL     1       6.207  11.362  -1.801  1.00  0.00     0.211 HD
ENDBRANCH   4  52
TORSDOF 16
ENDMDL
MODEL 7
REMARK VINA RESULT:    -0.875      1.683      4.717
REMARK INTER + INTRA:           0.050
REMARK INTER:                   0.449
REMARK INTRA:                  -0.399
REMARK UNBOUND:                 1.487
REMARK SMILES C[C@H]1O[C@H](OC[C@@H]2O[C@@H](Oc3c(-c4ccc(O)c(O)c4)oc4cc(O)cc(O)c4c3=O)[C@H](O)[C@H](O)[C@H]2O)[C@H](O)[C@@H](O)[C@H]1O
REMARK SMILES IDX 7 1 36 2 34 3 32 4 9 5 8 6 6 7 5 8 4 9 1 10 2 11 42 12 3 13
REMARK SMILES IDX 40 14 38 15 43 16 41 18 39 20 37 22 35 24 10 26 11 27 12 28
REMARK SMILES IDX 30 29 21 30 29 31 31 32 22 33 27 34 23 35 26 36 24 37 13 38
REMARK SMILES IDX 20 39 14 40 18 41 15 42 16 43 19 44 17 46 28 48 25 50 33 52
REMARK H PARENT 43 17 41 19 39 21 37 23 35 25 19 45 17 47 28 49 25 51 33 53
REMARK Flexibility Score: inf
ROOT
ATOM      1  C   UNL     1      13.290  12.265  -2.545  1.00  0.00     0.180 C 
ATOM      2  C   UNL     1      14.537  11.532  -1.982  1.00  0.00     0.177 C 
ATOM      3  C   UNL     1      14.177  10.088  -1.599  1.00  0.00     0.180 C 
ATOM      4  C   UNL     1      12.916  10.066  -0.712  1.00  0.00     0.214 C 
ATOM      5  C   UNL     1      11.796  10.877  -1.381  1.00  0.00     0.339 C 
ATOM      6  O   UNL     1      12.208  12.210  -1.627  1.00  0.00    -0.332 OA
ENDROOT
BRANCH   1   7
ATOM      7  C   UNL     1      13.588  13.741  -2.835  1.00  0.00     0.198 C 
BRANCH   7   8
ATOM      8  O   UNL     1      12.410  14.502  -2.683  1.00  0.00    -0.347 OA
BRANCH   8   9
ATOM      9  C   UNL     1      12.702  15.885  -2.551  1.00  0.00     0.281 C 
ATOM     10  C   UNL     1       9.234  17.138  -2.705  1.00  0.00     0.041 C 
ATOM     11  C   UNL     1      10.440  16.379  -2.144  1.00  0.00     0.150 C 
ATOM     12  C   UNL     1      10.686  16.735  -0.656  1.00  0.00     0.174 C 
ATOM     13  O   UNL     1      11.582  16.673  -2.938  1.00  0.00    -0.344 OA
ATOM     14  C   UNL     1      11.937  15.998  -0.137  1.00  0.00     0.179 C 
ATOM     15  C   UNL     1      13.125  16.194  -1.100  1.00  0.00     0.202 C 
BRANCH  12  16
ATOM     16  O   UNL     1      10.795  18.124  -0.452  1.00  0.00    -0.388 OA
ATOM     17  H   UNL     1      11.298  18.277   0.387  1.00  0.00     0.211 HD
ENDBRANCH  12  16
BRANCH  14  18
ATOM     18  O   UNL     1      12.266  16.473   1.145  1.00  0.00    -0.387 OA
ATOM     19  H   UNL     1      11.888  17.386   1.224  1.00  0.00     0.211 HD
ENDBRANCH  14  18
BRANCH  15  20
ATOM     20  O   UNL     1      14.184  15.343  -0.743  1.00  0.00    -0.385 OA
ATOM     21  H   UNL     1      13.967  14.963   0.151  1.00  0.00     0.211 HD
ENDBRANCH  15  20
ENDBRANCH   8   9
ENDBRANCH   7   8
ENDBRANCH   1   7
BRANCH   2  22
ATOM     22  O   UNL     1      15.556  11.501  -2.947  1.00  0.00    -0.387 OA
ATOM     23  H   UNL     1      16.094  10.681  -2.785  1.00  0.00     0.211 HD
ENDBRANCH   2  22
BRANCH   3  24
ATOM     24  O   UNL     1      15.260   9.502  -0.927  1.00  0.00    -0.387 OA
ATOM     25  H   UNL     1      15.011   9.459   0.034  1.00  0.00     0.211 HD
ENDBRANCH   3  24
BRANCH   5  26
ATOM     26  O   UNL     1      11.366  10.248  -2.592  1.00  0.00    -0.454 OA
BRANCH  26  27
ATOM     27  C   UNL     1      10.408   9.229  -2.619  1.00  0.00     0.214 A 
ATOM     28  C   UNL     1       9.032   9.499  -2.453  1.00  0.00     0.180 A 
ATOM     29  C   UNL     1      10.822   7.907  -2.804  1.00  0.00     0.239 A 
ATOM     30  O   UNL     1       8.163   8.494  -2.418  1.00  0.00    -0.452 OA
ATOM     31  C   UNL     1       9.872   6.867  -2.771  1.00  0.00     0.111 A 
ATOM     32  O   UNL     1      12.046   7.667  -2.983  1.00  0.00    -0.285 OA
ATOM     33  C   UNL     1       8.517   7.221  -2.563  1.00  0.00     0.146 A 
ATOM     34  C   UNL     1      10.211   5.501  -2.919  1.00  0.00     0.134 A 
ATOM     35  C   UNL     1       7.529   6.232  -2.509  1.00  0.00     0.094 A 
ATOM     36  C   UNL     1       9.207   4.524  -2.865  1.00  0.00     0.093 A 
ATOM     37  C   UNL     1       7.872   4.884  -2.660  1.00  0.00     0.123 A 
BRANCH  28  38
ATOM     38  C   UNL     1       8.510  10.878  -2.305  1.00  0.00     0.025 A 
ATOM     39  C   UNL     1       9.064  11.778  -1.375  1.00  0.00     0.062 A 
ATOM     40  C   UNL     1       7.445  11.304  -3.116  1.00  0.00     0.016 A 
ATOM     41  C   UNL     1       8.522  13.060  -1.214  1.00  0.00     0.158 A 
ATOM     42  C   UNL     1       6.913  12.587  -2.966  1.00  0.00     0.051 A 
ATOM     43  C   UNL     1       7.440  13.465  -2.013  1.00  0.00     0.157 A 
BRANCH  41  44
ATOM     44  O   UNL     1       9.055  13.930  -0.264  1.00  0.00    -0.504 OA
ATOM     45  H   UNL     1      10.052  13.979  -0.091  1.00  0.00     0.293 HD
ENDBRANCH  41  44
BRANCH  43  46
ATOM     46  O   UNL     1       6.875  14.734  -1.875  1.00  0.00    -0.504 OA
ATOM     47  H   UNL     1       7.206  15.532  -2.403  1.00  0.00     0.293 HD
ENDBRANCH  43  46
ENDBRANCH  28  38
BRANCH  34  48
ATOM     48  O   UNL     1      11.536   5.108  -3.120  1.00  0.00    -0.507 OA
ATOM     49  H   UNL     1      12.216   5.730  -3.540  1.00  0.00     0.293 HD
ENDBRANCH  34  48
BRANCH  37  50
ATOM     50  O   UNL     1       6.894   3.895  -2.610  1.00  0.00    -0.508 OA
ATOM     51  H   UNL     1       6.847   3.235  -1.840  1.00  0.00     0.293 HD
ENDBRANCH  37  50
ENDBRANCH  26  27
ENDBRANCH   5  26
BRANCH   4  52
ATOM     52  O   UNL     1      13.197  10.630   0.544  1.00  0.00    -0.384 OA
ATOM     53  H   UNL     1      13.894  10.067   0.969  1.00  0.00     0.211 HD
ENDBRANCH   4  52
TORSDOF 16
ENDMDL
MODEL 8
REMARK VINA RESULT:    -0.453      1.206      2.126
REMARK INTER + INTRA:           0.743
REMARK INTER:                  -3.009
REMARK INTRA:                   3.753
REMARK UNBOUND:                 1.487
REMARK SMILES C[C@H]1O[C@H](OC[C@@H]2O[C@@H](Oc3c(-c4ccc(O)c(O)c4)oc4cc(O)cc(O)c4c3=O)[C@H](O)[C@H](O)[C@H]2O)[C@H](O)[C@@H](O)[C@H]1O
REMARK SMILES IDX 7 1 36 2 34 3 32 4 9 5 8 6 6 7 5 8 4 9 1 10 2 11 42 12 3 13
REMARK SMILES IDX 40 14 38 15 43 16 41 18 39 20 37 22 35 24 10 26 11 27 12 28
REMARK SMILES IDX 30 29 21 30 29 31 31 32 22 33 27 34 23 35 26 36 24 37 13 38
REMARK SMILES IDX 20 39 14 40 18 41 15 42 16 43 19 44 17 46 28 48 25 50 33 52
REMARK H PARENT 43 17 41 19 39 21 37 23 35 25 19 45 17 47 28 49 25 51 33 53
REMARK Flexibility Score: inf
ROOT
ATOM      1  C   UNL     1      11.160  12.762  -0.992  1.00  0.00     0.180 C 
ATOM      2  C   UNL     1       9.678  13.037  -0.623  1.00  0.00     0.177 C 
ATOM      3  C   UNL     1       8.858  11.741  -0.715  1.00  0.00     0.180 C 
ATOM      4  C   UNL     1       9.105  11.043  -2.067  1.00  0.00     0.214 C 
ATOM      5  C   UNL     1      10.615  10.895  -2.307  1.00  0.00     0.339 C 
ATOM      6  O   UNL     1      11.264  12.154  -2.271  1.00  0.00    -0.332 OA
ENDROOT
BRANCH   1   7
ATOM      7  C   UNL     1      11.983  14.056  -1.017  1.00  0.00     0.198 C 
BRANCH   7   8
ATOM      8  O   UNL     1      11.735  14.798   0.156  1.00  0.00    -0.347 OA
BRANCH   8   9
ATOM      9  C   UNL     1      12.361  16.072   0.104  1.00  0.00     0.281 C 
ATOM     10  C   UNL     1      14.265  15.559  -3.015  1.00  0.00     0.041 C 
ATOM     11  C   UNL     1      13.033  15.712  -2.120  1.00  0.00     0.150 C 
ATOM     12  C   UNL     1      12.051  16.769  -2.687  1.00  0.00     0.174 C 
ATOM     13  O   UNL     1      13.454  16.056  -0.806  1.00  0.00    -0.344 OA
ATOM     14  C   UNL     1      10.850  16.939  -1.736  1.00  0.00     0.179 C 
ATOM     15  C   UNL     1      11.327  17.147  -0.285  1.00  0.00     0.202 C 
BRANCH  12  16
ATOM     16  O   UNL     1      12.683  18.004  -2.931  1.00  0.00    -0.388 OA
ATOM     17  H   UNL     1      13.078  18.325  -2.082  1.00  0.00     0.211 HD
ENDBRANCH  12  16
BRANCH  14  18
ATOM     18  O   UNL     1      10.069  18.031  -2.154  1.00  0.00    -0.387 OA
ATOM     19  H   UNL     1       9.693  18.451  -1.338  1.00  0.00     0.211 HD
ENDBRANCH  14  18
BRANCH  15  20
ATOM     20  O   UNL     1      10.238  17.075   0.598  1.00  0.00    -0.385 OA
ATOM     21  H   UNL     1       9.430  17.359   0.093  1.00  0.00     0.211 HD
ENDBRANCH  15  20
ENDBRANCH   8   9
ENDBRANCH   7   8
ENDBRANCH   1   7
BRANCH   2  22
ATOM     22  O   UNL     1       9.589  13.534   0.687  1.00  0.00    -0.387 OA
ATOM     23  H   UNL     1      10.443  13.316   1.146  1.00  0.00     0.211 HD
ENDBRANCH   2  22
BRANCH   3  24
ATOM     24  O   UNL     1       7.496  12.039  -0.558  1.00  0.00    -0.387 OA
ATOM     25  H   UNL     1       7.348  12.199   0.411  1.00  0.00     0.211 HD
ENDBRANCH   3  24
BRANCH   5  26
ATOM     26  O   UNL     1      11.197   9.998  -1.356  1.00  0.00    -0.454 OA
BRANCH  26  27
ATOM     27  C   UNL     1      11.649   8.720  -1.697  1.00  0.00     0.214 A 
ATOM     28  C   UNL     1      12.911   8.515  -2.297  1.00  0.00     0.180 A 
ATOM     29  C   UNL     1      10.830   7.615  -1.448  1.00  0.00     0.239 A 
ATOM     30  O   UNL     1      13.273   7.291  -2.667  1.00  0.00    -0.452 OA
ATOM     31  C   UNL     1      11.251   6.331  -1.844  1.00  0.00     0.111 A 
ATOM     32  O   UNL     1       9.716   7.793  -0.884  1.00  0.00    -0.285 OA
ATOM     33  C   UNL     1      12.514   6.217  -2.473  1.00  0.00     0.146 A 
ATOM     34  C   UNL     1      10.468   5.166  -1.656  1.00  0.00     0.134 A 
ATOM     35  C   UNL     1      12.981   4.970  -2.898  1.00  0.00     0.094 A 
ATOM     36  C   UNL     1      10.955   3.923  -2.087  1.00  0.00     0.093 A 
ATOM     37  C   UNL     1      12.204   3.822  -2.706  1.00  0.00     0.123 A 
BRANCH  28  38
ATOM     38  C   UNL     1      13.858   9.627  -2.545  1.00  0.00     0.025 A 
ATOM     39  C   UNL     1      15.229   9.390  -2.761  1.00  0.00     0.062 A 
ATOM     40  C   UNL     1      13.381  10.947  -2.575  1.00  0.00     0.016 A 
ATOM     41  C   UNL     1      16.118  10.458  -2.942  1.00  0.00     0.158 A 
ATOM     42  C   UNL     1      14.264  12.012  -2.768  1.00  0.00     0.051 A 
ATOM     43  C   UNL     1      15.632  11.776  -2.944  1.00  0.00     0.157 A 
BRANCH  41  44
ATOM     44  O   UNL     1      17.479  10.213  -3.119  1.00  0.00    -0.504 OA
ATOM     45  H   UNL     1      18.002   9.640  -2.468  1.00  0.00     0.293 HD
ENDBRANCH  41  44
BRANCH  43  46
ATOM     46  O   UNL     1      16.491  12.862  -3.116  1.00  0.00    -0.504 OA
ATOM     47  H   UNL     1      16.341  13.748  -2.649  1.00  0.00     0.293 HD
ENDBRANCH  43  46
ENDBRANCH  28  38
BRANCH  34  48
ATOM     48  O   UNL     1       9.215   5.233  -1.046  1.00  0.00    -0.507 OA
ATOM     49  H   UNL     1       9.001   5.935  -0.346  1.00  0.00     0.293 HD
ENDBRANCH  34  48
BRANCH  37  50
ATOM     50  O   UNL     1      12.664   2.577  -3.125  1.00  0.00    -0.508 OA
ATOM     51  H   UNL     1      13.544   2.477  -3.620  1.00  0.00     0.293 HD
ENDBRANCH  37  50
ENDBRANCH  26  27
ENDBRANCH   5  26
BRANCH   4  52
ATOM     52  O   UNL     1       8.551  11.802  -3.112  1.00  0.00    -0.384 OA
ATOM     53  H   UNL     1       8.703  11.299  -3.953  1.00  0.00     0.211 HD
ENDBRANCH   4  52
TORSDOF 16
ENDMDL
