MODEL 1
REMARK VINA RESULT:    -7.381      0.000      0.000
REMARK INTER + INTRA:          -8.301
REMARK INTER:                  -8.028
REMARK INTRA:                  -0.273
REMARK UNBOUND:                -0.273
REMARK SMILES C[C@H]1[C@H]2C3=CC[C@H]4[C@]5(C)CC[C@H](O)C(C)(C)[C@@H]5CC[C@@]4(C)[C@@]3(C)CC[C@@]2(C(=O)[O-])CC[C@@H]1C
REMARK SMILES IDX 26 1 30 2 25 3 3 4 31 5 24 6 4 7 2 8 32 9 22 10 5 11 1 12
REMARK SMILES IDX 33 13 23 14 20 15 6 16 7 17 19 18 21 19 8 20 18 21 17 22
REMARK SMILES IDX 10 23 9 24 14 25 11 26 12 27 15 28 16 29 27 30 28 31 29 32
REMARK SMILES IDX 13 33
REMARK H PARENT 13 34
REMARK Flexibility Score: inf
ROOT
ATOM      1  C   UNL     1     180.528 180.891 175.208  1.00  0.00     0.017 C 
ATOM      2  C   UNL     1     180.289 179.381 175.509  1.00  0.00     0.014 C 
ATOM      3  C   UNL     1     179.889 181.213 173.841  1.00  0.00     0.014 C 
ATOM      4  C   UNL     1     182.066 181.248 175.138  1.00  0.00     0.030 C 
ATOM      5  C   UNL     1     181.336 178.830 176.470  1.00  0.00     0.004 C 
ATOM      6  C   UNL     1     179.920 182.703 173.512  1.00  0.00     0.013 C 
ATOM      7  C   UNL     1     182.391 182.480 174.251  1.00  0.00    -0.063 C 
ATOM      8  C   UNL     1     182.974 179.997 174.823  1.00  0.00    -0.003 C 
ATOM      9  C   UNL     1     182.732 178.806 175.814  1.00  0.00    -0.011 C 
ATOM     10  C   UNL     1     181.315 183.429 173.694  1.00  0.00    -0.006 C 
ATOM     11  C   UNL     1     183.669 182.894 174.209  1.00  0.00    -0.027 C 
ATOM     12  C   UNL     1     182.911 179.522 173.360  1.00  0.00     0.008 C 
ATOM     13  C   UNL     1     183.812 178.752 176.905  1.00  0.00     0.008 C 
ATOM     14  C   UNL     1     181.128 184.520 174.798  1.00  0.00     0.017 C 
ATOM     15  C   UNL     1     181.792 184.123 172.317  1.00  0.00    -0.020 C 
ATOM     16  C   UNL     1     184.201 183.931 173.272  1.00  0.00     0.032 C 
ATOM     17  C   UNL     1     183.191 184.846 172.495  1.00  0.00     0.006 C 
ATOM     18  C   UNL     1     181.994 183.050 171.210  1.00  0.00     0.008 C 
ATOM     19  C   UNL     1     180.682 185.152 171.892  1.00  0.00     0.012 C 
ATOM     20  C   UNL     1     183.889 185.428 171.160  1.00  0.00    -0.025 C 
ATOM     21  C   UNL     1     182.570 183.591 169.895  1.00  0.00     0.005 C 
ATOM     22  C   UNL     1     183.941 184.322 170.026  1.00  0.00     0.003 C 
ATOM     23  C   UNL     1     183.157 186.692 170.603  1.00  0.00     0.010 C 
ATOM     24  C   UNL     1     185.325 185.903 171.582  1.00  0.00     0.012 C 
ATOM     25  C   UNL     1     184.470 184.843 168.609  1.00  0.00    -0.006 C 
ATOM     26  C   UNL     1     183.737 187.235 169.283  1.00  0.00     0.033 C 
ATOM     27  C   UNL     1     183.761 186.169 168.172  1.00  0.00     0.120 C 
ATOM     28  C   UNL     1     186.013 185.061 168.631  1.00  0.00     0.014 C 
ATOM     29  C   UNL     1     184.243 183.773 167.498  1.00  0.00     0.014 C 
ENDROOT
BRANCH   1  30
ATOM     30  C   UNL     1     179.812 181.666 176.315  1.00  0.00     0.048 C 
ATOM     31  O   UNL     1     180.459 182.231 177.240  1.00  0.00    -0.550 OA
ATOM     32  O   UNL     1     178.423 181.647 176.395  1.00  0.00    -0.550 OA
ENDBRANCH   1  30
BRANCH  27  33
ATOM     33  O   UNL     1     182.443 185.918 167.748  1.00  0.00    -0.393 OA
ATOM     34  H   UNL     1     182.484 185.187 167.076  1.00  0.00     0.210 HD
ENDBRANCH  27  33
TORSDOF 2
ENDMDL
MODEL 2
REMARK VINA RESULT:    -7.371      5.482      8.980
REMARK INTER + INTRA:          -8.290
REMARK INTER:                  -8.017
REMARK INTRA:                  -0.273
REMARK UNBOUND:                -0.273
REMARK SMILES C[C@H]1[C@H]2C3=CC[C@H]4[C@]5(C)CC[C@H](O)C(C)(C)[C@@H]5CC[C@@]4(C)[C@@]3(C)CC[C@@]2(C(=O)[O-])CC[C@@H]1C
REMARK SMILES IDX 26 1 30 2 25 3 3 4 31 5 24 6 4 7 2 8 32 9 22 10 5 11 1 12
REMARK SMILES IDX 33 13 23 14 20 15 6 16 7 17 19 18 21 19 8 20 18 21 17 22
REMARK SMILES IDX 10 23 9 24 14 25 11 26 12 27 15 28 16 29 27 30 28 31 29 32
REMARK SMILES IDX 13 33
REMARK H PARENT 13 34
REMARK Flexibility Score: inf
ROOT
ATOM      1  C   UNL     1     180.196 179.833 175.213  1.00  0.00     0.017 C 
ATOM      2  C   UNL     1     180.413 181.348 175.509  1.00  0.00     0.014 C 
ATOM      3  C   UNL     1     180.837 179.517 173.846  1.00  0.00     0.014 C 
ATOM      4  C   UNL     1     178.663 179.452 175.148  1.00  0.00     0.030 C 
ATOM      5  C   UNL     1     179.360 181.885 176.471  1.00  0.00     0.004 C 
ATOM      6  C   UNL     1     180.828 178.025 173.522  1.00  0.00     0.013 C 
ATOM      7  C   UNL     1     178.355 178.213 174.266  1.00  0.00    -0.063 C 
ATOM      8  C   UNL     1     177.736 180.689 174.831  1.00  0.00    -0.003 C 
ATOM      9  C   UNL     1     177.963 181.887 175.818  1.00  0.00    -0.011 C 
ATOM     10  C   UNL     1     179.444 177.279 173.709  1.00  0.00    -0.006 C 
ATOM     11  C   UNL     1     177.084 177.780 174.228  1.00  0.00    -0.027 C 
ATOM     12  C   UNL     1     177.788 181.160 173.366  1.00  0.00     0.008 C 
ATOM     13  C   UNL     1     176.884 181.927 176.911  1.00  0.00     0.008 C 
ATOM     14  C   UNL     1     179.650 176.195 174.816  1.00  0.00     0.017 C 
ATOM     15  C   UNL     1     178.974 176.573 172.336  1.00  0.00    -0.020 C 
ATOM     16  C   UNL     1     176.565 176.732 173.296  1.00  0.00     0.032 C 
ATOM     17  C   UNL     1     177.587 175.829 172.519  1.00  0.00     0.006 C 
ATOM     18  C   UNL     1     178.754 177.639 171.225  1.00  0.00     0.008 C 
ATOM     19  C   UNL     1     180.100 175.560 171.911  1.00  0.00     0.012 C 
ATOM     20  C   UNL     1     176.895 175.233 171.187  1.00  0.00    -0.025 C 
ATOM     21  C   UNL     1     178.183 177.085 169.914  1.00  0.00     0.005 C 
ATOM     22  C   UNL     1     176.823 176.334 170.051  1.00  0.00     0.003 C 
ATOM     23  C   UNL     1     177.644 173.978 170.632  1.00  0.00     0.010 C 
ATOM     24  C   UNL     1     175.467 174.737 171.615  1.00  0.00     0.012 C 
ATOM     25  C   UNL     1     176.299 175.801 168.636  1.00  0.00    -0.006 C 
ATOM     26  C   UNL     1     177.070 173.422 169.316  1.00  0.00     0.033 C 
ATOM     27  C   UNL     1     177.028 174.484 168.202  1.00  0.00     0.120 C 
ATOM     28  C   UNL     1     174.760 175.560 168.663  1.00  0.00     0.014 C 
ATOM     29  C   UNL     1     176.507 176.871 167.521  1.00  0.00     0.014 C 
ENDROOT
BRANCH   1  30
ATOM     30  C   UNL     1     180.926 179.072 176.321  1.00  0.00     0.048 C 
ATOM     31  O   UNL     1     180.292 178.519 177.260  1.00  0.00    -0.550 OA
ATOM     32  O   UNL     1     182.316 179.094 176.383  1.00  0.00    -0.550 OA
ENDBRANCH   1  30
BRANCH  27  33
ATOM     33  O   UNL     1     178.340 174.754 167.774  1.00  0.00    -0.393 OA
ATOM     34  H   UNL     1     178.928 174.698 168.572  1.00  0.00     0.210 HD
ENDBRANCH  27  33
TORSDOF 2
ENDMDL
MODEL 3
REMARK VINA RESULT:    -7.292      5.160      8.636
REMARK INTER + INTRA:          -8.205
REMARK INTER:                  -7.939
REMARK INTRA:                  -0.266
REMARK UNBOUND:                -0.273
REMARK SMILES C[C@H]1[C@H]2C3=CC[C@H]4[C@]5(C)CC[C@H](O)C(C)(C)[C@@H]5CC[C@@]4(C)[C@@]3(C)CC[C@@]2(C(=O)[O-])CC[C@@H]1C
REMARK SMILES IDX 26 1 30 2 25 3 3 4 31 5 24 6 4 7 2 8 32 9 22 10 5 11 1 12
REMARK SMILES IDX 33 13 23 14 20 15 6 16 7 17 19 18 21 19 8 20 18 21 17 22
REMARK SMILES IDX 10 23 9 24 14 25 11 26 12 27 15 28 16 29 27 30 28 31 29 32
REMARK SMILES IDX 13 33
REMARK H PARENT 13 34
REMARK Flexibility Score: inf
ROOT
ATOM      1  C   UNL     1     180.356 180.050 175.315  1.00  0.00     0.017 C 
ATOM      2  C   UNL     1     181.707 180.756 175.644  1.00  0.00     0.014 C 
ATOM      3  C   UNL     1     180.597 178.526 175.338  1.00  0.00     0.014 C 
ATOM      4  C   UNL     1     179.807 180.449 173.888  1.00  0.00     0.030 C 
ATOM      5  C   UNL     1     181.748 182.172 175.080  1.00  0.00     0.004 C 
ATOM      6  C   UNL     1     179.307 177.724 175.188  1.00  0.00     0.013 C 
ATOM      7  C   UNL     1     178.894 179.376 173.238  1.00  0.00    -0.063 C 
ATOM      8  C   UNL     1     180.937 180.975 172.920  1.00  0.00    -0.003 C 
ATOM      9  C   UNL     1     181.766 182.154 173.538  1.00  0.00    -0.011 C 
ATOM     10  C   UNL     1     178.355 178.151 173.998  1.00  0.00    -0.006 C 
ATOM     11  C   UNL     1     178.323 179.679 172.060  1.00  0.00    -0.027 C 
ATOM     12  C   UNL     1     181.863 179.874 172.371  1.00  0.00     0.008 C 
ATOM     13  C   UNL     1     181.296 183.515 173.002  1.00  0.00     0.008 C 
ATOM     14  C   UNL     1     177.009 178.629 174.632  1.00  0.00     0.017 C 
ATOM     15  C   UNL     1     178.077 176.911 173.002  1.00  0.00    -0.020 C 
ATOM     16  C   UNL     1     177.575 178.712 171.198  1.00  0.00     0.032 C 
ATOM     17  C   UNL     1     177.128 177.336 171.807  1.00  0.00     0.006 C 
ATOM     18  C   UNL     1     179.406 176.428 172.353  1.00  0.00     0.008 C 
ATOM     19  C   UNL     1     177.426 175.756 173.849  1.00  0.00     0.012 C 
ATOM     20  C   UNL     1     176.908 176.257 170.626  1.00  0.00    -0.025 C 
ATOM     21  C   UNL     1     179.236 175.334 171.292  1.00  0.00     0.005 C 
ATOM     22  C   UNL     1     178.299 175.707 170.103  1.00  0.00     0.003 C 
ATOM     23  C   UNL     1     176.021 175.050 171.075  1.00  0.00     0.010 C 
ATOM     24  C   UNL     1     176.106 176.994 169.496  1.00  0.00     0.012 C 
ATOM     25  C   UNL     1     178.189 174.514 169.042  1.00  0.00    -0.006 C 
ATOM     26  C   UNL     1     175.851 173.952 170.009  1.00  0.00     0.033 C 
ATOM     27  C   UNL     1     177.202 173.396 169.521  1.00  0.00     0.120 C 
ATOM     28  C   UNL     1     177.739 175.043 167.647  1.00  0.00     0.014 C 
ATOM     29  C   UNL     1     179.582 173.864 168.782  1.00  0.00     0.014 C 
ENDROOT
BRANCH   1  30
ATOM     30  C   UNL     1     179.386 180.443 176.431  1.00  0.00     0.048 C 
ATOM     31  O   UNL     1     178.428 181.233 176.213  1.00  0.00    -0.550 OA
ATOM     32  O   UNL     1     179.627 180.038 177.740  1.00  0.00    -0.550 OA
ENDBRANCH   1  30
BRANCH  27  33
ATOM     33  O   UNL     1     177.777 172.623 170.544  1.00  0.00    -0.393 OA
ATOM     34  H   UNL     1     178.013 171.741 170.151  1.00  0.00     0.210 HD
ENDBRANCH  27  33
TORSDOF 2
ENDMDL
MODEL 4
REMARK VINA RESULT:    -7.290      1.746      2.855
REMARK INTER + INTRA:          -8.202
REMARK INTER:                  -7.937
REMARK INTRA:                  -0.264
REMARK UNBOUND:                -0.273
REMARK SMILES C[C@H]1[C@H]2C3=CC[C@H]4[C@]5(C)CC[C@H](O)C(C)(C)[C@@H]5CC[C@@]4(C)[C@@]3(C)CC[C@@]2(C(=O)[O-])CC[C@@H]1C
REMARK SMILES IDX 26 1 30 2 25 3 3 4 31 5 24 6 4 7 2 8 32 9 22 10 5 11 1 12
REMARK SMILES IDX 33 13 23 14 20 15 6 16 7 17 19 18 21 19 8 20 18 21 17 22
REMARK SMILES IDX 10 23 9 24 14 25 11 26 12 27 15 28 16 29 27 30 28 31 29 32
REMARK SMILES IDX 13 33
REMARK H PARENT 13 34
REMARK Flexibility Score: inf
ROOT
ATOM      1  C   UNL     1     180.414 180.589 175.291  1.00  0.00     0.017 C 
ATOM      2  C   UNL     1     179.076 179.854 175.609  1.00  0.00     0.014 C 
ATOM      3  C   UNL     1     180.143 182.108 175.322  1.00  0.00     0.014 C 
ATOM      4  C   UNL     1     180.977 180.210 173.864  1.00  0.00     0.030 C 
ATOM      5  C   UNL     1     179.065 178.442 175.036  1.00  0.00     0.004 C 
ATOM      6  C   UNL     1     181.418 182.936 175.183  1.00  0.00     0.013 C 
ATOM      7  C   UNL     1     181.872 181.305 173.225  1.00  0.00    -0.063 C 
ATOM      8  C   UNL     1     179.862 179.668 172.887  1.00  0.00    -0.003 C 
ATOM      9  C   UNL     1     179.054 178.469 173.494  1.00  0.00    -0.011 C 
ATOM     10  C   UNL     1     182.383 182.536 173.994  1.00  0.00    -0.006 C 
ATOM     11  C   UNL     1     182.454 181.021 172.047  1.00  0.00    -0.027 C 
ATOM     12  C   UNL     1     178.917 180.754 172.340  1.00  0.00     0.008 C 
ATOM     13  C   UNL     1     179.553 177.121 172.951  1.00  0.00     0.008 C 
ATOM     14  C   UNL     1     183.736 182.079 174.631  1.00  0.00     0.017 C 
ATOM     15  C   UNL     1     182.641 183.787 173.008  1.00  0.00    -0.020 C 
ATOM     16  C   UNL     1     183.187 182.007 171.195  1.00  0.00     0.032 C 
ATOM     17  C   UNL     1     183.604 183.388 171.815  1.00  0.00     0.006 C 
ATOM     18  C   UNL     1     181.307 184.247 172.355  1.00  0.00     0.008 C 
ATOM     19  C   UNL     1     183.266 184.949 173.865  1.00  0.00     0.012 C 
ATOM     20  C   UNL     1     183.808 184.479 170.642  1.00  0.00    -0.025 C 
ATOM     21  C   UNL     1     181.459 185.351 171.302  1.00  0.00     0.005 C 
ATOM     22  C   UNL     1     182.409 185.004 170.115  1.00  0.00     0.003 C 
ATOM     23  C   UNL     1     184.669 185.700 171.102  1.00  0.00     0.010 C 
ATOM     24  C   UNL     1     184.630 183.764 169.510  1.00  0.00     0.012 C 
ATOM     25  C   UNL     1     182.500 186.206 169.062  1.00  0.00    -0.006 C 
ATOM     26  C   UNL     1     184.822 186.808 170.043  1.00  0.00     0.033 C 
ATOM     27  C   UNL     1     183.464 187.340 169.552  1.00  0.00     0.120 C 
ATOM     28  C   UNL     1     182.967 185.695 167.666  1.00  0.00     0.014 C 
ATOM     29  C   UNL     1     181.096 186.830 168.800  1.00  0.00     0.014 C 
ENDROOT
BRANCH   1  30
ATOM     30  C   UNL     1     181.386 180.208 176.408  1.00  0.00     0.048 C 
ATOM     31  O   UNL     1     182.363 179.442 176.189  1.00  0.00    -0.550 OA
ATOM     32  O   UNL     1     181.130 180.596 177.720  1.00  0.00    -0.550 OA
ENDBRANCH   1  30
BRANCH  27  33
ATOM     33  O   UNL     1     182.868 188.096 170.578  1.00  0.00    -0.393 OA
ATOM     34  H   UNL     1     182.358 188.830 170.145  1.00  0.00     0.210 HD
ENDBRANCH  27  33
TORSDOF 2
ENDMDL
MODEL 5
REMARK VINA RESULT:    -7.285      3.072      7.674
REMARK INTER + INTRA:          -8.196
REMARK INTER:                  -8.128
REMARK INTRA:                  -0.069
REMARK UNBOUND:                -0.273
REMARK SMILES C[C@H]1[C@H]2C3=CC[C@H]4[C@]5(C)CC[C@H](O)C(C)(C)[C@@H]5CC[C@@]4(C)[C@@]3(C)CC[C@@]2(C(=O)[O-])CC[C@@H]1C
REMARK SMILES IDX 26 1 30 2 25 3 3 4 31 5 24 6 4 7 2 8 32 9 22 10 5 11 1 12
REMARK SMILES IDX 33 13 23 14 20 15 6 16 7 17 19 18 21 19 8 20 18 21 17 22
REMARK SMILES IDX 10 23 9 24 14 25 11 26 12 27 15 28 16 29 27 30 28 31 29 32
REMARK SMILES IDX 13 33
REMARK H PARENT 13 34
REMARK Flexibility Score: inf
ROOT
ATOM      1  C   UNL     1     182.837 183.635 173.844  1.00  0.00     0.017 C 
ATOM      2  C   UNL     1     184.260 184.127 173.440  1.00  0.00     0.014 C 
ATOM      3  C   UNL     1     182.993 182.313 174.624  1.00  0.00     0.014 C 
ATOM      4  C   UNL     1     181.919 183.369 172.585  1.00  0.00     0.030 C 
ATOM      5  C   UNL     1     184.211 185.032 172.214  1.00  0.00     0.004 C 
ATOM      6  C   UNL     1     181.674 181.817 175.212  1.00  0.00     0.013 C 
ATOM      7  C   UNL     1     180.801 182.320 172.827  1.00  0.00    -0.063 C 
ATOM      8  C   UNL     1     182.745 183.105 171.267  1.00  0.00    -0.003 C 
ATOM      9  C   UNL     1     183.780 184.244 170.961  1.00  0.00    -0.011 C 
ATOM     10  C   UNL     1     180.441 181.772 174.220  1.00  0.00    -0.006 C 
ATOM     11  C   UNL     1     179.929 182.101 171.828  1.00  0.00    -0.027 C 
ATOM     12  C   UNL     1     183.412 181.719 171.204  1.00  0.00     0.008 C 
ATOM     13  C   UNL     1     183.247 185.217 169.898  1.00  0.00     0.008 C 
ATOM     14  C   UNL     1     179.364 182.760 174.776  1.00  0.00     0.017 C 
ATOM     15  C   UNL     1     179.821 180.285 174.131  1.00  0.00    -0.020 C 
ATOM     16  C   UNL     1     178.913 181.005 171.804  1.00  0.00     0.032 C 
ATOM     17  C   UNL     1     178.590 180.236 173.135  1.00  0.00     0.006 C 
ATOM     18  C   UNL     1     180.876 179.290 173.568  1.00  0.00     0.008 C 
ATOM     19  C   UNL     1     179.384 179.863 175.581  1.00  0.00     0.012 C 
ATOM     20  C   UNL     1     177.980 178.780 172.795  1.00  0.00    -0.025 C 
ATOM     21  C   UNL     1     180.348 177.872 173.323  1.00  0.00     0.005 C 
ATOM     22  C   UNL     1     179.127 177.779 172.358  1.00  0.00     0.003 C 
ATOM     23  C   UNL     1     177.199 178.162 174.000  1.00  0.00     0.010 C 
ATOM     24  C   UNL     1     176.924 178.997 171.653  1.00  0.00     0.012 C 
ATOM     25  C   UNL     1     178.651 176.265 172.153  1.00  0.00    -0.006 C 
ATOM     26  C   UNL     1     176.668 176.737 173.753  1.00  0.00     0.033 C 
ATOM     27  C   UNL     1     177.787 175.757 173.357  1.00  0.00     0.120 C 
ATOM     28  C   UNL     1     177.844 176.105 170.829  1.00  0.00     0.014 C 
ATOM     29  C   UNL     1     179.872 175.311 171.983  1.00  0.00     0.014 C 
ENDROOT
BRANCH   1  30
ATOM     30  C   UNL     1     182.255 184.716 174.757  1.00  0.00     0.048 C 
ATOM     31  O   UNL     1     181.153 185.269 174.492  1.00  0.00    -0.550 OA
ATOM     32  O   UNL     1     183.000 185.202 175.826  1.00  0.00    -0.550 OA
ENDBRANCH   1  30
BRANCH  27  33
ATOM     33  O   UNL     1     178.593 175.501 174.480  1.00  0.00    -0.393 OA
ATOM     34  H   UNL     1     179.389 176.092 174.413  1.00  0.00     0.210 HD
ENDBRANCH  27  33
TORSDOF 2
ENDMDL
MODEL 6
REMARK VINA RESULT:    -7.279      3.512      5.657
REMARK INTER + INTRA:          -8.190
REMARK INTER:                  -8.109
REMARK INTRA:                  -0.081
REMARK UNBOUND:                -0.273
REMARK SMILES C[C@H]1[C@H]2C3=CC[C@H]4[C@]5(C)CC[C@H](O)C(C)(C)[C@@H]5CC[C@@]4(C)[C@@]3(C)CC[C@@]2(C(=O)[O-])CC[C@@H]1C
REMARK SMILES IDX 26 1 30 2 25 3 3 4 31 5 24 6 4 7 2 8 32 9 22 10 5 11 1 12
REMARK SMILES IDX 33 13 23 14 20 15 6 16 7 17 19 18 21 19 8 20 18 21 17 22
REMARK SMILES IDX 10 23 9 24 14 25 11 26 12 27 15 28 16 29 27 30 28 31 29 32
REMARK SMILES IDX 13 33
REMARK H PARENT 13 34
REMARK Flexibility Score: inf
ROOT
ATOM      1  C   UNL     1     177.824 177.028 173.817  1.00  0.00     0.017 C 
ATOM      2  C   UNL     1     176.407 176.520 173.411  1.00  0.00     0.014 C 
ATOM      3  C   UNL     1     177.651 178.343 174.606  1.00  0.00     0.014 C 
ATOM      4  C   UNL     1     178.737 177.315 172.559  1.00  0.00     0.030 C 
ATOM      5  C   UNL     1     176.468 175.624 172.179  1.00  0.00     0.004 C 
ATOM      6  C   UNL     1     178.964 178.852 175.196  1.00  0.00     0.013 C 
ATOM      7  C   UNL     1     179.842 178.376 172.807  1.00  0.00    -0.063 C 
ATOM      8  C   UNL     1     177.906 177.576 171.244  1.00  0.00    -0.003 C 
ATOM      9  C   UNL     1     176.887 176.426 170.931  1.00  0.00    -0.011 C 
ATOM     10  C   UNL     1     180.195 178.920 174.203  1.00  0.00    -0.006 C 
ATOM     11  C   UNL     1     180.709 178.613 171.809  1.00  0.00    -0.027 C 
ATOM     12  C   UNL     1     177.222 178.954 171.190  1.00  0.00     0.008 C 
ATOM     13  C   UNL     1     177.432 175.466 169.862  1.00  0.00     0.008 C 
ATOM     14  C   UNL     1     181.286 177.943 174.752  1.00  0.00     0.017 C 
ATOM     15  C   UNL     1     180.796 180.416 174.123  1.00  0.00    -0.020 C 
ATOM     16  C   UNL     1     181.711 179.723 171.792  1.00  0.00     0.032 C 
ATOM     17  C   UNL     1     182.025 180.487 173.127  1.00  0.00     0.006 C 
ATOM     18  C   UNL     1     179.727 181.400 173.568  1.00  0.00     0.008 C 
ATOM     19  C   UNL     1     181.229 180.834 175.576  1.00  0.00     0.012 C 
ATOM     20  C   UNL     1     182.616 181.954 172.796  1.00  0.00    -0.025 C 
ATOM     21  C   UNL     1     180.236 182.827 173.332  1.00  0.00     0.005 C 
ATOM     22  C   UNL     1     181.455 182.942 172.366  1.00  0.00     0.003 C 
ATOM     23  C   UNL     1     183.390 182.574 174.004  1.00  0.00     0.010 C 
ATOM     24  C   UNL     1     183.674 181.758 171.652  1.00  0.00     0.012 C 
ATOM     25  C   UNL     1     181.911 184.463 172.171  1.00  0.00    -0.006 C 
ATOM     26  C   UNL     1     183.902 184.007 173.766  1.00  0.00     0.033 C 
ATOM     27  C   UNL     1     182.769 184.975 173.377  1.00  0.00     0.120 C 
ATOM     28  C   UNL     1     182.715 184.643 170.847  1.00  0.00     0.014 C 
ATOM     29  C   UNL     1     180.678 185.403 172.008  1.00  0.00     0.014 C 
ENDROOT
BRANCH   1  30
ATOM     30  C   UNL     1     178.421 175.950 174.722  1.00  0.00     0.048 C 
ATOM     31  O   UNL     1     179.524 175.403 174.446  1.00  0.00    -0.550 OA
ATOM     32  O   UNL     1     177.689 175.457 175.798  1.00  0.00    -0.550 OA
ENDBRANCH   1  30
BRANCH  27  33
ATOM     33  O   UNL     1     181.961 185.214 174.503  1.00  0.00    -0.393 OA
ATOM     34  H   UNL     1     181.533 184.351 174.747  1.00  0.00     0.210 HD
ENDBRANCH  27  33
TORSDOF 2
ENDMDL
MODEL 7
REMARK VINA RESULT:    -7.155      3.214      8.143
REMARK INTER + INTRA:          -8.055
REMARK INTER:                  -7.782
REMARK INTRA:                  -0.273
REMARK UNBOUND:                -0.273
REMARK SMILES C[C@H]1[C@H]2C3=CC[C@H]4[C@]5(C)CC[C@H](O)C(C)(C)[C@@H]5CC[C@@]4(C)[C@@]3(C)CC[C@@]2(C(=O)[O-])CC[C@@H]1C
REMARK SMILES IDX 26 1 30 2 25 3 3 4 31 5 24 6 4 7 2 8 32 9 22 10 5 11 1 12
REMARK SMILES IDX 33 13 23 14 20 15 6 16 7 17 19 18 21 19 8 20 18 21 17 22
REMARK SMILES IDX 10 23 9 24 14 25 11 26 12 27 15 28 16 29 27 30 28 31 29 32
REMARK SMILES IDX 13 33
REMARK H PARENT 13 34
REMARK Flexibility Score: inf
ROOT
ATOM      1  C   UNL     1     178.658 185.827 169.891  1.00  0.00     0.017 C 
ATOM      2  C   UNL     1     178.765 186.056 168.353  1.00  0.00     0.014 C 
ATOM      3  C   UNL     1     180.064 185.478 170.421  1.00  0.00     0.014 C 
ATOM      4  C   UNL     1     177.678 184.640 170.250  1.00  0.00     0.030 C 
ATOM      5  C   UNL     1     177.430 185.812 167.659  1.00  0.00     0.004 C 
ATOM      6  C   UNL     1     180.115 185.389 171.944  1.00  0.00     0.013 C 
ATOM      7  C   UNL     1     177.993 183.946 171.602  1.00  0.00    -0.063 C 
ATOM      8  C   UNL     1     177.482 183.624 169.059  1.00  0.00    -0.003 C 
ATOM      9  C   UNL     1     177.030 184.325 167.731  1.00  0.00    -0.011 C 
ATOM     10  C   UNL     1     178.993 184.507 172.629  1.00  0.00    -0.006 C 
ATOM     11  C   UNL     1     177.153 182.981 172.015  1.00  0.00    -0.027 C 
ATOM     12  C   UNL     1     178.685 182.695 168.815  1.00  0.00     0.008 C 
ATOM     13  C   UNL     1     175.517 184.186 167.508  1.00  0.00     0.008 C 
ATOM     14  C   UNL     1     178.149 185.457 173.538  1.00  0.00     0.017 C 
ATOM     15  C   UNL     1     179.644 183.333 173.525  1.00  0.00    -0.020 C 
ATOM     16  C   UNL     1     177.394 182.078 173.182  1.00  0.00     0.032 C 
ATOM     17  C   UNL     1     178.524 182.445 174.209  1.00  0.00     0.006 C 
ATOM     18  C   UNL     1     180.480 182.370 172.635  1.00  0.00     0.008 C 
ATOM     19  C   UNL     1     180.557 184.012 174.610  1.00  0.00     0.012 C 
ATOM     20  C   UNL     1     179.014 181.117 174.986  1.00  0.00    -0.025 C 
ATOM     21  C   UNL     1     181.038 181.145 173.369  1.00  0.00     0.005 C 
ATOM     22  C   UNL     1     179.969 180.249 174.067  1.00  0.00     0.003 C 
ATOM     23  C   UNL     1     179.755 181.445 176.323  1.00  0.00     0.010 C 
ATOM     24  C   UNL     1     177.714 180.333 175.387  1.00  0.00     0.012 C 
ATOM     25  C   UNL     1     180.639 178.993 174.798  1.00  0.00    -0.006 C 
ATOM     26  C   UNL     1     180.315 180.215 177.061  1.00  0.00     0.033 C 
ATOM     27  C   UNL     1     181.267 179.387 176.178  1.00  0.00     0.120 C 
ATOM     28  C   UNL     1     179.603 177.848 175.006  1.00  0.00     0.014 C 
ATOM     29  C   UNL     1     181.752 178.357 173.912  1.00  0.00     0.014 C 
ENDROOT
BRANCH   1  30
ATOM     30  C   UNL     1     178.189 187.155 170.489  1.00  0.00     0.048 C 
ATOM     31  O   UNL     1     177.001 187.310 170.883  1.00  0.00    -0.550 OA
ATOM     32  O   UNL     1     179.034 188.260 170.484  1.00  0.00    -0.550 OA
ENDBRANCH   1  30
BRANCH  27  33
ATOM     33  O   UNL     1     182.465 180.101 175.998  1.00  0.00    -0.393 OA
ATOM     34  H   UNL     1     182.908 180.161 176.886  1.00  0.00     0.210 HD
ENDBRANCH  27  33
TORSDOF 2
ENDMDL
MODEL 8
REMARK VINA RESULT:    -7.106      5.391      8.451
REMARK INTER + INTRA:          -8.002
REMARK INTER:                  -7.885
REMARK INTRA:                  -0.117
REMARK UNBOUND:                -0.273
REMARK SMILES C[C@H]1[C@H]2C3=CC[C@H]4[C@]5(C)CC[C@H](O)C(C)(C)[C@@H]5CC[C@@]4(C)[C@@]3(C)CC[C@@]2(C(=O)[O-])CC[C@@H]1C
REMARK SMILES IDX 26 1 30 2 25 3 3 4 31 5 24 6 4 7 2 8 32 9 22 10 5 11 1 12
REMARK SMILES IDX 33 13 23 14 20 15 6 16 7 17 19 18 21 19 8 20 18 21 17 22
REMARK SMILES IDX 10 23 9 24 14 25 11 26 12 27 15 28 16 29 27 30 28 31 29 32
REMARK SMILES IDX 13 33
REMARK H PARENT 13 34
REMARK Flexibility Score: inf
ROOT
ATOM      1  C   UNL     1     178.674 180.682 175.152  1.00  0.00     0.017 C 
ATOM      2  C   UNL     1     178.926 180.736 176.690  1.00  0.00     0.014 C 
ATOM      3  C   UNL     1     177.251 180.133 174.920  1.00  0.00     0.014 C 
ATOM      4  C   UNL     1     179.702 179.736 174.413  1.00  0.00     0.030 C 
ATOM      5  C   UNL     1     180.414 180.676 177.014  1.00  0.00     0.004 C 
ATOM      6  C   UNL     1     176.831 180.185 173.453  1.00  0.00     0.013 C 
ATOM      7  C   UNL     1     179.167 179.131 173.088  1.00  0.00    -0.063 C 
ATOM      8  C   UNL     1     180.348 178.662 175.372  1.00  0.00    -0.003 C 
ATOM      9  C   UNL     1     181.007 179.301 176.644  1.00  0.00    -0.011 C 
ATOM     10  C   UNL     1     177.865 179.596 172.411  1.00  0.00    -0.006 C 
ATOM     11  C   UNL     1     180.014 178.382 172.362  1.00  0.00    -0.027 C 
ATOM     12  C   UNL     1     179.404 177.508 175.757  1.00  0.00     0.008 C 
ATOM     13  C   UNL     1     182.530 179.423 176.488  1.00  0.00     0.008 C 
ATOM     14  C   UNL     1     178.295 180.769 171.472  1.00  0.00     0.017 C 
ATOM     15  C   UNL     1     177.198 178.415 171.535  1.00  0.00    -0.020 C 
ATOM     16  C   UNL     1     179.628 177.568 171.168  1.00  0.00     0.032 C 
ATOM     17  C   UNL     1     178.233 177.819 170.493  1.00  0.00     0.006 C 
ATOM     18  C   UNL     1     176.774 177.233 172.452  1.00  0.00     0.008 C 
ATOM     19  C   UNL     1     175.947 179.017 170.797  1.00  0.00     0.012 C 
ATOM     20  C   UNL     1     177.773 176.506 169.673  1.00  0.00    -0.025 C 
ATOM     21  C   UNL     1     176.244 176.003 171.704  1.00  0.00     0.005 C 
ATOM     22  C   UNL     1     177.227 175.392 170.659  1.00  0.00     0.003 C 
ATOM     23  C   UNL     1     176.676 176.821 168.604  1.00  0.00     0.010 C 
ATOM     24  C   UNL     1     179.035 176.017 168.876  1.00  0.00     0.012 C 
ATOM     25  C   UNL     1     176.597 174.112 169.935  1.00  0.00    -0.006 C 
ATOM     26  C   UNL     1     176.145 175.586 167.853  1.00  0.00     0.033 C 
ATOM     27  C   UNL     1     175.587 174.515 168.808  1.00  0.00     0.120 C 
ATOM     28  C   UNL     1     177.710 173.202 169.335  1.00  0.00     0.014 C 
ATOM     29  C   UNL     1     175.856 173.198 170.958  1.00  0.00     0.014 C 
ENDROOT
BRANCH   1  30
ATOM     30  C   UNL     1     178.766 182.125 174.653  1.00  0.00     0.048 C 
ATOM     31  O   UNL     1     177.759 182.884 174.665  1.00  0.00    -0.550 OA
ATOM     32  O   UNL     1     179.934 182.583 174.052  1.00  0.00    -0.550 OA
ENDBRANCH   1  30
BRANCH  27  33
ATOM     33  O   UNL     1     174.378 174.976 169.359  1.00  0.00    -0.393 OA
ATOM     34  H   UNL     1     173.919 175.509 168.658  1.00  0.00     0.210 HD
ENDBRANCH  27  33
TORSDOF 2
ENDMDL
MODEL 9
REMARK VINA RESULT:    -7.078      2.515      7.887
REMARK INTER + INTRA:          -7.972
REMARK INTER:                  -7.778
REMARK INTRA:                  -0.194
REMARK UNBOUND:                -0.273
REMARK SMILES C[C@H]1[C@H]2C3=CC[C@H]4[C@]5(C)CC[C@H](O)C(C)(C)[C@@H]5CC[C@@]4(C)[C@@]3(C)CC[C@@]2(C(=O)[O-])CC[C@@H]1C
REMARK SMILES IDX 26 1 30 2 25 3 3 4 31 5 24 6 4 7 2 8 32 9 22 10 5 11 1 12
REMARK SMILES IDX 33 13 23 14 20 15 6 16 7 17 19 18 21 19 8 20 18 21 17 22
REMARK SMILES IDX 10 23 9 24 14 25 11 26 12 27 15 28 16 29 27 30 28 31 29 32
REMARK SMILES IDX 13 33
REMARK H PARENT 13 34
REMARK Flexibility Score: inf
ROOT
ATOM      1  C   UNL     1     182.959 184.857 171.338  1.00  0.00     0.017 C 
ATOM      2  C   UNL     1     182.964 185.688 170.019  1.00  0.00     0.014 C 
ATOM      3  C   UNL     1     183.319 183.399 170.984  1.00  0.00     0.014 C 
ATOM      4  C   UNL     1     181.545 184.867 172.043  1.00  0.00     0.030 C 
ATOM      5  C   UNL     1     182.077 186.923 170.134  1.00  0.00     0.004 C 
ATOM      6  C   UNL     1     183.503 182.521 172.220  1.00  0.00     0.013 C 
ATOM      7  C   UNL     1     181.271 183.624 172.931  1.00  0.00    -0.063 C 
ATOM      8  C   UNL     1     180.365 185.195 171.049  1.00  0.00    -0.003 C 
ATOM      9  C   UNL     1     180.592 186.529 170.256  1.00  0.00    -0.011 C 
ATOM     10  C   UNL     1     182.354 182.597 173.306  1.00  0.00    -0.006 C 
ATOM     11  C   UNL     1     180.123 183.601 173.629  1.00  0.00    -0.027 C 
ATOM     12  C   UNL     1     179.998 184.041 170.099  1.00  0.00     0.008 C 
ATOM     13  C   UNL     1     179.800 187.692 170.872  1.00  0.00     0.008 C 
ATOM     14  C   UNL     1     182.996 183.149 174.620  1.00  0.00     0.017 C 
ATOM     15  C   UNL     1     181.719 181.139 173.582  1.00  0.00    -0.020 C 
ATOM     16  C   UNL     1     179.602 182.417 174.380  1.00  0.00     0.032 C 
ATOM     17  C   UNL     1     180.565 181.212 174.666  1.00  0.00     0.006 C 
ATOM     18  C   UNL     1     181.065 180.578 172.287  1.00  0.00     0.008 C 
ATOM     19  C   UNL     1     182.881 180.196 174.066  1.00  0.00     0.012 C 
ATOM     20  C   UNL     1     179.706 179.867 174.913  1.00  0.00    -0.025 C 
ATOM     21  C   UNL     1     180.320 179.251 172.472  1.00  0.00     0.005 C 
ATOM     22  C   UNL     1     179.183 179.275 173.539  1.00  0.00     0.003 C 
ATOM     23  C   UNL     1     180.522 178.764 175.664  1.00  0.00     0.010 C 
ATOM     24  C   UNL     1     178.525 180.265 175.868  1.00  0.00     0.012 C 
ATOM     25  C   UNL     1     178.456 177.854 173.658  1.00  0.00    -0.006 C 
ATOM     26  C   UNL     1     179.773 177.432 175.850  1.00  0.00     0.033 C 
ATOM     27  C   UNL     1     179.290 176.841 174.512  1.00  0.00     0.120 C 
ATOM     28  C   UNL     1     177.031 178.004 174.272  1.00  0.00     0.014 C 
ATOM     29  C   UNL     1     178.211 177.230 172.251  1.00  0.00     0.014 C 
ENDROOT
BRANCH   1  30
ATOM     30  C   UNL     1     184.046 185.463 172.228  1.00  0.00     0.048 C 
ATOM     31  O   UNL     1     183.759 186.005 173.330  1.00  0.00    -0.550 OA
ATOM     32  O   UNL     1     185.358 185.544 171.771  1.00  0.00    -0.550 OA
ENDBRANCH   1  30
BRANCH  27  33
ATOM     33  O   UNL     1     180.401 176.370 173.790  1.00  0.00    -0.393 OA
ATOM     34  H   UNL     1     181.068 176.047 174.451  1.00  0.00     0.210 HD
ENDBRANCH  27  33
TORSDOF 2
ENDMDL
