MODEL 1
REMARK VINA RESULT:    -7.127      0.000      0.000
REMARK INTER + INTRA:         -16.569
REMARK INTER:                 -15.459
REMARK INTRA:                  -1.109
REMARK UNBOUND:                -1.109
REMARK SMILES CCCCCCCCCCCCCCCCCCCCCC(=O)[O-]
REMARK SMILES IDX 12 1 11 2 10 3 9 4 8 5 7 6 6 7 5 8 4 9 3 10 2 11 1 12 13 13
REMARK SMILES IDX 14 14 15 15 16 16 17 17 18 18 19 19 20 20 21 21 22 22 23 23
REMARK SMILES IDX 24 24
REMARK H PARENT
REMARK Flexibility Score: inf
ROOT
ATOM      1  C   UNL     1     -22.198 -22.015  28.385  1.00  0.00     0.000 C 
ENDROOT
BRANCH   1   2
ATOM      2  C   UNL     1     -22.018 -23.401  29.023  1.00  0.00     0.000 C 
BRANCH   2   3
ATOM      3  C   UNL     1     -22.759 -24.507  28.249  1.00  0.00     0.000 C 
BRANCH   3   4
ATOM      4  C   UNL     1     -23.356 -25.579  29.174  1.00  0.00    -0.000 C 
BRANCH   4   5
ATOM      5  C   UNL     1     -23.900 -24.994  30.486  1.00  0.00    -0.000 C 
BRANCH   5   6
ATOM      6  C   UNL     1     -25.106 -25.804  30.987  1.00  0.00    -0.000 C 
BRANCH   6   7
ATOM      7  C   UNL     1     -25.020 -27.298  30.628  1.00  0.00    -0.000 C 
BRANCH   7   8
ATOM      8  C   UNL     1     -26.166 -27.837  29.744  1.00  0.00    -0.000 C 
BRANCH   8   9
ATOM      9  C   UNL     1     -25.952 -27.678  28.225  1.00  0.00    -0.000 C 
BRANCH   9  10
ATOM     10  C   UNL     1     -26.612 -28.794  27.383  1.00  0.00    -0.000 C 
BRANCH  10  11
ATOM     11  C   UNL     1     -26.677 -28.470  25.882  1.00  0.00    -0.003 C 
ATOM     12  C   UNL     1     -27.819 -29.192  25.169  1.00  0.00     0.004 C 
ENDBRANCH  10  11
ENDBRANCH   9  10
ENDBRANCH   8   9
ENDBRANCH   7   8
ENDBRANCH   6   7
ENDBRANCH   5   6
ENDBRANCH   4   5
ENDBRANCH   3   4
ENDBRANCH   2   3
ENDBRANCH   1   2
BRANCH   1  13
ATOM     13  C   UNL     1     -22.477 -20.916  29.425  1.00  0.00     0.000 C 
BRANCH  13  14
ATOM     14  C   UNL     1     -21.991 -21.293  30.834  1.00  0.00     0.000 C 
BRANCH  14  15
ATOM     15  C   UNL     1     -20.892 -20.378  31.412  1.00  0.00     0.000 C 
BRANCH  15  16
ATOM     16  C   UNL     1     -20.650 -19.075  30.629  1.00  0.00     0.000 C 
BRANCH  16  17
ATOM     17  C   UNL     1     -19.339 -18.378  31.019  1.00  0.00     0.000 C 
BRANCH  17  18
ATOM     18  C   UNL     1     -19.102 -17.131  30.153  1.00  0.00     0.000 C 
BRANCH  18  19
ATOM     19  C   UNL     1     -18.734 -17.470  28.697  1.00  0.00     0.000 C 
BRANCH  19  20
ATOM     20  C   UNL     1     -18.640 -16.258  27.749  1.00  0.00     0.006 C 
BRANCH  20  21
ATOM     21  C   UNL     1     -17.225 -15.963  27.227  1.00  0.00     0.053 C 
BRANCH  21  22
ATOM     22  C   UNL     1     -17.231 -15.560  25.785  1.00  0.00     0.041 C 
ATOM     23  O   UNL     1     -18.318 -15.475  25.157  1.00  0.00    -0.550 OA
ATOM     24  O   UNL     1     -16.039 -15.245  25.145  1.00  0.00    -0.550 OA
ENDBRANCH  21  22
ENDBRANCH  20  21
ENDBRANCH  19  20
ENDBRANCH  18  19
ENDBRANCH  17  18
ENDBRANCH  16  17
ENDBRANCH  15  16
ENDBRANCH  14  15
ENDBRANCH  13  14
ENDBRANCH   1  13
TORSDOF 20
ENDMDL
MODEL 2
REMARK VINA RESULT:    -7.123      4.835     11.558
REMARK INTER + INTRA:         -16.561
REMARK INTER:                 -15.153
REMARK INTRA:                  -1.408
REMARK UNBOUND:                -1.109
REMARK SMILES CCCCCCCCCCCCCCCCCCCCCC(=O)[O-]
REMARK SMILES IDX 12 1 11 2 10 3 9 4 8 5 7 6 6 7 5 8 4 9 3 10 2 11 1 12 13 13
REMARK SMILES IDX 14 14 15 15 16 16 17 17 18 18 19 19 20 20 21 21 22 22 23 23
REMARK SMILES IDX 24 24
REMARK H PARENT
REMARK Flexibility Score: inf
ROOT
ATOM      1  C   UNL     1     -22.295 -20.881  28.910  1.00  0.00     0.000 C 
ENDROOT
BRANCH   1   2
ATOM      2  C   UNL     1     -21.560 -19.766  28.149  1.00  0.00     0.000 C 
BRANCH   2   3
ATOM      3  C   UNL     1     -20.725 -18.870  29.083  1.00  0.00     0.000 C 
BRANCH   3   4
ATOM      4  C   UNL     1     -20.713 -19.376  30.534  1.00  0.00    -0.000 C 
BRANCH   4   5
ATOM      5  C   UNL     1     -19.916 -18.461  31.475  1.00  0.00    -0.000 C 
BRANCH   5   6
ATOM      6  C   UNL     1     -19.731 -17.067  30.855  1.00  0.00    -0.000 C 
BRANCH   6   7
ATOM      7  C   UNL     1     -18.277 -16.566  30.921  1.00  0.00    -0.000 C 
BRANCH   7   8
ATOM      8  C   UNL     1     -17.872 -15.553  29.829  1.00  0.00    -0.000 C 
BRANCH   8   9
ATOM      9  C   UNL     1     -18.149 -16.005  28.381  1.00  0.00    -0.000 C 
BRANCH   9  10
ATOM     10  C   UNL     1     -17.174 -15.404  27.343  1.00  0.00    -0.000 C 
BRANCH  10  11
ATOM     11  C   UNL     1     -17.490 -15.817  25.896  1.00  0.00    -0.003 C 
ATOM     12  C   UNL     1     -16.476 -15.273  24.890  1.00  0.00     0.004 C 
ENDBRANCH  10  11
ENDBRANCH   9  10
ENDBRANCH   8   9
ENDBRANCH   7   8
ENDBRANCH   6   7
ENDBRANCH   5   6
ENDBRANCH   4   5
ENDBRANCH   3   4
ENDBRANCH   2   3
ENDBRANCH   1   2
BRANCH   1  13
ATOM     13  C   UNL     1     -22.200 -22.243  28.201  1.00  0.00     0.000 C 
BRANCH  13  14
ATOM     14  C   UNL     1     -22.028 -23.414  29.183  1.00  0.00     0.000 C 
BRANCH  14  15
ATOM     15  C   UNL     1     -22.025 -23.019  30.675  1.00  0.00     0.000 C 
BRANCH  15  16
ATOM     16  C   UNL     1     -23.175 -23.614  31.508  1.00  0.00     0.000 C 
BRANCH  16  17
ATOM     17  C   UNL     1     -23.501 -25.065  31.127  1.00  0.00     0.000 C 
BRANCH  17  18
ATOM     18  C   UNL     1     -24.979 -25.383  31.395  1.00  0.00     0.000 C 
BRANCH  18  19
ATOM     19  C   UNL     1     -25.354 -26.837  31.052  1.00  0.00     0.000 C 
BRANCH  19  20
ATOM     20  C   UNL     1     -24.837 -27.339  29.689  1.00  0.00     0.006 C 
BRANCH  20  21
ATOM     21  C   UNL     1     -25.771 -27.047  28.504  1.00  0.00     0.053 C 
BRANCH  21  22
ATOM     22  C   UNL     1     -26.391 -28.296  27.958  1.00  0.00     0.041 C 
ATOM     23  O   UNL     1     -26.484 -28.466  26.714  1.00  0.00    -0.550 OA
ATOM     24  O   UNL     1     -26.834 -29.290  28.823  1.00  0.00    -0.550 OA
ENDBRANCH  21  22
ENDBRANCH  20  21
ENDBRANCH  19  20
ENDBRANCH  18  19
ENDBRANCH  17  18
ENDBRANCH  16  17
ENDBRANCH  15  16
ENDBRANCH  14  15
ENDBRANCH  13  14
ENDBRANCH   1  13
TORSDOF 20
ENDMDL
MODEL 3
REMARK VINA RESULT:    -7.077      4.776     11.608
REMARK INTER + INTRA:         -16.461
REMARK INTER:                 -15.154
REMARK INTRA:                  -1.307
REMARK UNBOUND:                -1.109
REMARK SMILES CCCCCCCCCCCCCCCCCCCCCC(=O)[O-]
REMARK SMILES IDX 12 1 11 2 10 3 9 4 8 5 7 6 6 7 5 8 4 9 3 10 2 11 1 12 13 13
REMARK SMILES IDX 14 14 15 15 16 16 17 17 18 18 19 19 20 20 21 21 22 22 23 23
REMARK SMILES IDX 24 24
REMARK H PARENT
REMARK Flexibility Score: inf
ROOT
ATOM      1  C   UNL     1     -21.617 -20.444  28.746  1.00  0.00     0.000 C 
ENDROOT
BRANCH   1   2
ATOM      2  C   UNL     1     -21.033 -19.023  28.734  1.00  0.00     0.000 C 
BRANCH   2   3
ATOM      3  C   UNL     1     -19.599 -18.971  29.291  1.00  0.00     0.000 C 
BRANCH   3   4
ATOM      4  C   UNL     1     -19.560 -18.658  30.795  1.00  0.00    -0.000 C 
BRANCH   4   5
ATOM      5  C   UNL     1     -18.821 -17.348  31.109  1.00  0.00    -0.000 C 
BRANCH   5   6
ATOM      6  C   UNL     1     -19.016 -16.325  29.980  1.00  0.00    -0.000 C 
BRANCH   6   7
ATOM      7  C   UNL     1     -17.815 -15.379  29.810  1.00  0.00    -0.000 C 
BRANCH   7   8
ATOM      8  C   UNL     1     -17.267 -15.250  28.372  1.00  0.00    -0.000 C 
BRANCH   8   9
ATOM      9  C   UNL     1     -17.913 -16.194  27.338  1.00  0.00    -0.000 C 
BRANCH   9  10
ATOM     10  C   UNL     1     -18.003 -15.593  25.916  1.00  0.00    -0.000 C 
BRANCH  10  11
ATOM     11  C   UNL     1     -16.655 -15.087  25.380  1.00  0.00    -0.003 C 
ATOM     12  C   UNL     1     -16.002 -16.063  24.403  1.00  0.00     0.004 C 
ENDBRANCH  10  11
ENDBRANCH   9  10
ENDBRANCH   8   9
ENDBRANCH   7   8
ENDBRANCH   6   7
ENDBRANCH   5   6
ENDBRANCH   4   5
ENDBRANCH   3   4
ENDBRANCH   2   3
ENDBRANCH   1   2
BRANCH   1  13
ATOM     13  C   UNL     1     -22.518 -20.704  29.966  1.00  0.00     0.000 C 
BRANCH  13  14
ATOM     14  C   UNL     1     -21.839 -21.581  31.032  1.00  0.00     0.000 C 
BRANCH  14  15
ATOM     15  C   UNL     1     -22.771 -22.584  31.742  1.00  0.00     0.000 C 
BRANCH  15  16
ATOM     16  C   UNL     1     -22.979 -23.918  31.001  1.00  0.00     0.000 C 
BRANCH  16  17
ATOM     17  C   UNL     1     -22.213 -23.988  29.672  1.00  0.00     0.000 C 
BRANCH  17  18
ATOM     18  C   UNL     1     -23.070 -24.645  28.580  1.00  0.00     0.000 C 
BRANCH  18  19
ATOM     19  C   UNL     1     -23.596 -26.035  28.982  1.00  0.00     0.000 C 
BRANCH  19  20
ATOM     20  C   UNL     1     -25.122 -26.120  29.188  1.00  0.00     0.006 C 
BRANCH  20  21
ATOM     21  C   UNL     1     -25.610 -27.436  29.815  1.00  0.00     0.053 C 
BRANCH  21  22
ATOM     22  C   UNL     1     -26.202 -28.357  28.795  1.00  0.00     0.041 C 
ATOM     23  O   UNL     1     -26.056 -28.121  27.567  1.00  0.00    -0.550 OA
ATOM     24  O   UNL     1     -26.885 -29.498  29.199  1.00  0.00    -0.550 OA
ENDBRANCH  21  22
ENDBRANCH  20  21
ENDBRANCH  19  20
ENDBRANCH  18  19
ENDBRANCH  17  18
ENDBRANCH  16  17
ENDBRANCH  15  16
ENDBRANCH  14  15
ENDBRANCH  13  14
ENDBRANCH   1  13
TORSDOF 20
ENDMDL
MODEL 4
REMARK VINA RESULT:    -7.065      4.763     11.224
REMARK INTER + INTRA:         -16.434
REMARK INTER:                 -14.715
REMARK INTRA:                  -1.718
REMARK UNBOUND:                -1.109
REMARK SMILES CCCCCCCCCCCCCCCCCCCCCC(=O)[O-]
REMARK SMILES IDX 12 1 11 2 10 3 9 4 8 5 7 6 6 7 5 8 4 9 3 10 2 11 1 12 13 13
REMARK SMILES IDX 14 14 15 15 16 16 17 17 18 18 19 19 20 20 21 21 22 22 23 23
REMARK SMILES IDX 24 24
REMARK H PARENT
REMARK Flexibility Score: inf
ROOT
ATOM      1  C   UNL     1     -22.759 -23.923  28.216  1.00  0.00     0.000 C 
ENDROOT
BRANCH   1   2
ATOM      2  C   UNL     1     -21.837 -22.870  28.852  1.00  0.00     0.000 C 
BRANCH   2   3
ATOM      3  C   UNL     1     -22.061 -21.463  28.269  1.00  0.00     0.000 C 
BRANCH   3   4
ATOM      4  C   UNL     1     -22.058 -20.368  29.348  1.00  0.00    -0.000 C 
BRANCH   4   5
ATOM      5  C   UNL     1     -21.823 -20.927  30.759  1.00  0.00    -0.000 C 
BRANCH   5   6
ATOM      6  C   UNL     1     -20.642 -20.218  31.440  1.00  0.00    -0.000 C 
BRANCH   6   7
ATOM      7  C   UNL     1     -20.750 -18.684  31.386  1.00  0.00    -0.000 C 
BRANCH   7   8
ATOM      8  C   UNL     1     -19.512 -17.949  30.829  1.00  0.00    -0.000 C 
BRANCH   8   9
ATOM      9  C   UNL     1     -19.067 -18.389  29.420  1.00  0.00    -0.000 C 
BRANCH   9  10
ATOM     10  C   UNL     1     -19.136 -17.262  28.364  1.00  0.00    -0.000 C 
BRANCH  10  11
ATOM     11  C   UNL     1     -17.975 -16.260  28.462  1.00  0.00    -0.003 C 
ATOM     12  C   UNL     1     -17.642 -15.606  27.123  1.00  0.00     0.004 C 
ENDBRANCH  10  11
ENDBRANCH   9  10
ENDBRANCH   8   9
ENDBRANCH   7   8
ENDBRANCH   6   7
ENDBRANCH   5   6
ENDBRANCH   4   5
ENDBRANCH   3   4
ENDBRANCH   2   3
ENDBRANCH   1   2
BRANCH   1  13
ATOM     13  C   UNL     1     -23.075 -25.088  29.171  1.00  0.00     0.000 C 
BRANCH  13  14
ATOM     14  C   UNL     1     -22.892 -24.710  30.651  1.00  0.00     0.000 C 
BRANCH  14  15
ATOM     15  C   UNL     1     -24.131 -24.942  31.541  1.00  0.00     0.000 C 
BRANCH  15  16
ATOM     16  C   UNL     1     -25.302 -25.667  30.852  1.00  0.00     0.000 C 
BRANCH  16  17
ATOM     17  C   UNL     1     -25.358 -27.164  31.187  1.00  0.00     0.000 C 
BRANCH  17  18
ATOM     18  C   UNL     1     -25.869 -27.976  29.988  1.00  0.00     0.000 C 
BRANCH  18  19
ATOM     19  C   UNL     1     -26.022 -27.131  28.710  1.00  0.00     0.000 C 
BRANCH  19  20
ATOM     20  C   UNL     1     -25.747 -27.884  27.394  1.00  0.00     0.006 C 
BRANCH  20  21
ATOM     21  C   UNL     1     -26.946 -28.676  26.848  1.00  0.00     0.053 C 
BRANCH  21  22
ATOM     22  C   UNL     1     -26.938 -28.747  25.352  1.00  0.00     0.041 C 
ATOM     23  O   UNL     1     -25.895 -29.098  24.741  1.00  0.00    -0.550 OA
ATOM     24  O   UNL     1     -28.093 -28.459  24.635  1.00  0.00    -0.550 OA
ENDBRANCH  21  22
ENDBRANCH  20  21
ENDBRANCH  19  20
ENDBRANCH  18  19
ENDBRANCH  17  18
ENDBRANCH  16  17
ENDBRANCH  15  16
ENDBRANCH  14  15
ENDBRANCH  13  14
ENDBRANCH   1  13
TORSDOF 20
ENDMDL
MODEL 5
REMARK VINA RESULT:    -7.041      4.790     11.898
REMARK INTER + INTRA:         -16.383
REMARK INTER:                 -15.365
REMARK INTRA:                  -1.018
REMARK UNBOUND:                -1.109
REMARK SMILES CCCCCCCCCCCCCCCCCCCCCC(=O)[O-]
REMARK SMILES IDX 12 1 11 2 10 3 9 4 8 5 7 6 6 7 5 8 4 9 3 10 2 11 1 12 13 13
REMARK SMILES IDX 14 14 15 15 16 16 17 17 18 18 19 19 20 20 21 21 22 22 23 23
REMARK SMILES IDX 24 24
REMARK H PARENT
REMARK Flexibility Score: inf
ROOT
ATOM      1  C   UNL     1     -22.185 -21.935  28.206  1.00  0.00     0.000 C 
ENDROOT
BRANCH   1   2
ATOM      2  C   UNL     1     -21.860 -20.567  28.827  1.00  0.00     0.000 C 
BRANCH   2   3
ATOM      3  C   UNL     1     -22.102 -20.538  30.347  1.00  0.00     0.000 C 
BRANCH   3   4
ATOM      4  C   UNL     1     -20.952 -19.869  31.117  1.00  0.00    -0.000 C 
BRANCH   4   5
ATOM      5  C   UNL     1     -20.584 -18.489  30.552  1.00  0.00    -0.000 C 
BRANCH   5   6
ATOM      6  C   UNL     1     -19.060 -18.325  30.456  1.00  0.00    -0.000 C 
BRANCH   6   7
ATOM      7  C   UNL     1     -18.571 -16.948  30.941  1.00  0.00    -0.000 C 
BRANCH   7   8
ATOM      8  C   UNL     1     -18.275 -15.918  29.829  1.00  0.00    -0.000 C 
BRANCH   8   9
ATOM      9  C   UNL     1     -18.110 -16.510  28.415  1.00  0.00    -0.000 C 
BRANCH   9  10
ATOM     10  C   UNL     1     -17.312 -15.604  27.449  1.00  0.00    -0.000 C 
BRANCH  10  11
ATOM     11  C   UNL     1     -17.660 -15.831  25.970  1.00  0.00    -0.003 C 
ATOM     12  C   UNL     1     -16.789 -15.006  25.023  1.00  0.00     0.004 C 
ENDBRANCH  10  11
ENDBRANCH   9  10
ENDBRANCH   8   9
ENDBRANCH   7   8
ENDBRANCH   6   7
ENDBRANCH   5   6
ENDBRANCH   4   5
ENDBRANCH   3   4
ENDBRANCH   2   3
ENDBRANCH   1   2
BRANCH   1  13
ATOM     13  C   UNL     1     -21.748 -23.109  29.100  1.00  0.00     0.000 C 
BRANCH  13  14
ATOM     14  C   UNL     1     -22.793 -24.237  29.153  1.00  0.00     0.000 C 
BRANCH  14  15
ATOM     15  C   UNL     1     -23.314 -24.577  30.564  1.00  0.00     0.000 C 
BRANCH  15  16
ATOM     16  C   UNL     1     -24.064 -25.917  30.676  1.00  0.00     0.000 C 
BRANCH  16  17
ATOM     17  C   UNL     1     -23.928 -26.785  29.417  1.00  0.00     0.000 C 
BRANCH  17  18
ATOM     18  C   UNL     1     -25.257 -26.847  28.649  1.00  0.00     0.000 C 
BRANCH  18  19
ATOM     19  C   UNL     1     -26.119 -28.063  29.036  1.00  0.00     0.000 C 
BRANCH  19  20
ATOM     20  C   UNL     1     -26.816 -28.771  27.856  1.00  0.00     0.006 C 
BRANCH  20  21
ATOM     21  C   UNL     1     -26.829 -27.967  26.546  1.00  0.00     0.053 C 
BRANCH  21  22
ATOM     22  C   UNL     1     -26.902 -28.856  25.344  1.00  0.00     0.041 C 
ATOM     23  O   UNL     1     -25.856 -29.145  24.706  1.00  0.00    -0.550 OA
ATOM     24  O   UNL     1     -28.120 -29.396  24.949  1.00  0.00    -0.550 OA
ENDBRANCH  21  22
ENDBRANCH  20  21
ENDBRANCH  19  20
ENDBRANCH  18  19
ENDBRANCH  17  18
ENDBRANCH  16  17
ENDBRANCH  15  16
ENDBRANCH  14  15
ENDBRANCH  13  14
ENDBRANCH   1  13
TORSDOF 20
ENDMDL
MODEL 6
REMARK VINA RESULT:    -7.019      1.178      1.858
REMARK INTER + INTRA:         -16.335
REMARK INTER:                 -15.204
REMARK INTRA:                  -1.131
REMARK UNBOUND:                -1.109
REMARK SMILES CCCCCCCCCCCCCCCCCCCCCC(=O)[O-]
REMARK SMILES IDX 12 1 11 2 10 3 9 4 8 5 7 6 6 7 5 8 4 9 3 10 2 11 1 12 13 13
REMARK SMILES IDX 14 14 15 15 16 16 17 17 18 18 19 19 20 20 21 21 22 22 23 23
REMARK SMILES IDX 24 24
REMARK H PARENT
REMARK Flexibility Score: inf
ROOT
ATOM      1  C   UNL     1     -21.257 -21.605  31.909  1.00  0.00     0.000 C 
ENDROOT
BRANCH   1   2
ATOM      2  C   UNL     1     -21.881 -22.598  30.915  1.00  0.00     0.000 C 
BRANCH   2   3
ATOM      3  C   UNL     1     -23.025 -23.417  31.542  1.00  0.00     0.000 C 
BRANCH   3   4
ATOM      4  C   UNL     1     -23.365 -24.676  30.730  1.00  0.00    -0.000 C 
BRANCH   4   5
ATOM      5  C   UNL     1     -22.795 -24.634  29.304  1.00  0.00    -0.000 C 
BRANCH   5   6
ATOM      6  C   UNL     1     -23.518 -25.639  28.395  1.00  0.00    -0.000 C 
BRANCH   6   7
ATOM      7  C   UNL     1     -24.535 -26.512  29.152  1.00  0.00    -0.000 C 
BRANCH   7   8
ATOM      8  C   UNL     1     -25.878 -26.750  28.427  1.00  0.00    -0.000 C 
BRANCH   8   9
ATOM      9  C   UNL     1     -26.549 -28.107  28.720  1.00  0.00    -0.000 C 
BRANCH   9  10
ATOM     10  C   UNL     1     -26.509 -29.092  27.529  1.00  0.00    -0.000 C 
BRANCH  10  11
ATOM     11  C   UNL     1     -26.546 -28.396  26.159  1.00  0.00    -0.003 C 
ATOM     12  C   UNL     1     -27.617 -28.969  25.233  1.00  0.00     0.004 C 
ENDBRANCH  10  11
ENDBRANCH   9  10
ENDBRANCH   8   9
ENDBRANCH   7   8
ENDBRANCH   6   7
ENDBRANCH   5   6
ENDBRANCH   4   5
ENDBRANCH   3   4
ENDBRANCH   2   3
ENDBRANCH   1   2
BRANCH   1  13
ATOM     13  C   UNL     1     -21.156 -20.180  31.337  1.00  0.00     0.000 C 
BRANCH  13  14
ATOM     14  C   UNL     1     -21.858 -20.034  29.976  1.00  0.00     0.000 C 
BRANCH  14  15
ATOM     15  C   UNL     1     -20.945 -19.580  28.818  1.00  0.00     0.000 C 
BRANCH  15  16
ATOM     16  C   UNL     1     -20.481 -18.114  28.891  1.00  0.00     0.000 C 
BRANCH  16  17
ATOM     17  C   UNL     1     -19.023 -17.971  29.353  1.00  0.00     0.000 C 
BRANCH  17  18
ATOM     18  C   UNL     1     -18.750 -16.554  29.876  1.00  0.00     0.000 C 
BRANCH  18  19
ATOM     19  C   UNL     1     -17.765 -15.766  28.992  1.00  0.00     0.000 C 
BRANCH  19  20
ATOM     20  C   UNL     1     -17.921 -15.996  27.476  1.00  0.00     0.006 C 
BRANCH  20  21
ATOM     21  C   UNL     1     -16.857 -15.301  26.611  1.00  0.00     0.053 C 
BRANCH  21  22
ATOM     22  C   UNL     1     -17.142 -15.446  25.148  1.00  0.00     0.041 C 
ATOM     23  O   UNL     1     -18.282 -15.166  24.694  1.00  0.00    -0.550 OA
ATOM     24  O   UNL     1     -16.137 -15.856  24.280  1.00  0.00    -0.550 OA
ENDBRANCH  21  22
ENDBRANCH  20  21
ENDBRANCH  19  20
ENDBRANCH  18  19
ENDBRANCH  17  18
ENDBRANCH  16  17
ENDBRANCH  15  16
ENDBRANCH  14  15
ENDBRANCH  13  14
ENDBRANCH   1  13
TORSDOF 20
ENDMDL
MODEL 7
REMARK VINA RESULT:    -6.942      0.988      1.888
REMARK INTER + INTRA:         -16.169
REMARK INTER:                 -14.785
REMARK INTRA:                  -1.384
REMARK UNBOUND:                -1.109
REMARK SMILES CCCCCCCCCCCCCCCCCCCCCC(=O)[O-]
REMARK SMILES IDX 12 1 11 2 10 3 9 4 8 5 7 6 6 7 5 8 4 9 3 10 2 11 1 12 13 13
REMARK SMILES IDX 14 14 15 15 16 16 17 17 18 18 19 19 20 20 21 21 22 22 23 23
REMARK SMILES IDX 24 24
REMARK H PARENT
REMARK Flexibility Score: inf
ROOT
ATOM      1  C   UNL     1     -21.736 -20.588  28.410  1.00  0.00     0.000 C 
ENDROOT
BRANCH   1   2
ATOM      2  C   UNL     1     -22.507 -21.059  29.653  1.00  0.00     0.000 C 
BRANCH   2   3
ATOM      3  C   UNL     1     -21.989 -22.406  30.191  1.00  0.00     0.000 C 
BRANCH   3   4
ATOM      4  C   UNL     1     -22.758 -22.881  31.434  1.00  0.00    -0.000 C 
BRANCH   4   5
ATOM      5  C   UNL     1     -23.451 -24.235  31.220  1.00  0.00    -0.000 C 
BRANCH   5   6
ATOM      6  C   UNL     1     -22.893 -24.945  29.977  1.00  0.00    -0.000 C 
BRANCH   6   7
ATOM      7  C   UNL     1     -23.851 -26.006  29.408  1.00  0.00    -0.000 C 
BRANCH   7   8
ATOM      8  C   UNL     1     -24.620 -26.839  30.457  1.00  0.00    -0.000 C 
BRANCH   8   9
ATOM      9  C   UNL     1     -25.723 -27.753  29.886  1.00  0.00    -0.000 C 
BRANCH   9  10
ATOM     10  C   UNL     1     -25.962 -27.571  28.370  1.00  0.00    -0.000 C 
BRANCH  10  11
ATOM     11  C   UNL     1     -26.831 -28.677  27.751  1.00  0.00    -0.003 C 
ATOM     12  C   UNL     1     -26.868 -28.617  26.224  1.00  0.00     0.004 C 
ENDBRANCH  10  11
ENDBRANCH   9  10
ENDBRANCH   8   9
ENDBRANCH   7   8
ENDBRANCH   6   7
ENDBRANCH   5   6
ENDBRANCH   4   5
ENDBRANCH   3   4
ENDBRANCH   2   3
ENDBRANCH   1   2
BRANCH   1  13
ATOM     13  C   UNL     1     -20.971 -19.274  28.649  1.00  0.00     0.000 C 
BRANCH  13  14
ATOM     14  C   UNL     1     -21.040 -18.804  30.112  1.00  0.00     0.000 C 
BRANCH  14  15
ATOM     15  C   UNL     1     -19.868 -19.267  31.002  1.00  0.00     0.000 C 
BRANCH  15  16
ATOM     16  C   UNL     1     -18.832 -18.177  31.334  1.00  0.00     0.000 C 
BRANCH  16  17
ATOM     17  C   UNL     1     -19.289 -16.772  30.916  1.00  0.00     0.000 C 
BRANCH  17  18
ATOM     18  C   UNL     1     -18.271 -16.126  29.965  1.00  0.00     0.000 C 
BRANCH  18  19
ATOM     19  C   UNL     1     -18.165 -16.853  28.612  1.00  0.00     0.000 C 
BRANCH  19  20
ATOM     20  C   UNL     1     -18.362 -15.957  27.373  1.00  0.00     0.006 C 
BRANCH  20  21
ATOM     21  C   UNL     1     -17.058 -15.536  26.675  1.00  0.00     0.053 C 
BRANCH  21  22
ATOM     22  C   UNL     1     -17.206 -15.496  25.186  1.00  0.00     0.041 C 
ATOM     23  O   UNL     1     -18.311 -15.188  24.668  1.00  0.00    -0.550 OA
ATOM     24  O   UNL     1     -16.114 -15.765  24.370  1.00  0.00    -0.550 OA
ENDBRANCH  21  22
ENDBRANCH  20  21
ENDBRANCH  19  20
ENDBRANCH  18  19
ENDBRANCH  17  18
ENDBRANCH  16  17
ENDBRANCH  15  16
ENDBRANCH  14  15
ENDBRANCH  13  14
ENDBRANCH   1  13
TORSDOF 20
ENDMDL
MODEL 8
REMARK VINA RESULT:    -6.912      1.260      2.367
REMARK INTER + INTRA:         -16.103
REMARK INTER:                 -14.596
REMARK INTRA:                  -1.506
REMARK UNBOUND:                -1.109
REMARK SMILES CCCCCCCCCCCCCCCCCCCCCC(=O)[O-]
REMARK SMILES IDX 12 1 11 2 10 3 9 4 8 5 7 6 6 7 5 8 4 9 3 10 2 11 1 12 13 13
REMARK SMILES IDX 14 14 15 15 16 16 17 17 18 18 19 19 20 20 21 21 22 22 23 23
REMARK SMILES IDX 24 24
REMARK H PARENT
REMARK Flexibility Score: inf
ROOT
ATOM      1  C   UNL     1     -22.759 -24.456  30.288  1.00  0.00     0.000 C 
ENDROOT
BRANCH   1   2
ATOM      2  C   UNL     1     -23.554 -24.874  29.040  1.00  0.00     0.000 C 
BRANCH   2   3
ATOM      3  C   UNL     1     -24.961 -25.397  29.387  1.00  0.00     0.000 C 
BRANCH   3   4
ATOM      4  C   UNL     1     -25.118 -25.724  30.881  1.00  0.00    -0.000 C 
BRANCH   4   5
ATOM      5  C   UNL     1     -25.530 -27.182  31.128  1.00  0.00    -0.000 C 
BRANCH   5   6
ATOM      6  C   UNL     1     -25.409 -28.011  29.840  1.00  0.00    -0.000 C 
BRANCH   6   7
ATOM      7  C   UNL     1     -26.529 -29.056  29.689  1.00  0.00    -0.000 C 
BRANCH   7   8
ATOM      8  C   UNL     1     -27.195 -29.122  28.298  1.00  0.00    -0.000 C 
BRANCH   8   9
ATOM      9  C   UNL     1     -26.720 -28.053  27.293  1.00  0.00    -0.000 C 
BRANCH   9  10
ATOM     10  C   UNL     1     -26.391 -28.617  25.892  1.00  0.00    -0.000 C 
BRANCH  10  11
ATOM     11  C   UNL     1     -27.614 -29.191  25.161  1.00  0.00    -0.003 C 
ATOM     12  C   UNL     1     -28.304 -28.165  24.263  1.00  0.00     0.004 C 
ENDBRANCH  10  11
ENDBRANCH   9  10
ENDBRANCH   8   9
ENDBRANCH   7   8
ENDBRANCH   6   7
ENDBRANCH   5   6
ENDBRANCH   4   5
ENDBRANCH   3   4
ENDBRANCH   2   3
ENDBRANCH   1   2
BRANCH   1  13
ATOM     13  C   UNL     1     -21.683 -23.400  29.978  1.00  0.00     0.000 C 
BRANCH  13  14
ATOM     14  C   UNL     1     -22.010 -22.567  28.726  1.00  0.00     0.000 C 
BRANCH  14  15
ATOM     15  C   UNL     1     -22.093 -21.045  28.960  1.00  0.00     0.000 C 
BRANCH  15  16
ATOM     16  C   UNL     1     -22.318 -20.621  30.423  1.00  0.00     0.000 C 
BRANCH  16  17
ATOM     17  C   UNL     1     -21.253 -19.638  30.930  1.00  0.00     0.000 C 
BRANCH  17  18
ATOM     18  C   UNL     1     -20.630 -18.856  29.765  1.00  0.00     0.000 C 
BRANCH  18  19
ATOM     19  C   UNL     1     -19.176 -18.428  30.037  1.00  0.00     0.000 C 
BRANCH  19  20
ATOM     20  C   UNL     1     -18.362 -18.048  28.784  1.00  0.00     0.006 C 
BRANCH  20  21
ATOM     21  C   UNL     1     -18.870 -16.800  28.045  1.00  0.00     0.053 C 
BRANCH  21  22
ATOM     22  C   UNL     1     -17.805 -15.757  27.908  1.00  0.00     0.041 C 
ATOM     23  O   UNL     1     -17.262 -15.549  26.792  1.00  0.00    -0.550 OA
ATOM     24  O   UNL     1     -17.438 -14.987  29.006  1.00  0.00    -0.550 OA
ENDBRANCH  21  22
ENDBRANCH  20  21
ENDBRANCH  19  20
ENDBRANCH  18  19
ENDBRANCH  17  18
ENDBRANCH  16  17
ENDBRANCH  15  16
ENDBRANCH  14  15
ENDBRANCH  13  14
ENDBRANCH   1  13
TORSDOF 20
ENDMDL
MODEL 9
REMARK VINA RESULT:    -6.540      1.912      3.211
REMARK INTER + INTRA:         -15.295
REMARK INTER:                 -13.331
REMARK INTRA:                  -1.964
REMARK UNBOUND:                -1.109
REMARK SMILES CCCCCCCCCCCCCCCCCCCCCC(=O)[O-]
REMARK SMILES IDX 12 1 11 2 10 3 9 4 8 5 7 6 6 7 5 8 4 9 3 10 2 11 1 12 13 13
REMARK SMILES IDX 14 14 15 15 16 16 17 17 18 18 19 19 20 20 21 21 22 22 23 23
REMARK SMILES IDX 24 24
REMARK H PARENT
REMARK Flexibility Score: inf
ROOT
ATOM      1  C   UNL     1     -22.792 -25.223  28.093  1.00  0.00     0.000 C 
ENDROOT
BRANCH   1   2
ATOM      2  C   UNL     1     -23.866 -26.193  28.611  1.00  0.00     0.000 C 
BRANCH   2   3
ATOM      3  C   UNL     1     -24.961 -25.479  29.425  1.00  0.00     0.000 C 
BRANCH   3   4
ATOM      4  C   UNL     1     -25.011 -25.948  30.888  1.00  0.00    -0.000 C 
BRANCH   4   5
ATOM      5  C   UNL     1     -25.068 -27.477  31.018  1.00  0.00    -0.000 C 
BRANCH   5   6
ATOM      6  C   UNL     1     -26.426 -28.017  30.544  1.00  0.00    -0.000 C 
BRANCH   6   7
ATOM      7  C   UNL     1     -26.337 -29.435  29.953  1.00  0.00    -0.000 C 
BRANCH   7   8
ATOM      8  C   UNL     1     -26.814 -29.578  28.492  1.00  0.00    -0.000 C 
BRANCH   8   9
ATOM      9  C   UNL     1     -26.874 -28.261  27.690  1.00  0.00    -0.000 C 
BRANCH   9  10
ATOM     10  C   UNL     1     -25.979 -28.257  26.430  1.00  0.00    -0.000 C 
BRANCH  10  11
ATOM     11  C   UNL     1     -26.601 -28.999  25.236  1.00  0.00    -0.003 C 
ATOM     12  C   UNL     1     -28.094 -28.719  25.076  1.00  0.00     0.004 C 
ENDBRANCH  10  11
ENDBRANCH   9  10
ENDBRANCH   8   9
ENDBRANCH   7   8
ENDBRANCH   6   7
ENDBRANCH   5   6
ENDBRANCH   4   5
ENDBRANCH   3   4
ENDBRANCH   2   3
ENDBRANCH   1   2
BRANCH   1  13
ATOM     13  C   UNL     1     -22.815 -23.869  28.826  1.00  0.00     0.000 C 
BRANCH  13  14
ATOM     14  C   UNL     1     -21.912 -23.851  30.071  1.00  0.00     0.000 C 
BRANCH  14  15
ATOM     15  C   UNL     1     -22.588 -23.341  31.360  1.00  0.00     0.000 C 
BRANCH  15  16
ATOM     16  C   UNL     1     -22.519 -21.817  31.573  1.00  0.00     0.000 C 
BRANCH  16  17
ATOM     17  C   UNL     1     -21.079 -21.295  31.686  1.00  0.00     0.000 C 
BRANCH  17  18
ATOM     18  C   UNL     1     -20.957 -19.890  31.081  1.00  0.00     0.000 C 
BRANCH  18  19
ATOM     19  C   UNL     1     -21.513 -19.801  29.648  1.00  0.00     0.000 C 
BRANCH  19  20
ATOM     20  C   UNL     1     -20.629 -19.026  28.651  1.00  0.00     0.006 C 
BRANCH  20  21
ATOM     21  C   UNL     1     -20.505 -17.521  28.942  1.00  0.00     0.053 C 
BRANCH  21  22
ATOM     22  C   UNL     1     -19.129 -17.151  29.402  1.00  0.00     0.041 C 
ATOM     23  O   UNL     1     -18.318 -16.614  28.604  1.00  0.00    -0.550 OA
ATOM     24  O   UNL     1     -18.754 -17.366  30.723  1.00  0.00    -0.550 OA
ENDBRANCH  21  22
ENDBRANCH  20  21
ENDBRANCH  19  20
ENDBRANCH  18  19
ENDBRANCH  17  18
ENDBRANCH  16  17
ENDBRANCH  15  16
ENDBRANCH  14  15
ENDBRANCH  13  14
ENDBRANCH   1  13
TORSDOF 20
ENDMDL
