MODEL 1
REMARK VINA RESULT:    -5.315      0.000      0.000
REMARK INTER + INTRA:          -6.546
REMARK INTER:                  -6.247
REMARK INTRA:                  -0.299
REMARK UNBOUND:                -0.299
REMARK SMILES O=c1c(O)c(-c2ccc(O)cc2)oc2cc(O)cc(O)c12
REMARK SMILES IDX 5 1 3 2 2 3 1 4 21 5 19 6 18 7 16 8 15 9 14 10 13 11 6 12
REMARK SMILES IDX 7 13 8 14 9 15 12 16 11 17 10 18 4 20 20 22 17 24
REMARK H PARENT 10 19 4 21 20 23 17 25
REMARK Flexibility Score: inf
ROOT
ATOM      1  C   UNL     1      -5.935  -5.372  -1.077  1.00  0.00     0.180 A 
ATOM      2  C   UNL     1      -6.679  -5.514   0.107  1.00  0.00     0.208 A 
ATOM      3  C   UNL     1      -7.728  -6.447   0.145  1.00  0.00     0.238 A 
ATOM      4  O   UNL     1      -8.426  -6.531   1.189  1.00  0.00    -0.285 OA
ATOM      5  C   UNL     1      -8.009  -7.237  -0.997  1.00  0.00     0.111 A 
ATOM      6  C   UNL     1      -9.022  -8.240  -1.058  1.00  0.00     0.134 A 
ATOM      7  C   UNL     1      -9.299  -8.869  -2.277  1.00  0.00     0.093 A 
ATOM      8  C   UNL     1      -8.555  -8.577  -3.424  1.00  0.00     0.123 A 
ATOM      9  C   UNL     1      -7.525  -7.642  -3.360  1.00  0.00     0.094 A 
ATOM     10  C   UNL     1      -7.250  -6.972  -2.165  1.00  0.00     0.146 A 
ATOM     11  O   UNL     1      -6.266  -6.080  -2.150  1.00  0.00    -0.452 OA
ENDROOT
BRANCH   1  12
ATOM     12  C   UNL     1      -4.800  -4.428  -1.185  1.00  0.00     0.021 A 
ATOM     13  C   UNL     1      -5.014  -3.145  -1.717  1.00  0.00     0.016 A 
ATOM     14  C   UNL     1      -3.951  -2.246  -1.849  1.00  0.00     0.047 A 
ATOM     15  C   UNL     1      -2.660  -2.621  -1.466  1.00  0.00     0.115 A 
ATOM     16  C   UNL     1      -3.494  -4.807  -0.821  1.00  0.00     0.016 A 
ATOM     17  C   UNL     1      -2.434  -3.906  -0.955  1.00  0.00     0.047 A 
BRANCH  15  18
ATOM     18  O   UNL     1      -1.611  -1.716  -1.603  1.00  0.00    -0.508 OA
ATOM     19  H   UNL     1      -0.703  -1.892  -1.192  1.00  0.00     0.293 HD
ENDBRANCH  15  18
ENDBRANCH   1  12
BRANCH   2  20
ATOM     20  O   UNL     1      -6.399  -4.708   1.214  1.00  0.00    -0.502 OA
ATOM     21  H   UNL     1      -6.363  -3.698   1.156  1.00  0.00     0.293 HD
ENDBRANCH   2  20
BRANCH   6  22
ATOM     22  O   UNL     1      -9.761  -8.673   0.049  1.00  0.00    -0.507 OA
ATOM     23  H   UNL     1      -9.482  -9.417   0.671  1.00  0.00     0.293 HD
ENDBRANCH   6  22
BRANCH   8  24
ATOM     24  O   UNL     1      -8.827  -9.219  -4.630  1.00  0.00    -0.508 OA
ATOM     25  H   UNL     1      -9.314  -8.748  -5.383  1.00  0.00     0.293 HD
ENDBRANCH   8  24
TORSDOF 5
ENDMDL
MODEL 2
REMARK VINA RESULT:    -4.984      1.750      6.948
REMARK INTER + INTRA:          -6.157
REMARK INTER:                  -5.885
REMARK INTRA:                  -0.272
REMARK UNBOUND:                -0.299
REMARK SMILES O=c1c(O)c(-c2ccc(O)cc2)oc2cc(O)cc(O)c12
REMARK SMILES IDX 5 1 3 2 2 3 1 4 21 5 19 6 18 7 16 8 15 9 14 10 13 11 6 12
REMARK SMILES IDX 7 13 8 14 9 15 12 16 11 17 10 18 4 20 20 22 17 24
REMARK H PARENT 10 19 4 21 20 23 17 25
REMARK Flexibility Score: inf
ROOT
ATOM      1  C   UNL     1      -6.236  -5.251  -1.559  1.00  0.00     0.180 A 
ATOM      2  C   UNL     1      -6.768  -4.107  -2.177  1.00  0.00     0.208 A 
ATOM      3  C   UNL     1      -5.963  -2.962  -2.300  1.00  0.00     0.238 A 
ATOM      4  O   UNL     1      -6.463  -1.923  -2.806  1.00  0.00    -0.285 OA
ATOM      5  C   UNL     1      -4.632  -2.983  -1.818  1.00  0.00     0.111 A 
ATOM      6  C   UNL     1      -3.715  -1.895  -1.926  1.00  0.00     0.134 A 
ATOM      7  C   UNL     1      -2.467  -1.979  -1.298  1.00  0.00     0.093 A 
ATOM      8  C   UNL     1      -2.076  -3.138  -0.621  1.00  0.00     0.123 A 
ATOM      9  C   UNL     1      -2.942  -4.227  -0.562  1.00  0.00     0.094 A 
ATOM     10  C   UNL     1      -4.209  -4.159  -1.148  1.00  0.00     0.146 A 
ATOM     11  O   UNL     1      -5.007  -5.217  -1.058  1.00  0.00    -0.452 OA
ENDROOT
BRANCH   1  12
ATOM     12  C   UNL     1      -7.014  -6.502  -1.415  1.00  0.00     0.021 A 
ATOM     13  C   UNL     1      -7.562  -6.837  -0.165  1.00  0.00     0.016 A 
ATOM     14  C   UNL     1      -8.281  -8.025  -0.001  1.00  0.00     0.047 A 
ATOM     15  C   UNL     1      -8.449  -8.900  -1.078  1.00  0.00     0.115 A 
ATOM     16  C   UNL     1      -7.169  -7.397  -2.490  1.00  0.00     0.016 A 
ATOM     17  C   UNL     1      -7.888  -8.584  -2.322  1.00  0.00     0.047 A 
BRANCH  15  18
ATOM     18  O   UNL     1      -9.168 -10.080  -0.902  1.00  0.00    -0.508 OA
ATOM     19  H   UNL     1      -9.909 -10.349  -1.537  1.00  0.00     0.293 HD
ENDBRANCH  15  18
ENDBRANCH   1  12
BRANCH   2  20
ATOM     20  O   UNL     1      -8.092  -4.101  -2.626  1.00  0.00    -0.502 OA
ATOM     21  H   UNL     1      -8.608  -4.954  -2.807  1.00  0.00     0.293 HD
ENDBRANCH   2  20
BRANCH   6  22
ATOM     22  O   UNL     1      -3.969  -0.729  -2.656  1.00  0.00    -0.507 OA
ATOM     23  H   UNL     1      -3.270  -0.049  -2.915  1.00  0.00     0.293 HD
ENDBRANCH   6  22
BRANCH   8  24
ATOM     24  O   UNL     1      -0.826  -3.219  -0.013  1.00  0.00    -0.508 OA
ATOM     25  H   UNL     1      -0.132  -3.892  -0.316  1.00  0.00     0.293 HD
ENDBRANCH   8  24
TORSDOF 5
ENDMDL
MODEL 3
REMARK VINA RESULT:    -4.800      2.238      3.458
REMARK INTER + INTRA:          -5.941
REMARK INTER:                  -5.641
REMARK INTRA:                  -0.300
REMARK UNBOUND:                -0.299
REMARK SMILES O=c1c(O)c(-c2ccc(O)cc2)oc2cc(O)cc(O)c12
REMARK SMILES IDX 5 1 3 2 2 3 1 4 21 5 19 6 18 7 16 8 15 9 14 10 13 11 6 12
REMARK SMILES IDX 7 13 8 14 9 15 12 16 11 17 10 18 4 20 20 22 17 24
REMARK H PARENT 10 19 4 21 20 23 17 25
REMARK Flexibility Score: inf
ROOT
ATOM      1  C   UNL     1      -4.789  -4.432  -1.317  1.00  0.00     0.180 A 
ATOM      2  C   UNL     1      -5.299  -3.402  -2.127  1.00  0.00     0.208 A 
ATOM      3  C   UNL     1      -6.366  -3.684  -2.996  1.00  0.00     0.238 A 
ATOM      4  O   UNL     1      -6.782  -2.772  -3.757  1.00  0.00    -0.285 OA
ATOM      5  C   UNL     1      -6.919  -4.987  -3.032  1.00  0.00     0.111 A 
ATOM      6  C   UNL     1      -8.027  -5.373  -3.845  1.00  0.00     0.134 A 
ATOM      7  C   UNL     1      -8.407  -6.719  -3.899  1.00  0.00     0.093 A 
ATOM      8  C   UNL     1      -7.761  -7.683  -3.119  1.00  0.00     0.123 A 
ATOM      9  C   UNL     1      -6.718  -7.304  -2.277  1.00  0.00     0.094 A 
ATOM     10  C   UNL     1      -6.292  -5.974  -2.230  1.00  0.00     0.146 A 
ATOM     11  O   UNL     1      -5.286  -5.659  -1.423  1.00  0.00    -0.452 OA
ENDROOT
BRANCH   1  12
ATOM     12  C   UNL     1      -3.683  -4.206  -0.359  1.00  0.00     0.021 A 
ATOM     13  C   UNL     1      -2.362  -4.489  -0.748  1.00  0.00     0.016 A 
ATOM     14  C   UNL     1      -1.305  -4.304   0.149  1.00  0.00     0.047 A 
ATOM     15  C   UNL     1      -1.555  -3.851   1.448  1.00  0.00     0.115 A 
ATOM     16  C   UNL     1      -3.930  -3.770   0.956  1.00  0.00     0.016 A 
ATOM     17  C   UNL     1      -2.870  -3.588   1.850  1.00  0.00     0.047 A 
BRANCH  15  18
ATOM     18  O   UNL     1      -0.492  -3.672   2.330  1.00  0.00    -0.508 OA
ATOM     19  H   UNL     1      -0.531  -2.984   3.073  1.00  0.00     0.293 HD
ENDBRANCH  15  18
ENDBRANCH   1  12
BRANCH   2  20
ATOM     20  O   UNL     1      -4.722  -2.129  -2.091  1.00  0.00    -0.502 OA
ATOM     21  H   UNL     1      -5.258  -1.286  -2.256  1.00  0.00     0.293 HD
ENDBRANCH   2  20
BRANCH   6  22
ATOM     22  O   UNL     1      -8.798  -4.477  -4.591  1.00  0.00    -0.507 OA
ATOM     23  H   UNL     1      -8.772  -4.393  -5.596  1.00  0.00     0.293 HD
ENDBRANCH   6  22
BRANCH   8  24
ATOM     24  O   UNL     1      -8.156  -9.017  -3.166  1.00  0.00    -0.508 OA
ATOM     25  H   UNL     1      -8.771  -9.363  -3.894  1.00  0.00     0.293 HD
ENDBRANCH   8  24
TORSDOF 5
ENDMDL
MODEL 4
REMARK VINA RESULT:    -4.751     13.215     15.218
REMARK INTER + INTRA:          -5.883
REMARK INTER:                  -5.594
REMARK INTRA:                  -0.289
REMARK UNBOUND:                -0.299
REMARK SMILES O=c1c(O)c(-c2ccc(O)cc2)oc2cc(O)cc(O)c12
REMARK SMILES IDX 5 1 3 2 2 3 1 4 21 5 19 6 18 7 16 8 15 9 14 10 13 11 6 12
REMARK SMILES IDX 7 13 8 14 9 15 12 16 11 17 10 18 4 20 20 22 17 24
REMARK H PARENT 10 19 4 21 20 23 17 25
REMARK Flexibility Score: inf
ROOT
ATOM      1  C   UNL     1       6.640  -3.853  -5.094  1.00  0.00     0.180 A 
ATOM      2  C   UNL     1       5.633  -3.248  -5.865  1.00  0.00     0.208 A 
ATOM      3  C   UNL     1       5.426  -1.863  -5.752  1.00  0.00     0.238 A 
ATOM      4  O   UNL     1       4.487  -1.337  -6.403  1.00  0.00    -0.285 OA
ATOM      5  C   UNL     1       6.241  -1.099  -4.881  1.00  0.00     0.111 A 
ATOM      6  C   UNL     1       6.147   0.315  -4.718  1.00  0.00     0.134 A 
ATOM      7  C   UNL     1       6.914   0.949  -3.734  1.00  0.00     0.093 A 
ATOM      8  C   UNL     1       7.821   0.229  -2.952  1.00  0.00     0.123 A 
ATOM      9  C   UNL     1       7.963  -1.143  -3.145  1.00  0.00     0.094 A 
ATOM     10  C   UNL     1       7.184  -1.809  -4.094  1.00  0.00     0.146 A 
ATOM     11  O   UNL     1       7.343  -3.120  -4.239  1.00  0.00    -0.452 OA
ENDROOT
BRANCH   1  12
ATOM     12  C   UNL     1       6.933  -5.302  -5.178  1.00  0.00     0.021 A 
ATOM     13  C   UNL     1       6.245  -6.196  -4.342  1.00  0.00     0.016 A 
ATOM     14  C   UNL     1       6.522  -7.566  -4.388  1.00  0.00     0.047 A 
ATOM     15  C   UNL     1       7.501  -8.057  -5.258  1.00  0.00     0.115 A 
ATOM     16  C   UNL     1       7.932  -5.799  -6.036  1.00  0.00     0.016 A 
ATOM     17  C   UNL     1       8.207  -7.169  -6.079  1.00  0.00     0.047 A 
BRANCH  15  18
ATOM     18  O   UNL     1       7.766  -9.424  -5.294  1.00  0.00    -0.508 OA
ATOM     19  H   UNL     1       7.076 -10.105  -5.003  1.00  0.00     0.293 HD
ENDBRANCH  15  18
ENDBRANCH   1  12
BRANCH   2  20
ATOM     20  O   UNL     1       4.825  -4.025  -6.701  1.00  0.00    -0.502 OA
ATOM     21  H   UNL     1       5.173  -4.446  -7.554  1.00  0.00     0.293 HD
ENDBRANCH   2  20
BRANCH   6  22
ATOM     22  O   UNL     1       5.342   1.141  -5.509  1.00  0.00    -0.507 OA
ATOM     23  H   UNL     1       5.688   1.844  -6.145  1.00  0.00     0.293 HD
ENDBRANCH   6  22
BRANCH   8  24
ATOM     24  O   UNL     1       8.593   0.870  -1.985  1.00  0.00    -0.508 OA
ATOM     25  H   UNL     1       8.390   1.817  -1.688  1.00  0.00     0.293 HD
ENDBRANCH   8  24
TORSDOF 5
ENDMDL
MODEL 5
REMARK VINA RESULT:    -4.705      2.060      7.360
REMARK INTER + INTRA:          -5.830
REMARK INTER:                  -5.544
REMARK INTRA:                  -0.286
REMARK UNBOUND:                -0.299
REMARK SMILES O=c1c(O)c(-c2ccc(O)cc2)oc2cc(O)cc(O)c12
REMARK SMILES IDX 5 1 3 2 2 3 1 4 21 5 19 6 18 7 16 8 15 9 14 10 13 11 6 12
REMARK SMILES IDX 7 13 8 14 9 15 12 16 11 17 10 18 4 20 20 22 17 24
REMARK H PARENT 10 19 4 21 20 23 17 25
REMARK Flexibility Score: inf
ROOT
ATOM      1  C   UNL     1      -4.382  -4.484  -1.132  1.00  0.00     0.180 A 
ATOM      2  C   UNL     1      -4.338  -3.131  -1.508  1.00  0.00     0.208 A 
ATOM      3  C   UNL     1      -3.096  -2.477  -1.561  1.00  0.00     0.238 A 
ATOM      4  O   UNL     1      -3.069  -1.251  -1.845  1.00  0.00    -0.285 OA
ATOM      5  C   UNL     1      -1.912  -3.190  -1.253  1.00  0.00     0.111 A 
ATOM      6  C   UNL     1      -0.597  -2.640  -1.312  1.00  0.00     0.134 A 
ATOM      7  C   UNL     1       0.490  -3.397  -0.860  1.00  0.00     0.093 A 
ATOM      8  C   UNL     1       0.317  -4.710  -0.412  1.00  0.00     0.123 A 
ATOM      9  C   UNL     1      -0.955  -5.276  -0.407  1.00  0.00     0.094 A 
ATOM     10  C   UNL     1      -2.064  -4.532  -0.817  1.00  0.00     0.146 A 
ATOM     11  O   UNL     1      -3.261  -5.106  -0.786  1.00  0.00    -0.452 OA
ENDROOT
BRANCH   1  12
ATOM     12  C   UNL     1      -5.649  -5.246  -1.078  1.00  0.00     0.021 A 
ATOM     13  C   UNL     1      -6.414  -5.233   0.100  1.00  0.00     0.016 A 
ATOM     14  C   UNL     1      -7.604  -5.965   0.181  1.00  0.00     0.047 A 
ATOM     15  C   UNL     1      -8.035  -6.729  -0.907  1.00  0.00     0.115 A 
ATOM     16  C   UNL     1      -6.078  -6.034  -2.162  1.00  0.00     0.016 A 
ATOM     17  C   UNL     1      -7.267  -6.764  -2.078  1.00  0.00     0.047 A 
BRANCH  15  18
ATOM     18  O   UNL     1      -9.222  -7.452  -0.813  1.00  0.00    -0.508 OA
ATOM     19  H   UNL     1      -9.699  -7.575   0.072  1.00  0.00     0.293 HD
ENDBRANCH  15  18
ENDBRANCH   1  12
BRANCH   2  20
ATOM     20  O   UNL     1      -5.521  -2.440  -1.786  1.00  0.00    -0.502 OA
ATOM     21  H   UNL     1      -5.526  -1.505  -2.175  1.00  0.00     0.293 HD
ENDBRANCH   2  20
BRANCH   6  22
ATOM     22  O   UNL     1      -0.303  -1.373  -1.828  1.00  0.00    -0.507 OA
ATOM     23  H   UNL     1      -0.065  -1.186  -2.791  1.00  0.00     0.293 HD
ENDBRANCH   6  22
BRANCH   8  24
ATOM     24  O   UNL     1       1.406  -5.462   0.021  1.00  0.00    -0.508 OA
ATOM     25  H   UNL     1       1.300  -6.204   0.702  1.00  0.00     0.293 HD
ENDBRANCH   8  24
TORSDOF 5
ENDMDL
MODEL 6
REMARK VINA RESULT:    -4.620      2.198      6.303
REMARK INTER + INTRA:          -5.729
REMARK INTER:                  -5.588
REMARK INTRA:                  -0.141
REMARK UNBOUND:                -0.299
REMARK SMILES O=c1c(O)c(-c2ccc(O)cc2)oc2cc(O)cc(O)c12
REMARK SMILES IDX 5 1 3 2 2 3 1 4 21 5 19 6 18 7 16 8 15 9 14 10 13 11 6 12
REMARK SMILES IDX 7 13 8 14 9 15 12 16 11 17 10 18 4 20 20 22 17 24
REMARK H PARENT 10 19 4 21 20 23 17 25
REMARK Flexibility Score: inf
ROOT
ATOM      1  C   UNL     1      -8.104  -7.463  -3.584  1.00  0.00     0.180 A 
ATOM      2  C   UNL     1      -8.985  -8.028  -2.647  1.00  0.00     0.208 A 
ATOM      3  C   UNL     1      -8.889  -7.640  -1.301  1.00  0.00     0.238 A 
ATOM      4  O   UNL     1      -9.645  -8.190  -0.458  1.00  0.00    -0.285 OA
ATOM      5  C   UNL     1      -7.924  -6.679  -0.912  1.00  0.00     0.111 A 
ATOM      6  C   UNL     1      -7.765  -6.183   0.417  1.00  0.00     0.134 A 
ATOM      7  C   UNL     1      -6.694  -5.333   0.713  1.00  0.00     0.093 A 
ATOM      8  C   UNL     1      -5.813  -4.908  -0.286  1.00  0.00     0.123 A 
ATOM      9  C   UNL     1      -5.996  -5.340  -1.598  1.00  0.00     0.094 A 
ATOM     10  C   UNL     1      -7.035  -6.218  -1.916  1.00  0.00     0.146 A 
ATOM     11  O   UNL     1      -7.166  -6.614  -3.177  1.00  0.00    -0.452 OA
ENDROOT
BRANCH   1  12
ATOM     12  C   UNL     1      -8.159  -7.803  -5.024  1.00  0.00     0.021 A 
ATOM     13  C   UNL     1      -7.801  -9.095  -5.444  1.00  0.00     0.016 A 
ATOM     14  C   UNL     1      -7.825  -9.430  -6.802  1.00  0.00     0.047 A 
ATOM     15  C   UNL     1      -8.192  -8.477  -7.756  1.00  0.00     0.115 A 
ATOM     16  C   UNL     1      -8.508  -6.842  -5.992  1.00  0.00     0.016 A 
ATOM     17  C   UNL     1      -8.530  -7.181  -7.347  1.00  0.00     0.047 A 
BRANCH  15  18
ATOM     18  O   UNL     1      -8.212  -8.826  -9.104  1.00  0.00    -0.508 OA
ATOM     19  H   UNL     1      -8.691  -9.657  -9.430  1.00  0.00     0.293 HD
ENDBRANCH  15  18
ENDBRANCH   1  12
BRANCH   2  20
ATOM     20  O   UNL     1      -9.915  -8.991  -3.049  1.00  0.00    -0.502 OA
ATOM     21  H   UNL     1      -9.997  -9.299  -4.011  1.00  0.00     0.293 HD
ENDBRANCH   2  20
BRANCH   6  22
ATOM     22  O   UNL     1      -8.642  -6.471   1.468  1.00  0.00    -0.507 OA
ATOM     23  H   UNL     1      -8.462  -7.142   2.199  1.00  0.00     0.293 HD
ENDBRANCH   6  22
BRANCH   8  24
ATOM     24  O   UNL     1      -4.759  -4.049   0.014  1.00  0.00    -0.508 OA
ATOM     25  H   UNL     1      -4.022  -4.318   0.654  1.00  0.00     0.293 HD
ENDBRANCH   8  24
TORSDOF 5
ENDMDL
MODEL 7
REMARK VINA RESULT:    -4.602      1.947      6.566
REMARK INTER + INTRA:          -5.709
REMARK INTER:                  -5.408
REMARK INTRA:                  -0.300
REMARK UNBOUND:                -0.299
REMARK SMILES O=c1c(O)c(-c2ccc(O)cc2)oc2cc(O)cc(O)c12
REMARK SMILES IDX 5 1 3 2 2 3 1 4 21 5 19 6 18 7 16 8 15 9 14 10 13 11 6 12
REMARK SMILES IDX 7 13 8 14 9 15 12 16 11 17 10 18 4 20 20 22 17 24
REMARK H PARENT 10 19 4 21 20 23 17 25
REMARK Flexibility Score: inf
ROOT
ATOM      1  C   UNL     1      -5.741  -5.285  -1.190  1.00  0.00     0.180 A 
ATOM      2  C   UNL     1      -6.274  -4.653  -0.054  1.00  0.00     0.208 A 
ATOM      3  C   UNL     1      -5.418  -3.912   0.778  1.00  0.00     0.238 A 
ATOM      4  O   UNL     1      -5.890  -3.394   1.823  1.00  0.00    -0.285 OA
ATOM      5  C   UNL     1      -4.044  -3.800   0.453  1.00  0.00     0.111 A 
ATOM      6  C   UNL     1      -3.095  -3.042   1.202  1.00  0.00     0.134 A 
ATOM      7  C   UNL     1      -1.738  -3.108   0.864  1.00  0.00     0.093 A 
ATOM      8  C   UNL     1      -1.305  -3.852  -0.237  1.00  0.00     0.123 A 
ATOM      9  C   UNL     1      -2.232  -4.547  -1.010  1.00  0.00     0.094 A 
ATOM     10  C   UNL     1      -3.588  -4.530  -0.675  1.00  0.00     0.146 A 
ATOM     11  O   UNL     1      -4.437  -5.216  -1.432  1.00  0.00    -0.452 OA
ENDROOT
BRANCH   1  12
ATOM     12  C   UNL     1      -6.584  -6.062  -2.128  1.00  0.00     0.021 A 
ATOM     13  C   UNL     1      -6.712  -7.451  -1.955  1.00  0.00     0.016 A 
ATOM     14  C   UNL     1      -7.485  -8.207  -2.842  1.00  0.00     0.047 A 
ATOM     15  C   UNL     1      -8.126  -7.589  -3.919  1.00  0.00     0.115 A 
ATOM     16  C   UNL     1      -7.215  -5.450  -3.226  1.00  0.00     0.016 A 
ATOM     17  C   UNL     1      -7.986  -6.209  -4.111  1.00  0.00     0.047 A 
BRANCH  15  18
ATOM     18  O   UNL     1      -8.893  -8.355  -4.795  1.00  0.00    -0.508 OA
ATOM     19  H   UNL     1      -9.594  -9.002  -4.456  1.00  0.00     0.293 HD
ENDBRANCH  15  18
ENDBRANCH   1  12
BRANCH   2  20
ATOM     20  O   UNL     1      -7.628  -4.796   0.260  1.00  0.00    -0.502 OA
ATOM     21  H   UNL     1      -8.155  -5.629   0.025  1.00  0.00     0.293 HD
ENDBRANCH   2  20
BRANCH   6  22
ATOM     22  O   UNL     1      -3.433  -2.195   2.261  1.00  0.00    -0.507 OA
ATOM     23  H   UNL     1      -3.855  -2.496   3.127  1.00  0.00     0.293 HD
ENDBRANCH   6  22
BRANCH   8  24
ATOM     24  O   UNL     1       0.045  -3.899  -0.576  1.00  0.00    -0.508 OA
ATOM     25  H   UNL     1       0.660  -3.109  -0.417  1.00  0.00     0.293 HD
ENDBRANCH   8  24
TORSDOF 5
ENDMDL
MODEL 8
REMARK VINA RESULT:    -4.591      2.774      6.839
REMARK INTER + INTRA:          -5.695
REMARK INTER:                  -5.432
REMARK INTRA:                  -0.263
REMARK UNBOUND:                -0.299
REMARK SMILES O=c1c(O)c(-c2ccc(O)cc2)oc2cc(O)cc(O)c12
REMARK SMILES IDX 5 1 3 2 2 3 1 4 21 5 19 6 18 7 16 8 15 9 14 10 13 11 6 12
REMARK SMILES IDX 7 13 8 14 9 15 12 16 11 17 10 18 4 20 20 22 17 24
REMARK H PARENT 10 19 4 21 20 23 17 25
REMARK Flexibility Score: inf
ROOT
ATOM      1  C   UNL     1      -4.243  -4.496  -0.795  1.00  0.00     0.180 A 
ATOM      2  C   UNL     1      -4.381  -3.844   0.442  1.00  0.00     0.208 A 
ATOM      3  C   UNL     1      -3.248  -3.676   1.255  1.00  0.00     0.238 A 
ATOM      4  O   UNL     1      -3.389  -3.140   2.385  1.00  0.00    -0.285 OA
ATOM      5  C   UNL     1      -1.988  -4.149   0.813  1.00  0.00     0.111 A 
ATOM      6  C   UNL     1      -0.768  -3.997   1.536  1.00  0.00     0.134 A 
ATOM      7  C   UNL     1       0.396  -4.617   1.066  1.00  0.00     0.093 A 
ATOM      8  C   UNL     1       0.397  -5.329  -0.137  1.00  0.00     0.123 A 
ATOM      9  C   UNL     1      -0.777  -5.433  -0.880  1.00  0.00     0.094 A 
ATOM     10  C   UNL     1      -1.962  -4.855  -0.417  1.00  0.00     0.146 A 
ATOM     11  O   UNL     1      -3.061  -4.986  -1.151  1.00  0.00    -0.452 OA
ENDROOT
BRANCH   1  12
ATOM     12  C   UNL     1      -5.385  -4.689  -1.717  1.00  0.00     0.021 A 
ATOM     13  C   UNL     1      -5.970  -5.960  -1.837  1.00  0.00     0.016 A 
ATOM     14  C   UNL     1      -7.036  -6.169  -2.719  1.00  0.00     0.047 A 
ATOM     15  C   UNL     1      -7.518  -5.116  -3.501  1.00  0.00     0.115 A 
ATOM     16  C   UNL     1      -5.862  -3.638  -2.522  1.00  0.00     0.016 A 
ATOM     17  C   UNL     1      -6.926  -3.850  -3.403  1.00  0.00     0.047 A 
BRANCH  15  18
ATOM     18  O   UNL     1      -8.580  -5.338  -4.375  1.00  0.00    -0.508 OA
ATOM     19  H   UNL     1      -9.533  -5.417  -4.041  1.00  0.00     0.293 HD
ENDBRANCH  15  18
ENDBRANCH   1  12
BRANCH   2  20
ATOM     20  O   UNL     1      -5.638  -3.406   0.869  1.00  0.00    -0.502 OA
ATOM     21  H   UNL     1      -5.754  -2.735   1.618  1.00  0.00     0.293 HD
ENDBRANCH   2  20
BRANCH   6  22
ATOM     22  O   UNL     1      -0.639  -3.230   2.699  1.00  0.00    -0.507 OA
ATOM     23  H   UNL     1      -0.219  -3.554   3.558  1.00  0.00     0.293 HD
ENDBRANCH   6  22
BRANCH   8  24
ATOM     24  O   UNL     1       1.562  -5.931  -0.606  1.00  0.00    -0.508 OA
ATOM     25  H   UNL     1       1.625  -6.933  -0.739  1.00  0.00     0.293 HD
ENDBRANCH   8  24
TORSDOF 5
ENDMDL
